MODEL 1
REMARK VINA RESULT:     -12.4      0.000      0.000
REMARK SMILES O=C(NCCCCCCNC(=O)c1cnc2c(C(F)(F)F)cccc2c1Nc1cccc(O)c1)c1ccc(-c2c3nc(c(-c4cccc(S(=O)(=O)[O-])c4F)c4ccc([nH]4)c(-c4cccc(S(=O)(=O)[O-])c4F)c4nc(c(-c5cccc(S(=O)(=O)[O-])c5F)c5ccc2[nH]5)C=C4)C=C3)cc1
REMARK SMILES IDX 6 1 5 2 4 3 3 4 1 5 2 6 35 8 36 9 97 10 37 11 96 12 38 13
REMARK SMILES IDX 39 14 40 15 90 16 41 17 95 18 89 19 91 20 42 21 94 22 88 23
REMARK SMILES IDX 87 24 43 26 75 27 55 28 74 29 56 30 59 31 73 32 92 33 57 34
REMARK SMILES IDX 58 35 72 37 93 38 60 39 44 40 45 41 53 42 46 43 48 44 54 45
REMARK SMILES IDX 47 46 49 47 50 48 51 49 52 50 76 51 77 52 85 53 78 54 80 55
REMARK SMILES IDX 86 56 79 57 81 58 82 59 83 60 84 61 61 62 62 63 70 64 63 65
REMARK SMILES IDX 65 66 71 67 64 68 66 69 67 70 68 71 69 72 7 73 8 74 9 75
REMARK SMILES IDX 10 76 11 77 12 79 13 80 14 81 26 82 15 83 25 84 16 85 24 86
REMARK SMILES IDX 17 87 23 88 22 89 27 90 28 92 29 93 34 94 30 95 32 96 31 97
REMARK SMILES IDX 33 98 18 100 19 101 20 102 21 103
REMARK H PARENT 3 7 91 25 59 36 10 78 27 91 33 99
REMARK Flexibility Score: inf
ROOT
ATOM      1  C   UNL A   1      31.747  28.646  26.565  1.00  0.00     0.002 C 
ENDROOT
BRANCH   1   2
ATOM      2  C   UNL A   1      31.494  30.143  26.390  1.00  0.00     0.021 C 
BRANCH   2   3
ATOM      3  C   UNL A   1      32.735  31.022  26.378  1.00  0.00     0.116 C 
BRANCH   3   4
ATOM      4  N   UNL A   1      32.475  32.384  26.812  1.00  0.00    -0.352 N 
ATOM      5  O   UNL A   1      32.727  34.237  28.071  1.00  0.00    -0.269 OA
ATOM      6  C   UNL A   1      33.169  33.145  27.726  1.00  0.00     0.251 C 
ATOM      7  H   UNL A   1      31.697  32.821  26.397  1.00  0.00     0.163 HD
BRANCH   6   8
ATOM      8  C   UNL A   1      34.428  32.625  28.312  1.00  0.00     0.039 A 
ATOM      9  C   UNL A   1      34.445  31.411  29.000  1.00  0.00     0.014 A 
ATOM     10  C   UNL A   1      35.606  33.367  28.181  1.00  0.00     0.014 A 
ATOM     11  C   UNL A   1      35.588  31.021  29.688  1.00  0.00     0.010 A 
ATOM     12  C   UNL A   1      36.784  32.924  28.795  1.00  0.00     0.010 A 
ATOM     13  C   UNL A   1      36.778  31.765  29.583  1.00  0.00    -0.014 A 
BRANCH  13  14
ATOM     14  C   UNL A   1      38.005  31.244  30.244  1.00  0.00     0.031 A 
ATOM     15  C   UNL A   1      38.374  31.623  31.652  1.00  0.00     0.074 A 
ATOM     16  C   UNL A   1      38.773  30.372  29.558  1.00  0.00     0.049 A 
ATOM     17  N   UNL A   1      39.356  31.168  32.391  1.00  0.00    -0.248 NA
ATOM     18  C   UNL A   1      37.552  32.645  32.317  1.00  0.00     0.031 C 
ATOM     19  C   UNL A   1      38.554  29.982  28.163  1.00  0.00     0.029 A 
ATOM     20  N   UNL A   1      39.875  29.649  29.935  1.00  0.00    -0.354 N 
ATOM     21  C   UNL A   1      39.288  31.863  33.593  1.00  0.00     0.074 A 
ATOM     22  C   UNL A   1      38.175  32.783  33.481  1.00  0.00     0.031 C 
ATOM     23  C   UNL A   1      39.460  29.058  27.817  1.00  0.00     0.029 A 
ATOM     24  C   UNL A   1      40.352  28.821  28.946  1.00  0.00     0.049 A 
ATOM     25  H   UNL A   1      40.285  29.715  30.828  1.00  0.00     0.167 HD
ATOM     26  C   UNL A   1      40.067  31.730  34.694  1.00  0.00     0.034 A 
ATOM     27  C   UNL A   1      41.391  27.964  28.943  1.00  0.00     0.034 A 
ATOM     28  C   UNL A   1      41.151  30.790  34.813  1.00  0.00     0.049 A 
ATOM     29  C   UNL A   1      42.192  27.791  30.199  1.00  0.00     0.074 A 
ATOM     30  C   UNL A   1      41.973  30.556  35.902  1.00  0.00     0.029 A 
ATOM     31  N   UNL A   1      41.566  29.925  33.811  1.00  0.00    -0.354 N 
ATOM     32  N   UNL A   1      42.028  28.368  31.366  1.00  0.00    -0.248 NA
ATOM     33  C   UNL A   1      43.301  26.830  30.151  1.00  0.00     0.031 C 
ATOM     34  C   UNL A   1      42.886  29.552  35.558  1.00  0.00     0.029 A 
ATOM     35  C   UNL A   1      42.628  29.155  34.257  1.00  0.00     0.049 A 
ATOM     36  H   UNL A   1      41.164  29.867  32.914  1.00  0.00     0.167 HD
ATOM     37  C   UNL A   1      43.009  27.837  32.191  1.00  0.00     0.074 A 
ATOM     38  C   UNL A   1      43.731  26.856  31.406  1.00  0.00     0.031 C 
ATOM     39  C   UNL A   1      43.309  28.156  33.475  1.00  0.00     0.034 A 
BRANCH  26  40
ATOM     40  C   UNL A   1      39.740  32.580  35.896  1.00  0.00     0.023 A 
ATOM     41  C   UNL A   1      40.286  33.876  35.989  1.00  0.00     0.012 A 
ATOM     42  C   UNL A   1      38.831  32.141  36.879  1.00  0.00     0.148 A 
ATOM     43  C   UNL A   1      39.948  34.717  37.049  1.00  0.00     0.002 A 
ATOM     44  C   UNL A   1      38.473  32.998  37.916  1.00  0.00     0.091 A 
ATOM     45  F   UNL A   1      38.336  30.899  36.785  1.00  0.00    -0.205 F 
ATOM     46  C   UNL A   1      39.035  34.283  38.005  1.00  0.00     0.022 A 
BRANCH  44  47
ATOM     47  S   UNL A   1      37.251  32.561  39.159  1.00  0.00     0.127 S 
ATOM     48  O   UNL A   1      37.506  33.567  40.190  1.00  0.00    -0.237 OA
ATOM     49  O   UNL A   1      35.993  32.737  38.435  1.00  0.00    -0.237 OA
ATOM     50  O   UNL A   1      37.543  31.187  39.543  1.00  0.00    -0.744 OA
ENDBRANCH  44  47
ENDBRANCH  26  40
BRANCH  27  51
ATOM     51  C   UNL A   1      41.682  27.168  27.718  1.00  0.00     0.023 A 
ATOM     52  C   UNL A   1      42.322  27.780  26.624  1.00  0.00     0.012 A 
ATOM     53  C   UNL A   1      41.385  25.793  27.658  1.00  0.00     0.148 A 
ATOM     54  C   UNL A   1      42.642  27.040  25.485  1.00  0.00     0.002 A 
ATOM     55  C   UNL A   1      41.766  25.049  26.548  1.00  0.00     0.091 A 
ATOM     56  F   UNL A   1      40.753  25.229  28.698  1.00  0.00    -0.205 F 
ATOM     57  C   UNL A   1      42.379  25.673  25.452  1.00  0.00     0.022 A 
BRANCH  55  58
ATOM     58  S   UNL A   1      41.605  23.260  26.524  1.00  0.00     0.127 S 
ATOM     59  O   UNL A   1      42.341  22.906  25.315  1.00  0.00    -0.237 OA
ATOM     60  O   UNL A   1      42.253  22.870  27.777  1.00  0.00    -0.237 OA
ATOM     61  O   UNL A   1      40.169  23.014  26.502  1.00  0.00    -0.744 OA
ENDBRANCH  55  58
ENDBRANCH  27  51
BRANCH  39  62
ATOM     62  C   UNL A   1      44.476  27.441  34.101  1.00  0.00     0.023 A 
ATOM     63  C   UNL A   1      45.779  27.936  33.892  1.00  0.00     0.012 A 
ATOM     64  C   UNL A   1      44.288  26.311  34.919  1.00  0.00     0.148 A 
ATOM     65  C   UNL A   1      46.880  27.295  34.458  1.00  0.00     0.002 A 
ATOM     66  C   UNL A   1      45.387  25.701  35.512  1.00  0.00     0.091 A 
ATOM     67  F   UNL A   1      43.043  25.838  35.085  1.00  0.00    -0.205 F 
ATOM     68  C   UNL A   1      46.684  26.185  35.275  1.00  0.00     0.022 A 
BRANCH  66  69
ATOM     69  S   UNL A   1      45.209  24.314  36.639  1.00  0.00     0.127 S 
ATOM     70  O   UNL A   1      46.562  24.191  37.179  1.00  0.00    -0.237 OA
ATOM     71  O   UNL A   1      44.216  24.807  37.594  1.00  0.00    -0.237 OA
ATOM     72  O   UNL A   1      44.750  23.200  35.820  1.00  0.00    -0.744 OA
ENDBRANCH  66  69
ENDBRANCH  39  62
ENDBRANCH  13  14
ENDBRANCH   6   8
ENDBRANCH   3   4
ENDBRANCH   2   3
ENDBRANCH   1   2
BRANCH   1  73
ATOM     73  C   UNL A   1      33.170  28.244  26.960  1.00  0.00     0.002 C 
BRANCH  73  74
ATOM     74  C   UNL A   1      34.048  27.658  25.850  1.00  0.00     0.021 C 
BRANCH  74  75
ATOM     75  C   UNL A   1      33.611  26.309  25.284  1.00  0.00     0.116 C 
BRANCH  75  76
ATOM     76  N   UNL A   1      33.953  26.122  23.884  1.00  0.00    -0.352 N 
ATOM     77  C   UNL A   1      33.272  26.540  22.764  1.00  0.00     0.254 C 
ATOM     78  H   UNL A   1      34.787  25.628  23.714  1.00  0.00     0.163 HD
ATOM     79  O   UNL A   1      33.768  26.426  21.648  1.00  0.00    -0.269 OA
BRANCH  77  80
ATOM     80  C   UNL A   1      31.973  27.205  22.929  1.00  0.00     0.082 A 
ATOM     81  C   UNL A   1      32.001  28.583  22.797  1.00  0.00     0.127 A 
ATOM     82  C   UNL A   1      30.734  26.570  23.104  1.00  0.00     0.062 A 
ATOM     83  N   UNL A   1      30.919  29.378  22.912  1.00  0.00    -0.255 NA
ATOM     84  C   UNL A   1      29.575  27.405  23.250  1.00  0.00     0.025 A 
ATOM     85  C   UNL A   1      29.730  28.813  23.146  1.00  0.00     0.085 A 
ATOM     86  C   UNL A   1      28.275  26.898  23.502  1.00  0.00     0.012 A 
ATOM     87  C   UNL A   1      28.623  29.646  23.287  1.00  0.00     0.082 A 
ATOM     88  C   UNL A   1      27.172  27.739  23.628  1.00  0.00     0.001 A 
ATOM     89  C   UNL A   1      27.345  29.109  23.520  1.00  0.00     0.015 A 
BRANCH  82  90
ATOM     90  N   UNL A   1      30.557  25.156  23.159  1.00  0.00    -0.354 N 
ATOM     91  H   UNL A   1      30.015  24.787  22.425  1.00  0.00     0.167 HD
BRANCH  90  92
ATOM     92  C   UNL A   1      31.023  24.199  24.077  1.00  0.00     0.042 A 
ATOM     93  C   UNL A   1      31.888  23.169  23.696  1.00  0.00     0.026 A 
ATOM     94  C   UNL A   1      30.537  24.215  25.390  1.00  0.00     0.072 A 
ATOM     95  C   UNL A   1      32.237  22.156  24.596  1.00  0.00     0.006 A 
ATOM     96  C   UNL A   1      30.878  23.198  26.279  1.00  0.00     0.117 A 
ATOM     97  C   UNL A   1      31.721  22.164  25.890  1.00  0.00     0.046 A 
BRANCH  96  98
ATOM     98  O   UNL A   1      30.338  23.242  27.531  1.00  0.00    -0.508 OA
ATOM     99  H   UNL A   1      30.222  24.067  27.962  1.00  0.00     0.293 HD
ENDBRANCH  96  98
ENDBRANCH  90  92
ENDBRANCH  82  90
BRANCH  87 100
ATOM    100  C   UNL A   1      28.811  31.140  23.205  1.00  0.00     0.418 C 
ATOM    101  F   UNL A   1      29.444  31.546  22.070  1.00  0.00    -0.166 F 
ATOM    102  F   UNL A   1      27.648  31.845  23.283  1.00  0.00    -0.166 F 
ATOM    103  F   UNL A   1      29.581  31.623  24.229  1.00  0.00    -0.166 F 
ENDBRANCH  87 100
ENDBRANCH  77  80
ENDBRANCH  75  76
ENDBRANCH  74  75
ENDBRANCH  73  74
ENDBRANCH   1  73
TORSDOF 20
ENDMDL
MODEL 2
REMARK VINA RESULT:     -11.9      5.521     10.813
REMARK SMILES O=C(NCCCCCCNC(=O)c1cnc2c(C(F)(F)F)cccc2c1Nc1cccc(O)c1)c1ccc(-c2c3nc(c(-c4cccc(S(=O)(=O)[O-])c4F)c4ccc([nH]4)c(-c4cccc(S(=O)(=O)[O-])c4F)c4nc(c(-c5cccc(S(=O)(=O)[O-])c5F)c5ccc2[nH]5)C=C4)C=C3)cc1
REMARK SMILES IDX 6 1 5 2 4 3 3 4 1 5 2 6 35 8 36 9 97 10 37 11 96 12 38 13
REMARK SMILES IDX 39 14 40 15 90 16 41 17 95 18 89 19 91 20 42 21 94 22 88 23
REMARK SMILES IDX 87 24 43 26 75 27 55 28 74 29 56 30 59 31 73 32 92 33 57 34
REMARK SMILES IDX 58 35 72 37 93 38 60 39 44 40 45 41 53 42 46 43 48 44 54 45
REMARK SMILES IDX 47 46 49 47 50 48 51 49 52 50 76 51 77 52 85 53 78 54 80 55
REMARK SMILES IDX 86 56 79 57 81 58 82 59 83 60 84 61 61 62 62 63 70 64 63 65
REMARK SMILES IDX 65 66 71 67 64 68 66 69 67 70 68 71 69 72 7 73 8 74 9 75
REMARK SMILES IDX 10 76 11 77 12 79 13 80 14 81 26 82 15 83 25 84 16 85 24 86
REMARK SMILES IDX 17 87 23 88 22 89 27 90 28 92 29 93 34 94 30 95 32 96 31 97
REMARK SMILES IDX 33 98 18 100 19 101 20 102 21 103
REMARK H PARENT 3 7 91 25 59 36 10 78 27 91 33 99
REMARK Flexibility Score: inf
ROOT
ATOM      1  C   UNL A   1      35.702  22.217  24.075  1.00  0.00     0.002 C 
ENDROOT
BRANCH   1   2
ATOM      2  C   UNL A   1      36.965  21.380  24.271  1.00  0.00     0.021 C 
BRANCH   2   3
ATOM      3  C   UNL A   1      37.799  21.726  25.495  1.00  0.00     0.116 C 
BRANCH   3   4
ATOM      4  N   UNL A   1      38.751  20.687  25.850  1.00  0.00    -0.352 N 
ATOM      5  O   UNL A   1      40.723  19.836  26.537  1.00  0.00    -0.269 OA
ATOM      6  C   UNL A   1      39.995  20.819  26.427  1.00  0.00     0.251 C 
ATOM      7  H   UNL A   1      38.468  19.766  25.652  1.00  0.00     0.163 HD
BRANCH   6   8
ATOM      8  C   UNL A   1      40.459  22.152  26.880  1.00  0.00     0.039 A 
ATOM      9  C   UNL A   1      40.129  23.302  26.162  1.00  0.00     0.014 A 
ATOM     10  C   UNL A   1      41.246  22.251  28.032  1.00  0.00     0.014 A 
ATOM     11  C   UNL A   1      40.711  24.519  26.500  1.00  0.00     0.010 A 
ATOM     12  C   UNL A   1      41.754  23.495  28.426  1.00  0.00     0.010 A 
ATOM     13  C   UNL A   1      41.520  24.635  27.645  1.00  0.00    -0.014 A 
BRANCH  13  14
ATOM     14  C   UNL A   1      42.024  25.981  28.027  1.00  0.00     0.031 A 
ATOM     15  C   UNL A   1      43.410  26.445  27.670  1.00  0.00     0.074 A 
ATOM     16  C   UNL A   1      41.183  26.813  28.677  1.00  0.00     0.049 A 
ATOM     17  N   UNL A   1      43.948  27.626  27.848  1.00  0.00    -0.248 NA
ATOM     18  C   UNL A   1      44.312  25.467  27.044  1.00  0.00     0.031 C 
ATOM     19  C   UNL A   1      39.840  26.451  29.137  1.00  0.00     0.029 A 
ATOM     20  N   UNL A   1      41.319  28.125  29.049  1.00  0.00    -0.354 N 
ATOM     21  C   UNL A   1      45.255  27.527  27.384  1.00  0.00     0.074 A 
ATOM     22  C   UNL A   1      45.435  26.165  26.927  1.00  0.00     0.031 C 
ATOM     23  C   UNL A   1      39.258  27.526  29.686  1.00  0.00     0.029 A 
ATOM     24  C   UNL A   1      40.200  28.640  29.660  1.00  0.00     0.049 A 
ATOM     25  H   UNL A   1      42.138  28.648  28.894  1.00  0.00     0.167 HD
ATOM     26  C   UNL A   1      46.207  28.490  27.323  1.00  0.00     0.034 A 
ATOM     27  C   UNL A   1      39.952  29.872  30.145  1.00  0.00     0.034 A 
ATOM     28  C   UNL A   1      46.014  29.852  27.747  1.00  0.00     0.049 A 
ATOM     29  C   UNL A   1      41.003  30.932  30.002  1.00  0.00     0.074 A 
ATOM     30  C   UNL A   1      46.907  30.908  27.690  1.00  0.00     0.029 A 
ATOM     31  N   UNL A   1      44.846  30.352  28.304  1.00  0.00    -0.354 N 
ATOM     32  N   UNL A   1      42.186  30.848  29.443  1.00  0.00    -0.248 NA
ATOM     33  C   UNL A   1      40.677  32.264  30.528  1.00  0.00     0.031 C 
ATOM     34  C   UNL A   1      46.281  32.045  28.214  1.00  0.00     0.029 A 
ATOM     35  C   UNL A   1      44.995  31.699  28.591  1.00  0.00     0.049 A 
ATOM     36  H   UNL A   1      44.031  29.826  28.471  1.00  0.00     0.167 HD
ATOM     37  C   UNL A   1      42.744  32.115  29.545  1.00  0.00     0.074 A 
ATOM     38  C   UNL A   1      41.750  32.960  30.175  1.00  0.00     0.031 C 
ATOM     39  C   UNL A   1      43.981  32.535  29.182  1.00  0.00     0.034 A 
BRANCH  26  40
ATOM     40  C   UNL A   1      47.540  28.126  26.717  1.00  0.00     0.023 A 
ATOM     41  C   UNL A   1      48.639  27.891  27.568  1.00  0.00     0.012 A 
ATOM     42  C   UNL A   1      47.686  27.928  25.330  1.00  0.00     0.148 A 
ATOM     43  C   UNL A   1      49.867  27.483  27.048  1.00  0.00     0.002 A 
ATOM     44  C   UNL A   1      48.904  27.488  24.822  1.00  0.00     0.091 A 
ATOM     45  F   UNL A   1      46.635  28.173  24.534  1.00  0.00    -0.205 F 
ATOM     46  C   UNL A   1      49.997  27.271  25.679  1.00  0.00     0.022 A 
BRANCH  44  47
ATOM     47  S   UNL A   1      49.155  27.117  23.082  1.00  0.00     0.127 S 
ATOM     48  O   UNL A   1      50.601  26.908  23.030  1.00  0.00    -0.237 OA
ATOM     49  O   UNL A   1      48.357  25.903  22.904  1.00  0.00    -0.237 OA
ATOM     50  O   UNL A   1      48.665  28.277  22.350  1.00  0.00    -0.744 OA
ENDBRANCH  44  47
ENDBRANCH  26  40
BRANCH  27  51
ATOM     51  C   UNL A   1      38.625  30.167  30.754  1.00  0.00     0.023 A 
ATOM     52  C   UNL A   1      38.363  29.770  32.079  1.00  0.00     0.012 A 
ATOM     53  C   UNL A   1      37.648  30.896  30.050  1.00  0.00     0.148 A 
ATOM     54  C   UNL A   1      37.142  30.076  32.682  1.00  0.00     0.002 A 
ATOM     55  C   UNL A   1      36.462  31.254  30.679  1.00  0.00     0.091 A 
ATOM     56  F   UNL A   1      37.902  31.247  28.781  1.00  0.00    -0.205 F 
ATOM     57  C   UNL A   1      36.198  30.831  31.989  1.00  0.00     0.022 A 
BRANCH  55  58
ATOM     58  S   UNL A   1      35.288  32.365  29.895  1.00  0.00     0.127 S 
ATOM     59  O   UNL A   1      36.132  33.507  29.558  1.00  0.00    -0.237 OA
ATOM     60  O   UNL A   1      34.829  31.579  28.750  1.00  0.00    -0.237 OA
ATOM     61  O   UNL A   1      34.261  32.596  30.903  1.00  0.00    -0.744 OA
ENDBRANCH  55  58
ENDBRANCH  27  51
BRANCH  39  62
ATOM     62  C   UNL A   1      44.327  33.971  29.470  1.00  0.00     0.023 A 
ATOM     63  C   UNL A   1      44.803  34.321  30.749  1.00  0.00     0.012 A 
ATOM     64  C   UNL A   1      44.218  34.962  28.477  1.00  0.00     0.148 A 
ATOM     65  C   UNL A   1      45.130  35.643  31.047  1.00  0.00     0.002 A 
ATOM     66  C   UNL A   1      44.584  36.271  28.769  1.00  0.00     0.091 A 
ATOM     67  F   UNL A   1      43.738  34.616  27.273  1.00  0.00    -0.205 F 
ATOM     68  C   UNL A   1      45.030  36.615  30.055  1.00  0.00     0.022 A 
BRANCH  66  69
ATOM     69  S   UNL A   1      44.557  37.565  27.523  1.00  0.00     0.127 S 
ATOM     70  O   UNL A   1      45.585  37.106  26.592  1.00  0.00    -0.237 OA
ATOM     71  O   UNL A   1      43.189  37.481  27.009  1.00  0.00    -0.237 OA
ATOM     72  O   UNL A   1      44.853  38.801  28.235  1.00  0.00    -0.744 OA
ENDBRANCH  66  69
ENDBRANCH  39  62
ENDBRANCH  13  14
ENDBRANCH   6   8
ENDBRANCH   3   4
ENDBRANCH   2   3
ENDBRANCH   1   2
BRANCH   1  73
ATOM     73  C   UNL A   1      35.877  23.735  24.172  1.00  0.00     0.002 C 
BRANCH  73  74
ATOM     74  C   UNL A   1      34.977  24.463  25.175  1.00  0.00     0.021 C 
BRANCH  74  75
ATOM     75  C   UNL A   1      34.710  23.741  26.493  1.00  0.00     0.116 C 
BRANCH  75  76
ATOM     76  N   UNL A   1      33.330  23.828  26.940  1.00  0.00    -0.352 N 
ATOM     77  C   UNL A   1      32.283  22.971  26.689  1.00  0.00     0.254 C 
ATOM     78  H   UNL A   1      33.114  24.608  27.500  1.00  0.00     0.163 HD
ATOM     79  O   UNL A   1      31.207  23.109  27.260  1.00  0.00    -0.269 OA
BRANCH  77  80
ATOM     80  C   UNL A   1      32.500  21.831  25.788  1.00  0.00     0.082 A 
ATOM     81  C   UNL A   1      33.197  20.772  26.343  1.00  0.00     0.127 A 
ATOM     82  C   UNL A   1      31.985  21.694  24.490  1.00  0.00     0.062 A 
ATOM     83  N   UNL A   1      33.498  19.635  25.685  1.00  0.00    -0.255 NA
ATOM     84  C   UNL A   1      32.315  20.496  23.768  1.00  0.00     0.025 A 
ATOM     85  C   UNL A   1      33.083  19.495  24.422  1.00  0.00     0.085 A 
ATOM     86  C   UNL A   1      31.922  20.260  22.427  1.00  0.00     0.012 A 
ATOM     87  C   UNL A   1      33.421  18.326  23.744  1.00  0.00     0.082 A 
ATOM     88  C   UNL A   1      32.253  19.081  21.762  1.00  0.00     0.001 A 
ATOM     89  C   UNL A   1      33.000  18.117  22.419  1.00  0.00     0.015 A 
BRANCH  82  90
ATOM     90  N   UNL A   1      31.171  22.667  23.841  1.00  0.00    -0.354 N 
ATOM     91  H   UNL A   1      30.285  22.338  23.567  1.00  0.00     0.167 HD
BRANCH  90  92
ATOM     92  C   UNL A   1      31.413  24.016  23.525  1.00  0.00     0.042 A 
ATOM     93  C   UNL A   1      30.607  25.047  24.017  1.00  0.00     0.026 A 
ATOM     94  C   UNL A   1      32.430  24.336  22.617  1.00  0.00     0.072 A 
ATOM     95  C   UNL A   1      30.789  26.366  23.589  1.00  0.00     0.006 A 
ATOM     96  C   UNL A   1      32.600  25.649  22.186  1.00  0.00     0.117 A 
ATOM     97  C   UNL A   1      31.783  26.668  22.661  1.00  0.00     0.046 A 
BRANCH  96  98
ATOM     98  O   UNL A   1      33.579  25.893  21.267  1.00  0.00    -0.508 OA
ATOM     99  H   UNL A   1      33.779  26.775  21.019  1.00  0.00     0.293 HD
ENDBRANCH  96  98
ENDBRANCH  90  92
ENDBRANCH  82  90
BRANCH  87 100
ATOM    100  C   UNL A   1      34.262  17.288  24.442  1.00  0.00     0.418 C 
ATOM    101  F   UNL A   1      34.382  16.126  23.743  1.00  0.00    -0.166 F 
ATOM    102  F   UNL A   1      35.524  17.708  24.733  1.00  0.00    -0.166 F 
ATOM    103  F   UNL A   1      33.732  16.918  25.650  1.00  0.00    -0.166 F 
ENDBRANCH  87 100
ENDBRANCH  77  80
ENDBRANCH  75  76
ENDBRANCH  74  75
ENDBRANCH  73  74
ENDBRANCH   1  73
TORSDOF 20
ENDMDL
MODEL 3
REMARK VINA RESULT:     -11.8      5.346     10.152
REMARK SMILES O=C(NCCCCCCNC(=O)c1cnc2c(C(F)(F)F)cccc2c1Nc1cccc(O)c1)c1ccc(-c2c3nc(c(-c4cccc(S(=O)(=O)[O-])c4F)c4ccc([nH]4)c(-c4cccc(S(=O)(=O)[O-])c4F)c4nc(c(-c5cccc(S(=O)(=O)[O-])c5F)c5ccc2[nH]5)C=C4)C=C3)cc1
REMARK SMILES IDX 6 1 5 2 4 3 3 4 1 5 2 6 35 8 36 9 97 10 37 11 96 12 38 13
REMARK SMILES IDX 39 14 40 15 90 16 41 17 95 18 89 19 91 20 42 21 94 22 88 23
REMARK SMILES IDX 87 24 43 26 75 27 55 28 74 29 56 30 59 31 73 32 92 33 57 34
REMARK SMILES IDX 58 35 72 37 93 38 60 39 44 40 45 41 53 42 46 43 48 44 54 45
REMARK SMILES IDX 47 46 49 47 50 48 51 49 52 50 76 51 77 52 85 53 78 54 80 55
REMARK SMILES IDX 86 56 79 57 81 58 82 59 83 60 84 61 61 62 62 63 70 64 63 65
REMARK SMILES IDX 65 66 71 67 64 68 66 69 67 70 68 71 69 72 7 73 8 74 9 75
REMARK SMILES IDX 10 76 11 77 12 79 13 80 14 81 26 82 15 83 25 84 16 85 24 86
REMARK SMILES IDX 17 87 23 88 22 89 27 90 28 92 29 93 34 94 30 95 32 96 31 97
REMARK SMILES IDX 33 98 18 100 19 101 20 102 21 103
REMARK H PARENT 3 7 91 25 59 36 10 78 27 91 33 99
REMARK Flexibility Score: inf
ROOT
ATOM      1  C   UNL A   1      35.090  24.250  24.176  1.00  0.00     0.002 C 
ENDROOT
BRANCH   1   2
ATOM      2  C   UNL A   1      35.770  22.884  24.256  1.00  0.00     0.021 C 
BRANCH   2   3
ATOM      3  C   UNL A   1      36.329  22.508  25.620  1.00  0.00     0.116 C 
BRANCH   3   4
ATOM      4  N   UNL A   1      37.235  21.373  25.573  1.00  0.00    -0.352 N 
ATOM      5  O   UNL A   1      39.222  20.309  25.642  1.00  0.00    -0.269 OA
ATOM      6  C   UNL A   1      38.581  21.332  25.865  1.00  0.00     0.251 C 
ATOM      7  H   UNL A   1      36.834  20.519  25.295  1.00  0.00     0.163 HD
BRANCH   6   8
ATOM      8  C   UNL A   1      39.252  22.535  26.414  1.00  0.00     0.039 A 
ATOM      9  C   UNL A   1      38.929  23.808  25.943  1.00  0.00     0.014 A 
ATOM     10  C   UNL A   1      40.227  22.385  27.405  1.00  0.00     0.014 A 
ATOM     11  C   UNL A   1      39.684  24.905  26.342  1.00  0.00     0.010 A 
ATOM     12  C   UNL A   1      40.922  23.506  27.877  1.00  0.00     0.010 A 
ATOM     13  C   UNL A   1      40.681  24.772  27.325  1.00  0.00    -0.014 A 
BRANCH  13  14
ATOM     14  C   UNL A   1      41.381  25.996  27.800  1.00  0.00     0.031 A 
ATOM     15  C   UNL A   1      42.813  26.284  27.444  1.00  0.00     0.074 A 
ATOM     16  C   UNL A   1      40.679  26.882  28.537  1.00  0.00     0.049 A 
ATOM     17  N   UNL A   1      43.520  27.357  27.701  1.00  0.00    -0.248 NA
ATOM     18  C   UNL A   1      43.555  25.242  26.718  1.00  0.00     0.031 C 
ATOM     19  C   UNL A   1      39.305  26.680  29.003  1.00  0.00     0.029 A 
ATOM     20  N   UNL A   1      41.009  28.126  29.009  1.00  0.00    -0.354 N 
ATOM     21  C   UNL A   1      44.792  27.111  27.195  1.00  0.00     0.074 A 
ATOM     22  C   UNL A   1      44.765  25.780  26.627  1.00  0.00     0.031 C 
ATOM     23  C   UNL A   1      38.894  27.778  29.651  1.00  0.00     0.029 A 
ATOM     24  C   UNL A   1      39.986  28.744  29.688  1.00  0.00     0.049 A 
ATOM     25  H   UNL A   1      41.893  28.538  28.874  1.00  0.00     0.167 HD
ATOM     26  C   UNL A   1      45.873  27.929  27.187  1.00  0.00     0.034 A 
ATOM     27  C   UNL A   1      39.926  29.954  30.277  1.00  0.00     0.034 A 
ATOM     28  C   UNL A   1      45.885  29.265  27.723  1.00  0.00     0.049 A 
ATOM     29  C   UNL A   1      41.118  30.861  30.191  1.00  0.00     0.074 A 
ATOM     30  C   UNL A   1      46.921  30.183  27.726  1.00  0.00     0.029 A 
ATOM     31  N   UNL A   1      44.810  29.879  28.349  1.00  0.00    -0.354 N 
ATOM     32  N   UNL A   1      42.268  30.654  29.596  1.00  0.00    -0.248 NA
ATOM     33  C   UNL A   1      40.996  32.177  30.831  1.00  0.00     0.031 C 
ATOM     34  C   UNL A   1      46.475  31.350  28.357  1.00  0.00     0.029 A 
ATOM     35  C   UNL A   1      45.158  31.162  28.740  1.00  0.00     0.049 A 
ATOM     36  H   UNL A   1      43.931  29.464  28.495  1.00  0.00     0.167 HD
ATOM     37  C   UNL A   1      43.005  31.816  29.784  1.00  0.00     0.074 A 
ATOM     38  C   UNL A   1      42.154  32.740  30.506  1.00  0.00     0.031 C 
ATOM     39  C   UNL A   1      44.285  32.083  29.422  1.00  0.00     0.034 A 
BRANCH  26  40
ATOM     40  C   UNL A   1      47.129  27.430  26.518  1.00  0.00     0.023 A 
ATOM     41  C   UNL A   1      47.383  27.790  25.179  1.00  0.00     0.012 A 
ATOM     42  C   UNL A   1      48.094  26.689  27.229  1.00  0.00     0.148 A 
ATOM     43  C   UNL A   1      48.568  27.406  24.551  1.00  0.00     0.002 A 
ATOM     44  C   UNL A   1      49.289  26.340  26.607  1.00  0.00     0.091 A 
ATOM     45  F   UNL A   1      47.828  26.340  28.495  1.00  0.00    -0.205 F 
ATOM     46  C   UNL A   1      49.524  26.693  25.267  1.00  0.00     0.022 A 
BRANCH  44  47
ATOM     47  S   UNL A   1      50.615  25.481  27.462  1.00  0.00     0.127 S 
ATOM     48  O   UNL A   1      49.962  24.227  27.835  1.00  0.00    -0.237 OA
ATOM     49  O   UNL A   1      51.628  25.352  26.415  1.00  0.00    -0.237 OA
ATOM     50  O   UNL A   1      50.998  26.340  28.574  1.00  0.00    -0.744 OA
ENDBRANCH  44  47
ENDBRANCH  26  40
BRANCH  27  51
ATOM     51  C   UNL A   1      38.666  30.385  30.944  1.00  0.00     0.023 A 
ATOM     52  C   UNL A   1      38.512  30.197  32.330  1.00  0.00     0.012 A 
ATOM     53  C   UNL A   1      37.649  31.037  30.222  1.00  0.00     0.148 A 
ATOM     54  C   UNL A   1      37.356  30.633  32.980  1.00  0.00     0.002 A 
ATOM     55  C   UNL A   1      36.531  31.528  30.887  1.00  0.00     0.091 A 
ATOM     56  F   UNL A   1      37.799  31.187  28.898  1.00  0.00    -0.205 F 
ATOM     57  C   UNL A   1      36.374  31.312  32.263  1.00  0.00     0.022 A 
BRANCH  55  58
ATOM     58  S   UNL A   1      35.321  32.554  30.046  1.00  0.00     0.127 S 
ATOM     59  O   UNL A   1      36.139  33.672  29.587  1.00  0.00    -0.237 OA
ATOM     60  O   UNL A   1      34.839  31.667  28.986  1.00  0.00    -0.237 OA
ATOM     61  O   UNL A   1      34.320  32.859  31.060  1.00  0.00    -0.744 OA
ENDBRANCH  55  58
ENDBRANCH  27  51
BRANCH  39  62
ATOM     62  C   UNL A   1      44.839  33.426  29.815  1.00  0.00     0.023 A 
ATOM     63  C   UNL A   1      45.513  33.559  31.045  1.00  0.00     0.012 A 
ATOM     64  C   UNL A   1      44.728  34.540  28.962  1.00  0.00     0.148 A 
ATOM     65  C   UNL A   1      46.037  34.790  31.437  1.00  0.00     0.002 A 
ATOM     66  C   UNL A   1      45.288  35.754  29.342  1.00  0.00     0.091 A 
ATOM     67  F   UNL A   1      44.061  34.401  27.806  1.00  0.00    -0.205 F 
ATOM     68  C   UNL A   1      45.933  35.884  30.582  1.00  0.00     0.022 A 
BRANCH  66  69
ATOM     69  S   UNL A   1      45.263  37.190  28.261  1.00  0.00     0.127 S 
ATOM     70  O   UNL A   1      43.832  37.463  28.159  1.00  0.00    -0.237 OA
ATOM     71  O   UNL A   1      46.018  38.179  29.032  1.00  0.00    -0.237 OA
ATOM     72  O   UNL A   1      45.917  36.765  27.031  1.00  0.00    -0.744 OA
ENDBRANCH  66  69
ENDBRANCH  39  62
ENDBRANCH  13  14
ENDBRANCH   6   8
ENDBRANCH   3   4
ENDBRANCH   2   3
ENDBRANCH   1   2
BRANCH   1  73
ATOM     73  C   UNL A   1      34.392  24.580  22.855  1.00  0.00     0.002 C 
BRANCH  73  74
ATOM     74  C   UNL A   1      33.414  25.758  22.874  1.00  0.00     0.021 C 
BRANCH  74  75
ATOM     75  C   UNL A   1      32.316  25.744  21.814  1.00  0.00     0.116 C 
BRANCH  75  76
ATOM     76  N   UNL A   1      30.991  26.033  22.337  1.00  0.00    -0.352 N 
ATOM     77  C   UNL A   1      30.364  25.508  23.444  1.00  0.00     0.254 C 
ATOM     78  H   UNL A   1      30.471  26.696  21.829  1.00  0.00     0.163 HD
ATOM     79  O   UNL A   1      29.295  25.964  23.835  1.00  0.00    -0.269 OA
BRANCH  77  80
ATOM     80  C   UNL A   1      31.037  24.448  24.205  1.00  0.00     0.082 A 
ATOM     81  C   UNL A   1      31.202  23.254  23.524  1.00  0.00     0.127 A 
ATOM     82  C   UNL A   1      31.596  24.576  25.486  1.00  0.00     0.062 A 
ATOM     83  N   UNL A   1      31.794  22.161  24.042  1.00  0.00    -0.255 NA
ATOM     84  C   UNL A   1      32.212  23.413  26.060  1.00  0.00     0.025 A 
ATOM     85  C   UNL A   1      32.280  22.223  25.287  1.00  0.00     0.085 A 
ATOM     86  C   UNL A   1      32.752  23.383  27.371  1.00  0.00     0.012 A 
ATOM     87  C   UNL A   1      32.868  21.079  25.821  1.00  0.00     0.082 A 
ATOM     88  C   UNL A   1      33.351  22.238  27.891  1.00  0.00     0.001 A 
ATOM     89  C   UNL A   1      33.409  21.090  27.119  1.00  0.00     0.015 A 
BRANCH  82  90
ATOM     90  N   UNL A   1      31.581  25.778  26.252  1.00  0.00    -0.354 N 
ATOM     91  H   UNL A   1      31.027  25.733  27.065  1.00  0.00     0.167 HD
BRANCH  90  92
ATOM     92  C   UNL A   1      32.219  27.014  26.050  1.00  0.00     0.042 A 
ATOM     93  C   UNL A   1      33.567  27.210  26.365  1.00  0.00     0.026 A 
ATOM     94  C   UNL A   1      31.467  28.110  25.611  1.00  0.00     0.072 A 
ATOM     95  C   UNL A   1      34.146  28.480  26.275  1.00  0.00     0.006 A 
ATOM     96  C   UNL A   1      32.045  29.375  25.533  1.00  0.00     0.117 A 
ATOM     97  C   UNL A   1      33.380  29.570  25.867  1.00  0.00     0.046 A 
BRANCH  96  98
ATOM     98  O   UNL A   1      31.252  30.413  25.141  1.00  0.00    -0.508 OA
ATOM     99  H   UNL A   1      30.471  30.246  24.650  1.00  0.00     0.293 HD
ENDBRANCH  96  98
ENDBRANCH  90  92
ENDBRANCH  82  90
BRANCH  87 100
ATOM    100  C   UNL A   1      32.904  19.817  24.997  1.00  0.00     0.418 C 
ATOM    101  F   UNL A   1      34.023  19.701  24.230  1.00  0.00    -0.166 F 
ATOM    102  F   UNL A   1      32.810  18.677  25.736  1.00  0.00    -0.166 F 
ATOM    103  F   UNL A   1      31.861  19.746  24.112  1.00  0.00    -0.166 F 
ENDBRANCH  87 100
ENDBRANCH  77  80
ENDBRANCH  75  76
ENDBRANCH  74  75
ENDBRANCH  73  74
ENDBRANCH   1  73
TORSDOF 20
ENDMDL
