MODEL 1
REMARK VINA RESULT:     -10.3      0.000      0.000
REMARK SMILES CC[C@@H](C)[C@@H]([NH3+])C(=O)N1CCC(CC(=O)NCCCCCCNC(=O)c2ccc(-c3c4nc(c(-c5cccc(S(=O)(=O)[O-])c5F)c5ccc([nH]5)c(-c5cccc(S(=O)(=O)[O-])c5F)c5nc(c(-c6cccc(S(=O)(=O)[O-])c6F)c6ccc3[nH]6)C=C5)C=C4)cc2)CC1
REMARK SMILES IDX 19 1 18 2 17 3 16 4 14 5 15 6 13 8 12 9 7 10 8 11 9 12 10 13
REMARK SMILES IDX 90 14 11 15 89 16 5 17 3 18 4 19 2 20 1 21 6 22 20 26 21 27
REMARK SMILES IDX 22 28 23 29 24 30 25 32 26 33 27 34 88 35 28 36 87 37 29 38
REMARK SMILES IDX 30 39 31 40 81 41 32 42 86 43 80 44 82 45 33 46 85 47 79 48
REMARK SMILES IDX 78 49 34 51 66 52 46 53 65 54 47 55 50 56 64 57 83 58 48 59
REMARK SMILES IDX 49 60 63 62 84 63 51 64 35 65 36 66 44 67 37 68 39 69 45 70
REMARK SMILES IDX 38 71 40 72 41 73 42 74 43 75 67 76 68 77 76 78 69 79 71 80
REMARK SMILES IDX 77 81 70 82 72 83 73 84 74 85 75 86 52 87 53 88 61 89 54 90
REMARK SMILES IDX 56 91 62 92 55 93 57 94 58 95 59 96 60 97
REMARK H PARENT 16 7 6 23 6 24 6 25 23 31 82 50 50 61
REMARK Flexibility Score: inf
ROOT
ATOM      1  C   UNL A   1      32.969  30.659  27.240  1.00  0.00     0.002 C 
ENDROOT
BRANCH   1   2
ATOM      2  C   UNL A   1      33.262  29.392  26.440  1.00  0.00     0.021 C 
BRANCH   2   3
ATOM      3  C   UNL A   1      32.856  29.458  24.963  1.00  0.00     0.116 C 
BRANCH   3   4
ATOM      4  N   UNL A   1      31.723  28.584  24.702  1.00  0.00    -0.356 N 
ATOM      5  C   UNL A   1      31.443  27.798  23.624  1.00  0.00     0.220 C 
ATOM      6  O   UNL A   1      30.351  27.226  23.582  1.00  0.00    -0.275 OA
ATOM      7  H   UNL A   1      31.049  28.555  25.419  1.00  0.00     0.163 HD
BRANCH   5   8
ATOM      8  C   UNL A   1      32.455  27.619  22.505  1.00  0.00     0.103 C 
BRANCH   8   9
ATOM      9  C   UNL A   1      33.373  26.393  22.675  1.00  0.00     0.002 C 
ATOM     10  C   UNL A   1      32.927  22.976  24.755  1.00  0.00     0.281 C 
ATOM     11  O   UNL A   1      32.504  23.477  25.805  1.00  0.00    -0.268 OA
ATOM     12  N   UNL A   1      33.664  23.744  23.861  1.00  0.00    -0.338 N 
ATOM     13  C   UNL A   1      34.438  24.842  24.401  1.00  0.00     0.120 C 
ATOM     14  C   UNL A   1      33.425  23.844  22.429  1.00  0.00     0.120 C 
ATOM     15  C   UNL A   1      33.741  26.164  24.145  1.00  0.00     0.026 C 
ATOM     16  C   UNL A   1      32.685  25.144  22.095  1.00  0.00     0.026 C 
BRANCH  10  17
ATOM     17  C   UNL A   1      32.908  21.419  24.599  1.00  0.00     0.273 C 
BRANCH  17  18
ATOM     18  C   UNL A   1      34.264  20.685  24.634  1.00  0.00     0.054 C 
ATOM     19  C   UNL A   1      34.024  19.166  24.679  1.00  0.00     0.014 C 
BRANCH  18  20
ATOM     20  C   UNL A   1      35.173  21.116  25.807  1.00  0.00     0.006 C 
ATOM     21  C   UNL A   1      36.444  21.811  25.324  1.00  0.00     0.004 C 
ENDBRANCH  18  20
ENDBRANCH  17  18
BRANCH  17  22
ATOM     22  N   UNL A   1      31.967  20.903  25.627  1.00  0.00    -0.347 N 
ATOM     23  H   UNL A   1      31.231  20.361  25.174  1.00  0.00     0.345 HD
ATOM     24  H   UNL A   1      31.550  21.687  26.130  1.00  0.00     0.345 HD
ATOM     25  H   UNL A   1      32.473  20.309  26.284  1.00  0.00     0.345 HD
ENDBRANCH  17  22
ENDBRANCH  10  17
ENDBRANCH   8   9
ENDBRANCH   5   8
ENDBRANCH   3   4
ENDBRANCH   2   3
ENDBRANCH   1   2
BRANCH   1  26
ATOM     26  C   UNL A   1      31.654  31.354  26.888  1.00  0.00     0.002 C 
BRANCH  26  27
ATOM     27  C   UNL A   1      31.731  32.877  26.736  1.00  0.00     0.021 C 
BRANCH  27  28
ATOM     28  C   UNL A   1      32.988  33.529  27.309  1.00  0.00     0.116 C 
BRANCH  28  29
ATOM     29  N   UNL A   1      32.675  34.677  28.147  1.00  0.00    -0.352 N 
ATOM     30  C   UNL A   1      33.138  34.999  29.398  1.00  0.00     0.251 C 
ATOM     31  H   UNL A   1      32.037  35.318  27.758  1.00  0.00     0.163 HD
ATOM     32  O   UNL A   1      32.596  35.894  30.040  1.00  0.00    -0.269 OA
BRANCH  30  33
ATOM     33  C   UNL A   1      34.283  34.263  29.973  1.00  0.00     0.039 A 
ATOM     34  C   UNL A   1      35.568  34.525  29.492  1.00  0.00     0.014 A 
ATOM     35  C   UNL A   1      34.085  33.300  30.967  1.00  0.00     0.014 A 
ATOM     36  C   UNL A   1      36.663  33.855  30.044  1.00  0.00     0.010 A 
ATOM     37  C   UNL A   1      35.183  32.684  31.561  1.00  0.00     0.010 A 
ATOM     38  C   UNL A   1      36.481  32.947  31.100  1.00  0.00    -0.014 A 
BRANCH  38  39
ATOM     39  C   UNL A   1      37.636  32.266  31.738  1.00  0.00     0.031 A 
ATOM     40  C   UNL A   1      38.199  32.778  33.034  1.00  0.00     0.074 A 
ATOM     41  C   UNL A   1      38.240  31.246  31.097  1.00  0.00     0.049 A 
ATOM     42  N   UNL A   1      39.233  32.348  33.711  1.00  0.00    -0.248 NA
ATOM     43  C   UNL A   1      37.535  33.947  33.632  1.00  0.00     0.031 C 
ATOM     44  C   UNL A   1      37.847  30.721  29.789  1.00  0.00     0.029 A 
ATOM     45  N   UNL A   1      39.333  30.493  31.444  1.00  0.00    -0.354 N 
ATOM     46  C   UNL A   1      39.366  33.212  34.791  1.00  0.00     0.074 A 
ATOM     47  C   UNL A   1      38.329  34.214  34.658  1.00  0.00     0.031 C 
ATOM     48  C   UNL A   1      38.690  29.737  29.439  1.00  0.00     0.029 A 
ATOM     49  C   UNL A   1      39.695  29.575  30.486  1.00  0.00     0.049 A 
ATOM     50  H   UNL A   1      39.814  30.599  32.297  1.00  0.00     0.167 HD
ATOM     51  C   UNL A   1      40.250  33.162  35.816  1.00  0.00     0.034 A 
ATOM     52  C   UNL A   1      40.723  28.705  30.450  1.00  0.00     0.034 A 
ATOM     53  C   UNL A   1      41.250  32.141  35.966  1.00  0.00     0.049 A 
ATOM     54  C   UNL A   1      41.652  28.622  31.629  1.00  0.00     0.074 A 
ATOM     55  C   UNL A   1      42.122  31.936  37.020  1.00  0.00     0.029 A 
ATOM     56  N   UNL A   1      41.520  31.155  35.027  1.00  0.00    -0.354 N 
ATOM     57  N   UNL A   1      41.651  29.332  32.732  1.00  0.00    -0.248 NA
ATOM     58  C   UNL A   1      42.699  27.591  31.581  1.00  0.00     0.031 C 
ATOM     59  C   UNL A   1      42.933  30.838  36.709  1.00  0.00     0.029 A 
ATOM     60  C   UNL A   1      42.552  30.345  35.470  1.00  0.00     0.049 A 
ATOM     61  H   UNL A   1      41.046  31.047  34.171  1.00  0.00     0.167 HD
ATOM     62  C   UNL A   1      42.675  28.819  33.519  1.00  0.00     0.074 A 
ATOM     63  C   UNL A   1      43.261  27.721  32.776  1.00  0.00     0.031 C 
ATOM     64  C   UNL A   1      43.100  29.229  34.740  1.00  0.00     0.034 A 
BRANCH  51  65
ATOM     65  C   UNL A   1      40.131  34.218  36.885  1.00  0.00     0.023 A 
ATOM     66  C   UNL A   1      40.565  35.533  36.613  1.00  0.00     0.012 A 
ATOM     67  C   UNL A   1      39.571  33.925  38.143  1.00  0.00     0.148 A 
ATOM     68  C   UNL A   1      40.490  36.525  37.590  1.00  0.00     0.002 A 
ATOM     69  C   UNL A   1      39.457  34.931  39.098  1.00  0.00     0.091 A 
ATOM     70  F   UNL A   1      39.183  32.667  38.397  1.00  0.00    -0.205 F 
ATOM     71  C   UNL A   1      39.928  36.227  38.827  1.00  0.00     0.022 A 
BRANCH  69  72
ATOM     72  S   UNL A   1      38.675  34.658  40.691  1.00  0.00     0.127 S 
ATOM     73  O   UNL A   1      38.291  36.017  41.070  1.00  0.00    -0.237 OA
ATOM     74  O   UNL A   1      37.553  33.784  40.344  1.00  0.00    -0.237 OA
ATOM     75  O   UNL A   1      39.689  34.030  41.528  1.00  0.00    -0.744 OA
ENDBRANCH  69  72
ENDBRANCH  51  65
BRANCH  52  76
ATOM     76  C   UNL A   1      40.866  27.793  29.281  1.00  0.00     0.023 A 
ATOM     77  C   UNL A   1      40.081  26.626  29.216  1.00  0.00     0.012 A 
ATOM     78  C   UNL A   1      41.714  28.115  28.203  1.00  0.00     0.148 A 
ATOM     79  C   UNL A   1      40.151  25.785  28.105  1.00  0.00     0.002 A 
ATOM     80  C   UNL A   1      41.738  27.302  27.077  1.00  0.00     0.091 A 
ATOM     81  F   UNL A   1      42.455  29.228  28.290  1.00  0.00    -0.205 F 
ATOM     82  C   UNL A   1      40.968  26.128  27.032  1.00  0.00     0.022 A 
BRANCH  80  83
ATOM     83  S   UNL A   1      42.654  27.730  25.591  1.00  0.00     0.127 S 
ATOM     84  O   UNL A   1      44.017  27.841  26.101  1.00  0.00    -0.237 OA
ATOM     85  O   UNL A   1      42.406  26.567  24.741  1.00  0.00    -0.237 OA
ATOM     86  O   UNL A   1      42.061  28.970  25.105  1.00  0.00    -0.744 OA
ENDBRANCH  80  83
ENDBRANCH  52  76
BRANCH  64  87
ATOM     87  C   UNL A   1      44.248  28.482  35.368  1.00  0.00     0.023 A 
ATOM     88  C   UNL A   1      45.570  28.802  35.005  1.00  0.00     0.012 A 
ATOM     89  C   UNL A   1      44.019  27.519  36.372  1.00  0.00     0.148 A 
ATOM     90  C   UNL A   1      46.648  28.157  35.611  1.00  0.00     0.002 A 
ATOM     91  C   UNL A   1      45.099  26.915  37.004  1.00  0.00     0.091 A 
ATOM     92  F   UNL A   1      42.753  27.213  36.689  1.00  0.00    -0.205 F 
ATOM     93  C   UNL A   1      46.413  27.224  36.618  1.00  0.00     0.022 A 
BRANCH  91  94
ATOM     94  S   UNL A   1      44.893  25.772  38.375  1.00  0.00     0.127 S 
ATOM     95  O   UNL A   1      44.288  24.618  37.713  1.00  0.00    -0.237 OA
ATOM     96  O   UNL A   1      46.271  25.567  38.822  1.00  0.00    -0.237 OA
ATOM     97  O   UNL A   1      44.044  26.456  39.341  1.00  0.00    -0.744 OA
ENDBRANCH  91  94
ENDBRANCH  64  87
ENDBRANCH  38  39
ENDBRANCH  30  33
ENDBRANCH  28  29
ENDBRANCH  27  28
ENDBRANCH  26  27
ENDBRANCH   1  26
TORSDOF 21
ENDMDL
MODEL 2
REMARK VINA RESULT:     -10.3      0.857      7.803
REMARK SMILES CC[C@@H](C)[C@@H]([NH3+])C(=O)N1CCC(CC(=O)NCCCCCCNC(=O)c2ccc(-c3c4nc(c(-c5cccc(S(=O)(=O)[O-])c5F)c5ccc([nH]5)c(-c5cccc(S(=O)(=O)[O-])c5F)c5nc(c(-c6cccc(S(=O)(=O)[O-])c6F)c6ccc3[nH]6)C=C5)C=C4)cc2)CC1
REMARK SMILES IDX 19 1 18 2 17 3 16 4 14 5 15 6 13 8 12 9 7 10 8 11 9 12 10 13
REMARK SMILES IDX 90 14 11 15 89 16 5 17 3 18 4 19 2 20 1 21 6 22 20 26 21 27
REMARK SMILES IDX 22 28 23 29 24 30 25 32 26 33 27 34 88 35 28 36 87 37 29 38
REMARK SMILES IDX 30 39 31 40 81 41 32 42 86 43 80 44 82 45 33 46 85 47 79 48
REMARK SMILES IDX 78 49 34 51 66 52 46 53 65 54 47 55 50 56 64 57 83 58 48 59
REMARK SMILES IDX 49 60 63 62 84 63 51 64 35 65 36 66 44 67 37 68 39 69 45 70
REMARK SMILES IDX 38 71 40 72 41 73 42 74 43 75 67 76 68 77 76 78 69 79 71 80
REMARK SMILES IDX 77 81 70 82 72 83 73 84 74 85 75 86 52 87 53 88 61 89 54 90
REMARK SMILES IDX 56 91 62 92 55 93 57 94 58 95 59 96 60 97
REMARK H PARENT 16 7 6 23 6 24 6 25 23 31 82 50 50 61
REMARK Flexibility Score: inf
ROOT
ATOM      1  C   UNL A   1      32.572  29.761  27.042  1.00  0.00     0.002 C 
ENDROOT
BRANCH   1   2
ATOM      2  C   UNL A   1      33.075  28.595  26.194  1.00  0.00     0.021 C 
BRANCH   2   3
ATOM      3  C   UNL A   1      32.555  28.580  24.752  1.00  0.00     0.116 C 
BRANCH   3   4
ATOM      4  N   UNL A   1      31.207  28.035  24.698  1.00  0.00    -0.356 N 
ATOM      5  C   UNL A   1      30.562  27.373  23.696  1.00  0.00     0.220 C 
ATOM      6  O   UNL A   1      29.367  27.104  23.846  1.00  0.00    -0.275 OA
ATOM      7  H   UNL A   1      30.675  28.165  25.516  1.00  0.00     0.163 HD
BRANCH   5   8
ATOM      8  C   UNL A   1      31.296  26.963  22.431  1.00  0.00     0.103 C 
BRANCH   8   9
ATOM      9  C   UNL A   1      31.786  25.503  22.431  1.00  0.00     0.002 C 
ATOM     10  C   UNL A   1      33.016  23.086  25.406  1.00  0.00     0.281 C 
ATOM     11  O   UNL A   1      33.751  23.897  25.984  1.00  0.00    -0.268 OA
ATOM     12  N   UNL A   1      32.694  23.263  24.066  1.00  0.00    -0.338 N 
ATOM     13  C   UNL A   1      33.655  23.958  23.234  1.00  0.00     0.120 C 
ATOM     14  C   UNL A   1      31.355  23.215  23.499  1.00  0.00     0.120 C 
ATOM     15  C   UNL A   1      33.211  25.386  22.984  1.00  0.00     0.026 C 
ATOM     16  C   UNL A   1      30.821  24.630  23.253  1.00  0.00     0.026 C 
BRANCH  10  17
ATOM     17  C   UNL A   1      32.721  21.710  26.093  1.00  0.00     0.273 C 
BRANCH  17  18
ATOM     18  C   UNL A   1      33.653  20.530  25.748  1.00  0.00     0.054 C 
ATOM     19  C   UNL A   1      34.909  21.060  25.036  1.00  0.00     0.014 C 
BRANCH  18  20
ATOM     20  C   UNL A   1      32.976  19.435  24.893  1.00  0.00     0.006 C 
ATOM     21  C   UNL A   1      33.980  18.408  24.375  1.00  0.00     0.004 C 
ENDBRANCH  18  20
ENDBRANCH  17  18
BRANCH  17  22
ATOM     22  N   UNL A   1      32.667  21.972  27.555  1.00  0.00    -0.347 N 
ATOM     23  H   UNL A   1      33.439  22.584  27.819  1.00  0.00     0.345 HD
ATOM     24  H   UNL A   1      32.745  21.089  28.061  1.00  0.00     0.345 HD
ATOM     25  H   UNL A   1      31.781  22.420  27.788  1.00  0.00     0.345 HD
ENDBRANCH  17  22
ENDBRANCH  10  17
ENDBRANCH   8   9
ENDBRANCH   5   8
ENDBRANCH   3   4
ENDBRANCH   2   3
ENDBRANCH   1   2
BRANCH   1  26
ATOM     26  C   UNL A   1      31.392  30.528  26.447  1.00  0.00     0.002 C 
BRANCH  26  27
ATOM     27  C   UNL A   1      31.473  32.055  26.552  1.00  0.00     0.021 C 
BRANCH  27  28
ATOM     28  C   UNL A   1      32.671  32.593  27.333  1.00  0.00     0.116 C 
BRANCH  28  29
ATOM     29  N   UNL A   1      32.526  34.005  27.654  1.00  0.00    -0.352 N 
ATOM     30  C   UNL A   1      33.147  34.750  28.624  1.00  0.00     0.251 C 
ATOM     31  H   UNL A   1      31.887  34.499  27.090  1.00  0.00     0.163 HD
ATOM     32  O   UNL A   1      32.737  35.876  28.888  1.00  0.00    -0.269 OA
BRANCH  30  33
ATOM     33  C   UNL A   1      34.304  34.192  29.355  1.00  0.00     0.039 A 
ATOM     34  C   UNL A   1      34.077  33.290  30.398  1.00  0.00     0.014 A 
ATOM     35  C   UNL A   1      35.607  34.578  29.030  1.00  0.00     0.014 A 
ATOM     36  C   UNL A   1      35.162  32.735  31.081  1.00  0.00     0.010 A 
ATOM     37  C   UNL A   1      36.688  33.974  29.666  1.00  0.00     0.010 A 
ATOM     38  C   UNL A   1      36.476  33.054  30.705  1.00  0.00    -0.014 A 
BRANCH  38  39
ATOM     39  C   UNL A   1      37.643  32.434  31.381  1.00  0.00     0.031 A 
ATOM     40  C   UNL A   1      38.371  31.286  30.740  1.00  0.00     0.074 A 
ATOM     41  C   UNL A   1      37.985  32.840  32.619  1.00  0.00     0.049 A 
ATOM     42  N   UNL A   1      39.375  30.585  31.202  1.00  0.00    -0.248 NA
ATOM     43  C   UNL A   1      37.888  30.845  29.422  1.00  0.00     0.031 C 
ATOM     44  C   UNL A   1      37.295  33.879  33.386  1.00  0.00     0.029 A 
ATOM     45  N   UNL A   1      38.975  32.406  33.463  1.00  0.00    -0.354 N 
ATOM     46  C   UNL A   1      39.619  29.600  30.252  1.00  0.00     0.074 A 
ATOM     47  C   UNL A   1      38.634  29.771  29.206  1.00  0.00     0.031 C 
ATOM     48  C   UNL A   1      37.876  33.996  34.590  1.00  0.00     0.029 A 
ATOM     49  C   UNL A   1      38.965  33.028  34.689  1.00  0.00     0.049 A 
ATOM     50  H   UNL A   1      39.630  31.713  33.216  1.00  0.00     0.167 HD
ATOM     51  C   UNL A   1      40.593  28.658  30.235  1.00  0.00     0.034 A 
ATOM     52  C   UNL A   1      39.741  32.838  35.775  1.00  0.00     0.034 A 
ATOM     53  C   UNL A   1      41.595  28.519  31.257  1.00  0.00     0.049 A 
ATOM     54  C   UNL A   1      40.856  31.832  35.709  1.00  0.00     0.074 A 
ATOM     55  C   UNL A   1      42.687  27.671  31.283  1.00  0.00     0.029 A 
ATOM     56  N   UNL A   1      41.622  29.243  32.440  1.00  0.00    -0.354 N 
ATOM     57  N   UNL A   1      41.187  31.031  34.726  1.00  0.00    -0.248 NA
ATOM     58  C   UNL A   1      41.732  31.732  36.885  1.00  0.00     0.031 C 
ATOM     59  C   UNL A   1      43.364  27.868  32.493  1.00  0.00     0.029 A 
ATOM     60  C   UNL A   1      42.705  28.854  33.210  1.00  0.00     0.049 A 
ATOM     61  H   UNL A   1      40.968  29.933  32.695  1.00  0.00     0.167 HD
ATOM     62  C   UNL A   1      42.323  30.352  35.150  1.00  0.00     0.074 A 
ATOM     63  C   UNL A   1      42.637  30.853  36.474  1.00  0.00     0.031 C 
ATOM     64  C   UNL A   1      43.032  29.390  34.508  1.00  0.00     0.034 A 
BRANCH  51  65
ATOM     65  C   UNL A   1      40.646  27.739  29.041  1.00  0.00     0.023 A 
ATOM     66  C   UNL A   1      39.756  26.647  28.965  1.00  0.00     0.012 A 
ATOM     67  C   UNL A   1      41.552  27.964  27.987  1.00  0.00     0.148 A 
ATOM     68  C   UNL A   1      39.799  25.766  27.885  1.00  0.00     0.002 A 
ATOM     69  C   UNL A   1      41.557  27.107  26.890  1.00  0.00     0.091 A 
ATOM     70  F   UNL A   1      42.408  28.991  28.082  1.00  0.00    -0.205 F 
ATOM     71  C   UNL A   1      40.692  26.002  26.845  1.00  0.00     0.022 A 
BRANCH  69  72
ATOM     72  S   UNL A   1      42.619  27.378  25.467  1.00  0.00     0.127 S 
ATOM     73  O   UNL A   1      42.039  28.589  24.890  1.00  0.00    -0.237 OA
ATOM     74  O   UNL A   1      43.932  27.568  26.088  1.00  0.00    -0.237 OA
ATOM     75  O   UNL A   1      42.508  26.174  24.655  1.00  0.00    -0.744 OA
ENDBRANCH  69  72
ENDBRANCH  51  65
BRANCH  52  76
ATOM     76  C   UNL A   1      39.525  33.684  36.982  1.00  0.00     0.023 A 
ATOM     77  C   UNL A   1      39.892  35.043  36.946  1.00  0.00     0.012 A 
ATOM     78  C   UNL A   1      38.891  33.171  38.130  1.00  0.00     0.148 A 
ATOM     79  C   UNL A   1      39.648  35.873  38.040  1.00  0.00     0.002 A 
ATOM     80  C   UNL A   1      38.602  34.015  39.195  1.00  0.00     0.091 A 
ATOM     81  F   UNL A   1      38.557  31.873  38.142  1.00  0.00    -0.205 F 
ATOM     82  C   UNL A   1      38.993  35.363  39.158  1.00  0.00     0.022 A 
BRANCH  80  83
ATOM     83  S   UNL A   1      37.643  33.485  40.619  1.00  0.00     0.127 S 
ATOM     84  O   UNL A   1      36.406  33.028  39.994  1.00  0.00    -0.237 OA
ATOM     85  O   UNL A   1      38.486  32.424  41.169  1.00  0.00    -0.237 OA
ATOM     86  O   UNL A   1      37.520  34.660  41.472  1.00  0.00    -0.744 OA
ENDBRANCH  80  83
ENDBRANCH  52  76
BRANCH  64  87
ATOM     87  C   UNL A   1      44.234  28.818  35.216  1.00  0.00     0.023 A 
ATOM     88  C   UNL A   1      45.511  29.356  34.965  1.00  0.00     0.012 A 
ATOM     89  C   UNL A   1      44.087  27.805  36.184  1.00  0.00     0.148 A 
ATOM     90  C   UNL A   1      46.629  28.875  35.646  1.00  0.00     0.002 A 
ATOM     91  C   UNL A   1      45.198  27.363  36.893  1.00  0.00     0.091 A 
ATOM     92  F   UNL A   1      42.866  27.292  36.394  1.00  0.00    -0.205 F 
ATOM     93  C   UNL A   1      46.471  27.889  36.618  1.00  0.00     0.022 A 
BRANCH  91  94
ATOM     94  S   UNL A   1      45.074  26.166  38.226  1.00  0.00     0.127 S 
ATOM     95  O   UNL A   1      46.321  26.398  38.952  1.00  0.00    -0.237 OA
ATOM     96  O   UNL A   1      43.868  26.605  38.929  1.00  0.00    -0.237 OA
ATOM     97  O   UNL A   1      44.956  24.864  37.584  1.00  0.00    -0.744 OA
ENDBRANCH  91  94
ENDBRANCH  64  87
ENDBRANCH  38  39
ENDBRANCH  30  33
ENDBRANCH  28  29
ENDBRANCH  27  28
ENDBRANCH  26  27
ENDBRANCH   1  26
TORSDOF 21
ENDMDL
MODEL 3
REMARK VINA RESULT:     -10.3      4.604      7.887
REMARK SMILES CC[C@@H](C)[C@@H]([NH3+])C(=O)N1CCC(CC(=O)NCCCCCCNC(=O)c2ccc(-c3c4nc(c(-c5cccc(S(=O)(=O)[O-])c5F)c5ccc([nH]5)c(-c5cccc(S(=O)(=O)[O-])c5F)c5nc(c(-c6cccc(S(=O)(=O)[O-])c6F)c6ccc3[nH]6)C=C5)C=C4)cc2)CC1
REMARK SMILES IDX 19 1 18 2 17 3 16 4 14 5 15 6 13 8 12 9 7 10 8 11 9 12 10 13
REMARK SMILES IDX 90 14 11 15 89 16 5 17 3 18 4 19 2 20 1 21 6 22 20 26 21 27
REMARK SMILES IDX 22 28 23 29 24 30 25 32 26 33 27 34 88 35 28 36 87 37 29 38
REMARK SMILES IDX 30 39 31 40 81 41 32 42 86 43 80 44 82 45 33 46 85 47 79 48
REMARK SMILES IDX 78 49 34 51 66 52 46 53 65 54 47 55 50 56 64 57 83 58 48 59
REMARK SMILES IDX 49 60 63 62 84 63 51 64 35 65 36 66 44 67 37 68 39 69 45 70
REMARK SMILES IDX 38 71 40 72 41 73 42 74 43 75 67 76 68 77 76 78 69 79 71 80
REMARK SMILES IDX 77 81 70 82 72 83 73 84 74 85 75 86 52 87 53 88 61 89 54 90
REMARK SMILES IDX 56 91 62 92 55 93 57 94 58 95 59 96 60 97
REMARK H PARENT 16 7 6 23 6 24 6 25 23 31 82 50 50 61
REMARK Flexibility Score: inf
ROOT
ATOM      1  C   UNL A   1      37.945  33.695  29.772  1.00  0.00     0.002 C 
ENDROOT
BRANCH   1   2
ATOM      2  C   UNL A   1      39.240  34.452  29.486  1.00  0.00     0.021 C 
BRANCH   2   3
ATOM      3  C   UNL A   1      40.474  33.911  30.217  1.00  0.00     0.116 C 
BRANCH   3   4
ATOM      4  N   UNL A   1      41.527  34.913  30.259  1.00  0.00    -0.356 N 
ATOM      5  C   UNL A   1      42.574  35.131  29.413  1.00  0.00     0.220 C 
ATOM      6  O   UNL A   1      43.411  35.982  29.722  1.00  0.00    -0.275 OA
ATOM      7  H   UNL A   1      41.477  35.535  31.021  1.00  0.00     0.163 HD
BRANCH   5   8
ATOM      8  C   UNL A   1      42.702  34.354  28.113  1.00  0.00     0.103 C 
BRANCH   8   9
ATOM      9  C   UNL A   1      43.976  33.494  28.016  1.00  0.00     0.002 C 
ATOM     10  C   UNL A   1      44.514  29.557  27.375  1.00  0.00     0.281 C 
ATOM     11  O   UNL A   1      43.649  29.143  28.157  1.00  0.00    -0.268 OA
ATOM     12  N   UNL A   1      45.056  30.826  27.538  1.00  0.00    -0.338 N 
ATOM     13  C   UNL A   1      45.098  31.368  28.880  1.00  0.00     0.120 C 
ATOM     14  C   UNL A   1      45.195  31.832  26.495  1.00  0.00     0.120 C 
ATOM     15  C   UNL A   1      43.994  32.390  29.079  1.00  0.00     0.026 C 
ATOM     16  C   UNL A   1      44.085  32.883  26.608  1.00  0.00     0.026 C 
BRANCH  10  17
ATOM     17  C   UNL A   1      45.217  28.538  26.416  1.00  0.00     0.273 C 
BRANCH  17  18
ATOM     18  C   UNL A   1      45.982  27.365  27.064  1.00  0.00     0.054 C 
ATOM     19  C   UNL A   1      46.878  27.899  28.194  1.00  0.00     0.014 C 
BRANCH  18  20
ATOM     20  C   UNL A   1      46.822  26.543  26.060  1.00  0.00     0.006 C 
ATOM     21  C   UNL A   1      47.369  25.261  26.682  1.00  0.00     0.004 C 
ENDBRANCH  18  20
ENDBRANCH  17  18
BRANCH  17  22
ATOM     22  N   UNL A   1      44.176  28.068  25.465  1.00  0.00    -0.347 N 
ATOM     23  H   UNL A   1      43.252  28.214  25.871  1.00  0.00     0.345 HD
ATOM     24  H   UNL A   1      44.311  27.075  25.276  1.00  0.00     0.345 HD
ATOM     25  H   UNL A   1      44.251  28.593  24.593  1.00  0.00     0.345 HD
ENDBRANCH  17  22
ENDBRANCH  10  17
ENDBRANCH   8   9
ENDBRANCH   5   8
ENDBRANCH   3   4
ENDBRANCH   2   3
ENDBRANCH   1   2
BRANCH   1  26
ATOM     26  C   UNL A   1      36.855  33.862  28.714  1.00  0.00     0.002 C 
BRANCH  26  27
ATOM     27  C   UNL A   1      35.431  34.042  29.252  1.00  0.00     0.021 C 
BRANCH  27  28
ATOM     28  C   UNL A   1      34.785  32.783  29.827  1.00  0.00     0.116 C 
BRANCH  28  29
ATOM     29  N   UNL A   1      34.172  31.962  28.794  1.00  0.00    -0.352 N 
ATOM     30  C   UNL A   1      34.701  30.917  28.079  1.00  0.00     0.251 C 
ATOM     31  H   UNL A   1      33.239  32.190  28.576  1.00  0.00     0.163 HD
ATOM     32  O   UNL A   1      34.107  30.486  27.095  1.00  0.00    -0.269 OA
BRANCH  30  33
ATOM     33  C   UNL A   1      35.988  30.318  28.489  1.00  0.00     0.039 A 
ATOM     34  C   UNL A   1      37.107  30.486  27.669  1.00  0.00     0.014 A 
ATOM     35  C   UNL A   1      36.084  29.571  29.667  1.00  0.00     0.014 A 
ATOM     36  C   UNL A   1      38.336  29.947  28.057  1.00  0.00     0.010 A 
ATOM     37  C   UNL A   1      37.323  29.093  30.084  1.00  0.00     0.010 A 
ATOM     38  C   UNL A   1      38.459  29.267  29.280  1.00  0.00    -0.014 A 
BRANCH  38  39
ATOM     39  C   UNL A   1      39.767  28.734  29.736  1.00  0.00     0.031 A 
ATOM     40  C   UNL A   1      40.533  29.430  30.826  1.00  0.00     0.074 A 
ATOM     41  C   UNL A   1      40.312  27.679  29.099  1.00  0.00     0.049 A 
ATOM     42  N   UNL A   1      41.710  29.144  31.319  1.00  0.00    -0.248 NA
ATOM     43  C   UNL A   1      39.909  30.624  31.419  1.00  0.00     0.031 C 
ATOM     44  C   UNL A   1      39.711  26.978  27.964  1.00  0.00     0.029 A 
ATOM     45  N   UNL A   1      41.508  27.036  29.293  1.00  0.00    -0.354 N 
ATOM     46  C   UNL A   1      41.985  30.140  32.250  1.00  0.00     0.074 A 
ATOM     47  C   UNL A   1      40.866  31.058  32.226  1.00  0.00     0.031 C 
ATOM     48  C   UNL A   1      40.544  26.008  27.556  1.00  0.00     0.029 A 
ATOM     49  C   UNL A   1      41.746  26.031  28.386  1.00  0.00     0.049 A 
ATOM     50  H   UNL A   1      42.138  27.272  30.013  1.00  0.00     0.167 HD
ATOM     51  C   UNL A   1      43.055  30.264  33.072  1.00  0.00     0.034 A 
ATOM     52  C   UNL A   1      42.812  25.222  28.234  1.00  0.00     0.034 A 
ATOM     53  C   UNL A   1      44.143  29.326  33.121  1.00  0.00     0.049 A 
ATOM     54  C   UNL A   1      43.960  25.335  29.199  1.00  0.00     0.074 A 
ATOM     55  C   UNL A   1      45.219  29.299  33.990  1.00  0.00     0.029 A 
ATOM     56  N   UNL A   1      44.300  28.250  32.259  1.00  0.00    -0.354 N 
ATOM     57  N   UNL A   1      44.119  26.172  30.195  1.00  0.00    -0.248 NA
ATOM     58  C   UNL A   1      45.055  24.366  29.048  1.00  0.00     0.031 C 
ATOM     59  C   UNL A   1      46.037  28.219  33.639  1.00  0.00     0.029 A 
ATOM     60  C   UNL A   1      45.459  27.559  32.565  1.00  0.00     0.049 A 
ATOM     61  H   UNL A   1      43.676  28.013  31.534  1.00  0.00     0.167 HD
ATOM     62  C   UNL A   1      45.316  25.817  30.806  1.00  0.00     0.074 A 
ATOM     63  C   UNL A   1      45.829  24.672  30.081  1.00  0.00     0.031 C 
ATOM     64  C   UNL A   1      45.939  26.395  31.863  1.00  0.00     0.034 A 
BRANCH  51  65
ATOM     65  C   UNL A   1      43.065  31.434  34.022  1.00  0.00     0.023 A 
ATOM     66  C   UNL A   1      43.567  32.678  33.585  1.00  0.00     0.012 A 
ATOM     67  C   UNL A   1      42.561  31.316  35.331  1.00  0.00     0.148 A 
ATOM     68  C   UNL A   1      43.612  33.772  34.449  1.00  0.00     0.002 A 
ATOM     69  C   UNL A   1      42.567  32.424  36.174  1.00  0.00     0.091 A 
ATOM     70  F   UNL A   1      42.109  30.123  35.741  1.00  0.00    -0.205 F 
ATOM     71  C   UNL A   1      43.104  33.647  35.738  1.00  0.00     0.022 A 
BRANCH  69  72
ATOM     72  S   UNL A   1      41.862  32.378  37.825  1.00  0.00     0.127 S 
ATOM     73  O   UNL A   1      42.566  31.241  38.416  1.00  0.00    -0.237 OA
ATOM     74  O   UNL A   1      42.249  33.682  38.367  1.00  0.00    -0.237 OA
ATOM     75  O   UNL A   1      40.428  32.207  37.638  1.00  0.00    -0.744 OA
ENDBRANCH  69  72
ENDBRANCH  51  65
BRANCH  52  76
ATOM     76  C   UNL A   1      42.793  24.184  27.165  1.00  0.00     0.023 A 
ATOM     77  C   UNL A   1      43.491  24.417  25.964  1.00  0.00     0.012 A 
ATOM     78  C   UNL A   1      42.156  22.944  27.363  1.00  0.00     0.148 A 
ATOM     79  C   UNL A   1      43.539  23.440  24.971  1.00  0.00     0.002 A 
ATOM     80  C   UNL A   1      42.254  21.955  26.391  1.00  0.00     0.091 A 
ATOM     81  F   UNL A   1      41.494  22.747  28.511  1.00  0.00    -0.205 F 
ATOM     82  C   UNL A   1      42.933  22.206  25.188  1.00  0.00     0.022 A 
BRANCH  80  83
ATOM     83  S   UNL A   1      41.623  20.290  26.636  1.00  0.00     0.127 S 
ATOM     84  O   UNL A   1      41.960  19.652  25.367  1.00  0.00    -0.237 OA
ATOM     85  O   UNL A   1      42.409  19.838  27.783  1.00  0.00    -0.237 OA
ATOM     86  O   UNL A   1      40.198  20.442  26.905  1.00  0.00    -0.744 OA
ENDBRANCH  80  83
ENDBRANCH  52  76
BRANCH  64  87
ATOM     87  C   UNL A   1      47.244  25.795  32.319  1.00  0.00     0.023 A 
ATOM     88  C   UNL A   1      48.451  26.224  31.734  1.00  0.00     0.012 A 
ATOM     89  C   UNL A   1      47.280  24.866  33.377  1.00  0.00     0.148 A 
ATOM     90  C   UNL A   1      49.673  25.718  32.176  1.00  0.00     0.002 A 
ATOM     91  C   UNL A   1      48.504  24.401  33.844  1.00  0.00     0.091 A 
ATOM     92  F   UNL A   1      46.120  24.454  33.907  1.00  0.00    -0.205 F 
ATOM     93  C   UNL A   1      49.701  24.817  33.238  1.00  0.00     0.022 A 
BRANCH  91  94
ATOM     94  S   UNL A   1      48.639  23.313  35.267  1.00  0.00     0.127 S 
ATOM     95  O   UNL A   1      48.077  24.143  36.332  1.00  0.00    -0.237 OA
ATOM     96  O   UNL A   1      47.804  22.177  34.874  1.00  0.00    -0.237 OA
ATOM     97  O   UNL A   1      50.056  23.001  35.398  1.00  0.00    -0.744 OA
ENDBRANCH  91  94
ENDBRANCH  64  87
ENDBRANCH  38  39
ENDBRANCH  30  33
ENDBRANCH  28  29
ENDBRANCH  27  28
ENDBRANCH  26  27
ENDBRANCH   1  26
TORSDOF 21
ENDMDL
