MODEL 1
REMARK VINA RESULT:     -10.3      0.000      0.000
REMARK SMILES O=C(CS(=O)(=O)N1CCC1)NCCCCCCNC(=O)c1ccc(-c2c3nc(c(-c4cccc(S(=O)(=O)[O-])c4F)c4ccc([nH]4)c(-c4cccc(S(=O)(=O)[O-])c4F)c4nc(c(-c5cccc(S(=O)(=O)[O-])c5F)c5ccc2[nH]5)C=C4)C=C3)cc1
REMARK SMILES IDX 15 1 14 2 13 3 12 4 11 5 1 6 2 7 3 9 4 10 5 11 6 12 7 13
REMARK SMILES IDX 8 14 10 15 9 16 16 17 17 18 18 19 19 20 20 22 21 23 22 24
REMARK SMILES IDX 83 25 23 26 82 27 24 28 25 29 26 30 76 31 27 32 81 33 75 34
REMARK SMILES IDX 77 35 28 36 80 37 74 38 73 39 29 41 61 42 41 43 60 44 42 45
REMARK SMILES IDX 45 46 59 47 78 48 43 49 44 50 58 52 79 53 46 54 30 55 31 56
REMARK SMILES IDX 39 57 32 58 34 59 40 60 33 61 35 62 36 63 37 64 38 65 62 66
REMARK SMILES IDX 63 67 71 68 64 69 66 70 72 71 65 72 67 73 68 74 69 75 70 76
REMARK SMILES IDX 47 77 48 78 56 79 49 80 51 81 57 82 50 83 52 84 53 85 54 86
REMARK SMILES IDX 55 87
REMARK H PARENT 11 8 18 21 77 40 45 51
REMARK Flexibility Score: inf
ROOT
ATOM      1  C   UNL A   1      36.833  33.011  28.836  1.00  0.00     0.002 C 
ENDROOT
BRANCH   1   2
ATOM      2  C   UNL A   1      37.460  34.252  29.480  1.00  0.00     0.002 C 
BRANCH   2   3
ATOM      3  C   UNL A   1      37.618  34.193  31.005  1.00  0.00     0.021 C 
BRANCH   3   4
ATOM      4  C   UNL A   1      36.367  33.743  31.752  1.00  0.00     0.116 C 
BRANCH   4   5
ATOM      5  N   UNL A   1      35.410  34.824  31.890  1.00  0.00    -0.355 N 
ATOM      6  O   UNL A   1      35.657  35.096  34.144  1.00  0.00    -0.274 OA
ATOM      7  C   UNL A   1      35.155  35.459  33.080  1.00  0.00     0.236 C 
ATOM      8  H   UNL A   1      34.917  35.117  31.090  1.00  0.00     0.163 HD
BRANCH   7   9
ATOM      9  C   UNL A   1      34.177  36.592  33.061  1.00  0.00     0.253 C 
BRANCH   9  10
ATOM     10  S   UNL A   1      32.601  36.145  32.391  1.00  0.00     0.223 S 
ATOM     11  O   UNL A   1      32.462  34.707  32.523  1.00  0.00    -0.212 OA
ATOM     12  O   UNL A   1      31.613  37.023  32.988  1.00  0.00    -0.212 OA
BRANCH  10  13
ATOM     13  N   UNL A   1      32.656  36.504  30.765  1.00  0.00    -0.201 NA
ATOM     14  C   UNL A   1      33.359  37.553  29.984  1.00  0.00     0.103 C 
ATOM     15  C   UNL A   1      32.931  35.528  29.672  1.00  0.00     0.103 C 
ATOM     16  C   UNL A   1      33.207  36.698  28.715  1.00  0.00     0.033 C 
ENDBRANCH  10  13
ENDBRANCH   9  10
ENDBRANCH   7   9
ENDBRANCH   4   5
ENDBRANCH   3   4
ENDBRANCH   2   3
ENDBRANCH   1   2
BRANCH   1  17
ATOM     17  C   UNL A   1      35.542  33.261  28.053  1.00  0.00     0.021 C 
BRANCH  17  18
ATOM     18  C   UNL A   1      34.300  32.571  28.611  1.00  0.00     0.116 C 
BRANCH  18  19
ATOM     19  N   UNL A   1      33.829  31.493  27.756  1.00  0.00    -0.352 N 
ATOM     20  C   UNL A   1      34.470  30.349  27.351  1.00  0.00     0.251 C 
ATOM     21  H   UNL A   1      32.911  31.601  27.415  1.00  0.00     0.163 HD
ATOM     22  O   UNL A   1      33.957  29.638  26.489  1.00  0.00    -0.269 OA
BRANCH  20  23
ATOM     23  C   UNL A   1      35.782  29.978  27.928  1.00  0.00     0.039 A 
ATOM     24  C   UNL A   1      35.828  29.523  29.249  1.00  0.00     0.014 A 
ATOM     25  C   UNL A   1      36.963  30.090  27.188  1.00  0.00     0.014 A 
ATOM     26  C   UNL A   1      37.047  29.130  29.806  1.00  0.00     0.010 A 
ATOM     27  C   UNL A   1      38.165  29.624  27.720  1.00  0.00     0.010 A 
ATOM     28  C   UNL A   1      38.223  29.146  29.036  1.00  0.00    -0.014 A 
BRANCH  28  29
ATOM     29  C   UNL A   1      39.502  28.630  29.593  1.00  0.00     0.031 A 
ATOM     30  C   UNL A   1      40.110  29.239  30.828  1.00  0.00     0.074 A 
ATOM     31  C   UNL A   1      40.152  27.643  28.946  1.00  0.00     0.049 A 
ATOM     32  N   UNL A   1      41.197  28.888  31.470  1.00  0.00    -0.248 NA
ATOM     33  C   UNL A   1      39.427  30.407  31.407  1.00  0.00     0.031 C 
ATOM     34  C   UNL A   1      39.716  27.025  27.691  1.00  0.00     0.029 A 
ATOM     35  N   UNL A   1      41.322  26.990  29.245  1.00  0.00    -0.354 N 
ATOM     36  C   UNL A   1      41.348  29.809  32.500  1.00  0.00     0.074 A 
ATOM     37  C   UNL A   1      40.259  30.754  32.379  1.00  0.00     0.031 C 
ATOM     38  C   UNL A   1      40.587  26.066  27.345  1.00  0.00     0.029 A 
ATOM     39  C   UNL A   1      41.660  26.018  28.333  1.00  0.00     0.049 A 
ATOM     40  H   UNL A   1      41.867  27.198  30.039  1.00  0.00     0.167 HD
ATOM     41  C   UNL A   1      42.291  29.853  33.472  1.00  0.00     0.034 A 
ATOM     42  C   UNL A   1      42.711  25.177  28.298  1.00  0.00     0.034 A 
ATOM     43  C   UNL A   1      43.354  28.892  33.608  1.00  0.00     0.049 A 
ATOM     44  C   UNL A   1      43.720  25.218  29.414  1.00  0.00     0.074 A 
ATOM     45  C   UNL A   1      44.294  28.786  34.618  1.00  0.00     0.029 A 
ATOM     46  N   UNL A   1      43.635  27.885  32.696  1.00  0.00    -0.354 N 
ATOM     47  N   UNL A   1      43.741  25.977  30.481  1.00  0.00    -0.248 NA
ATOM     48  C   UNL A   1      44.828  24.257  29.337  1.00  0.00     0.031 C 
ATOM     49  C   UNL A   1      45.168  27.741  34.297  1.00  0.00     0.029 A 
ATOM     50  C   UNL A   1      44.748  27.168  33.106  1.00  0.00     0.049 A 
ATOM     51  H   UNL A   1      43.119  27.705  31.878  1.00  0.00     0.167 HD
ATOM     52  C   UNL A   1      44.845  25.565  31.221  1.00  0.00     0.074 A 
ATOM     53  C   UNL A   1      45.447  24.468  30.490  1.00  0.00     0.031 C 
ATOM     54  C   UNL A   1      45.323  26.058  32.391  1.00  0.00     0.034 A 
BRANCH  41  55
ATOM     55  C   UNL A   1      42.197  30.964  34.488  1.00  0.00     0.023 A 
ATOM     56  C   UNL A   1      41.605  30.720  35.745  1.00  0.00     0.012 A 
ATOM     57  C   UNL A   1      42.737  32.237  34.217  1.00  0.00     0.148 A 
ATOM     58  C   UNL A   1      41.511  31.735  36.697  1.00  0.00     0.002 A 
ATOM     59  C   UNL A   1      42.684  33.229  35.190  1.00  0.00     0.091 A 
ATOM     60  F   UNL A   1      43.278  32.460  33.011  1.00  0.00    -0.205 F 
ATOM     61  C   UNL A   1      42.059  32.985  36.423  1.00  0.00     0.022 A 
BRANCH  59  62
ATOM     62  S   UNL A   1      43.435  34.845  34.964  1.00  0.00     0.127 S 
ATOM     63  O   UNL A   1      42.871  35.593  36.087  1.00  0.00    -0.237 OA
ATOM     64  O   UNL A   1      44.862  34.542  35.091  1.00  0.00    -0.237 OA
ATOM     65  O   UNL A   1      43.027  35.297  33.642  1.00  0.00    -0.744 OA
ENDBRANCH  59  62
ENDBRANCH  41  55
BRANCH  42  66
ATOM     66  C   UNL A   1      42.818  24.163  27.210  1.00  0.00     0.023 A 
ATOM     67  C   UNL A   1      43.603  24.450  26.076  1.00  0.00     0.012 A 
ATOM     68  C   UNL A   1      42.178  22.913  27.304  1.00  0.00     0.148 A 
ATOM     69  C   UNL A   1      43.720  23.525  25.039  1.00  0.00     0.002 A 
ATOM     70  C   UNL A   1      42.346  21.973  26.294  1.00  0.00     0.091 A 
ATOM     71  F   UNL A   1      41.432  22.662  28.389  1.00  0.00    -0.205 F 
ATOM     72  C   UNL A   1      43.101  22.284  25.152  1.00  0.00     0.022 A 
BRANCH  70  73
ATOM     73  S   UNL A   1      41.696  20.302  26.411  1.00  0.00     0.127 S 
ATOM     74  O   UNL A   1      42.099  19.918  27.761  1.00  0.00    -0.237 OA
ATOM     75  O   UNL A   1      40.261  20.527  26.236  1.00  0.00    -0.237 OA
ATOM     76  O   UNL A   1      42.324  19.557  25.328  1.00  0.00    -0.744 OA
ENDBRANCH  70  73
ENDBRANCH  42  66
BRANCH  54  77
ATOM     77  C   UNL A   1      46.548  25.396  32.970  1.00  0.00     0.023 A 
ATOM     78  C   UNL A   1      47.831  25.903  32.672  1.00  0.00     0.012 A 
ATOM     79  C   UNL A   1      46.430  24.294  33.839  1.00  0.00     0.148 A 
ATOM     80  C   UNL A   1      48.974  25.291  33.185  1.00  0.00     0.002 A 
ATOM     81  C   UNL A   1      47.571  23.724  34.392  1.00  0.00     0.091 A 
ATOM     82  F   UNL A   1      45.206  23.811  34.100  1.00  0.00    -0.205 F 
ATOM     83  C   UNL A   1      48.844  24.209  34.053  1.00  0.00     0.022 A 
BRANCH  81  84
ATOM     84  S   UNL A   1      47.492  22.392  35.595  1.00  0.00     0.127 S 
ATOM     85  O   UNL A   1      46.693  22.997  36.659  1.00  0.00    -0.237 OA
ATOM     86  O   UNL A   1      46.809  21.336  34.846  1.00  0.00    -0.237 OA
ATOM     87  O   UNL A   1      48.873  22.086  35.943  1.00  0.00    -0.744 OA
ENDBRANCH  81  84
ENDBRANCH  54  77
ENDBRANCH  28  29
ENDBRANCH  20  23
ENDBRANCH  18  19
ENDBRANCH  17  18
ENDBRANCH   1  17
TORSDOF 18
ENDMDL
MODEL 2
REMARK VINA RESULT:      -9.9      3.568      6.680
REMARK SMILES O=C(CS(=O)(=O)N1CCC1)NCCCCCCNC(=O)c1ccc(-c2c3nc(c(-c4cccc(S(=O)(=O)[O-])c4F)c4ccc([nH]4)c(-c4cccc(S(=O)(=O)[O-])c4F)c4nc(c(-c5cccc(S(=O)(=O)[O-])c5F)c5ccc2[nH]5)C=C4)C=C3)cc1
REMARK SMILES IDX 15 1 14 2 13 3 12 4 11 5 1 6 2 7 3 9 4 10 5 11 6 12 7 13
REMARK SMILES IDX 8 14 10 15 9 16 16 17 17 18 18 19 19 20 20 22 21 23 22 24
REMARK SMILES IDX 83 25 23 26 82 27 24 28 25 29 26 30 76 31 27 32 81 33 75 34
REMARK SMILES IDX 77 35 28 36 80 37 74 38 73 39 29 41 61 42 41 43 60 44 42 45
REMARK SMILES IDX 45 46 59 47 78 48 43 49 44 50 58 52 79 53 46 54 30 55 31 56
REMARK SMILES IDX 39 57 32 58 34 59 40 60 33 61 35 62 36 63 37 64 38 65 62 66
REMARK SMILES IDX 63 67 71 68 64 69 66 70 72 71 65 72 67 73 68 74 69 75 70 76
REMARK SMILES IDX 47 77 48 78 56 79 49 80 51 81 57 82 50 83 52 84 53 85 54 86
REMARK SMILES IDX 55 87
REMARK H PARENT 11 8 18 21 77 40 45 51
REMARK Flexibility Score: inf
ROOT
ATOM      1  C   UNL A   1      31.905  28.050  27.543  1.00  0.00     0.002 C 
ENDROOT
BRANCH   1   2
ATOM      2  C   UNL A   1      32.043  26.830  26.627  1.00  0.00     0.002 C 
BRANCH   2   3
ATOM      3  C   UNL A   1      30.806  26.496  25.783  1.00  0.00     0.021 C 
BRANCH   3   4
ATOM      4  C   UNL A   1      31.011  26.646  24.278  1.00  0.00     0.116 C 
BRANCH   4   5
ATOM      5  N   UNL A   1      31.365  25.383  23.659  1.00  0.00    -0.355 N 
ATOM      6  O   UNL A   1      33.579  25.858  23.362  1.00  0.00    -0.274 OA
ATOM      7  C   UNL A   1      32.645  25.059  23.284  1.00  0.00     0.236 C 
ATOM      8  H   UNL A   1      30.651  24.724  23.500  1.00  0.00     0.163 HD
BRANCH   7   9
ATOM      9  C   UNL A   1      32.868  23.698  22.702  1.00  0.00     0.253 C 
BRANCH   9  10
ATOM     10  S   UNL A   1      33.258  22.472  23.918  1.00  0.00     0.223 S 
ATOM     11  O   UNL A   1      32.936  23.029  25.219  1.00  0.00    -0.212 OA
ATOM     12  O   UNL A   1      32.641  21.230  23.493  1.00  0.00    -0.212 OA
BRANCH  10  13
ATOM     13  N   UNL A   1      34.908  22.247  23.854  1.00  0.00    -0.201 NA
ATOM     14  C   UNL A   1      36.042  23.157  23.558  1.00  0.00     0.103 C 
ATOM     15  C   UNL A   1      35.732  21.586  24.907  1.00  0.00     0.103 C 
ATOM     16  C   UNL A   1      36.996  22.186  24.273  1.00  0.00     0.033 C 
ENDBRANCH  10  13
ENDBRANCH   9  10
ENDBRANCH   7   9
ENDBRANCH   4   5
ENDBRANCH   3   4
ENDBRANCH   2   3
ENDBRANCH   1   2
BRANCH   1  17
ATOM     17  C   UNL A   1      31.697  29.387  26.828  1.00  0.00     0.021 C 
BRANCH  17  18
ATOM     18  C   UNL A   1      32.978  30.124  26.447  1.00  0.00     0.116 C 
BRANCH  18  19
ATOM     19  N   UNL A   1      32.939  31.532  26.809  1.00  0.00    -0.352 N 
ATOM     20  C   UNL A   1      33.768  32.250  27.635  1.00  0.00     0.251 C 
ATOM     21  H   UNL A   1      32.207  32.049  26.400  1.00  0.00     0.163 HD
ATOM     22  O   UNL A   1      33.468  33.402  27.944  1.00  0.00    -0.269 OA
BRANCH  20  23
ATOM     23  C   UNL A   1      35.005  31.640  28.174  1.00  0.00     0.039 A 
ATOM     24  C   UNL A   1      36.167  32.416  28.224  1.00  0.00     0.014 A 
ATOM     25  C   UNL A   1      35.034  30.312  28.611  1.00  0.00     0.014 A 
ATOM     26  C   UNL A   1      37.338  31.877  28.763  1.00  0.00     0.010 A 
ATOM     27  C   UNL A   1      36.181  29.804  29.219  1.00  0.00     0.010 A 
ATOM     28  C   UNL A   1      37.348  30.577  29.296  1.00  0.00    -0.014 A 
BRANCH  28  29
ATOM     29  C   UNL A   1      38.564  30.040  29.963  1.00  0.00     0.031 A 
ATOM     30  C   UNL A   1      38.954  30.492  31.344  1.00  0.00     0.074 A 
ATOM     31  C   UNL A   1      39.357  29.180  29.293  1.00  0.00     0.049 A 
ATOM     32  N   UNL A   1      39.958  30.098  32.087  1.00  0.00    -0.248 NA
ATOM     33  C   UNL A   1      38.127  31.539  31.967  1.00  0.00     0.031 C 
ATOM     34  C   UNL A   1      39.140  28.729  27.916  1.00  0.00     0.029 A 
ATOM     35  N   UNL A   1      40.510  28.540  29.672  1.00  0.00    -0.354 N 
ATOM     36  C   UNL A   1      39.907  30.870  33.242  1.00  0.00     0.074 A 
ATOM     37  C   UNL A   1      38.790  31.778  33.089  1.00  0.00     0.031 C 
ATOM     38  C   UNL A   1      40.108  27.864  27.578  1.00  0.00     0.029 A 
ATOM     39  C   UNL A   1      41.032  27.720  28.698  1.00  0.00     0.049 A 
ATOM     40  H   UNL A   1      40.925  28.655  30.558  1.00  0.00     0.167 HD
ATOM     41  C   UNL A   1      40.699  30.814  34.340  1.00  0.00     0.034 A 
ATOM     42  C   UNL A   1      42.126  26.935  28.707  1.00  0.00     0.034 A 
ATOM     43  C   UNL A   1      41.788  29.887  34.502  1.00  0.00     0.049 A 
ATOM     44  C   UNL A   1      42.963  26.859  29.955  1.00  0.00     0.074 A 
ATOM     45  C   UNL A   1      42.581  29.678  35.617  1.00  0.00     0.029 A 
ATOM     46  N   UNL A   1      42.255  29.031  33.516  1.00  0.00    -0.354 N 
ATOM     47  N   UNL A   1      42.788  27.461  31.106  1.00  0.00    -0.248 NA
ATOM     48  C   UNL A   1      44.127  25.964  29.915  1.00  0.00     0.031 C 
ATOM     49  C   UNL A   1      43.552  28.724  35.292  1.00  0.00     0.029 A 
ATOM     50  C   UNL A   1      43.340  28.309  33.987  1.00  0.00     0.049 A 
ATOM     51  H   UNL A   1      41.872  28.948  32.613  1.00  0.00     0.167 HD
ATOM     52  C   UNL A   1      43.799  26.993  31.939  1.00  0.00     0.074 A 
ATOM     53  C   UNL A   1      44.563  26.036  31.165  1.00  0.00     0.031 C 
ATOM     54  C   UNL A   1      44.076  27.334  33.222  1.00  0.00     0.034 A 
BRANCH  41  55
ATOM     55  C   UNL A   1      40.396  31.766  35.470  1.00  0.00     0.023 A 
ATOM     56  C   UNL A   1      41.232  32.879  35.696  1.00  0.00     0.012 A 
ATOM     57  C   UNL A   1      39.257  31.585  36.280  1.00  0.00     0.148 A 
ATOM     58  C   UNL A   1      40.965  33.771  36.736  1.00  0.00     0.002 A 
ATOM     59  C   UNL A   1      38.970  32.505  37.282  1.00  0.00     0.091 A 
ATOM     60  F   UNL A   1      38.483  30.511  36.067  1.00  0.00    -0.205 F 
ATOM     61  C   UNL A   1      39.831  33.589  37.521  1.00  0.00     0.022 A 
BRANCH  59  62
ATOM     62  S   UNL A   1      37.488  32.405  38.292  1.00  0.00     0.127 S 
ATOM     63  O   UNL A   1      37.883  33.169  39.474  1.00  0.00    -0.237 OA
ATOM     64  O   UNL A   1      36.494  33.065  37.445  1.00  0.00    -0.237 OA
ATOM     65  O   UNL A   1      37.249  30.986  38.514  1.00  0.00    -0.744 OA
ENDBRANCH  59  62
ENDBRANCH  41  55
BRANCH  42  66
ATOM     66  C   UNL A   1      42.447  26.090  27.522  1.00  0.00     0.023 A 
ATOM     67  C   UNL A   1      43.195  26.643  26.464  1.00  0.00     0.012 A 
ATOM     68  C   UNL A   1      42.045  24.743  27.448  1.00  0.00     0.148 A 
ATOM     69  C   UNL A   1      43.508  25.880  25.339  1.00  0.00     0.002 A 
ATOM     70  C   UNL A   1      42.409  23.972  26.351  1.00  0.00     0.091 A 
ATOM     71  F   UNL A   1      41.329  24.238  28.462  1.00  0.00    -0.205 F 
ATOM     72  C   UNL A   1      43.125  24.544  25.287  1.00  0.00     0.022 A 
BRANCH  70  73
ATOM     73  S   UNL A   1      42.075  22.210  26.254  1.00  0.00     0.127 S 
ATOM     74  O   UNL A   1      40.620  22.188  26.122  1.00  0.00    -0.237 OA
ATOM     75  O   UNL A   1      42.809  21.831  25.047  1.00  0.00    -0.237 OA
ATOM     76  O   UNL A   1      42.606  21.639  27.485  1.00  0.00    -0.744 OA
ENDBRANCH  70  73
ENDBRANCH  42  66
BRANCH  54  77
ATOM     77  C   UNL A   1      45.245  26.648  33.883  1.00  0.00     0.023 A 
ATOM     78  C   UNL A   1      46.539  27.200  33.777  1.00  0.00     0.012 A 
ATOM     79  C   UNL A   1      45.059  25.474  34.638  1.00  0.00     0.148 A 
ATOM     80  C   UNL A   1      47.632  26.567  34.367  1.00  0.00     0.002 A 
ATOM     81  C   UNL A   1      46.144  24.879  35.271  1.00  0.00     0.091 A 
ATOM     82  F   UNL A   1      43.826  24.950  34.716  1.00  0.00    -0.205 F 
ATOM     83  C   UNL A   1      47.434  25.413  35.123  1.00  0.00     0.022 A 
BRANCH  81  84
ATOM     84  S   UNL A   1      45.965  23.449  36.343  1.00  0.00     0.127 S 
ATOM     85  O   UNL A   1      47.350  23.198  36.741  1.00  0.00    -0.237 OA
ATOM     86  O   UNL A   1      45.109  23.966  37.411  1.00  0.00    -0.237 OA
ATOM     87  O   UNL A   1      45.349  22.412  35.527  1.00  0.00    -0.744 OA
ENDBRANCH  81  84
ENDBRANCH  54  77
ENDBRANCH  28  29
ENDBRANCH  20  23
ENDBRANCH  18  19
ENDBRANCH  17  18
ENDBRANCH   1  17
TORSDOF 18
ENDMDL
MODEL 3
REMARK VINA RESULT:      -9.8      2.245      3.074
REMARK SMILES O=C(CS(=O)(=O)N1CCC1)NCCCCCCNC(=O)c1ccc(-c2c3nc(c(-c4cccc(S(=O)(=O)[O-])c4F)c4ccc([nH]4)c(-c4cccc(S(=O)(=O)[O-])c4F)c4nc(c(-c5cccc(S(=O)(=O)[O-])c5F)c5ccc2[nH]5)C=C4)C=C3)cc1
REMARK SMILES IDX 15 1 14 2 13 3 12 4 11 5 1 6 2 7 3 9 4 10 5 11 6 12 7 13
REMARK SMILES IDX 8 14 10 15 9 16 16 17 17 18 18 19 19 20 20 22 21 23 22 24
REMARK SMILES IDX 83 25 23 26 82 27 24 28 25 29 26 30 76 31 27 32 81 33 75 34
REMARK SMILES IDX 77 35 28 36 80 37 74 38 73 39 29 41 61 42 41 43 60 44 42 45
REMARK SMILES IDX 45 46 59 47 78 48 43 49 44 50 58 52 79 53 46 54 30 55 31 56
REMARK SMILES IDX 39 57 32 58 34 59 40 60 33 61 35 62 36 63 37 64 38 65 62 66
REMARK SMILES IDX 63 67 71 68 64 69 66 70 72 71 65 72 67 73 68 74 69 75 70 76
REMARK SMILES IDX 47 77 48 78 56 79 49 80 51 81 57 82 50 83 52 84 53 85 54 86
REMARK SMILES IDX 55 87
REMARK H PARENT 11 8 18 21 77 40 45 51
REMARK Flexibility Score: inf
ROOT
ATOM      1  C   UNL A   1      33.117  34.802  28.763  1.00  0.00     0.002 C 
ENDROOT
BRANCH   1   2
ATOM      2  C   UNL A   1      33.708  36.184  29.060  1.00  0.00     0.002 C 
BRANCH   2   3
ATOM      3  C   UNL A   1      33.219  36.844  30.356  1.00  0.00     0.021 C 
BRANCH   3   4
ATOM      4  C   UNL A   1      33.222  35.923  31.572  1.00  0.00     0.116 C 
BRANCH   4   5
ATOM      5  N   UNL A   1      34.562  35.470  31.894  1.00  0.00    -0.355 N 
ATOM      6  O   UNL A   1      34.440  35.889  34.136  1.00  0.00    -0.274 OA
ATOM      7  C   UNL A   1      35.062  35.442  33.172  1.00  0.00     0.236 C 
ATOM      8  H   UNL A   1      35.141  35.166  31.159  1.00  0.00     0.163 HD
BRANCH   7   9
ATOM      9  C   UNL A   1      36.446  34.901  33.358  1.00  0.00     0.253 C 
BRANCH   9  10
ATOM     10  S   UNL A   1      36.753  33.430  32.424  1.00  0.00     0.223 S 
ATOM     11  O   UNL A   1      37.762  32.665  33.134  1.00  0.00    -0.212 OA
ATOM     12  O   UNL A   1      35.467  32.828  32.129  1.00  0.00    -0.212 OA
BRANCH  10  13
ATOM     13  N   UNL A   1      37.411  33.917  30.973  1.00  0.00    -0.201 NA
ATOM     14  C   UNL A   1      38.663  34.631  30.619  1.00  0.00     0.103 C 
ATOM     15  C   UNL A   1      37.579  33.056  29.767  1.00  0.00     0.103 C 
ATOM     16  C   UNL A   1      38.557  34.087  29.184  1.00  0.00     0.033 C 
ENDBRANCH  10  13
ENDBRANCH   9  10
ENDBRANCH   7   9
ENDBRANCH   4   5
ENDBRANCH   3   4
ENDBRANCH   2   3
ENDBRANCH   1   2
BRANCH   1  17
ATOM     17  C   UNL A   1      34.031  33.852  27.985  1.00  0.00     0.021 C 
BRANCH  17  18
ATOM     18  C   UNL A   1      34.407  32.567  28.719  1.00  0.00     0.116 C 
BRANCH  18  19
ATOM     19  N   UNL A   1      33.849  31.381  28.088  1.00  0.00    -0.352 N 
ATOM     20  C   UNL A   1      34.454  30.192  27.764  1.00  0.00     0.251 C 
ATOM     21  H   UNL A   1      32.894  31.441  27.858  1.00  0.00     0.163 HD
ATOM     22  O   UNL A   1      33.848  29.369  27.082  1.00  0.00    -0.269 OA
BRANCH  20  23
ATOM     23  C   UNL A   1      35.837  29.906  28.212  1.00  0.00     0.039 A 
ATOM     24  C   UNL A   1      36.033  29.410  29.504  1.00  0.00     0.014 A 
ATOM     25  C   UNL A   1      36.936  30.136  27.379  1.00  0.00     0.014 A 
ATOM     26  C   UNL A   1      37.322  29.095  29.938  1.00  0.00     0.010 A 
ATOM     27  C   UNL A   1      38.212  29.749  27.787  1.00  0.00     0.010 A 
ATOM     28  C   UNL A   1      38.422  29.230  29.072  1.00  0.00    -0.014 A 
BRANCH  28  29
ATOM     29  C   UNL A   1      39.780  28.798  29.497  1.00  0.00     0.031 A 
ATOM     30  C   UNL A   1      40.505  29.504  30.611  1.00  0.00     0.074 A 
ATOM     31  C   UNL A   1      40.390  27.797  28.832  1.00  0.00     0.049 A 
ATOM     32  N   UNL A   1      41.675  29.234  31.133  1.00  0.00    -0.248 NA
ATOM     33  C   UNL A   1      39.845  30.680  31.202  1.00  0.00     0.031 C 
ATOM     34  C   UNL A   1      39.834  27.087  27.678  1.00  0.00     0.029 A 
ATOM     35  N   UNL A   1      41.615  27.208  29.022  1.00  0.00    -0.354 N 
ATOM     36  C   UNL A   1      41.908  30.221  32.083  1.00  0.00     0.074 A 
ATOM     37  C   UNL A   1      40.771  31.116  32.044  1.00  0.00     0.031 C 
ATOM     38  C   UNL A   1      40.699  26.141  27.282  1.00  0.00     0.029 A 
ATOM     39  C   UNL A   1      41.884  26.194  28.132  1.00  0.00     0.049 A 
ATOM     40  H   UNL A   1      42.242  27.484  29.729  1.00  0.00     0.167 HD
ATOM     41  C   UNL A   1      42.959  30.360  32.928  1.00  0.00     0.034 A 
ATOM     42  C   UNL A   1      42.959  25.392  28.016  1.00  0.00     0.034 A 
ATOM     43  C   UNL A   1      44.071  29.449  32.987  1.00  0.00     0.049 A 
ATOM     44  C   UNL A   1      44.092  25.539  28.995  1.00  0.00     0.074 A 
ATOM     45  C   UNL A   1      45.130  29.441  33.878  1.00  0.00     0.029 A 
ATOM     46  N   UNL A   1      44.285  28.399  32.106  1.00  0.00    -0.354 N 
ATOM     47  N   UNL A   1      44.208  26.363  30.007  1.00  0.00    -0.248 NA
ATOM     48  C   UNL A   1      45.224  24.616  28.837  1.00  0.00     0.031 C 
ATOM     49  C   UNL A   1      46.004  28.411  33.512  1.00  0.00     0.029 A 
ATOM     50  C   UNL A   1      45.470  27.750  32.417  1.00  0.00     0.049 A 
ATOM     51  H   UNL A   1      43.683  28.150  31.369  1.00  0.00     0.167 HD
ATOM     52  C   UNL A   1      45.410  26.038  30.628  1.00  0.00     0.074 A 
ATOM     53  C   UNL A   1      45.967  24.922  29.892  1.00  0.00     0.031 C 
ATOM     54  C   UNL A   1      46.003  26.620  31.700  1.00  0.00     0.034 A 
BRANCH  41  55
ATOM     55  C   UNL A   1      42.939  31.528  33.883  1.00  0.00     0.023 A 
ATOM     56  C   UNL A   1      43.431  32.783  33.470  1.00  0.00     0.012 A 
ATOM     57  C   UNL A   1      42.390  31.395  35.174  1.00  0.00     0.148 A 
ATOM     58  C   UNL A   1      43.418  33.874  34.340  1.00  0.00     0.002 A 
ATOM     59  C   UNL A   1      42.335  32.499  36.017  1.00  0.00     0.091 A 
ATOM     60  F   UNL A   1      41.944  30.190  35.560  1.00  0.00    -0.205 F 
ATOM     61  C   UNL A   1      42.862  33.734  35.608  1.00  0.00     0.022 A 
BRANCH  59  62
ATOM     62  S   UNL A   1      41.562  32.440  37.638  1.00  0.00     0.127 S 
ATOM     63  O   UNL A   1      40.211  31.994  37.304  1.00  0.00    -0.237 OA
ATOM     64  O   UNL A   1      42.379  31.443  38.332  1.00  0.00    -0.237 OA
ATOM     65  O   UNL A   1      41.662  33.788  38.179  1.00  0.00    -0.744 OA
ENDBRANCH  59  62
ENDBRANCH  41  55
BRANCH  42  66
ATOM     66  C   UNL A   1      42.979  24.317  26.983  1.00  0.00     0.023 A 
ATOM     67  C   UNL A   1      43.721  24.512  25.802  1.00  0.00     0.012 A 
ATOM     68  C   UNL A   1      42.299  23.100  27.174  1.00  0.00     0.148 A 
ATOM     69  C   UNL A   1      43.757  23.528  24.814  1.00  0.00     0.002 A 
ATOM     70  C   UNL A   1      42.386  22.101  26.212  1.00  0.00     0.091 A 
ATOM     71  F   UNL A   1      41.594  22.937  28.302  1.00  0.00    -0.205 F 
ATOM     72  C   UNL A   1      43.099  22.320  25.023  1.00  0.00     0.022 A 
BRANCH  70  73
ATOM     73  S   UNL A   1      41.681  20.466  26.450  1.00  0.00     0.127 S 
ATOM     74  O   UNL A   1      42.270  19.721  25.340  1.00  0.00    -0.237 OA
ATOM     75  O   UNL A   1      42.192  20.109  27.773  1.00  0.00    -0.237 OA
ATOM     76  O   UNL A   1      40.236  20.646  26.392  1.00  0.00    -0.744 OA
ENDBRANCH  70  73
ENDBRANCH  42  66
BRANCH  54  77
ATOM     77  C   UNL A   1      47.317  26.042  32.162  1.00  0.00     0.023 A 
ATOM     78  C   UNL A   1      47.344  25.102  33.214  1.00  0.00     0.012 A 
ATOM     79  C   UNL A   1      48.524  26.401  31.531  1.00  0.00     0.148 A 
ATOM     80  C   UNL A   1      48.552  24.572  33.664  1.00  0.00     0.002 A 
ATOM     81  C   UNL A   1      49.720  25.827  31.948  1.00  0.00     0.091 A 
ATOM     82  F   UNL A   1      48.487  27.309  30.544  1.00  0.00    -0.205 F 
ATOM     83  C   UNL A   1      49.739  24.926  33.025  1.00  0.00     0.022 A 
BRANCH  81  84
ATOM     84  S   UNL A   1      51.280  26.149  31.118  1.00  0.00     0.127 S 
ATOM     85  O   UNL A   1      51.408  27.598  31.274  1.00  0.00    -0.237 OA
ATOM     86  O   UNL A   1      52.224  25.365  31.916  1.00  0.00    -0.237 OA
ATOM     87  O   UNL A   1      51.110  25.678  29.751  1.00  0.00    -0.744 OA
ENDBRANCH  81  84
ENDBRANCH  54  77
ENDBRANCH  28  29
ENDBRANCH  20  23
ENDBRANCH  18  19
ENDBRANCH  17  18
ENDBRANCH   1  17
TORSDOF 18
ENDMDL
