MODEL 1
REMARK VINA RESULT:     -10.3      0.000      0.000
REMARK SMILES CC[C@H](C)[C@H](C(=O)NCCCCCCNC(=O)c1ccc(-c2c3nc(c(-c4cccc(S(=O)(=O)[O-])c4F)c4ccc([nH]4)c(-c4cccc(S(=O)(=O)[O-])c4F)c4nc(c(-c5cccc(S(=O)(=O)[O-])c5F)c5ccc2[nH]5)C=C4)C=C3)cc1)[NH+]1CC2(CC2)C1
REMARK SMILES IDX 12 1 11 2 10 3 9 4 8 5 6 6 7 7 5 9 3 10 4 11 2 12 1 13 81 14
REMARK SMILES IDX 82 15 86 16 83 18 84 19 85 20 13 21 14 22 15 23 16 24 17 26
REMARK SMILES IDX 18 27 19 28 80 29 20 30 79 31 21 32 22 33 23 34 73 35 24 36
REMARK SMILES IDX 78 37 72 38 74 39 25 40 77 41 71 42 70 43 26 45 58 46 38 47
REMARK SMILES IDX 57 48 39 49 42 50 56 51 75 52 40 53 41 54 55 56 76 57 43 58
REMARK SMILES IDX 27 59 28 60 36 61 29 62 31 63 37 64 30 65 32 66 33 67 34 68
REMARK SMILES IDX 35 69 59 70 60 71 68 72 61 73 63 74 69 75 62 76 64 77 65 78
REMARK SMILES IDX 66 79 67 80 44 81 45 82 53 83 46 84 48 85 54 86 47 87 49 88
REMARK SMILES IDX 50 89 51 90 52 91
REMARK H PARENT 8 8 81 17 15 25 74 44 42 55
REMARK Flexibility Score: inf
ROOT
ATOM      1  C   UNL A   1      34.005  21.932  26.107  1.00  0.00     0.002 C 
ENDROOT
BRANCH   1   2
ATOM      2  C   UNL A   1      33.008  22.856  26.813  1.00  0.00     0.002 C 
BRANCH   2   3
ATOM      3  C   UNL A   1      31.532  22.657  26.432  1.00  0.00     0.021 C 
BRANCH   3   4
ATOM      4  C   UNL A   1      30.820  23.908  25.917  1.00  0.00     0.116 C 
BRANCH   4   5
ATOM      5  N   UNL A   1      31.150  25.056  26.732  1.00  0.00    -0.351 N 
ATOM      6  C   UNL A   1      31.509  26.324  26.417  1.00  0.00     0.278 C 
ATOM      7  O   UNL A   1      31.544  27.089  27.384  1.00  0.00    -0.268 OA
ATOM      8  H   UNL A   1      31.106  24.884  27.699  1.00  0.00     0.163 HD
BRANCH   6   9
ATOM      9  C   UNL A   1      31.715  26.743  24.938  1.00  0.00     0.277 C 
BRANCH   9  10
ATOM     10  C   UNL A   1      31.031  28.136  24.694  1.00  0.00     0.054 C 
ATOM     11  C   UNL A   1      32.039  29.296  24.694  1.00  0.00     0.014 C 
BRANCH  10  12
ATOM     12  C   UNL A   1      30.042  28.094  23.495  1.00  0.00     0.006 C 
ATOM     13  C   UNL A   1      30.384  28.976  22.303  1.00  0.00     0.004 C 
ENDBRANCH  10  12
ENDBRANCH   9  10
BRANCH   9  14
ATOM     14  N   UNL A   1      33.116  26.709  24.415  1.00  0.00    -0.323 N 
ATOM     15  C   UNL A   1      33.965  25.584  24.823  1.00  0.00     0.275 C 
ATOM     16  C   UNL A   1      33.192  26.280  23.007  1.00  0.00     0.275 C 
ATOM     17  H   UNL A   1      33.392  27.645  24.711  1.00  0.00     0.348 HD
ATOM     18  C   UNL A   1      33.694  24.983  23.499  1.00  0.00     0.068 C 
ATOM     19  C   UNL A   1      33.101  23.656  23.137  1.00  0.00     0.020 C 
ATOM     20  C   UNL A   1      34.541  23.955  22.820  1.00  0.00     0.020 C 
ENDBRANCH   9  14
ENDBRANCH   6   9
ENDBRANCH   4   5
ENDBRANCH   3   4
ENDBRANCH   2   3
ENDBRANCH   1   2
BRANCH   1  21
ATOM     21  C   UNL A   1      35.454  22.077  26.568  1.00  0.00     0.021 C 
BRANCH  21  22
ATOM     22  C   UNL A   1      36.478  22.084  25.441  1.00  0.00     0.116 C 
BRANCH  22  23
ATOM     23  N   UNL A   1      37.470  21.030  25.583  1.00  0.00    -0.352 N 
ATOM     24  C   UNL A   1      38.792  21.136  25.947  1.00  0.00     0.251 C 
ATOM     25  H   UNL A   1      37.152  20.118  25.394  1.00  0.00     0.163 HD
ATOM     26  O   UNL A   1      39.536  20.170  25.868  1.00  0.00    -0.269 OA
BRANCH  24  27
ATOM     27  C   UNL A   1      39.307  22.444  26.412  1.00  0.00     0.039 A 
ATOM     28  C   UNL A   1      40.317  22.469  27.375  1.00  0.00     0.014 A 
ATOM     29  C   UNL A   1      38.812  23.637  25.876  1.00  0.00     0.014 A 
ATOM     30  C   UNL A   1      40.873  23.691  27.759  1.00  0.00     0.010 A 
ATOM     31  C   UNL A   1      39.422  24.844  26.199  1.00  0.00     0.010 A 
ATOM     32  C   UNL A   1      40.453  24.885  27.150  1.00  0.00    -0.014 A 
BRANCH  32  33
ATOM     33  C   UNL A   1      41.086  26.185  27.489  1.00  0.00     0.031 A 
ATOM     34  C   UNL A   1      42.505  26.468  27.079  1.00  0.00     0.074 A 
ATOM     35  C   UNL A   1      40.410  27.079  28.239  1.00  0.00     0.049 A 
ATOM     36  N   UNL A   1      43.239  27.523  27.324  1.00  0.00    -0.248 NA
ATOM     37  C   UNL A   1      43.203  25.418  26.318  1.00  0.00     0.031 C 
ATOM     38  C   UNL A   1      39.058  26.888  28.769  1.00  0.00     0.029 A 
ATOM     39  N   UNL A   1      40.779  28.315  28.709  1.00  0.00    -0.354 N 
ATOM     40  C   UNL A   1      44.490  27.251  26.783  1.00  0.00     0.074 A 
ATOM     41  C   UNL A   1      44.428  25.916  26.228  1.00  0.00     0.031 C 
ATOM     42  C   UNL A   1      38.709  27.970  29.484  1.00  0.00     0.029 A 
ATOM     43  C   UNL A   1      39.821  28.915  29.494  1.00  0.00     0.049 A 
ATOM     44  H   UNL A   1      41.646  28.733  28.504  1.00  0.00     0.167 HD
ATOM     45  C   UNL A   1      45.583  28.048  26.727  1.00  0.00     0.034 A 
ATOM     46  C   UNL A   1      39.840  30.087  30.158  1.00  0.00     0.034 A 
ATOM     47  C   UNL A   1      45.629  29.387  27.248  1.00  0.00     0.049 A 
ATOM     48  C   UNL A   1      41.054  30.969  30.051  1.00  0.00     0.074 A 
ATOM     49  C   UNL A   1      46.657  30.308  27.158  1.00  0.00     0.029 A 
ATOM     50  N   UNL A   1      44.612  29.992  27.968  1.00  0.00    -0.354 N 
ATOM     51  N   UNL A   1      42.170  30.760  29.395  1.00  0.00    -0.248 NA
ATOM     52  C   UNL A   1      40.999  32.263  30.745  1.00  0.00     0.031 C 
ATOM     53  C   UNL A   1      46.274  31.459  27.857  1.00  0.00     0.029 A 
ATOM     54  C   UNL A   1      44.993  31.269  28.345  1.00  0.00     0.049 A 
ATOM     55  H   UNL A   1      43.745  29.576  28.180  1.00  0.00     0.167 HD
ATOM     56  C   UNL A   1      42.933  31.909  29.567  1.00  0.00     0.074 A 
ATOM     57  C   UNL A   1      42.144  32.818  30.372  1.00  0.00     0.031 C 
ATOM     58  C   UNL A   1      44.180  32.182  29.108  1.00  0.00     0.034 A 
BRANCH  45  59
ATOM     59  C   UNL A   1      46.812  27.504  26.043  1.00  0.00     0.023 A 
ATOM     60  C   UNL A   1      47.010  27.739  24.666  1.00  0.00     0.012 A 
ATOM     61  C   UNL A   1      47.794  26.806  26.771  1.00  0.00     0.148 A 
ATOM     62  C   UNL A   1      48.144  27.255  24.018  1.00  0.00     0.002 A 
ATOM     63  C   UNL A   1      48.947  26.368  26.129  1.00  0.00     0.091 A 
ATOM     64  F   UNL A   1      47.581  26.573  28.074  1.00  0.00    -0.205 F 
ATOM     65  C   UNL A   1      49.117  26.579  24.750  1.00  0.00     0.022 A 
BRANCH  63  66
ATOM     66  S   UNL A   1      50.295  25.563  26.999  1.00  0.00     0.127 S 
ATOM     67  O   UNL A   1      51.260  25.355  25.920  1.00  0.00    -0.237 OA
ATOM     68  O   UNL A   1      50.682  26.582  27.975  1.00  0.00    -0.237 OA
ATOM     69  O   UNL A   1      49.733  24.350  27.577  1.00  0.00    -0.744 OA
ENDBRANCH  63  66
ENDBRANCH  45  59
BRANCH  46  70
ATOM     70  C   UNL A   1      38.645  30.519  30.937  1.00  0.00     0.023 A 
ATOM     71  C   UNL A   1      38.572  30.234  32.315  1.00  0.00     0.012 A 
ATOM     72  C   UNL A   1      37.598  31.236  30.328  1.00  0.00     0.148 A 
ATOM     73  C   UNL A   1      37.464  30.627  33.064  1.00  0.00     0.002 A 
ATOM     74  C   UNL A   1      36.522  31.674  31.092  1.00  0.00     0.091 A 
ATOM     75  F   UNL A   1      37.682  31.491  29.015  1.00  0.00    -0.205 F 
ATOM     76  C   UNL A   1      36.444  31.355  32.456  1.00  0.00     0.022 A 
BRANCH  74  77
ATOM     77  S   UNL A   1      35.232  32.729  30.425  1.00  0.00     0.127 S 
ATOM     78  O   UNL A   1      34.731  31.924  29.313  1.00  0.00    -0.237 OA
ATOM     79  O   UNL A   1      34.320  32.845  31.564  1.00  0.00    -0.237 OA
ATOM     80  O   UNL A   1      35.892  33.974  30.055  1.00  0.00    -0.744 OA
ENDBRANCH  74  77
ENDBRANCH  46  70
BRANCH  58  81
ATOM     81  C   UNL A   1      44.763  33.535  29.426  1.00  0.00     0.023 A 
ATOM     82  C   UNL A   1      45.490  33.729  30.617  1.00  0.00     0.012 A 
ATOM     83  C   UNL A   1      44.651  34.596  28.505  1.00  0.00     0.148 A 
ATOM     84  C   UNL A   1      46.066  34.967  30.902  1.00  0.00     0.002 A 
ATOM     85  C   UNL A   1      45.272  35.809  28.770  1.00  0.00     0.091 A 
ATOM     86  F   UNL A   1      43.941  34.397  27.385  1.00  0.00    -0.205 F 
ATOM     87  C   UNL A   1      45.968  36.001  29.975  1.00  0.00     0.022 A 
BRANCH  85  88
ATOM     88  S   UNL A   1      45.285  37.164  27.591  1.00  0.00     0.127 S 
ATOM     89  O   UNL A   1      46.024  38.190  28.326  1.00  0.00    -0.237 OA
ATOM     90  O   UNL A   1      46.010  36.584  26.460  1.00  0.00    -0.237 OA
ATOM     91  O   UNL A   1      43.889  37.476  27.319  1.00  0.00    -0.744 OA
ENDBRANCH  85  88
ENDBRANCH  58  81
ENDBRANCH  32  33
ENDBRANCH  24  27
ENDBRANCH  22  23
ENDBRANCH  21  22
ENDBRANCH   1  21
TORSDOF 19
ENDMDL
MODEL 2
REMARK VINA RESULT:     -10.2      2.164      8.173
REMARK SMILES CC[C@H](C)[C@H](C(=O)NCCCCCCNC(=O)c1ccc(-c2c3nc(c(-c4cccc(S(=O)(=O)[O-])c4F)c4ccc([nH]4)c(-c4cccc(S(=O)(=O)[O-])c4F)c4nc(c(-c5cccc(S(=O)(=O)[O-])c5F)c5ccc2[nH]5)C=C4)C=C3)cc1)[NH+]1CC2(CC2)C1
REMARK SMILES IDX 12 1 11 2 10 3 9 4 8 5 6 6 7 7 5 9 3 10 4 11 2 12 1 13 81 14
REMARK SMILES IDX 82 15 86 16 83 18 84 19 85 20 13 21 14 22 15 23 16 24 17 26
REMARK SMILES IDX 18 27 19 28 80 29 20 30 79 31 21 32 22 33 23 34 73 35 24 36
REMARK SMILES IDX 78 37 72 38 74 39 25 40 77 41 71 42 70 43 26 45 58 46 38 47
REMARK SMILES IDX 57 48 39 49 42 50 56 51 75 52 40 53 41 54 55 56 76 57 43 58
REMARK SMILES IDX 27 59 28 60 36 61 29 62 31 63 37 64 30 65 32 66 33 67 34 68
REMARK SMILES IDX 35 69 59 70 60 71 68 72 61 73 63 74 69 75 62 76 64 77 65 78
REMARK SMILES IDX 66 79 67 80 44 81 45 82 53 83 46 84 48 85 54 86 47 87 49 88
REMARK SMILES IDX 50 89 51 90 52 91
REMARK H PARENT 8 8 81 17 15 25 74 44 42 55
REMARK Flexibility Score: inf
ROOT
ATOM      1  C   UNL A   1      37.323  21.006  24.292  1.00  0.00     0.002 C 
ENDROOT
BRANCH   1   2
ATOM      2  C   UNL A   1      37.031  22.030  25.395  1.00  0.00     0.002 C 
BRANCH   2   3
ATOM      3  C   UNL A   1      36.844  23.480  24.922  1.00  0.00     0.021 C 
BRANCH   3   4
ATOM      4  C   UNL A   1      35.401  23.985  24.927  1.00  0.00     0.116 C 
BRANCH   4   5
ATOM      5  N   UNL A   1      34.919  24.169  23.576  1.00  0.00    -0.351 N 
ATOM      6  C   UNL A   1      33.675  24.342  23.069  1.00  0.00     0.278 C 
ATOM      7  O   UNL A   1      33.660  24.645  21.873  1.00  0.00    -0.268 OA
ATOM      8  H   UNL A   1      35.629  24.167  22.896  1.00  0.00     0.163 HD
BRANCH   6   9
ATOM      9  C   UNL A   1      32.430  24.280  23.991  1.00  0.00     0.277 C 
BRANCH   9  10
ATOM     10  C   UNL A   1      31.634  25.630  23.878  1.00  0.00     0.054 C 
ATOM     11  C   UNL A   1      30.127  25.411  23.671  1.00  0.00     0.014 C 
BRANCH  10  12
ATOM     12  C   UNL A   1      32.028  26.631  25.001  1.00  0.00     0.006 C 
ATOM     13  C   UNL A   1      32.644  26.032  26.257  1.00  0.00     0.004 C 
ENDBRANCH  10  12
ENDBRANCH   9  10
BRANCH   9  14
ATOM     14  N   UNL A   1      31.536  23.090  23.840  1.00  0.00    -0.323 N 
ATOM     15  C   UNL A   1      32.029  21.969  23.032  1.00  0.00     0.275 C 
ATOM     16  C   UNL A   1      31.510  22.236  25.041  1.00  0.00     0.275 C 
ATOM     17  H   UNL A   1      30.707  23.586  23.511  1.00  0.00     0.348 HD
ATOM     18  C   UNL A   1      32.356  21.283  24.300  1.00  0.00     0.068 C 
ATOM     19  C   UNL A   1      33.659  20.741  24.804  1.00  0.00     0.020 C 
ATOM     20  C   UNL A   1      32.527  19.807  24.471  1.00  0.00     0.020 C 
ENDBRANCH   9  14
ENDBRANCH   6   9
ENDBRANCH   4   5
ENDBRANCH   3   4
ENDBRANCH   2   3
ENDBRANCH   1   2
BRANCH   1  21
ATOM     21  C   UNL A   1      38.152  19.803  24.735  1.00  0.00     0.021 C 
BRANCH  21  22
ATOM     22  C   UNL A   1      38.960  20.025  26.007  1.00  0.00     0.116 C 
BRANCH  22  23
ATOM     23  N   UNL A   1      40.148  19.187  26.066  1.00  0.00    -0.352 N 
ATOM     24  C   UNL A   1      41.457  19.564  26.251  1.00  0.00     0.251 C 
ATOM     25  H   UNL A   1      39.993  18.221  25.960  1.00  0.00     0.163 HD
ATOM     26  O   UNL A   1      42.360  18.752  26.118  1.00  0.00    -0.269 OA
BRANCH  24  27
ATOM     27  C   UNL A   1      41.759  20.974  26.587  1.00  0.00     0.039 A 
ATOM     28  C   UNL A   1      42.319  21.266  27.832  1.00  0.00     0.014 A 
ATOM     29  C   UNL A   1      41.516  21.995  25.665  1.00  0.00     0.014 A 
ATOM     30  C   UNL A   1      42.689  22.579  28.130  1.00  0.00     0.010 A 
ATOM     31  C   UNL A   1      41.959  23.286  25.931  1.00  0.00     0.010 A 
ATOM     32  C   UNL A   1      42.543  23.594  27.170  1.00  0.00    -0.014 A 
BRANCH  32  33
ATOM     33  C   UNL A   1      43.002  24.980  27.440  1.00  0.00     0.031 A 
ATOM     34  C   UNL A   1      42.065  25.984  28.053  1.00  0.00     0.074 A 
ATOM     35  C   UNL A   1      44.238  25.359  27.055  1.00  0.00     0.049 A 
ATOM     36  N   UNL A   1      42.271  27.248  28.319  1.00  0.00    -0.248 NA
ATOM     37  C   UNL A   1      40.709  25.516  28.387  1.00  0.00     0.031 C 
ATOM     38  C   UNL A   1      45.212  24.502  26.375  1.00  0.00     0.029 A 
ATOM     39  N   UNL A   1      44.875  26.570  27.155  1.00  0.00    -0.354 N 
ATOM     40  C   UNL A   1      41.066  27.734  28.814  1.00  0.00     0.074 A 
ATOM     41  C   UNL A   1      40.123  26.638  28.778  1.00  0.00     0.031 C 
ATOM     42  C   UNL A   1      46.324  25.212  26.127  1.00  0.00     0.029 A 
ATOM     43  C   UNL A   1      46.132  26.580  26.596  1.00  0.00     0.049 A 
ATOM     44  H   UNL A   1      44.472  27.357  27.587  1.00  0.00     0.167 HD
ATOM     45  C   UNL A   1      40.778  28.972  29.282  1.00  0.00     0.034 A 
ATOM     46  C   UNL A   1      47.025  27.580  26.463  1.00  0.00     0.034 A 
ATOM     47  C   UNL A   1      41.728  30.048  29.349  1.00  0.00     0.049 A 
ATOM     48  C   UNL A   1      46.693  28.937  27.023  1.00  0.00     0.074 A 
ATOM     49  C   UNL A   1      41.561  31.309  29.892  1.00  0.00     0.029 A 
ATOM     50  N   UNL A   1      43.019  29.998  28.845  1.00  0.00    -0.354 N 
ATOM     51  N   UNL A   1      45.603  29.331  27.636  1.00  0.00    -0.248 NA
ATOM     52  C   UNL A   1      47.725  29.976  26.905  1.00  0.00     0.031 C 
ATOM     53  C   UNL A   1      42.739  32.035  29.683  1.00  0.00     0.029 A 
ATOM     54  C   UNL A   1      43.654  31.211  29.048  1.00  0.00     0.049 A 
ATOM     55  H   UNL A   1      43.424  29.215  28.407  1.00  0.00     0.167 HD
ATOM     56  C   UNL A   1      45.833  30.651  28.008  1.00  0.00     0.074 A 
ATOM     57  C   UNL A   1      47.173  30.981  27.570  1.00  0.00     0.031 C 
ATOM     58  C   UNL A   1      45.004  31.514  28.647  1.00  0.00     0.034 A 
BRANCH  45  59
ATOM     59  C   UNL A   1      39.382  29.218  29.796  1.00  0.00     0.023 A 
ATOM     60  C   UNL A   1      39.059  28.894  31.131  1.00  0.00     0.012 A 
ATOM     61  C   UNL A   1      38.406  29.816  28.977  1.00  0.00     0.148 A 
ATOM     62  C   UNL A   1      37.778  29.124  31.629  1.00  0.00     0.002 A 
ATOM     63  C   UNL A   1      37.144  30.088  29.495  1.00  0.00     0.091 A 
ATOM     64  F   UNL A   1      38.722  30.098  27.705  1.00  0.00    -0.205 F 
ATOM     65  C   UNL A   1      36.824  29.730  30.815  1.00  0.00     0.022 A 
BRANCH  63  66
ATOM     66  S   UNL A   1      35.873  30.940  28.555  1.00  0.00     0.127 S 
ATOM     67  O   UNL A   1      35.562  29.955  27.520  1.00  0.00    -0.237 OA
ATOM     68  O   UNL A   1      34.823  31.124  29.556  1.00  0.00    -0.237 OA
ATOM     69  O   UNL A   1      36.484  32.174  28.080  1.00  0.00    -0.744 OA
ENDBRANCH  63  66
ENDBRANCH  45  59
BRANCH  46  70
ATOM     70  C   UNL A   1      48.344  27.319  25.820  1.00  0.00     0.023 A 
ATOM     71  C   UNL A   1      49.422  26.860  26.603  1.00  0.00     0.012 A 
ATOM     72  C   UNL A   1      48.526  27.492  24.435  1.00  0.00     0.148 A 
ATOM     73  C   UNL A   1      50.666  26.612  26.024  1.00  0.00     0.002 A 
ATOM     74  C   UNL A   1      49.752  27.187  23.854  1.00  0.00     0.091 A 
ATOM     75  F   UNL A   1      47.491  27.935  23.708  1.00  0.00    -0.205 F 
ATOM     76  C   UNL A   1      50.829  26.765  24.649  1.00  0.00     0.022 A 
BRANCH  74  77
ATOM     77  S   UNL A   1      50.015  27.226  22.079  1.00  0.00     0.127 S 
ATOM     78  O   UNL A   1      48.979  26.312  21.603  1.00  0.00    -0.237 OA
ATOM     79  O   UNL A   1      49.781  28.638  21.771  1.00  0.00    -0.237 OA
ATOM     80  O   UNL A   1      51.388  26.786  21.873  1.00  0.00    -0.744 OA
ENDBRANCH  74  77
ENDBRANCH  46  70
BRANCH  58  81
ATOM     81  C   UNL A   1      45.530  32.893  28.953  1.00  0.00     0.023 A 
ATOM     82  C   UNL A   1      46.281  33.119  30.123  1.00  0.00     0.012 A 
ATOM     83  C   UNL A   1      45.340  33.949  28.039  1.00  0.00     0.148 A 
ATOM     84  C   UNL A   1      46.804  34.383  30.397  1.00  0.00     0.002 A 
ATOM     85  C   UNL A   1      45.909  35.190  28.291  1.00  0.00     0.091 A 
ATOM     86  F   UNL A   1      44.608  33.719  26.940  1.00  0.00    -0.205 F 
ATOM     87  C   UNL A   1      46.630  35.413  29.477  1.00  0.00     0.022 A 
BRANCH  85  88
ATOM     88  S   UNL A   1      45.823  36.547  27.117  1.00  0.00     0.127 S 
ATOM     89  O   UNL A   1      44.385  36.808  27.070  1.00  0.00    -0.237 OA
ATOM     90  O   UNL A   1      46.610  37.585  27.785  1.00  0.00    -0.237 OA
ATOM     91  O   UNL A   1      46.407  36.048  25.880  1.00  0.00    -0.744 OA
ENDBRANCH  85  88
ENDBRANCH  58  81
ENDBRANCH  32  33
ENDBRANCH  24  27
ENDBRANCH  22  23
ENDBRANCH  21  22
ENDBRANCH   1  21
TORSDOF 19
ENDMDL
MODEL 3
REMARK VINA RESULT:     -10.0      5.082     10.500
REMARK SMILES CC[C@H](C)[C@H](C(=O)NCCCCCCNC(=O)c1ccc(-c2c3nc(c(-c4cccc(S(=O)(=O)[O-])c4F)c4ccc([nH]4)c(-c4cccc(S(=O)(=O)[O-])c4F)c4nc(c(-c5cccc(S(=O)(=O)[O-])c5F)c5ccc2[nH]5)C=C4)C=C3)cc1)[NH+]1CC2(CC2)C1
REMARK SMILES IDX 12 1 11 2 10 3 9 4 8 5 6 6 7 7 5 9 3 10 4 11 2 12 1 13 81 14
REMARK SMILES IDX 82 15 86 16 83 18 84 19 85 20 13 21 14 22 15 23 16 24 17 26
REMARK SMILES IDX 18 27 19 28 80 29 20 30 79 31 21 32 22 33 23 34 73 35 24 36
REMARK SMILES IDX 78 37 72 38 74 39 25 40 77 41 71 42 70 43 26 45 58 46 38 47
REMARK SMILES IDX 57 48 39 49 42 50 56 51 75 52 40 53 41 54 55 56 76 57 43 58
REMARK SMILES IDX 27 59 28 60 36 61 29 62 31 63 37 64 30 65 32 66 33 67 34 68
REMARK SMILES IDX 35 69 59 70 60 71 68 72 61 73 63 74 69 75 62 76 64 77 65 78
REMARK SMILES IDX 66 79 67 80 44 81 45 82 53 83 46 84 48 85 54 86 47 87 49 88
REMARK SMILES IDX 50 89 51 90 52 91
REMARK H PARENT 8 8 81 17 15 25 74 44 42 55
REMARK Flexibility Score: inf
ROOT
ATOM      1  C   UNL A   1      31.311  30.765  25.739  1.00  0.00     0.002 C 
ENDROOT
BRANCH   1   2
ATOM      2  C   UNL A   1      32.051  29.586  26.379  1.00  0.00     0.002 C 
BRANCH   2   3
ATOM      3  C   UNL A   1      31.642  28.192  25.876  1.00  0.00     0.021 C 
BRANCH   3   4
ATOM      4  C   UNL A   1      32.188  27.021  26.693  1.00  0.00     0.116 C 
BRANCH   4   5
ATOM      5  N   UNL A   1      31.184  25.992  26.847  1.00  0.00    -0.351 N 
ATOM      6  C   UNL A   1      31.161  24.682  26.505  1.00  0.00     0.278 C 
ATOM      7  O   UNL A   1      30.193  24.064  26.954  1.00  0.00    -0.268 OA
ATOM      8  H   UNL A   1      30.359  26.304  27.283  1.00  0.00     0.163 HD
BRANCH   6   9
ATOM      9  C   UNL A   1      32.343  24.049  25.727  1.00  0.00     0.277 C 
BRANCH   9  10
ATOM     10  C   UNL A   1      32.797  22.733  26.456  1.00  0.00     0.054 C 
ATOM     11  C   UNL A   1      32.497  21.470  25.634  1.00  0.00     0.014 C 
BRANCH  10  12
ATOM     12  C   UNL A   1      34.243  22.850  27.018  1.00  0.00     0.006 C 
ATOM     13  C   UNL A   1      35.374  22.539  26.049  1.00  0.00     0.004 C 
ENDBRANCH  10  12
ENDBRANCH   9  10
BRANCH   9  14
ATOM     14  N   UNL A   1      32.150  23.836  24.259  1.00  0.00    -0.323 N 
ATOM     15  C   UNL A   1      31.534  24.924  23.491  1.00  0.00     0.275 C 
ATOM     16  C   UNL A   1      33.399  23.975  23.489  1.00  0.00     0.275 C 
ATOM     17  H   UNL A   1      31.647  22.950  24.317  1.00  0.00     0.348 HD
ATOM     18  C   UNL A   1      32.893  25.284  23.033  1.00  0.00     0.068 C 
ATOM     19  C   UNL A   1      33.651  26.571  23.153  1.00  0.00     0.020 C 
ATOM     20  C   UNL A   1      33.218  26.069  21.803  1.00  0.00     0.020 C 
ENDBRANCH   9  14
ENDBRANCH   6   9
ENDBRANCH   4   5
ENDBRANCH   3   4
ENDBRANCH   2   3
ENDBRANCH   1   2
BRANCH   1  21
ATOM     21  C   UNL A   1      31.338  32.059  26.550  1.00  0.00     0.021 C 
BRANCH  21  22
ATOM     22  C   UNL A   1      32.729  32.503  26.985  1.00  0.00     0.116 C 
BRANCH  22  23
ATOM     23  N   UNL A   1      32.725  33.821  27.600  1.00  0.00    -0.352 N 
ATOM     24  C   UNL A   1      33.530  34.303  28.606  1.00  0.00     0.251 C 
ATOM     25  H   UNL A   1      32.056  34.453  27.249  1.00  0.00     0.163 HD
ATOM     26  O   UNL A   1      33.296  35.385  29.122  1.00  0.00    -0.269 OA
BRANCH  24  27
ATOM     27  C   UNL A   1      34.669  33.480  29.071  1.00  0.00     0.039 A 
ATOM     28  C   UNL A   1      35.967  33.874  28.740  1.00  0.00     0.014 A 
ATOM     29  C   UNL A   1      34.454  32.343  29.854  1.00  0.00     0.014 A 
ATOM     30  C   UNL A   1      37.054  33.158  29.244  1.00  0.00     0.010 A 
ATOM     31  C   UNL A   1      35.538  31.680  30.421  1.00  0.00     0.010 A 
ATOM     32  C   UNL A   1      36.849  32.076  30.115  1.00  0.00    -0.014 A 
BRANCH  32  33
ATOM     33  C   UNL A   1      37.994  31.350  30.723  1.00  0.00     0.031 A 
ATOM     34  C   UNL A   1      38.411  31.640  32.139  1.00  0.00     0.074 A 
ATOM     35  C   UNL A   1      38.711  30.490  29.973  1.00  0.00     0.049 A 
ATOM     36  N   UNL A   1      39.409  31.143  32.823  1.00  0.00    -0.248 NA
ATOM     37  C   UNL A   1      37.621  32.641  32.877  1.00  0.00     0.031 C 
ATOM     38  C   UNL A   1      38.459  30.184  28.562  1.00  0.00     0.029 A 
ATOM     39  N   UNL A   1      39.815  29.735  30.283  1.00  0.00    -0.354 N 
ATOM     40  C   UNL A   1      39.390  31.793  34.051  1.00  0.00     0.074 A 
ATOM     41  C   UNL A   1      38.304  32.747  34.007  1.00  0.00     0.031 C 
ATOM     42  C   UNL A   1      39.376  29.303  28.133  1.00  0.00     0.029 A 
ATOM     43  C   UNL A   1      40.301  29.007  29.222  1.00  0.00     0.049 A 
ATOM     44  H   UNL A   1      40.220  29.717  31.180  1.00  0.00     0.167 HD
ATOM     45  C   UNL A   1      40.186  31.596  35.129  1.00  0.00     0.034 A 
ATOM     46  C   UNL A   1      41.376  28.200  29.131  1.00  0.00     0.034 A 
ATOM     47  C   UNL A   1      41.242  30.622  35.181  1.00  0.00     0.049 A 
ATOM     48  C   UNL A   1      42.225  27.971  30.353  1.00  0.00     0.074 A 
ATOM     49  C   UNL A   1      42.043  30.280  36.256  1.00  0.00     0.029 A 
ATOM     50  N   UNL A   1      41.656  29.843  34.111  1.00  0.00    -0.354 N 
ATOM     51  N   UNL A   1      42.090  28.475  31.556  1.00  0.00    -0.248 NA
ATOM     52  C   UNL A   1      43.350  27.037  30.216  1.00  0.00     0.031 C 
ATOM     53  C   UNL A   1      42.966  29.320  35.825  1.00  0.00     0.029 A 
ATOM     54  C   UNL A   1      42.712  29.034  34.494  1.00  0.00     0.049 A 
ATOM     55  H   UNL A   1      41.256  29.863  33.211  1.00  0.00     0.167 HD
ATOM     56  C   UNL A   1      43.089  27.892  32.327  1.00  0.00     0.074 A 
ATOM     57  C   UNL A   1      43.807  26.981  31.459  1.00  0.00     0.031 C 
ATOM     58  C   UNL A   1      43.391  28.099  33.633  1.00  0.00     0.034 A 
BRANCH  45  59
ATOM     59  C   UNL A   1      39.920  32.427  36.358  1.00  0.00     0.023 A 
ATOM     60  C   UNL A   1      40.695  33.579  36.606  1.00  0.00     0.012 A 
ATOM     61  C   UNL A   1      38.871  32.099  37.238  1.00  0.00     0.148 A 
ATOM     62  C   UNL A   1      40.458  34.368  37.731  1.00  0.00     0.002 A 
ATOM     63  C   UNL A   1      38.608  32.918  38.331  1.00  0.00     0.091 A 
ATOM     64  F   UNL A   1      38.157  30.991  36.999  1.00  0.00    -0.205 F 
ATOM     65  C   UNL A   1      39.408  34.043  38.587  1.00  0.00     0.022 A 
BRANCH  63  66
ATOM     66  S   UNL A   1      37.229  32.633  39.445  1.00  0.00     0.127 S 
ATOM     67  O   UNL A   1      37.547  31.309  39.977  1.00  0.00    -0.237 OA
ATOM     68  O   UNL A   1      37.380  33.727  40.405  1.00  0.00    -0.237 OA
ATOM     69  O   UNL A   1      36.027  32.706  38.625  1.00  0.00    -0.744 OA
ENDBRANCH  63  66
ENDBRANCH  45  59
BRANCH  46  70
ATOM     70  C   UNL A   1      41.678  27.505  27.848  1.00  0.00     0.023 A 
ATOM     71  C   UNL A   1      42.105  28.254  26.734  1.00  0.00     0.012 A 
ATOM     72  C   UNL A   1      41.575  26.105  27.736  1.00  0.00     0.148 A 
ATOM     73  C   UNL A   1      42.391  27.626  25.522  1.00  0.00     0.002 A 
ATOM     74  C   UNL A   1      41.917  25.479  26.543  1.00  0.00     0.091 A 
ATOM     75  F   UNL A   1      41.161  25.411  28.805  1.00  0.00    -0.205 F 
ATOM     76  C   UNL A   1      42.307  26.239  25.429  1.00  0.00     0.022 A 
BRANCH  74  77
ATOM     77  S   UNL A   1      41.968  23.693  26.371  1.00  0.00     0.127 S 
ATOM     78  O   UNL A   1      42.586  23.537  25.056  1.00  0.00    -0.237 OA
ATOM     79  O   UNL A   1      42.814  23.306  27.500  1.00  0.00    -0.237 OA
ATOM     80  O   UNL A   1      40.585  23.247  26.475  1.00  0.00    -0.744 OA
ENDBRANCH  74  77
ENDBRANCH  46  70
BRANCH  58  81
ATOM     81  C   UNL A   1      44.522  27.300  34.226  1.00  0.00     0.023 A 
ATOM     82  C   UNL A   1      45.846  27.775  34.134  1.00  0.00     0.012 A 
ATOM     83  C   UNL A   1      44.263  26.113  34.940  1.00  0.00     0.148 A 
ATOM     84  C   UNL A   1      46.896  27.062  34.713  1.00  0.00     0.002 A 
ATOM     85  C   UNL A   1      45.305  25.438  35.559  1.00  0.00     0.091 A 
ATOM     86  F   UNL A   1      42.999  25.669  35.002  1.00  0.00    -0.205 F 
ATOM     87  C   UNL A   1      46.625  25.903  35.435  1.00  0.00     0.022 A 
BRANCH  85  88
ATOM     88  S   UNL A   1      45.040  23.993  36.593  1.00  0.00     0.127 S 
ATOM     89  O   UNL A   1      44.342  23.094  35.674  1.00  0.00    -0.237 OA
ATOM     90  O   UNL A   1      46.408  23.590  36.919  1.00  0.00    -0.237 OA
ATOM     91  O   UNL A   1      44.256  24.450  37.732  1.00  0.00    -0.744 OA
ENDBRANCH  85  88
ENDBRANCH  58  81
ENDBRANCH  32  33
ENDBRANCH  24  27
ENDBRANCH  22  23
ENDBRANCH  21  22
ENDBRANCH   1  21
TORSDOF 19
ENDMDL
