MODEL 1
REMARK VINA RESULT:     -10.8      0.000      0.000
REMARK SMILES COCC(=O)N1[C@@H](C(=O)NCCCCCCNC(=O)c2ccc(-c3c4nc(c(-c5cccc(S(=O)(=O)[O-])c5F)c5ccc([nH]5)c(-c5cccc(S(=O)(=O)[O-])c5F)c5nc(c(-c6cccc(S(=O)(=O)[O-])c6F)c6ccc3[nH]6)C=C5)C=C4)cc2)CC[C@@H]2CCCC[C@H]21
REMARK SMILES IDX 13 1 12 2 11 3 10 4 8 5 9 6 7 8 6 9 90 10 83 11 85 12 89 13
REMARK SMILES IDX 84 14 86 15 88 16 87 17 4 18 5 19 3 20 2 21 1 22 14 23 15 24
REMARK SMILES IDX 16 25 17 26 18 27 19 29 20 30 21 31 82 32 22 33 81 34 23 35
REMARK SMILES IDX 24 36 25 37 75 38 26 39 80 40 74 41 76 42 27 43 79 44 73 45
REMARK SMILES IDX 72 46 28 48 60 49 40 50 59 51 41 52 44 53 58 54 77 55 42 56
REMARK SMILES IDX 43 57 57 59 78 60 45 61 29 62 30 63 38 64 31 65 33 66 39 67
REMARK SMILES IDX 32 68 34 69 35 70 36 71 37 72 61 73 62 74 70 75 63 76 65 77
REMARK SMILES IDX 71 78 64 79 66 80 67 81 68 82 69 83 46 84 47 85 55 86 48 87
REMARK SMILES IDX 50 88 56 89 49 90 51 91 52 92 53 93 54 94
REMARK H PARENT 10 7 17 28 76 47 44 58
REMARK Flexibility Score: inf
ROOT
ATOM      1  C   UNL A   1      31.025  27.772  26.853  1.00  0.00     0.002 C 
ENDROOT
BRANCH   1   2
ATOM      2  C   UNL A   1      31.260  26.652  25.831  1.00  0.00     0.021 C 
BRANCH   2   3
ATOM      3  C   UNL A   1      30.417  25.407  26.079  1.00  0.00     0.116 C 
BRANCH   3   4
ATOM      4  N   UNL A   1      30.220  24.677  24.838  1.00  0.00    -0.354 N 
ATOM      5  C   UNL A   1      30.984  23.716  24.250  1.00  0.00     0.242 C 
ATOM      6  O   UNL A   1      30.687  23.366  23.103  1.00  0.00    -0.273 OA
ATOM      7  H   UNL A   1      29.402  24.914  24.344  1.00  0.00     0.163 HD
BRANCH   5   8
ATOM      8  C   UNL A   1      32.300  23.234  24.893  1.00  0.00     0.174 C 
ATOM      9  N   UNL A   1      33.570  23.544  24.192  1.00  0.00    -0.325 N 
ATOM     10  C   UNL A   1      34.754  22.807  24.705  1.00  0.00     0.089 C 
ATOM     11  C   UNL A   1      32.076  21.706  25.048  1.00  0.00     0.036 C 
ATOM     12  C   UNL A   1      34.532  21.287  24.592  1.00  0.00     0.012 C 
ATOM     13  C   UNL A   1      36.132  23.230  24.163  1.00  0.00     0.025 C 
ATOM     14  C   UNL A   1      33.303  20.896  25.420  1.00  0.00     0.008 C 
ATOM     15  C   UNL A   1      35.733  20.458  25.076  1.00  0.00     0.006 C 
ATOM     16  C   UNL A   1      37.263  22.415  24.783  1.00  0.00     0.002 C 
ATOM     17  C   UNL A   1      37.061  20.934  24.506  1.00  0.00     0.000 C 
BRANCH   9  18
ATOM     18  C   UNL A   1      33.776  24.733  23.484  1.00  0.00     0.249 C 
ATOM     19  O   UNL A   1      34.006  25.797  24.065  1.00  0.00    -0.272 OA
BRANCH  18  20
ATOM     20  C   UNL A   1      33.651  24.738  21.947  1.00  0.00     0.259 C 
BRANCH  20  21
ATOM     21  O   UNL A   1      33.241  25.926  21.305  1.00  0.00    -0.375 OA
ATOM     22  C   UNL A   1      31.886  26.270  21.560  1.00  0.00     0.195 C 
ENDBRANCH  20  21
ENDBRANCH  18  20
ENDBRANCH   9  18
ENDBRANCH   5   8
ENDBRANCH   3   4
ENDBRANCH   2   3
ENDBRANCH   1   2
BRANCH   1  23
ATOM     23  C   UNL A   1      32.288  28.278  27.555  1.00  0.00     0.002 C 
BRANCH  23  24
ATOM     24  C   UNL A   1      33.601  27.906  26.863  1.00  0.00     0.021 C 
BRANCH  24  25
ATOM     25  C   UNL A   1      34.283  29.065  26.150  1.00  0.00     0.116 C 
BRANCH  25  26
ATOM     26  N   UNL A   1      33.920  30.352  26.723  1.00  0.00    -0.352 N 
ATOM     27  C   UNL A   1      34.521  31.036  27.746  1.00  0.00     0.251 C 
ATOM     28  H   UNL A   1      33.135  30.791  26.321  1.00  0.00     0.163 HD
ATOM     29  O   UNL A   1      33.977  32.031  28.224  1.00  0.00    -0.269 OA
BRANCH  27  30
ATOM     30  C   UNL A   1      35.812  30.561  28.283  1.00  0.00     0.039 A 
ATOM     31  C   UNL A   1      35.808  29.706  29.385  1.00  0.00     0.014 A 
ATOM     32  C   UNL A   1      37.019  30.956  27.699  1.00  0.00     0.014 A 
ATOM     33  C   UNL A   1      37.018  29.215  29.878  1.00  0.00     0.010 A 
ATOM     34  C   UNL A   1      38.215  30.398  28.137  1.00  0.00     0.010 A 
ATOM     35  C   UNL A   1      38.230  29.538  29.244  1.00  0.00    -0.014 A 
BRANCH  35  36
ATOM     36  C   UNL A   1      39.516  28.984  29.737  1.00  0.00     0.031 A 
ATOM     37  C   UNL A   1      40.249  29.654  30.870  1.00  0.00     0.074 A 
ATOM     38  C   UNL A   1      40.054  27.911  29.125  1.00  0.00     0.049 A 
ATOM     39  N   UNL A   1      41.379  29.312  31.434  1.00  0.00    -0.248 NA
ATOM     40  C   UNL A   1      39.652  30.881  31.426  1.00  0.00     0.031 C 
ATOM     41  C   UNL A   1      39.489  27.233  27.956  1.00  0.00     0.029 A 
ATOM     42  N   UNL A   1      41.208  27.217  29.386  1.00  0.00    -0.354 N 
ATOM     43  C   UNL A   1      41.646  30.298  32.377  1.00  0.00     0.074 A 
ATOM     44  C   UNL A   1      40.579  31.268  32.290  1.00  0.00     0.031 C 
ATOM     45  C   UNL A   1      40.291  26.214  27.608  1.00  0.00     0.029 A 
ATOM     46  C   UNL A   1      41.440  26.184  28.507  1.00  0.00     0.049 A 
ATOM     47  H   UNL A   1      41.812  27.436  30.130  1.00  0.00     0.167 HD
ATOM     48  C   UNL A   1      42.674  30.373  33.256  1.00  0.00     0.034 A 
ATOM     49  C   UNL A   1      42.466  25.314  28.430  1.00  0.00     0.034 A 
ATOM     50  C   UNL A   1      43.710  29.383  33.368  1.00  0.00     0.049 A 
ATOM     51  C   UNL A   1      43.558  25.383  29.462  1.00  0.00     0.074 A 
ATOM     52  C   UNL A   1      44.739  29.315  34.291  1.00  0.00     0.029 A 
ATOM     53  N   UNL A   1      43.861  28.295  32.523  1.00  0.00    -0.354 N 
ATOM     54  N   UNL A   1      43.702  26.225  30.457  1.00  0.00    -0.248 NA
ATOM     55  C   UNL A   1      44.605  24.354  29.389  1.00  0.00     0.031 C 
ATOM     56  C   UNL A   1      45.532  28.207  33.982  1.00  0.00     0.029 A 
ATOM     57  C   UNL A   1      44.970  27.556  32.895  1.00  0.00     0.049 A 
ATOM     58  H   UNL A   1      43.265  28.079  31.769  1.00  0.00     0.167 HD
ATOM     59  C   UNL A   1      44.829  25.802  31.152  1.00  0.00     0.074 A 
ATOM     60  C   UNL A   1      45.314  24.616  30.477  1.00  0.00     0.031 C 
ATOM     61  C   UNL A   1      45.416  26.351  32.245  1.00  0.00     0.034 A 
BRANCH  48  62
ATOM     62  C   UNL A   1      42.714  31.551  34.197  1.00  0.00     0.023 A 
ATOM     63  C   UNL A   1      43.292  32.766  33.776  1.00  0.00     0.012 A 
ATOM     64  C   UNL A   1      42.112  31.476  35.467  1.00  0.00     0.148 A 
ATOM     65  C   UNL A   1      43.300  33.878  34.618  1.00  0.00     0.002 A 
ATOM     66  C   UNL A   1      42.079  32.602  36.281  1.00  0.00     0.091 A 
ATOM     67  F   UNL A   1      41.587  30.306  35.858  1.00  0.00    -0.205 F 
ATOM     68  C   UNL A   1      42.683  33.799  35.864  1.00  0.00     0.022 A 
BRANCH  66  69
ATOM     69  S   UNL A   1      41.233  32.629  37.865  1.00  0.00     0.127 S 
ATOM     70  O   UNL A   1      42.005  31.650  38.629  1.00  0.00    -0.237 OA
ATOM     71  O   UNL A   1      41.422  34.017  38.289  1.00  0.00    -0.237 OA
ATOM     72  O   UNL A   1      39.852  32.258  37.593  1.00  0.00    -0.744 OA
ENDBRANCH  66  69
ENDBRANCH  48  62
BRANCH  49  73
ATOM     73  C   UNL A   1      42.480  24.269  27.368  1.00  0.00     0.023 A 
ATOM     74  C   UNL A   1      43.154  24.512  26.154  1.00  0.00     0.012 A 
ATOM     75  C   UNL A   1      41.839  23.031  27.560  1.00  0.00     0.148 A 
ATOM     76  C   UNL A   1      43.151  23.559  25.136  1.00  0.00     0.002 A 
ATOM     77  C   UNL A   1      41.891  22.062  26.565  1.00  0.00     0.091 A 
ATOM     78  F   UNL A   1      41.196  22.822  28.717  1.00  0.00    -0.205 F 
ATOM     79  C   UNL A   1      42.527  22.332  25.343  1.00  0.00     0.022 A 
BRANCH  77  80
ATOM     80  S   UNL A   1      41.232  20.409  26.800  1.00  0.00     0.127 S 
ATOM     81  O   UNL A   1      40.019  20.451  25.987  1.00  0.00    -0.237 OA
ATOM     82  O   UNL A   1      42.307  19.576  26.259  1.00  0.00    -0.237 OA
ATOM     83  O   UNL A   1      41.029  20.267  28.235  1.00  0.00    -0.744 OA
ENDBRANCH  77  80
ENDBRANCH  49  73
BRANCH  61  84
ATOM     84  C   UNL A   1      46.618  25.646  32.818  1.00  0.00     0.023 A 
ATOM     85  C   UNL A   1      47.916  26.009  32.411  1.00  0.00     0.012 A 
ATOM     86  C   UNL A   1      46.455  24.650  33.802  1.00  0.00     0.148 A 
ATOM     87  C   UNL A   1      49.031  25.357  32.936  1.00  0.00     0.002 A 
ATOM     88  C   UNL A   1      47.573  24.046  34.362  1.00  0.00     0.091 A 
ATOM     89  F   UNL A   1      45.211  24.305  34.165  1.00  0.00    -0.205 F 
ATOM     90  C   UNL A   1      48.860  24.385  33.919  1.00  0.00     0.022 A 
BRANCH  88  91
ATOM     91  S   UNL A   1      47.448  22.859  35.705  1.00  0.00     0.127 S 
ATOM     92  O   UNL A   1      46.791  23.652  36.743  1.00  0.00    -0.237 OA
ATOM     93  O   UNL A   1      46.613  21.811  35.117  1.00  0.00    -0.237 OA
ATOM     94  O   UNL A   1      48.813  22.445  36.002  1.00  0.00    -0.744 OA
ENDBRANCH  88  91
ENDBRANCH  61  84
ENDBRANCH  35  36
ENDBRANCH  27  30
ENDBRANCH  25  26
ENDBRANCH  24  25
ENDBRANCH  23  24
ENDBRANCH   1  23
TORSDOF 19
ENDMDL
MODEL 2
REMARK VINA RESULT:     -10.5      1.803      2.282
REMARK SMILES COCC(=O)N1[C@@H](C(=O)NCCCCCCNC(=O)c2ccc(-c3c4nc(c(-c5cccc(S(=O)(=O)[O-])c5F)c5ccc([nH]5)c(-c5cccc(S(=O)(=O)[O-])c5F)c5nc(c(-c6cccc(S(=O)(=O)[O-])c6F)c6ccc3[nH]6)C=C5)C=C4)cc2)CC[C@@H]2CCCC[C@H]21
REMARK SMILES IDX 13 1 12 2 11 3 10 4 8 5 9 6 7 8 6 9 90 10 83 11 85 12 89 13
REMARK SMILES IDX 84 14 86 15 88 16 87 17 4 18 5 19 3 20 2 21 1 22 14 23 15 24
REMARK SMILES IDX 16 25 17 26 18 27 19 29 20 30 21 31 82 32 22 33 81 34 23 35
REMARK SMILES IDX 24 36 25 37 75 38 26 39 80 40 74 41 76 42 27 43 79 44 73 45
REMARK SMILES IDX 72 46 28 48 60 49 40 50 59 51 41 52 44 53 58 54 77 55 42 56
REMARK SMILES IDX 43 57 57 59 78 60 45 61 29 62 30 63 38 64 31 65 33 66 39 67
REMARK SMILES IDX 32 68 34 69 35 70 36 71 37 72 61 73 62 74 70 75 63 76 65 77
REMARK SMILES IDX 71 78 64 79 66 80 67 81 68 82 69 83 46 84 47 85 55 86 48 87
REMARK SMILES IDX 50 88 56 89 49 90 51 91 52 92 53 93 54 94
REMARK H PARENT 10 7 17 28 76 47 44 58
REMARK Flexibility Score: inf
ROOT
ATOM      1  C   UNL A   1      31.209  27.226  24.271  1.00  0.00     0.002 C 
ENDROOT
BRANCH   1   2
ATOM      2  C   UNL A   1      30.116  26.252  24.729  1.00  0.00     0.021 C 
BRANCH   2   3
ATOM      3  C   UNL A   1      30.317  25.722  26.144  1.00  0.00     0.116 C 
BRANCH   3   4
ATOM      4  N   UNL A   1      30.022  24.301  26.197  1.00  0.00    -0.354 N 
ATOM      5  C   UNL A   1      30.855  23.226  26.149  1.00  0.00     0.242 C 
ATOM      6  O   UNL A   1      30.345  22.106  26.042  1.00  0.00    -0.273 OA
ATOM      7  H   UNL A   1      29.066  24.079  26.282  1.00  0.00     0.163 HD
BRANCH   5   8
ATOM      8  C   UNL A   1      32.381  23.400  26.012  1.00  0.00     0.174 C 
ATOM      9  N   UNL A   1      33.010  23.024  24.722  1.00  0.00    -0.325 N 
ATOM     10  C   UNL A   1      34.493  22.939  24.760  1.00  0.00     0.089 C 
ATOM     11  C   UNL A   1      32.938  22.567  27.197  1.00  0.00     0.036 C 
ATOM     12  C   UNL A   1      34.947  21.903  25.805  1.00  0.00     0.012 C 
ATOM     13  C   UNL A   1      35.220  22.756  23.414  1.00  0.00     0.025 C 
ATOM     14  C   UNL A   1      34.434  22.325  27.187  1.00  0.00     0.008 C 
ATOM     15  C   UNL A   1      36.473  21.738  25.878  1.00  0.00     0.006 C 
ATOM     16  C   UNL A   1      36.735  22.708  23.587  1.00  0.00     0.002 C 
ATOM     17  C   UNL A   1      37.124  21.567  24.514  1.00  0.00     0.000 C 
BRANCH   9  18
ATOM     18  C   UNL A   1      32.381  23.214  23.487  1.00  0.00     0.249 C 
ATOM     19  O   UNL A   1      31.730  22.313  22.951  1.00  0.00    -0.272 OA
BRANCH  18  20
ATOM     20  C   UNL A   1      32.552  24.552  22.740  1.00  0.00     0.259 C 
BRANCH  20  21
ATOM     21  O   UNL A   1      32.491  24.553  21.330  1.00  0.00    -0.375 OA
ATOM     22  C   UNL A   1      32.564  25.852  20.760  1.00  0.00     0.195 C 
ENDBRANCH  20  21
ENDBRANCH  18  20
ENDBRANCH   9  18
ENDBRANCH   5   8
ENDBRANCH   3   4
ENDBRANCH   2   3
ENDBRANCH   1   2
BRANCH   1  23
ATOM     23  C   UNL A   1      31.234  28.563  25.018  1.00  0.00     0.002 C 
BRANCH  23  24
ATOM     24  C   UNL A   1      32.192  28.616  26.209  1.00  0.00     0.021 C 
BRANCH  24  25
ATOM     25  C   UNL A   1      33.401  29.518  25.999  1.00  0.00     0.116 C 
BRANCH  25  26
ATOM     26  N   UNL A   1      33.100  30.913  26.276  1.00  0.00    -0.352 N 
ATOM     27  C   UNL A   1      33.669  31.746  27.202  1.00  0.00     0.251 C 
ATOM     28  H   UNL A   1      32.391  31.313  25.722  1.00  0.00     0.163 HD
ATOM     29  O   UNL A   1      33.171  32.850  27.425  1.00  0.00    -0.269 OA
BRANCH  27  30
ATOM     30  C   UNL A   1      34.867  31.305  27.944  1.00  0.00     0.039 A 
ATOM     31  C   UNL A   1      34.862  30.043  28.539  1.00  0.00     0.014 A 
ATOM     32  C   UNL A   1      35.990  32.131  28.048  1.00  0.00     0.014 A 
ATOM     33  C   UNL A   1      36.002  29.595  29.209  1.00  0.00     0.010 A 
ATOM     34  C   UNL A   1      37.152  31.648  28.638  1.00  0.00     0.010 A 
ATOM     35  C   UNL A   1      37.164  30.383  29.243  1.00  0.00    -0.014 A 
BRANCH  35  36
ATOM     36  C   UNL A   1      38.394  29.893  29.916  1.00  0.00     0.031 A 
ATOM     37  C   UNL A   1      38.765  30.396  31.287  1.00  0.00     0.074 A 
ATOM     38  C   UNL A   1      39.210  29.040  29.266  1.00  0.00     0.049 A 
ATOM     39  N   UNL A   1      39.795  30.080  32.027  1.00  0.00    -0.248 NA
ATOM     40  C   UNL A   1      37.879  31.404  31.895  1.00  0.00     0.031 C 
ATOM     41  C   UNL A   1      39.010  28.556  27.898  1.00  0.00     0.029 A 
ATOM     42  N   UNL A   1      40.382  28.446  29.660  1.00  0.00    -0.354 N 
ATOM     43  C   UNL A   1      39.704  30.874  33.164  1.00  0.00     0.074 A 
ATOM     44  C   UNL A   1      38.536  31.711  33.005  1.00  0.00     0.031 C 
ATOM     45  C   UNL A   1      40.018  27.731  27.572  1.00  0.00     0.029 A 
ATOM     46  C   UNL A   1      40.949  27.650  28.692  1.00  0.00     0.049 A 
ATOM     47  H   UNL A   1      40.778  28.575  30.551  1.00  0.00     0.167 HD
ATOM     48  C   UNL A   1      40.505  30.886  34.256  1.00  0.00     0.034 A 
ATOM     49  C   UNL A   1      42.094  26.941  28.703  1.00  0.00     0.034 A 
ATOM     50  C   UNL A   1      41.641  30.022  34.429  1.00  0.00     0.049 A 
ATOM     51  C   UNL A   1      42.928  26.922  29.955  1.00  0.00     0.074 A 
ATOM     52  C   UNL A   1      42.457  29.886  35.539  1.00  0.00     0.029 A 
ATOM     53  N   UNL A   1      42.132  29.156  33.465  1.00  0.00    -0.354 N 
ATOM     54  N   UNL A   1      42.730  27.552  31.088  1.00  0.00    -0.248 NA
ATOM     55  C   UNL A   1      44.118  26.059  29.947  1.00  0.00     0.031 C 
ATOM     56  C   UNL A   1      43.462  28.965  35.232  1.00  0.00     0.029 A 
ATOM     57  C   UNL A   1      43.245  28.491  33.948  1.00  0.00     0.049 A 
ATOM     58  H   UNL A   1      41.745  29.032  32.568  1.00  0.00     0.167 HD
ATOM     59  C   UNL A   1      43.744  27.129  31.940  1.00  0.00     0.074 A 
ATOM     60  C   UNL A   1      44.539  26.172  31.198  1.00  0.00     0.031 C 
ATOM     61  C   UNL A   1      44.000  27.506  33.218  1.00  0.00     0.034 A 
BRANCH  48  62
ATOM     62  C   UNL A   1      40.164  31.841  35.372  1.00  0.00     0.023 A 
ATOM     63  C   UNL A   1      40.808  33.094  35.445  1.00  0.00     0.012 A 
ATOM     64  C   UNL A   1      39.155  31.528  36.302  1.00  0.00     0.148 A 
ATOM     65  C   UNL A   1      40.474  34.006  36.446  1.00  0.00     0.002 A 
ATOM     66  C   UNL A   1      38.793  32.462  37.265  1.00  0.00     0.091 A 
ATOM     67  F   UNL A   1      38.570  30.324  36.230  1.00  0.00    -0.205 F 
ATOM     68  C   UNL A   1      39.459  33.695  37.347  1.00  0.00     0.022 A 
BRANCH  66  69
ATOM     69  S   UNL A   1      37.441  32.194  38.416  1.00  0.00     0.127 S 
ATOM     70  O   UNL A   1      37.976  32.782  39.643  1.00  0.00    -0.237 OA
ATOM     71  O   UNL A   1      36.356  32.959  37.798  1.00  0.00    -0.237 OA
ATOM     72  O   UNL A   1      37.224  30.755  38.459  1.00  0.00    -0.744 OA
ENDBRANCH  66  69
ENDBRANCH  48  62
BRANCH  49  73
ATOM     73  C   UNL A   1      42.491  26.145  27.507  1.00  0.00     0.023 A 
ATOM     74  C   UNL A   1      43.267  26.744  26.493  1.00  0.00     0.012 A 
ATOM     75  C   UNL A   1      42.114  24.796  27.376  1.00  0.00     0.148 A 
ATOM     76  C   UNL A   1      43.620  26.026  25.351  1.00  0.00     0.002 A 
ATOM     77  C   UNL A   1      42.520  24.069  26.263  1.00  0.00     0.091 A 
ATOM     78  F   UNL A   1      41.369  24.248  28.346  1.00  0.00    -0.205 F 
ATOM     79  C   UNL A   1      43.255  24.687  25.240  1.00  0.00     0.022 A 
BRANCH  77  80
ATOM     80  S   UNL A   1      42.210  22.307  26.102  1.00  0.00     0.127 S 
ATOM     81  O   UNL A   1      40.753  22.267  26.014  1.00  0.00    -0.237 OA
ATOM     82  O   UNL A   1      42.913  21.990  24.858  1.00  0.00    -0.237 OA
ATOM     83  O   UNL A   1      42.790  21.697  27.291  1.00  0.00    -0.744 OA
ENDBRANCH  77  80
ENDBRANCH  49  73
BRANCH  61  84
ATOM     84  C   UNL A   1      45.156  26.842  33.920  1.00  0.00     0.023 A 
ATOM     85  C   UNL A   1      46.465  27.339  33.761  1.00  0.00     0.012 A 
ATOM     86  C   UNL A   1      44.932  25.750  34.781  1.00  0.00     0.148 A 
ATOM     87  C   UNL A   1      47.538  26.727  34.406  1.00  0.00     0.002 A 
ATOM     88  C   UNL A   1      45.999  25.181  35.466  1.00  0.00     0.091 A 
ATOM     89  F   UNL A   1      43.682  25.279  34.908  1.00  0.00    -0.205 F 
ATOM     90  C   UNL A   1      47.304  25.656  35.267  1.00  0.00     0.022 A 
BRANCH  88  91
ATOM     91  S   UNL A   1      45.773  23.868  36.671  1.00  0.00     0.127 S 
ATOM     92  O   UNL A   1      45.307  22.768  35.829  1.00  0.00    -0.237 OA
ATOM     93  O   UNL A   1      47.125  23.699  37.204  1.00  0.00    -0.237 OA
ATOM     94  O   UNL A   1      44.805  24.373  37.636  1.00  0.00    -0.744 OA
ENDBRANCH  88  91
ENDBRANCH  61  84
ENDBRANCH  35  36
ENDBRANCH  27  30
ENDBRANCH  25  26
ENDBRANCH  24  25
ENDBRANCH  23  24
ENDBRANCH   1  23
TORSDOF 19
ENDMDL
MODEL 3
REMARK VINA RESULT:     -10.5      3.284      8.551
REMARK SMILES COCC(=O)N1[C@@H](C(=O)NCCCCCCNC(=O)c2ccc(-c3c4nc(c(-c5cccc(S(=O)(=O)[O-])c5F)c5ccc([nH]5)c(-c5cccc(S(=O)(=O)[O-])c5F)c5nc(c(-c6cccc(S(=O)(=O)[O-])c6F)c6ccc3[nH]6)C=C5)C=C4)cc2)CC[C@@H]2CCCC[C@H]21
REMARK SMILES IDX 13 1 12 2 11 3 10 4 8 5 9 6 7 8 6 9 90 10 83 11 85 12 89 13
REMARK SMILES IDX 84 14 86 15 88 16 87 17 4 18 5 19 3 20 2 21 1 22 14 23 15 24
REMARK SMILES IDX 16 25 17 26 18 27 19 29 20 30 21 31 82 32 22 33 81 34 23 35
REMARK SMILES IDX 24 36 25 37 75 38 26 39 80 40 74 41 76 42 27 43 79 44 73 45
REMARK SMILES IDX 72 46 28 48 60 49 40 50 59 51 41 52 44 53 58 54 77 55 42 56
REMARK SMILES IDX 43 57 57 59 78 60 45 61 29 62 30 63 38 64 31 65 33 66 39 67
REMARK SMILES IDX 32 68 34 69 35 70 36 71 37 72 61 73 62 74 70 75 63 76 65 77
REMARK SMILES IDX 71 78 64 79 66 80 67 81 68 82 69 83 46 84 47 85 55 86 48 87
REMARK SMILES IDX 50 88 56 89 49 90 51 91 52 92 53 93 54 94
REMARK H PARENT 10 7 17 28 76 47 44 58
REMARK Flexibility Score: inf
ROOT
ATOM      1  C   UNL A   1      32.129  29.668  25.490  1.00  0.00     0.002 C 
ENDROOT
BRANCH   1   2
ATOM      2  C   UNL A   1      33.492  28.964  25.522  1.00  0.00     0.021 C 
BRANCH   2   3
ATOM      3  C   UNL A   1      33.676  27.930  24.417  1.00  0.00     0.116 C 
BRANCH   3   4
ATOM      4  N   UNL A   1      32.450  27.788  23.650  1.00  0.00    -0.354 N 
ATOM      5  C   UNL A   1      31.781  26.670  23.258  1.00  0.00     0.242 C 
ATOM      6  O   UNL A   1      30.844  26.808  22.464  1.00  0.00    -0.273 OA
ATOM      7  H   UNL A   1      32.036  28.637  23.370  1.00  0.00     0.163 HD
BRANCH   5   8
ATOM      8  C   UNL A   1      32.299  25.261  23.611  1.00  0.00     0.174 C 
ATOM      9  N   UNL A   1      32.395  24.896  25.045  1.00  0.00    -0.325 N 
ATOM     10  C   UNL A   1      33.167  23.654  25.316  1.00  0.00     0.089 C 
ATOM     11  C   UNL A   1      33.678  25.205  22.900  1.00  0.00     0.036 C 
ATOM     12  C   UNL A   1      34.606  23.788  24.784  1.00  0.00     0.012 C 
ATOM     13  C   UNL A   1      33.134  23.108  26.756  1.00  0.00     0.025 C 
ATOM     14  C   UNL A   1      34.561  24.030  23.271  1.00  0.00     0.008 C 
ATOM     15  C   UNL A   1      35.475  22.550  25.057  1.00  0.00     0.006 C 
ATOM     16  C   UNL A   1      33.943  21.822  26.896  1.00  0.00     0.002 C 
ATOM     17  C   UNL A   1      35.390  22.063  26.496  1.00  0.00     0.000 C 
BRANCH   9  18
ATOM     18  C   UNL A   1      31.478  25.337  26.004  1.00  0.00     0.249 C 
ATOM     19  O   UNL A   1      31.803  26.133  26.889  1.00  0.00    -0.272 OA
BRANCH  18  20
ATOM     20  C   UNL A   1      30.042  24.772  26.006  1.00  0.00     0.259 C 
BRANCH  20  21
ATOM     21  O   UNL A   1      29.558  24.155  27.179  1.00  0.00    -0.375 OA
ATOM     22  C   UNL A   1      29.551  22.736  27.111  1.00  0.00     0.195 C 
ENDBRANCH  20  21
ENDBRANCH  18  20
ENDBRANCH   9  18
ENDBRANCH   5   8
ENDBRANCH   3   4
ENDBRANCH   2   3
ENDBRANCH   1   2
BRANCH   1  23
ATOM     23  C   UNL A   1      31.709  30.318  26.811  1.00  0.00     0.002 C 
BRANCH  23  24
ATOM     24  C   UNL A   1      31.610  31.844  26.773  1.00  0.00     0.021 C 
BRANCH  24  25
ATOM     25  C   UNL A   1      32.889  32.564  27.179  1.00  0.00     0.116 C 
BRANCH  25  26
ATOM     26  N   UNL A   1      32.643  33.944  27.569  1.00  0.00    -0.352 N 
ATOM     27  C   UNL A   1      33.198  34.657  28.598  1.00  0.00     0.251 C 
ATOM     28  H   UNL A   1      31.987  34.430  27.019  1.00  0.00     0.163 HD
ATOM     29  O   UNL A   1      32.744  35.761  28.896  1.00  0.00    -0.269 OA
BRANCH  27  30
ATOM     30  C   UNL A   1      34.328  34.084  29.357  1.00  0.00     0.039 A 
ATOM     31  C   UNL A   1      34.061  33.158  30.365  1.00  0.00     0.014 A 
ATOM     32  C   UNL A   1      35.645  34.457  29.071  1.00  0.00     0.014 A 
ATOM     33  C   UNL A   1      35.121  32.577  31.064  1.00  0.00     0.010 A 
ATOM     34  C   UNL A   1      36.700  33.814  29.707  1.00  0.00     0.010 A 
ATOM     35  C   UNL A   1      36.450  32.882  30.724  1.00  0.00    -0.014 A 
BRANCH  35  36
ATOM     36  C   UNL A   1      37.582  32.234  31.434  1.00  0.00     0.031 A 
ATOM     37  C   UNL A   1      38.339  31.103  30.787  1.00  0.00     0.074 A 
ATOM     38  C   UNL A   1      37.891  32.625  32.686  1.00  0.00     0.049 A 
ATOM     39  N   UNL A   1      39.353  30.422  31.252  1.00  0.00    -0.248 NA
ATOM     40  C   UNL A   1      37.882  30.661  29.458  1.00  0.00     0.031 C 
ATOM     41  C   UNL A   1      37.171  33.643  33.455  1.00  0.00     0.029 A 
ATOM     42  N   UNL A   1      38.876  32.198  33.540  1.00  0.00    -0.354 N 
ATOM     43  C   UNL A   1      39.629  29.450  30.297  1.00  0.00     0.074 A 
ATOM     44  C   UNL A   1      38.656  29.608  29.239  1.00  0.00     0.031 C 
ATOM     45  C   UNL A   1      37.745  33.768  34.662  1.00  0.00     0.029 A 
ATOM     46  C   UNL A   1      38.852  32.824  34.765  1.00  0.00     0.049 A 
ATOM     47  H   UNL A   1      39.537  31.511  33.299  1.00  0.00     0.167 HD
ATOM     48  C   UNL A   1      40.620  28.528  30.287  1.00  0.00     0.034 A 
ATOM     49  C   UNL A   1      39.630  32.651  35.850  1.00  0.00     0.034 A 
ATOM     50  C   UNL A   1      41.611  28.403  31.321  1.00  0.00     0.049 A 
ATOM     51  C   UNL A   1      40.765  31.665  35.784  1.00  0.00     0.074 A 
ATOM     52  C   UNL A   1      42.715  27.568  31.358  1.00  0.00     0.029 A 
ATOM     53  N   UNL A   1      41.615  29.120  32.506  1.00  0.00    -0.354 N 
ATOM     54  N   UNL A   1      41.114  30.874  34.799  1.00  0.00    -0.248 NA
ATOM     55  C   UNL A   1      41.640  31.582  36.962  1.00  0.00     0.031 C 
ATOM     56  C   UNL A   1      43.364  27.755  32.582  1.00  0.00     0.029 A 
ATOM     57  C   UNL A   1      42.693  28.741  33.287  1.00  0.00     0.049 A 
ATOM     58  H   UNL A   1      40.948  29.800  32.757  1.00  0.00     0.167 HD
ATOM     59  C   UNL A   1      42.273  30.231  35.221  1.00  0.00     0.074 A 
ATOM     60  C   UNL A   1      42.576  30.744  36.541  1.00  0.00     0.031 C 
ATOM     61  C   UNL A   1      43.012  29.293  34.578  1.00  0.00     0.034 A 
BRANCH  48  62
ATOM     62  C   UNL A   1      40.709  27.598  29.104  1.00  0.00     0.023 A 
ATOM     63  C   UNL A   1      39.845  26.487  29.017  1.00  0.00     0.012 A 
ATOM     64  C   UNL A   1      41.595  27.867  28.044  1.00  0.00     0.148 A 
ATOM     65  C   UNL A   1      39.884  25.641  27.909  1.00  0.00     0.002 A 
ATOM     66  C   UNL A   1      41.594  27.049  26.920  1.00  0.00     0.091 A 
ATOM     67  F   UNL A   1      42.424  28.915  28.153  1.00  0.00    -0.205 F 
ATOM     68  C   UNL A   1      40.749  25.929  26.857  1.00  0.00     0.022 A 
BRANCH  66  69
ATOM     69  S   UNL A   1      42.606  27.383  25.476  1.00  0.00     0.127 S 
ATOM     70  O   UNL A   1      43.930  27.552  26.074  1.00  0.00    -0.237 OA
ATOM     71  O   UNL A   1      42.443  26.156  24.696  1.00  0.00    -0.237 OA
ATOM     72  O   UNL A   1      42.048  28.577  24.857  1.00  0.00    -0.744 OA
ENDBRANCH  66  69
ENDBRANCH  48  62
BRANCH  49  73
ATOM     73  C   UNL A   1      39.397  33.469  37.074  1.00  0.00     0.023 A 
ATOM     74  C   UNL A   1      39.930  34.771  37.159  1.00  0.00     0.012 A 
ATOM     75  C   UNL A   1      38.640  32.966  38.149  1.00  0.00     0.148 A 
ATOM     76  C   UNL A   1      39.751  35.539  38.309  1.00  0.00     0.002 A 
ATOM     77  C   UNL A   1      38.414  33.760  39.268  1.00  0.00     0.091 A 
ATOM     78  F   UNL A   1      38.149  31.723  38.053  1.00  0.00    -0.205 F 
ATOM     79  C   UNL A   1      38.986  35.038  39.359  1.00  0.00     0.022 A 
BRANCH  77  80
ATOM     80  S   UNL A   1      37.332  33.247  40.605  1.00  0.00     0.127 S 
ATOM     81  O   UNL A   1      38.088  32.145  41.195  1.00  0.00    -0.237 OA
ATOM     82  O   UNL A   1      37.270  34.459  41.424  1.00  0.00    -0.237 OA
ATOM     83  O   UNL A   1      36.071  32.885  39.974  1.00  0.00    -0.744 OA
ENDBRANCH  77  80
ENDBRANCH  49  73
BRANCH  61  84
ATOM     84  C   UNL A   1      44.258  28.797  35.266  1.00  0.00     0.023 A 
ATOM     85  C   UNL A   1      45.512  29.360  34.958  1.00  0.00     0.012 A 
ATOM     86  C   UNL A   1      44.173  27.801  36.259  1.00  0.00     0.148 A 
ATOM     87  C   UNL A   1      46.668  28.904  35.589  1.00  0.00     0.002 A 
ATOM     88  C   UNL A   1      45.322  27.392  36.925  1.00  0.00     0.091 A 
ATOM     89  F   UNL A   1      42.974  27.264  36.528  1.00  0.00    -0.205 F 
ATOM     90  C   UNL A   1      46.571  27.929  36.580  1.00  0.00     0.022 A 
BRANCH  88  91
ATOM     91  S   UNL A   1      45.273  26.219  38.284  1.00  0.00     0.127 S 
ATOM     92  O   UNL A   1      46.682  26.152  38.670  1.00  0.00    -0.237 OA
ATOM     93  O   UNL A   1      44.407  26.897  39.250  1.00  0.00    -0.237 OA
ATOM     94  O   UNL A   1      44.714  24.991  37.734  1.00  0.00    -0.744 OA
ENDBRANCH  88  91
ENDBRANCH  61  84
ENDBRANCH  35  36
ENDBRANCH  27  30
ENDBRANCH  25  26
ENDBRANCH  24  25
ENDBRANCH  23  24
ENDBRANCH   1  23
TORSDOF 19
ENDMDL
