MODEL 1
REMARK VINA RESULT:      -9.2      0.000      0.000
REMARK SMILES COc1cc(OC)cc(-c2ccc([C@@H](C)C(=O)NCCCCCCNC(=O)c3ccc(-c4c5nc(c(-c6cccc(S(=O)(=O)[O-])c6F)c6ccc([nH]6)c(-c6cccc(S(=O)(=O)[O-])c6F)c6nc(c(-c7cccc(S(=O)(=O)[O-])c7F)c7ccc4[nH]7)C=C6)C=C5)cc3)cc2F)c1
REMARK SMILES IDX 21 1 20 2 19 3 18 4 16 5 17 6 14 8 15 9 13 10 10 11 11 12
REMARK SMILES IDX 92 13 12 14 91 15 93 16 9 17 3 18 4 19 94 20 5 21 8 22 2 23
REMARK SMILES IDX 1 24 6 25 7 26 22 27 23 28 24 29 25 30 26 31 27 33 28 34
REMARK SMILES IDX 29 35 90 36 30 37 89 38 31 39 32 40 33 41 83 42 34 43 88 44
REMARK SMILES IDX 82 45 84 46 35 47 87 48 81 49 80 50 36 52 68 53 48 54 67 55
REMARK SMILES IDX 49 56 52 57 66 58 85 59 50 60 51 61 65 63 86 64 53 65 37 66
REMARK SMILES IDX 38 67 46 68 39 69 41 70 47 71 40 72 42 73 43 74 44 75 45 76
REMARK SMILES IDX 69 77 70 78 78 79 71 80 73 81 79 82 72 83 74 84 75 85 76 86
REMARK SMILES IDX 77 87 54 88 55 89 63 90 56 91 58 92 64 93 57 94 59 95 60 96
REMARK SMILES IDX 61 97 62 98
REMARK H PARENT 18 7 25 32 84 51 52 62
REMARK Flexibility Score: inf
ROOT
ATOM      1  C   UNL A   1      33.488  35.502  32.434  1.00  0.00     0.002 C 
ENDROOT
BRANCH   1   2
ATOM      2  C   UNL A   1      33.389  35.937  30.968  1.00  0.00     0.021 C 
BRANCH   2   3
ATOM      3  C   UNL A   1      33.665  34.813  29.969  1.00  0.00     0.116 C 
BRANCH   3   4
ATOM      4  N   UNL A   1      35.042  34.821  29.517  1.00  0.00    -0.356 N 
ATOM      5  C   UNL A   1      35.995  33.851  29.508  1.00  0.00     0.227 C 
ATOM      6  O   UNL A   1      37.122  34.189  29.123  1.00  0.00    -0.274 OA
ATOM      7  H   UNL A   1      35.340  35.684  29.150  1.00  0.00     0.163 HD
BRANCH   5   8
ATOM      8  C   UNL A   1      35.740  32.398  29.936  1.00  0.00     0.105 C 
ATOM      9  C   UNL A   1      35.496  32.223  31.436  1.00  0.00     0.023 C 
BRANCH   8  10
ATOM     10  C   UNL A   1      36.694  31.404  29.293  1.00  0.00    -0.033 A 
ATOM     11  C   UNL A   1      38.496  29.461  28.207  1.00  0.00     0.018 A 
ATOM     12  C   UNL A   1      37.257  29.741  27.607  1.00  0.00     0.012 A 
ATOM     13  C   UNL A   1      38.809  30.188  29.363  1.00  0.00     0.131 A 
ATOM     14  C   UNL A   1      36.395  30.719  28.114  1.00  0.00     0.005 A 
ATOM     15  C   UNL A   1      37.924  31.127  29.908  1.00  0.00     0.044 A 
ATOM     16  F   UNL A   1      39.988  30.016  29.980  1.00  0.00    -0.206 F 
BRANCH  11  17
ATOM     17  C   UNL A   1      39.412  28.470  27.598  1.00  0.00    -0.008 A 
ATOM     18  C   UNL A   1      40.295  26.203  27.380  1.00  0.00     0.123 A 
ATOM     19  C   UNL A   1      41.181  26.646  26.396  1.00  0.00     0.092 A 
ATOM     20  C   UNL A   1      39.413  27.113  27.972  1.00  0.00     0.055 A 
ATOM     21  C   UNL A   1      41.200  27.979  25.997  1.00  0.00     0.123 A 
ATOM     22  C   UNL A   1      40.325  28.878  26.603  1.00  0.00     0.055 A 
BRANCH  18  23
ATOM     23  O   UNL A   1      40.409  24.875  27.691  1.00  0.00    -0.497 OA
ATOM     24  C   UNL A   1      41.628  24.454  28.286  1.00  0.00     0.278 C 
ENDBRANCH  18  23
BRANCH  21  25
ATOM     25  O   UNL A   1      42.111  28.286  25.025  1.00  0.00    -0.497 OA
ATOM     26  C   UNL A   1      43.254  27.441  24.919  1.00  0.00     0.278 C 
ENDBRANCH  21  25
ENDBRANCH  11  17
ENDBRANCH   8  10
ENDBRANCH   5   8
ENDBRANCH   3   4
ENDBRANCH   2   3
ENDBRANCH   1   2
BRANCH   1  27
ATOM     27  C   UNL A   1      34.908  35.495  33.015  1.00  0.00     0.002 C 
BRANCH  27  28
ATOM     28  C   UNL A   1      35.128  34.561  34.209  1.00  0.00     0.021 C 
BRANCH  28  29
ATOM     29  C   UNL A   1      36.585  34.182  34.466  1.00  0.00     0.116 C 
BRANCH  29  30
ATOM     30  N   UNL A   1      36.745  33.492  35.737  1.00  0.00    -0.352 N 
ATOM     31  C   UNL A   1      37.573  32.450  36.069  1.00  0.00     0.251 C 
ATOM     32  H   UNL A   1      36.176  33.825  36.469  1.00  0.00     0.163 HD
ATOM     33  O   UNL A   1      37.395  31.845  37.122  1.00  0.00    -0.269 OA
BRANCH  31  34
ATOM     34  C   UNL A   1      38.674  32.053  35.164  1.00  0.00     0.039 A 
ATOM     35  C   UNL A   1      38.379  31.288  34.032  1.00  0.00     0.014 A 
ATOM     36  C   UNL A   1      39.997  32.396  35.452  1.00  0.00     0.014 A 
ATOM     37  C   UNL A   1      39.406  30.904  33.167  1.00  0.00     0.010 A 
ATOM     38  C   UNL A   1      41.011  32.071  34.554  1.00  0.00     0.010 A 
ATOM     39  C   UNL A   1      40.729  31.309  33.409  1.00  0.00    -0.014 A 
BRANCH  39  40
ATOM     40  C   UNL A   1      41.830  30.939  32.483  1.00  0.00     0.031 A 
ATOM     41  C   UNL A   1      42.531  29.615  32.630  1.00  0.00     0.074 A 
ATOM     42  C   UNL A   1      42.250  31.826  31.560  1.00  0.00     0.049 A 
ATOM     43  N   UNL A   1      43.545  29.139  31.955  1.00  0.00    -0.248 NA
ATOM     44  C   UNL A   1      42.047  28.718  33.694  1.00  0.00     0.031 C 
ATOM     45  C   UNL A   1      41.701  33.170  31.367  1.00  0.00     0.029 A 
ATOM     46  N   UNL A   1      43.252  31.740  30.626  1.00  0.00    -0.354 N 
ATOM     47  C   UNL A   1      43.839  27.906  32.528  1.00  0.00     0.074 A 
ATOM     48  C   UNL A   1      42.922  27.723  33.631  1.00  0.00     0.031 C 
ATOM     49  C   UNL A   1      42.370  33.781  30.374  1.00  0.00     0.029 A 
ATOM     50  C   UNL A   1      43.409  32.884  29.878  1.00  0.00     0.049 A 
ATOM     51  H   UNL A   1      43.806  30.936  30.502  1.00  0.00     0.167 HD
ATOM     52  C   UNL A   1      44.767  26.994  32.150  1.00  0.00     0.034 A 
ATOM     53  C   UNL A   1      44.292  33.178  28.904  1.00  0.00     0.034 A 
ATOM     54  C   UNL A   1      45.646  27.159  31.024  1.00  0.00     0.049 A 
ATOM     55  C   UNL A   1      45.282  32.128  28.475  1.00  0.00     0.074 A 
ATOM     56  C   UNL A   1      46.569  26.262  30.514  1.00  0.00     0.029 A 
ATOM     57  N   UNL A   1      45.710  28.293  30.230  1.00  0.00    -0.354 N 
ATOM     58  N   UNL A   1      45.444  30.910  28.933  1.00  0.00    -0.248 NA
ATOM     59  C   UNL A   1      46.184  32.477  27.368  1.00  0.00     0.031 C 
ATOM     60  C   UNL A   1      47.202  26.861  29.420  1.00  0.00     0.029 A 
ATOM     61  C   UNL A   1      46.657  28.122  29.235  1.00  0.00     0.049 A 
ATOM     62  H   UNL A   1      45.163  29.102  30.356  1.00  0.00     0.167 HD
ATOM     63  C   UNL A   1      46.434  30.335  28.144  1.00  0.00     0.074 A 
ATOM     64  C   UNL A   1      46.821  31.331  27.167  1.00  0.00     0.031 C 
ATOM     65  C   UNL A   1      46.985  29.099  28.231  1.00  0.00     0.034 A 
BRANCH  52  66
ATOM     66  C   UNL A   1      44.835  25.702  32.923  1.00  0.00     0.023 A 
ATOM     67  C   UNL A   1      44.180  24.559  32.419  1.00  0.00     0.012 A 
ATOM     68  C   UNL A   1      45.595  25.598  34.105  1.00  0.00     0.148 A 
ATOM     69  C   UNL A   1      44.252  23.342  33.095  1.00  0.00     0.002 A 
ATOM     70  C   UNL A   1      45.699  24.369  34.749  1.00  0.00     0.091 A 
ATOM     71  F   UNL A   1      46.195  26.698  34.579  1.00  0.00    -0.205 F 
ATOM     72  C   UNL A   1      45.019  23.244  34.253  1.00  0.00     0.022 A 
BRANCH  70  73
ATOM     73  S   UNL A   1      46.726  24.117  36.201  1.00  0.00     0.127 S 
ATOM     74  O   UNL A   1      46.779  22.659  36.275  1.00  0.00    -0.237 OA
ATOM     75  O   UNL A   1      47.982  24.753  35.803  1.00  0.00    -0.237 OA
ATOM     76  O   UNL A   1      46.034  24.774  37.302  1.00  0.00    -0.744 OA
ENDBRANCH  70  73
ENDBRANCH  52  66
BRANCH  53  77
ATOM     77  C   UNL A   1      44.230  34.497  28.210  1.00  0.00     0.023 A 
ATOM     78  C   UNL A   1      43.327  34.674  27.145  1.00  0.00     0.012 A 
ATOM     79  C   UNL A   1      45.045  35.575  28.606  1.00  0.00     0.148 A 
ATOM     80  C   UNL A   1      43.262  35.888  26.460  1.00  0.00     0.002 A 
ATOM     81  C   UNL A   1      44.936  36.800  27.957  1.00  0.00     0.091 A 
ATOM     82  F   UNL A   1      45.908  35.384  29.614  1.00  0.00    -0.205 F 
ATOM     83  C   UNL A   1      44.059  36.954  26.872  1.00  0.00     0.022 A 
BRANCH  81  84
ATOM     84  S   UNL A   1      45.826  38.258  28.509  1.00  0.00     0.127 S 
ATOM     85  O   UNL A   1      45.381  38.375  29.894  1.00  0.00    -0.237 OA
ATOM     86  O   UNL A   1      47.221  37.847  28.341  1.00  0.00    -0.237 OA
ATOM     87  O   UNL A   1      45.410  39.330  27.613  1.00  0.00    -0.744 OA
ENDBRANCH  81  84
ENDBRANCH  53  77
BRANCH  65  88
ATOM     88  C   UNL A   1      48.035  28.731  27.215  1.00  0.00     0.023 A 
ATOM     89  C   UNL A   1      49.399  28.902  27.523  1.00  0.00     0.012 A 
ATOM     90  C   UNL A   1      47.670  28.150  25.985  1.00  0.00     0.148 A 
ATOM     91  C   UNL A   1      50.383  28.531  26.607  1.00  0.00     0.002 A 
ATOM     92  C   UNL A   1      48.657  27.738  25.098  1.00  0.00     0.091 A 
ATOM     93  F   UNL A   1      46.366  28.014  25.702  1.00  0.00    -0.205 F 
ATOM     94  C   UNL A   1      50.014  27.939  25.401  1.00  0.00     0.022 A 
BRANCH  92  95
ATOM     95  S   UNL A   1      48.274  26.880  23.566  1.00  0.00     0.127 S 
ATOM     96  O   UNL A   1      47.219  27.724  23.008  1.00  0.00    -0.237 OA
ATOM     97  O   UNL A   1      49.548  26.941  22.848  1.00  0.00    -0.237 OA
ATOM     98  O   UNL A   1      47.865  25.537  23.953  1.00  0.00    -0.744 OA
ENDBRANCH  92  95
ENDBRANCH  65  88
ENDBRANCH  39  40
ENDBRANCH  31  34
ENDBRANCH  29  30
ENDBRANCH  28  29
ENDBRANCH  27  28
ENDBRANCH   1  27
TORSDOF 20
ENDMDL
MODEL 2
REMARK VINA RESULT:      -9.1      1.653      2.184
REMARK SMILES COc1cc(OC)cc(-c2ccc([C@@H](C)C(=O)NCCCCCCNC(=O)c3ccc(-c4c5nc(c(-c6cccc(S(=O)(=O)[O-])c6F)c6ccc([nH]6)c(-c6cccc(S(=O)(=O)[O-])c6F)c6nc(c(-c7cccc(S(=O)(=O)[O-])c7F)c7ccc4[nH]7)C=C6)C=C5)cc3)cc2F)c1
REMARK SMILES IDX 21 1 20 2 19 3 18 4 16 5 17 6 14 8 15 9 13 10 10 11 11 12
REMARK SMILES IDX 92 13 12 14 91 15 93 16 9 17 3 18 4 19 94 20 5 21 8 22 2 23
REMARK SMILES IDX 1 24 6 25 7 26 22 27 23 28 24 29 25 30 26 31 27 33 28 34
REMARK SMILES IDX 29 35 90 36 30 37 89 38 31 39 32 40 33 41 83 42 34 43 88 44
REMARK SMILES IDX 82 45 84 46 35 47 87 48 81 49 80 50 36 52 68 53 48 54 67 55
REMARK SMILES IDX 49 56 52 57 66 58 85 59 50 60 51 61 65 63 86 64 53 65 37 66
REMARK SMILES IDX 38 67 46 68 39 69 41 70 47 71 40 72 42 73 43 74 44 75 45 76
REMARK SMILES IDX 69 77 70 78 78 79 71 80 73 81 79 82 72 83 74 84 75 85 76 86
REMARK SMILES IDX 77 87 54 88 55 89 63 90 56 91 58 92 64 93 57 94 59 95 60 96
REMARK SMILES IDX 61 97 62 98
REMARK H PARENT 18 7 25 32 84 51 52 62
REMARK Flexibility Score: inf
ROOT
ATOM      1  C   UNL A   1      32.829  35.612  29.990  1.00  0.00     0.002 C 
ENDROOT
BRANCH   1   2
ATOM      2  C   UNL A   1      33.618  36.032  28.746  1.00  0.00     0.021 C 
BRANCH   2   3
ATOM      3  C   UNL A   1      34.567  34.953  28.221  1.00  0.00     0.116 C 
BRANCH   3   4
ATOM      4  N   UNL A   1      35.781  34.875  29.008  1.00  0.00    -0.356 N 
ATOM      5  C   UNL A   1      36.362  33.841  29.674  1.00  0.00     0.227 C 
ATOM      6  O   UNL A   1      37.376  34.108  30.332  1.00  0.00    -0.274 OA
ATOM      7  H   UNL A   1      36.275  35.725  29.072  1.00  0.00     0.163 HD
BRANCH   5   8
ATOM      8  C   UNL A   1      35.834  32.399  29.639  1.00  0.00     0.105 C 
ATOM      9  C   UNL A   1      35.153  31.953  30.934  1.00  0.00     0.023 C 
BRANCH   8  10
ATOM     10  C   UNL A   1      36.815  31.413  29.025  1.00  0.00    -0.033 A 
ATOM     11  C   UNL A   1      38.674  29.492  27.997  1.00  0.00     0.018 A 
ATOM     12  C   UNL A   1      37.402  29.673  27.427  1.00  0.00     0.012 A 
ATOM     13  C   UNL A   1      38.989  30.307  29.093  1.00  0.00     0.131 A 
ATOM     14  C   UNL A   1      36.510  30.640  27.903  1.00  0.00     0.005 A 
ATOM     15  C   UNL A   1      38.077  31.236  29.610  1.00  0.00     0.044 A 
ATOM     16  F   UNL A   1      40.196  30.232  29.675  1.00  0.00    -0.206 F 
BRANCH  11  17
ATOM     17  C   UNL A   1      39.618  28.510  27.419  1.00  0.00    -0.008 A 
ATOM     18  C   UNL A   1      40.399  26.221  27.069  1.00  0.00     0.123 A 
ATOM     19  C   UNL A   1      41.449  26.702  26.285  1.00  0.00     0.092 A 
ATOM     20  C   UNL A   1      39.487  27.123  27.628  1.00  0.00     0.055 A 
ATOM     21  C   UNL A   1      41.602  28.066  26.052  1.00  0.00     0.123 A 
ATOM     22  C   UNL A   1      40.694  28.955  26.623  1.00  0.00     0.055 A 
BRANCH  18  23
ATOM     23  O   UNL A   1      40.391  24.863  27.237  1.00  0.00    -0.497 OA
ATOM     24  C   UNL A   1      39.248  24.297  27.862  1.00  0.00     0.278 C 
ENDBRANCH  18  23
BRANCH  21  25
ATOM     25  O   UNL A   1      42.668  28.409  25.267  1.00  0.00    -0.497 OA
ATOM     26  C   UNL A   1      43.838  27.604  25.376  1.00  0.00     0.278 C 
ENDBRANCH  21  25
ENDBRANCH  11  17
ENDBRANCH   8  10
ENDBRANCH   5   8
ENDBRANCH   3   4
ENDBRANCH   2   3
ENDBRANCH   1   2
BRANCH   1  27
ATOM     27  C   UNL A   1      33.377  36.150  31.318  1.00  0.00     0.002 C 
BRANCH  27  28
ATOM     28  C   UNL A   1      33.711  35.088  32.372  1.00  0.00     0.021 C 
BRANCH  28  29
ATOM     29  C   UNL A   1      35.108  35.206  32.978  1.00  0.00     0.116 C 
BRANCH  29  30
ATOM     30  N   UNL A   1      35.098  34.943  34.409  1.00  0.00    -0.352 N 
ATOM     31  C   UNL A   1      35.883  34.096  35.150  1.00  0.00     0.251 C 
ATOM     32  H   UNL A   1      34.427  35.450  34.923  1.00  0.00     0.163 HD
ATOM     33  O   UNL A   1      35.566  33.829  36.305  1.00  0.00    -0.269 OA
BRANCH  31  34
ATOM     34  C   UNL A   1      37.104  33.504  34.560  1.00  0.00     0.039 A 
ATOM     35  C   UNL A   1      36.980  32.408  33.702  1.00  0.00     0.014 A 
ATOM     36  C   UNL A   1      38.370  33.998  34.887  1.00  0.00     0.014 A 
ATOM     37  C   UNL A   1      38.123  31.836  33.138  1.00  0.00     0.010 A 
ATOM     38  C   UNL A   1      39.502  33.471  34.271  1.00  0.00     0.010 A 
ATOM     39  C   UNL A   1      39.393  32.375  33.401  1.00  0.00    -0.014 A 
BRANCH  39  40
ATOM     40  C   UNL A   1      40.617  31.803  32.784  1.00  0.00     0.031 A 
ATOM     41  C   UNL A   1      41.254  30.570  33.369  1.00  0.00     0.074 A 
ATOM     42  C   UNL A   1      41.198  32.435  31.746  1.00  0.00     0.049 A 
ATOM     43  N   UNL A   1      42.350  29.957  33.004  1.00  0.00    -0.248 NA
ATOM     44  C   UNL A   1      40.588  29.962  34.534  1.00  0.00     0.031 C 
ATOM     45  C   UNL A   1      40.718  33.678  31.136  1.00  0.00     0.029 A 
ATOM     46  N   UNL A   1      42.331  32.133  31.034  1.00  0.00    -0.354 N 
ATOM     47  C   UNL A   1      42.521  28.913  33.908  1.00  0.00     0.074 A 
ATOM     48  C   UNL A   1      41.438  28.999  34.862  1.00  0.00     0.031 C 
ATOM     49  C   UNL A   1      41.549  34.029  30.141  1.00  0.00     0.029 A 
ATOM     50  C   UNL A   1      42.631  33.054  30.056  1.00  0.00     0.049 A 
ATOM     51  H   UNL A   1      42.878  31.333  31.206  1.00  0.00     0.167 HD
ATOM     52  C   UNL A   1      43.474  27.951  33.923  1.00  0.00     0.034 A 
ATOM     53  C   UNL A   1      43.663  33.107  29.192  1.00  0.00     0.034 A 
ATOM     54  C   UNL A   1      44.523  27.841  32.945  1.00  0.00     0.049 A 
ATOM     55  C   UNL A   1      44.683  32.000  29.204  1.00  0.00     0.074 A 
ATOM     56  C   UNL A   1      45.494  26.860  32.830  1.00  0.00     0.029 A 
ATOM     57  N   UNL A   1      44.738  28.739  31.912  1.00  0.00    -0.354 N 
ATOM     58  N   UNL A   1      44.742  30.940  29.973  1.00  0.00    -0.248 NA
ATOM     59  C   UNL A   1      45.756  32.074  28.201  1.00  0.00     0.031 C 
ATOM     60  C   UNL A   1      46.305  27.175  31.735  1.00  0.00     0.029 A 
ATOM     61  C   UNL A   1      45.826  28.339  31.155  1.00  0.00     0.049 A 
ATOM     62  H   UNL A   1      44.198  29.544  31.743  1.00  0.00     0.167 HD
ATOM     63  C   UNL A   1      45.830  30.201  29.521  1.00  0.00     0.074 A 
ATOM     64  C   UNL A   1      46.389  30.925  28.398  1.00  0.00     0.031 C 
ATOM     65  C   UNL A   1      46.331  29.037  30.002  1.00  0.00     0.034 A 
BRANCH  52  66
ATOM     66  C   UNL A   1      43.390  26.897  34.998  1.00  0.00     0.023 A 
ATOM     67  C   UNL A   1      42.653  25.720  34.754  1.00  0.00     0.012 A 
ATOM     68  C   UNL A   1      44.086  27.037  36.214  1.00  0.00     0.148 A 
ATOM     69  C   UNL A   1      42.583  24.712  35.716  1.00  0.00     0.002 A 
ATOM     70  C   UNL A   1      44.048  26.009  37.150  1.00  0.00     0.091 A 
ATOM     71  F   UNL A   1      44.765  28.170  36.435  1.00  0.00    -0.205 F 
ATOM     72  C   UNL A   1      43.288  24.852  36.908  1.00  0.00     0.022 A 
BRANCH  70  73
ATOM     73  S   UNL A   1      44.985  26.054  38.681  1.00  0.00     0.127 S 
ATOM     74  O   UNL A   1      44.520  27.305  39.275  1.00  0.00    -0.237 OA
ATOM     75  O   UNL A   1      44.521  24.846  39.362  1.00  0.00    -0.237 OA
ATOM     76  O   UNL A   1      46.390  26.031  38.293  1.00  0.00    -0.744 OA
ENDBRANCH  70  73
ENDBRANCH  52  66
BRANCH  53  77
ATOM     77  C   UNL A   1      43.743  34.207  28.188  1.00  0.00     0.023 A 
ATOM     78  C   UNL A   1      43.357  33.955  26.858  1.00  0.00     0.012 A 
ATOM     79  C   UNL A   1      44.181  35.497  28.544  1.00  0.00     0.148 A 
ATOM     80  C   UNL A   1      43.443  34.957  25.890  1.00  0.00     0.002 A 
ATOM     81  C   UNL A   1      44.210  36.506  27.587  1.00  0.00     0.091 A 
ATOM     82  F   UNL A   1      44.557  35.715  29.812  1.00  0.00    -0.205 F 
ATOM     83  C   UNL A   1      43.860  36.234  26.256  1.00  0.00     0.022 A 
BRANCH  81  84
ATOM     84  S   UNL A   1      44.606  38.208  28.003  1.00  0.00     0.127 S 
ATOM     85  O   UNL A   1      46.002  38.100  28.414  1.00  0.00    -0.237 OA
ATOM     86  O   UNL A   1      44.388  38.893  26.728  1.00  0.00    -0.237 OA
ATOM     87  O   UNL A   1      43.662  38.583  29.048  1.00  0.00    -0.744 OA
ENDBRANCH  81  84
ENDBRANCH  53  77
BRANCH  65  88
ATOM     88  C   UNL A   1      47.518  28.442  29.291  1.00  0.00     0.023 A 
ATOM     89  C   UNL A   1      48.819  28.870  29.619  1.00  0.00     0.012 A 
ATOM     90  C   UNL A   1      47.346  27.408  28.349  1.00  0.00     0.148 A 
ATOM     91  C   UNL A   1      49.930  28.303  28.995  1.00  0.00     0.002 A 
ATOM     92  C   UNL A   1      48.460  26.814  27.768  1.00  0.00     0.091 A 
ATOM     93  F   UNL A   1      46.099  27.028  28.036  1.00  0.00    -0.205 F 
ATOM     94  C   UNL A   1      49.752  27.267  28.080  1.00  0.00     0.022 A 
BRANCH  92  95
ATOM     95  S   UNL A   1      48.327  25.411  26.652  1.00  0.00     0.127 S 
ATOM     96  O   UNL A   1      49.731  25.057  26.451  1.00  0.00    -0.237 OA
ATOM     97  O   UNL A   1      47.563  24.451  27.449  1.00  0.00    -0.237 OA
ATOM     98  O   UNL A   1      47.629  25.906  25.473  1.00  0.00    -0.744 OA
ENDBRANCH  92  95
ENDBRANCH  65  88
ENDBRANCH  39  40
ENDBRANCH  31  34
ENDBRANCH  29  30
ENDBRANCH  28  29
ENDBRANCH  27  28
ENDBRANCH   1  27
TORSDOF 20
ENDMDL
MODEL 3
REMARK VINA RESULT:      -9.0      4.901      8.648
REMARK SMILES COc1cc(OC)cc(-c2ccc([C@@H](C)C(=O)NCCCCCCNC(=O)c3ccc(-c4c5nc(c(-c6cccc(S(=O)(=O)[O-])c6F)c6ccc([nH]6)c(-c6cccc(S(=O)(=O)[O-])c6F)c6nc(c(-c7cccc(S(=O)(=O)[O-])c7F)c7ccc4[nH]7)C=C6)C=C5)cc3)cc2F)c1
REMARK SMILES IDX 21 1 20 2 19 3 18 4 16 5 17 6 14 8 15 9 13 10 10 11 11 12
REMARK SMILES IDX 92 13 12 14 91 15 93 16 9 17 3 18 4 19 94 20 5 21 8 22 2 23
REMARK SMILES IDX 1 24 6 25 7 26 22 27 23 28 24 29 25 30 26 31 27 33 28 34
REMARK SMILES IDX 29 35 90 36 30 37 89 38 31 39 32 40 33 41 83 42 34 43 88 44
REMARK SMILES IDX 82 45 84 46 35 47 87 48 81 49 80 50 36 52 68 53 48 54 67 55
REMARK SMILES IDX 49 56 52 57 66 58 85 59 50 60 51 61 65 63 86 64 53 65 37 66
REMARK SMILES IDX 38 67 46 68 39 69 41 70 47 71 40 72 42 73 43 74 44 75 45 76
REMARK SMILES IDX 69 77 70 78 78 79 71 80 73 81 79 82 72 83 74 84 75 85 76 86
REMARK SMILES IDX 77 87 54 88 55 89 63 90 56 91 58 92 64 93 57 94 59 95 60 96
REMARK SMILES IDX 61 97 62 98
REMARK H PARENT 18 7 25 32 84 51 52 62
REMARK Flexibility Score: inf
ROOT
ATOM      1  C   UNL A   1      40.167  27.896  27.970  1.00  0.00     0.002 C 
ENDROOT
BRANCH   1   2
ATOM      2  C   UNL A   1      40.538  26.790  26.976  1.00  0.00     0.021 C 
BRANCH   2   3
ATOM      3  C   UNL A   1      41.335  25.641  27.596  1.00  0.00     0.116 C 
BRANCH   3   4
ATOM      4  N   UNL A   1      41.820  24.718  26.588  1.00  0.00    -0.356 N 
ATOM      5  C   UNL A   1      41.540  23.408  26.354  1.00  0.00     0.227 C 
ATOM      6  O   UNL A   1      42.183  22.860  25.449  1.00  0.00    -0.274 OA
ATOM      7  H   UNL A   1      42.467  25.112  25.960  1.00  0.00     0.163 HD
BRANCH   5   8
ATOM      8  C   UNL A   1      40.489  22.606  27.136  1.00  0.00     0.105 C 
ATOM      9  C   UNL A   1      41.020  21.303  27.737  1.00  0.00     0.023 C 
BRANCH   8  10
ATOM     10  C   UNL A   1      39.148  22.516  26.426  1.00  0.00    -0.033 A 
ATOM     11  C   UNL A   1      36.656  22.468  25.015  1.00  0.00     0.018 A 
ATOM     12  C   UNL A   1      37.539  21.374  25.001  1.00  0.00     0.012 A 
ATOM     13  C   UNL A   1      37.056  23.584  25.763  1.00  0.00     0.131 A 
ATOM     14  C   UNL A   1      38.737  21.383  25.723  1.00  0.00     0.005 A 
ATOM     15  C   UNL A   1      38.281  23.619  26.440  1.00  0.00     0.044 A 
ATOM     16  F   UNL A   1      36.259  24.658  25.866  1.00  0.00    -0.206 F 
BRANCH  11  17
ATOM     17  C   UNL A   1      35.364  22.393  24.297  1.00  0.00    -0.008 A 
ATOM     18  C   UNL A   1      33.796  23.180  22.597  1.00  0.00     0.123 A 
ATOM     19  C   UNL A   1      32.891  22.188  22.977  1.00  0.00     0.092 A 
ATOM     20  C   UNL A   1      35.028  23.276  23.252  1.00  0.00     0.055 A 
ATOM     21  C   UNL A   1      33.195  21.294  24.000  1.00  0.00     0.123 A 
ATOM     22  C   UNL A   1      34.420  21.407  24.653  1.00  0.00     0.055 A 
BRANCH  18  23
ATOM     23  O   UNL A   1      33.350  24.004  21.599  1.00  0.00    -0.497 OA
ATOM     24  C   UNL A   1      33.188  25.377  21.921  1.00  0.00     0.278 C 
ENDBRANCH  18  23
BRANCH  21  25
ATOM     25  O   UNL A   1      32.226  20.370  24.276  1.00  0.00    -0.497 OA
ATOM     26  C   UNL A   1      32.635  19.007  24.352  1.00  0.00     0.278 C 
ENDBRANCH  21  25
ENDBRANCH  11  17
ENDBRANCH   8  10
ENDBRANCH   5   8
ENDBRANCH   3   4
ENDBRANCH   2   3
ENDBRANCH   1   2
BRANCH   1  27
ATOM     27  C   UNL A   1      38.762  27.781  28.576  1.00  0.00     0.002 C 
BRANCH  27  28
ATOM     28  C   UNL A   1      37.848  28.991  28.356  1.00  0.00     0.021 C 
BRANCH  28  29
ATOM     29  C   UNL A   1      38.524  30.347  28.544  1.00  0.00     0.116 C 
BRANCH  29  30
ATOM     30  N   UNL A   1      38.174  30.951  29.820  1.00  0.00    -0.352 N 
ATOM     31  C   UNL A   1      38.778  30.822  31.045  1.00  0.00     0.251 C 
ATOM     32  H   UNL A   1      37.385  31.541  29.801  1.00  0.00     0.163 HD
ATOM     33  O   UNL A   1      38.198  31.215  32.053  1.00  0.00    -0.269 OA
BRANCH  31  34
ATOM     34  C   UNL A   1      40.121  30.212  31.154  1.00  0.00     0.039 A 
ATOM     35  C   UNL A   1      41.239  30.959  30.768  1.00  0.00     0.014 A 
ATOM     36  C   UNL A   1      40.277  28.895  31.593  1.00  0.00     0.014 A 
ATOM     37  C   UNL A   1      42.514  30.398  30.864  1.00  0.00     0.010 A 
ATOM     38  C   UNL A   1      41.553  28.361  31.752  1.00  0.00     0.010 A 
ATOM     39  C   UNL A   1      42.685  29.101  31.375  1.00  0.00    -0.014 A 
BRANCH  39  40
ATOM     40  C   UNL A   1      44.036  28.499  31.516  1.00  0.00     0.031 A 
ATOM     41  C   UNL A   1      44.788  28.623  32.815  1.00  0.00     0.074 A 
ATOM     42  C   UNL A   1      44.617  27.909  30.453  1.00  0.00     0.049 A 
ATOM     43  N   UNL A   1      45.994  28.213  33.111  1.00  0.00    -0.248 NA
ATOM     44  C   UNL A   1      44.108  29.325  33.917  1.00  0.00     0.031 C 
ATOM     45  C   UNL A   1      44.021  27.791  29.121  1.00  0.00     0.029 A 
ATOM     46  N   UNL A   1      45.848  27.318  30.319  1.00  0.00    -0.354 N 
ATOM     47  C   UNL A   1      46.228  28.629  34.417  1.00  0.00     0.074 A 
ATOM     48  C   UNL A   1      45.054  29.359  34.845  1.00  0.00     0.031 C 
ATOM     49  C   UNL A   1      44.884  27.164  28.306  1.00  0.00     0.029 A 
ATOM     50  C   UNL A   1      46.103  26.857  29.048  1.00  0.00     0.049 A 
ATOM     51  H   UNL A   1      46.488  27.232  31.062  1.00  0.00     0.167 HD
ATOM     52  C   UNL A   1      47.308  28.398  35.203  1.00  0.00     0.034 A 
ATOM     53  C   UNL A   1      47.196  26.257  28.538  1.00  0.00     0.034 A 
ATOM     54  C   UNL A   1      48.453  27.633  34.790  1.00  0.00     0.049 A 
ATOM     55  C   UNL A   1      48.364  25.974  29.446  1.00  0.00     0.074 A 
ATOM     56  C   UNL A   1      49.566  27.279  35.535  1.00  0.00     0.029 A 
ATOM     57  N   UNL A   1      48.634  27.099  33.524  1.00  0.00    -0.354 N 
ATOM     58  N   UNL A   1      48.503  26.246  30.721  1.00  0.00    -0.248 NA
ATOM     59  C   UNL A   1      49.508  25.265  28.855  1.00  0.00     0.031 C 
ATOM     60  C   UNL A   1      50.426  26.544  34.712  1.00  0.00     0.029 A 
ATOM     61  C   UNL A   1      49.839  26.421  33.463  1.00  0.00     0.049 A 
ATOM     62  H   UNL A   1      47.999  27.191  32.777  1.00  0.00     0.167 HD
ATOM     63  C   UNL A   1      49.728  25.705  31.094  1.00  0.00     0.074 A 
ATOM     64  C   UNL A   1      50.282  25.073  29.915  1.00  0.00     0.031 C 
ATOM     65  C   UNL A   1      50.347  25.742  32.300  1.00  0.00     0.034 A 
BRANCH  52  66
ATOM     66  C   UNL A   1      47.275  28.926  36.614  1.00  0.00     0.023 A 
ATOM     67  C   UNL A   1      47.647  30.264  36.860  1.00  0.00     0.012 A 
ATOM     68  C   UNL A   1      46.817  28.128  37.681  1.00  0.00     0.148 A 
ATOM     69  C   UNL A   1      47.596  30.791  38.150  1.00  0.00     0.002 A 
ATOM     70  C   UNL A   1      46.726  28.675  38.957  1.00  0.00     0.091 A 
ATOM     71  F   UNL A   1      46.485  26.855  37.431  1.00  0.00    -0.205 F 
ATOM     72  C   UNL A   1      47.126  30.000  39.195  1.00  0.00     0.022 A 
BRANCH  70  73
ATOM     73  S   UNL A   1      46.058  27.768  40.357  1.00  0.00     0.127 S 
ATOM     74  O   UNL A   1      46.333  28.686  41.460  1.00  0.00    -0.237 OA
ATOM     75  O   UNL A   1      44.645  27.649  39.999  1.00  0.00    -0.237 OA
ATOM     76  O   UNL A   1      46.783  26.505  40.400  1.00  0.00    -0.744 OA
ENDBRANCH  70  73
ENDBRANCH  52  66
BRANCH  53  77
ATOM     77  C   UNL A   1      47.211  25.812  27.115  1.00  0.00     0.023 A 
ATOM     78  C   UNL A   1      46.681  24.551  26.782  1.00  0.00     0.012 A 
ATOM     79  C   UNL A   1      47.729  26.630  26.093  1.00  0.00     0.148 A 
ATOM     80  C   UNL A   1      46.701  24.095  25.463  1.00  0.00     0.002 A 
ATOM     81  C   UNL A   1      47.696  26.194  24.773  1.00  0.00     0.091 A 
ATOM     82  F   UNL A   1      48.242  27.822  26.430  1.00  0.00    -0.205 F 
ATOM     83  C   UNL A   1      47.199  24.920  24.458  1.00  0.00     0.022 A 
BRANCH  81  84
ATOM     84  S   UNL A   1      48.193  27.245  23.405  1.00  0.00     0.127 S 
ATOM     85  O   UNL A   1      47.047  28.141  23.282  1.00  0.00    -0.237 OA
ATOM     86  O   UNL A   1      49.411  27.869  23.925  1.00  0.00    -0.237 OA
ATOM     87  O   UNL A   1      48.419  26.343  22.283  1.00  0.00    -0.744 OA
ENDBRANCH  81  84
ENDBRANCH  53  77
BRANCH  65  88
ATOM     88  C   UNL A   1      51.674  25.041  32.425  1.00  0.00     0.023 A 
ATOM     89  C   UNL A   1      52.869  25.769  32.263  1.00  0.00     0.012 A 
ATOM     90  C   UNL A   1      51.736  23.677  32.772  1.00  0.00     0.148 A 
ATOM     91  C   UNL A   1      54.106  25.141  32.412  1.00  0.00     0.002 A 
ATOM     92  C   UNL A   1      52.970  23.071  32.967  1.00  0.00     0.091 A 
ATOM     93  F   UNL A   1      50.587  22.997  32.903  1.00  0.00    -0.205 F 
ATOM     94  C   UNL A   1      54.157  23.797  32.775  1.00  0.00     0.022 A 
BRANCH  92  95
ATOM     95  S   UNL A   1      53.127  21.371  33.528  1.00  0.00     0.127 S 
ATOM     96  O   UNL A   1      52.072  21.292  34.537  1.00  0.00    -0.237 OA
ATOM     97  O   UNL A   1      52.862  20.613  32.305  1.00  0.00    -0.237 OA
ATOM     98  O   UNL A   1      54.488  21.242  34.032  1.00  0.00    -0.744 OA
ENDBRANCH  92  95
ENDBRANCH  65  88
ENDBRANCH  39  40
ENDBRANCH  31  34
ENDBRANCH  29  30
ENDBRANCH  28  29
ENDBRANCH  27  28
ENDBRANCH   1  27
TORSDOF 20
ENDMDL
