MODEL 1
REMARK VINA RESULT:     -11.6      0.000      0.000
REMARK SMILES C[C@@H](C(=O)NCCCCCCNC(=O)c1ccc(-c2c3nc(c(-c4cccc(S(=O)(=O)[O-])c4F)c4ccc([nH]4)c(-c4cccc(S(=O)(=O)[O-])c4F)c4nc(c(-c5cccc(S(=O)(=O)[O-])c5F)c5ccc2[nH]5)C=C4)C=C3)cc1)c1ccc(C[C@H]2CCC[C@H]2O)cc1
REMARK SMILES IDX 8 1 7 2 6 3 5 4 3 5 4 6 2 8 1 9 78 10 79 11 90 12 80 13
REMARK SMILES IDX 89 14 81 15 82 16 83 17 84 18 87 19 85 20 86 21 88 22 9 24
REMARK SMILES IDX 10 25 11 26 12 27 13 28 14 30 15 31 16 32 77 33 17 34 76 35
REMARK SMILES IDX 18 36 19 37 20 38 70 39 21 40 75 41 69 42 71 43 22 44 74 45
REMARK SMILES IDX 68 46 67 47 23 49 55 50 35 51 54 52 36 53 39 54 53 55 72 56
REMARK SMILES IDX 37 57 38 58 52 60 73 61 40 62 24 63 25 64 33 65 26 66 28 67
REMARK SMILES IDX 34 68 27 69 29 70 30 71 31 72 32 73 56 74 57 75 65 76 58 77
REMARK SMILES IDX 60 78 66 79 59 80 61 81 62 82 63 83 64 84 41 85 42 86 50 87
REMARK SMILES IDX 43 88 45 89 51 90 44 91 46 92 47 93 48 94 49 95
REMARK H PARENT 5 7 88 23 12 29 71 48 39 59
REMARK Flexibility Score: inf
ROOT
ATOM      1  C   UNL A   1      33.456  26.761  25.486  1.00  0.00     0.002 C 
ENDROOT
BRANCH   1   2
ATOM      2  C   UNL A   1      34.501  25.652  25.670  1.00  0.00     0.021 C 
BRANCH   2   3
ATOM      3  C   UNL A   1      33.963  24.253  25.363  1.00  0.00     0.116 C 
BRANCH   3   4
ATOM      4  N   UNL A   1      33.093  23.823  26.438  1.00  0.00    -0.356 N 
ATOM      5  C   UNL A   1      31.753  23.570  26.409  1.00  0.00     0.227 C 
ATOM      6  O   UNL A   1      31.171  23.518  27.495  1.00  0.00    -0.274 OA
ATOM      7  H   UNL A   1      33.529  23.696  27.311  1.00  0.00     0.163 HD
BRANCH   5   8
ATOM      8  C   UNL A   1      31.063  23.297  25.065  1.00  0.00     0.105 C 
ATOM      9  C   UNL A   1      31.829  22.303  24.185  1.00  0.00     0.023 C 
BRANCH   8  10
ATOM     10  C   UNL A   1      30.760  24.603  24.338  1.00  0.00    -0.036 A 
ATOM     11  C   UNL A   1      31.275  24.795  23.049  1.00  0.00     0.005 A 
ATOM     12  C   UNL A   1      29.969  25.613  24.899  1.00  0.00     0.005 A 
ATOM     13  C   UNL A   1      31.079  26.002  22.381  1.00  0.00     0.004 A 
ATOM     14  C   UNL A   1      29.811  26.835  24.248  1.00  0.00     0.004 A 
ATOM     15  C   UNL A   1      30.422  27.062  23.010  1.00  0.00    -0.048 A 
BRANCH  15  16
ATOM     16  C   UNL A   1      30.428  28.440  22.403  1.00  0.00     0.041 C 
BRANCH  16  17
ATOM     17  C   UNL A   1      29.282  29.380  22.833  1.00  0.00     0.022 C 
ATOM     18  C   UNL A   1      29.642  30.475  23.855  1.00  0.00     0.007 C 
ATOM     19  C   UNL A   1      28.494  30.117  21.738  1.00  0.00     0.117 C 
ATOM     20  C   UNL A   1      28.691  31.644  23.579  1.00  0.00     0.003 C 
ATOM     21  C   UNL A   1      27.697  31.141  22.537  1.00  0.00     0.032 C 
BRANCH  19  22
ATOM     22  O   UNL A   1      29.281  30.811  20.789  1.00  0.00    -0.393 OA
ATOM     23  H   UNL A   1      29.140  30.428  19.909  1.00  0.00     0.210 HD
ENDBRANCH  19  22
ENDBRANCH  16  17
ENDBRANCH  15  16
ENDBRANCH   8  10
ENDBRANCH   5   8
ENDBRANCH   3   4
ENDBRANCH   2   3
ENDBRANCH   1   2
BRANCH   1  24
ATOM     24  C   UNL A   1      33.804  27.790  24.407  1.00  0.00     0.002 C 
BRANCH  24  25
ATOM     25  C   UNL A   1      33.099  29.138  24.566  1.00  0.00     0.021 C 
BRANCH  25  26
ATOM     26  C   UNL A   1      32.562  29.396  25.969  1.00  0.00     0.116 C 
BRANCH  26  27
ATOM     27  N   UNL A   1      32.356  30.815  26.212  1.00  0.00    -0.352 N 
ATOM     28  C   UNL A   1      33.025  31.650  27.073  1.00  0.00     0.251 C 
ATOM     29  H   UNL A   1      31.638  31.236  25.687  1.00  0.00     0.163 HD
ATOM     30  O   UNL A   1      32.579  32.764  27.321  1.00  0.00    -0.269 OA
BRANCH  28  31
ATOM     31  C   UNL A   1      34.279  31.189  27.706  1.00  0.00     0.039 A 
ATOM     32  C   UNL A   1      35.281  32.122  27.982  1.00  0.00     0.014 A 
ATOM     33  C   UNL A   1      34.462  29.841  28.027  1.00  0.00     0.014 A 
ATOM     34  C   UNL A   1      36.449  31.708  28.624  1.00  0.00     0.010 A 
ATOM     35  C   UNL A   1      35.590  29.446  28.738  1.00  0.00     0.010 A 
ATOM     36  C   UNL A   1      36.602  30.373  29.033  1.00  0.00    -0.014 A 
BRANCH  36  37
ATOM     37  C   UNL A   1      37.809  29.931  29.778  1.00  0.00     0.031 A 
ATOM     38  C   UNL A   1      38.079  30.450  31.164  1.00  0.00     0.074 A 
ATOM     39  C   UNL A   1      38.702  29.120  29.175  1.00  0.00     0.049 A 
ATOM     40  N   UNL A   1      39.098  30.211  31.948  1.00  0.00    -0.248 NA
ATOM     41  C   UNL A   1      37.090  31.381  31.735  1.00  0.00     0.031 C 
ATOM     42  C   UNL A   1      38.594  28.615  27.805  1.00  0.00     0.029 A 
ATOM     43  N   UNL A   1      39.890  28.602  29.627  1.00  0.00    -0.354 N 
ATOM     44  C   UNL A   1      38.894  30.986  33.084  1.00  0.00     0.074 A 
ATOM     45  C   UNL A   1      37.671  31.728  32.875  1.00  0.00     0.031 C 
ATOM     46  C   UNL A   1      39.666  27.856  27.530  1.00  0.00     0.029 A 
ATOM     47  C   UNL A   1      40.555  27.849  28.688  1.00  0.00     0.049 A 
ATOM     48  H   UNL A   1      40.233  28.755  30.537  1.00  0.00     0.167 HD
ATOM     49  C   UNL A   1      39.643  31.053  34.211  1.00  0.00     0.034 A 
ATOM     50  C   UNL A   1      41.751  27.233  28.746  1.00  0.00     0.034 A 
ATOM     51  C   UNL A   1      40.838  30.285  34.430  1.00  0.00     0.049 A 
ATOM     52  C   UNL A   1      42.543  27.292  30.024  1.00  0.00     0.074 A 
ATOM     53  C   UNL A   1      41.615  30.213  35.572  1.00  0.00     0.029 A 
ATOM     54  N   UNL A   1      41.440  29.467  33.486  1.00  0.00    -0.354 N 
ATOM     55  N   UNL A   1      42.253  27.902  31.147  1.00  0.00    -0.248 NA
ATOM     56  C   UNL A   1      43.810  26.546  30.056  1.00  0.00     0.031 C 
ATOM     57  C   UNL A   1      42.706  29.380  35.307  1.00  0.00     0.029 A 
ATOM     58  C   UNL A   1      42.586  28.899  34.014  1.00  0.00     0.049 A 
ATOM     59  H   UNL A   1      41.101  29.313  32.574  1.00  0.00     0.167 HD
ATOM     60  C   UNL A   1      43.279  27.587  32.030  1.00  0.00     0.074 A 
ATOM     61  C   UNL A   1      44.187  26.713  31.317  1.00  0.00     0.031 C 
ATOM     62  C   UNL A   1      43.458  27.993  33.311  1.00  0.00     0.034 A 
BRANCH  49  63
ATOM     63  C   UNL A   1      39.170  31.963  35.315  1.00  0.00     0.023 A 
ATOM     64  C   UNL A   1      38.246  31.487  36.267  1.00  0.00     0.012 A 
ATOM     65  C   UNL A   1      39.693  33.264  35.451  1.00  0.00     0.148 A 
ATOM     66  C   UNL A   1      37.822  32.303  37.316  1.00  0.00     0.002 A 
ATOM     67  C   UNL A   1      39.303  34.054  36.527  1.00  0.00     0.091 A 
ATOM     68  F   UNL A   1      40.556  33.706  34.525  1.00  0.00    -0.205 F 
ATOM     69  C   UNL A   1      38.358  33.580  37.451  1.00  0.00     0.022 A 
BRANCH  67  70
ATOM     70  S   UNL A   1      39.997  35.680  36.838  1.00  0.00     0.127 S 
ATOM     71  O   UNL A   1      41.424  35.376  36.944  1.00  0.00    -0.237 OA
ATOM     72  O   UNL A   1      39.618  36.412  35.630  1.00  0.00    -0.237 OA
ATOM     73  O   UNL A   1      39.371  36.159  38.062  1.00  0.00    -0.744 OA
ENDBRANCH  67  70
ENDBRANCH  49  63
BRANCH  50  74
ATOM     74  C   UNL A   1      42.249  26.462  27.572  1.00  0.00     0.023 A 
ATOM     75  C   UNL A   1      43.073  27.097  26.621  1.00  0.00     0.012 A 
ATOM     76  C   UNL A   1      41.935  25.100  27.408  1.00  0.00     0.148 A 
ATOM     77  C   UNL A   1      43.544  26.396  25.509  1.00  0.00     0.002 A 
ATOM     78  C   UNL A   1      42.455  24.394  26.331  1.00  0.00     0.091 A 
ATOM     79  F   UNL A   1      41.143  24.518  28.320  1.00  0.00    -0.205 F 
ATOM     80  C   UNL A   1      43.244  25.044  25.369  1.00  0.00     0.022 A 
BRANCH  78  81
ATOM     81  S   UNL A   1      42.232  22.621  26.143  1.00  0.00     0.127 S 
ATOM     82  O   UNL A   1      40.778  22.510  26.064  1.00  0.00    -0.237 OA
ATOM     83  O   UNL A   1      42.941  22.361  24.889  1.00  0.00    -0.237 OA
ATOM     84  O   UNL A   1      42.849  22.019  27.316  1.00  0.00    -0.744 OA
ENDBRANCH  78  81
ENDBRANCH  50  74
BRANCH  62  85
ATOM     85  C   UNL A   1      44.661  27.467  34.050  1.00  0.00     0.023 A 
ATOM     86  C   UNL A   1      45.843  28.231  34.114  1.00  0.00     0.012 A 
ATOM     87  C   UNL A   1      44.591  26.242  34.744  1.00  0.00     0.148 A 
ATOM     88  C   UNL A   1      46.949  27.766  34.825  1.00  0.00     0.002 A 
ATOM     89  C   UNL A   1      45.678  25.812  35.495  1.00  0.00     0.091 A 
ATOM     90  F   UNL A   1      43.463  25.521  34.658  1.00  0.00    -0.205 F 
ATOM     91  C   UNL A   1      46.863  26.565  35.525  1.00  0.00     0.022 A 
BRANCH  89  92
ATOM     92  S   UNL A   1      45.624  24.330  36.508  1.00  0.00     0.127 S 
ATOM     93  O   UNL A   1      46.933  23.738  36.241  1.00  0.00    -0.237 OA
ATOM     94  O   UNL A   1      45.468  24.882  37.855  1.00  0.00    -0.237 OA
ATOM     95  O   UNL A   1      44.481  23.560  36.034  1.00  0.00    -0.744 OA
ENDBRANCH  89  92
ENDBRANCH  62  85
ENDBRANCH  36  37
ENDBRANCH  28  31
ENDBRANCH  26  27
ENDBRANCH  25  26
ENDBRANCH  24  25
ENDBRANCH   1  24
TORSDOF 20
ENDMDL
MODEL 2
REMARK VINA RESULT:     -11.6      2.404      7.955
REMARK SMILES C[C@@H](C(=O)NCCCCCCNC(=O)c1ccc(-c2c3nc(c(-c4cccc(S(=O)(=O)[O-])c4F)c4ccc([nH]4)c(-c4cccc(S(=O)(=O)[O-])c4F)c4nc(c(-c5cccc(S(=O)(=O)[O-])c5F)c5ccc2[nH]5)C=C4)C=C3)cc1)c1ccc(C[C@H]2CCC[C@H]2O)cc1
REMARK SMILES IDX 8 1 7 2 6 3 5 4 3 5 4 6 2 8 1 9 78 10 79 11 90 12 80 13
REMARK SMILES IDX 89 14 81 15 82 16 83 17 84 18 87 19 85 20 86 21 88 22 9 24
REMARK SMILES IDX 10 25 11 26 12 27 13 28 14 30 15 31 16 32 77 33 17 34 76 35
REMARK SMILES IDX 18 36 19 37 20 38 70 39 21 40 75 41 69 42 71 43 22 44 74 45
REMARK SMILES IDX 68 46 67 47 23 49 55 50 35 51 54 52 36 53 39 54 53 55 72 56
REMARK SMILES IDX 37 57 38 58 52 60 73 61 40 62 24 63 25 64 33 65 26 66 28 67
REMARK SMILES IDX 34 68 27 69 29 70 30 71 31 72 32 73 56 74 57 75 65 76 58 77
REMARK SMILES IDX 60 78 66 79 59 80 61 81 62 82 63 83 64 84 41 85 42 86 50 87
REMARK SMILES IDX 43 88 45 89 51 90 44 91 46 92 47 93 48 94 49 95
REMARK H PARENT 5 7 88 23 12 29 71 48 39 59
REMARK Flexibility Score: inf
ROOT
ATOM      1  C   UNL A   1      32.605  29.642  27.238  1.00  0.00     0.002 C 
ENDROOT
BRANCH   1   2
ATOM      2  C   UNL A   1      32.761  28.160  26.868  1.00  0.00     0.021 C 
BRANCH   2   3
ATOM      3  C   UNL A   1      31.428  27.413  26.775  1.00  0.00     0.116 C 
BRANCH   3   4
ATOM      4  N   UNL A   1      31.649  25.999  26.994  1.00  0.00    -0.356 N 
ATOM      5  C   UNL A   1      31.723  24.990  26.080  1.00  0.00     0.227 C 
ATOM      6  O   UNL A   1      31.608  23.839  26.507  1.00  0.00    -0.274 OA
ATOM      7  H   UNL A   1      31.760  25.728  27.934  1.00  0.00     0.163 HD
BRANCH   5   8
ATOM      8  C   UNL A   1      32.012  25.322  24.609  1.00  0.00     0.105 C 
ATOM      9  C   UNL A   1      33.412  25.904  24.385  1.00  0.00     0.023 C 
BRANCH   8  10
ATOM     10  C   UNL A   1      30.915  26.207  24.029  1.00  0.00    -0.036 A 
ATOM     11  C   UNL A   1      31.280  27.330  23.272  1.00  0.00     0.005 A 
ATOM     12  C   UNL A   1      29.552  25.936  24.205  1.00  0.00     0.005 A 
ATOM     13  C   UNL A   1      30.309  28.202  22.786  1.00  0.00     0.004 A 
ATOM     14  C   UNL A   1      28.585  26.833  23.755  1.00  0.00     0.004 A 
ATOM     15  C   UNL A   1      28.961  28.009  23.098  1.00  0.00    -0.048 A 
BRANCH  15  16
ATOM     16  C   UNL A   1      27.940  29.074  22.796  1.00  0.00     0.041 C 
BRANCH  16  17
ATOM     17  C   UNL A   1      28.495  30.464  22.421  1.00  0.00     0.022 C 
ATOM     18  C   UNL A   1      28.071  31.023  21.050  1.00  0.00     0.007 C 
ATOM     19  C   UNL A   1      28.267  31.628  23.400  1.00  0.00     0.117 C 
ATOM     20  C   UNL A   1      28.074  32.548  21.193  1.00  0.00     0.003 C 
ATOM     21  C   UNL A   1      28.664  32.841  22.568  1.00  0.00     0.032 C 
BRANCH  19  22
ATOM     22  O   UNL A   1      26.931  31.804  23.831  1.00  0.00    -0.393 OA
ATOM     23  H   UNL A   1      26.918  32.348  24.634  1.00  0.00     0.210 HD
ENDBRANCH  19  22
ENDBRANCH  16  17
ENDBRANCH  15  16
ENDBRANCH   8  10
ENDBRANCH   5   8
ENDBRANCH   3   4
ENDBRANCH   2   3
ENDBRANCH   1   2
BRANCH   1  24
ATOM     24  C   UNL A   1      31.817  30.470  26.218  1.00  0.00     0.002 C 
BRANCH  24  25
ATOM     25  C   UNL A   1      31.613  31.934  26.615  1.00  0.00     0.021 C 
BRANCH  25  26
ATOM     26  C   UNL A   1      32.818  32.564  27.304  1.00  0.00     0.116 C 
BRANCH  26  27
ATOM     27  N   UNL A   1      32.587  33.967  27.611  1.00  0.00    -0.352 N 
ATOM     28  C   UNL A   1      33.137  34.735  28.606  1.00  0.00     0.251 C 
ATOM     29  H   UNL A   1      31.946  34.430  27.024  1.00  0.00     0.163 HD
ATOM     30  O   UNL A   1      32.667  35.837  28.866  1.00  0.00    -0.269 OA
BRANCH  28  31
ATOM     31  C   UNL A   1      34.294  34.218  29.369  1.00  0.00     0.039 A 
ATOM     32  C   UNL A   1      34.062  33.500  30.544  1.00  0.00     0.014 A 
ATOM     33  C   UNL A   1      35.600  34.441  28.923  1.00  0.00     0.014 A 
ATOM     34  C   UNL A   1      35.143  32.964  31.246  1.00  0.00     0.010 A 
ATOM     35  C   UNL A   1      36.667  33.839  29.580  1.00  0.00     0.010 A 
ATOM     36  C   UNL A   1      36.452  33.104  30.756  1.00  0.00    -0.014 A 
BRANCH  36  37
ATOM     37  C   UNL A   1      37.605  32.482  31.455  1.00  0.00     0.031 A 
ATOM     38  C   UNL A   1      38.342  31.329  30.830  1.00  0.00     0.074 A 
ATOM     39  C   UNL A   1      37.941  32.906  32.691  1.00  0.00     0.049 A 
ATOM     40  N   UNL A   1      39.341  30.634  31.307  1.00  0.00    -0.248 NA
ATOM     41  C   UNL A   1      37.880  30.879  29.505  1.00  0.00     0.031 C 
ATOM     42  C   UNL A   1      37.252  33.961  33.438  1.00  0.00     0.029 A 
ATOM     43  N   UNL A   1      38.928  32.484  33.546  1.00  0.00    -0.354 N 
ATOM     44  C   UNL A   1      39.603  29.646  30.366  1.00  0.00     0.074 A 
ATOM     45  C   UNL A   1      38.637  29.810  29.303  1.00  0.00     0.031 C 
ATOM     46  C   UNL A   1      37.840  34.107  34.636  1.00  0.00     0.029 A 
ATOM     47  C   UNL A   1      38.923  33.135  34.757  1.00  0.00     0.049 A 
ATOM     48  H   UNL A   1      39.578  31.782  33.314  1.00  0.00     0.167 HD
ATOM     49  C   UNL A   1      40.576  28.704  30.372  1.00  0.00     0.034 A 
ATOM     50  C   UNL A   1      39.693  32.962  35.848  1.00  0.00     0.034 A 
ATOM     51  C   UNL A   1      41.559  28.569  31.413  1.00  0.00     0.049 A 
ATOM     52  C   UNL A   1      40.792  31.934  35.813  1.00  0.00     0.074 A 
ATOM     53  C   UNL A   1      42.640  27.708  31.466  1.00  0.00     0.029 A 
ATOM     54  N   UNL A   1      41.573  29.301  32.590  1.00  0.00    -0.354 N 
ATOM     55  N   UNL A   1      41.125  31.116  34.845  1.00  0.00    -0.248 NA
ATOM     56  C   UNL A   1      41.645  31.833  37.005  1.00  0.00     0.031 C 
ATOM     57  C   UNL A   1      43.287  27.895  32.692  1.00  0.00     0.029 A 
ATOM     58  C   UNL A   1      42.635  28.901  33.383  1.00  0.00     0.049 A 
ATOM     59  H   UNL A   1      40.924  30.002  32.827  1.00  0.00     0.167 HD
ATOM     60  C   UNL A   1      42.245  30.428  35.294  1.00  0.00     0.074 A 
ATOM     61  C   UNL A   1      42.547  30.942  36.614  1.00  0.00     0.031 C 
ATOM     62  C   UNL A   1      42.954  29.452  34.675  1.00  0.00     0.034 A 
BRANCH  49  63
ATOM     63  C   UNL A   1      40.654  27.766  29.196  1.00  0.00     0.023 A 
ATOM     64  C   UNL A   1      39.792  26.652  29.129  1.00  0.00     0.012 A 
ATOM     65  C   UNL A   1      41.530  28.025  28.123  1.00  0.00     0.148 A 
ATOM     66  C   UNL A   1      39.825  25.791  28.032  1.00  0.00     0.002 A 
ATOM     67  C   UNL A   1      41.523  27.190  27.011  1.00  0.00     0.091 A 
ATOM     68  F   UNL A   1      42.356  29.077  28.212  1.00  0.00    -0.205 F 
ATOM     69  C   UNL A   1      40.681  26.067  26.971  1.00  0.00     0.022 A 
BRANCH  67  70
ATOM     70  S   UNL A   1      42.527  27.504  25.556  1.00  0.00     0.127 S 
ATOM     71  O   UNL A   1      43.854  27.680  26.146  1.00  0.00    -0.237 OA
ATOM     72  O   UNL A   1      42.358  26.267  24.794  1.00  0.00    -0.237 OA
ATOM     73  O   UNL A   1      41.965  28.690  24.925  1.00  0.00    -0.744 OA
ENDBRANCH  67  70
ENDBRANCH  49  63
BRANCH  50  74
ATOM     74  C   UNL A   1      39.483  33.817  37.051  1.00  0.00     0.023 A 
ATOM     75  C   UNL A   1      39.918  35.156  37.038  1.00  0.00     0.012 A 
ATOM     76  C   UNL A   1      38.830  33.317  38.193  1.00  0.00     0.148 A 
ATOM     77  C   UNL A   1      39.738  35.972  38.157  1.00  0.00     0.002 A 
ATOM     78  C   UNL A   1      38.602  34.151  39.281  1.00  0.00     0.091 A 
ATOM     79  F   UNL A   1      38.430  32.037  38.188  1.00  0.00    -0.205 F 
ATOM     80  C   UNL A   1      39.073  35.473  39.274  1.00  0.00     0.022 A 
BRANCH  78  81
ATOM     81  S   UNL A   1      37.637  33.635  40.706  1.00  0.00     0.127 S 
ATOM     82  O   UNL A   1      36.462  33.042  40.072  1.00  0.00    -0.237 OA
ATOM     83  O   UNL A   1      38.539  32.680  41.350  1.00  0.00    -0.237 OA
ATOM     84  O   UNL A   1      37.395  34.845  41.478  1.00  0.00    -0.744 OA
ENDBRANCH  78  81
ENDBRANCH  50  74
BRANCH  62  85
ATOM     85  C   UNL A   1      44.156  28.897  35.393  1.00  0.00     0.023 A 
ATOM     86  C   UNL A   1      45.426  29.476  35.200  1.00  0.00     0.012 A 
ATOM     87  C   UNL A   1      44.011  27.843  36.317  1.00  0.00     0.148 A 
ATOM     88  C   UNL A   1      46.538  28.990  35.887  1.00  0.00     0.002 A 
ATOM     89  C   UNL A   1      45.113  27.401  37.038  1.00  0.00     0.091 A 
ATOM     90  F   UNL A   1      42.797  27.293  36.476  1.00  0.00    -0.205 F 
ATOM     91  C   UNL A   1      46.380  27.963  36.814  1.00  0.00     0.022 A 
BRANCH  89  92
ATOM     92  S   UNL A   1      44.986  26.152  38.324  1.00  0.00     0.127 S 
ATOM     93  O   UNL A   1      44.506  24.996  37.570  1.00  0.00    -0.237 OA
ATOM     94  O   UNL A   1      46.371  26.046  38.788  1.00  0.00    -0.237 OA
ATOM     95  O   UNL A   1      44.056  26.684  39.312  1.00  0.00    -0.744 OA
ENDBRANCH  89  92
ENDBRANCH  62  85
ENDBRANCH  36  37
ENDBRANCH  28  31
ENDBRANCH  26  27
ENDBRANCH  25  26
ENDBRANCH  24  25
ENDBRANCH   1  24
TORSDOF 20
ENDMDL
MODEL 3
REMARK VINA RESULT:     -11.5      4.859      9.744
REMARK SMILES C[C@@H](C(=O)NCCCCCCNC(=O)c1ccc(-c2c3nc(c(-c4cccc(S(=O)(=O)[O-])c4F)c4ccc([nH]4)c(-c4cccc(S(=O)(=O)[O-])c4F)c4nc(c(-c5cccc(S(=O)(=O)[O-])c5F)c5ccc2[nH]5)C=C4)C=C3)cc1)c1ccc(C[C@H]2CCC[C@H]2O)cc1
REMARK SMILES IDX 8 1 7 2 6 3 5 4 3 5 4 6 2 8 1 9 78 10 79 11 90 12 80 13
REMARK SMILES IDX 89 14 81 15 82 16 83 17 84 18 87 19 85 20 86 21 88 22 9 24
REMARK SMILES IDX 10 25 11 26 12 27 13 28 14 30 15 31 16 32 77 33 17 34 76 35
REMARK SMILES IDX 18 36 19 37 20 38 70 39 21 40 75 41 69 42 71 43 22 44 74 45
REMARK SMILES IDX 68 46 67 47 23 49 55 50 35 51 54 52 36 53 39 54 53 55 72 56
REMARK SMILES IDX 37 57 38 58 52 60 73 61 40 62 24 63 25 64 33 65 26 66 28 67
REMARK SMILES IDX 34 68 27 69 29 70 30 71 31 72 32 73 56 74 57 75 65 76 58 77
REMARK SMILES IDX 60 78 66 79 59 80 61 81 62 82 63 83 64 84 41 85 42 86 50 87
REMARK SMILES IDX 43 88 45 89 51 90 44 91 46 92 47 93 48 94 49 95
REMARK H PARENT 5 7 88 23 12 29 71 48 39 59
REMARK Flexibility Score: inf
ROOT
ATOM      1  C   UNL A   1      34.346  20.204  24.736  1.00  0.00     0.002 C 
ENDROOT
BRANCH   1   2
ATOM      2  C   UNL A   1      33.171  20.424  25.699  1.00  0.00     0.021 C 
BRANCH   2   3
ATOM      3  C   UNL A   1      32.009  21.198  25.072  1.00  0.00     0.116 C 
BRANCH   3   4
ATOM      4  N   UNL A   1      31.414  22.067  26.067  1.00  0.00    -0.356 N 
ATOM      5  C   UNL A   1      31.845  23.280  26.516  1.00  0.00     0.227 C 
ATOM      6  O   UNL A   1      31.359  23.689  27.572  1.00  0.00    -0.274 OA
ATOM      7  H   UNL A   1      30.583  21.734  26.476  1.00  0.00     0.163 HD
BRANCH   5   8
ATOM      8  C   UNL A   1      32.837  24.090  25.671  1.00  0.00     0.105 C 
ATOM      9  C   UNL A   1      34.284  23.977  26.165  1.00  0.00     0.023 C 
BRANCH   8  10
ATOM     10  C   UNL A   1      32.380  25.539  25.540  1.00  0.00    -0.036 A 
ATOM     11  C   UNL A   1      31.081  25.800  25.082  1.00  0.00     0.005 A 
ATOM     12  C   UNL A   1      33.200  26.623  25.876  1.00  0.00     0.005 A 
ATOM     13  C   UNL A   1      30.651  27.110  24.881  1.00  0.00     0.004 A 
ATOM     14  C   UNL A   1      32.783  27.931  25.633  1.00  0.00     0.004 A 
ATOM     15  C   UNL A   1      31.527  28.181  25.071  1.00  0.00    -0.048 A 
BRANCH  15  16
ATOM     16  C   UNL A   1      31.158  29.568  24.617  1.00  0.00     0.041 C 
BRANCH  16  17
ATOM     17  C   UNL A   1      29.898  29.684  23.735  1.00  0.00     0.022 C 
ATOM     18  C   UNL A   1      29.134  31.021  23.803  1.00  0.00     0.007 C 
ATOM     19  C   UNL A   1      30.032  29.393  22.231  1.00  0.00     0.117 C 
ATOM     20  C   UNL A   1      28.467  31.200  22.436  1.00  0.00     0.003 C 
ATOM     21  C   UNL A   1      28.706  29.899  21.677  1.00  0.00     0.032 C 
BRANCH  19  22
ATOM     22  O   UNL A   1      31.079  30.079  21.572  1.00  0.00    -0.393 OA
ATOM     23  H   UNL A   1      31.092  31.005  21.861  1.00  0.00     0.210 HD
ENDBRANCH  19  22
ENDBRANCH  16  17
ENDBRANCH  15  16
ENDBRANCH   8  10
ENDBRANCH   5   8
ENDBRANCH   3   4
ENDBRANCH   2   3
ENDBRANCH   1   2
BRANCH   1  24
ATOM     24  C   UNL A   1      35.706  20.652  25.280  1.00  0.00     0.002 C 
BRANCH  24  25
ATOM     25  C   UNL A   1      36.466  21.615  24.367  1.00  0.00     0.021 C 
BRANCH  25  26
ATOM     26  C   UNL A   1      37.728  22.198  24.992  1.00  0.00     0.116 C 
BRANCH  26  27
ATOM     27  N   UNL A   1      38.473  21.194  25.734  1.00  0.00    -0.352 N 
ATOM     28  C   UNL A   1      39.583  21.352  26.525  1.00  0.00     0.251 C 
ATOM     29  H   UNL A   1      38.135  20.272  25.657  1.00  0.00     0.163 HD
ATOM     30  O   UNL A   1      40.220  20.373  26.896  1.00  0.00    -0.269 OA
BRANCH  28  31
ATOM     31  C   UNL A   1      40.010  22.713  26.916  1.00  0.00     0.039 A 
ATOM     32  C   UNL A   1      40.909  22.862  27.975  1.00  0.00     0.014 A 
ATOM     33  C   UNL A   1      39.525  23.834  26.238  1.00  0.00     0.014 A 
ATOM     34  C   UNL A   1      41.357  24.138  28.321  1.00  0.00     0.010 A 
ATOM     35  C   UNL A   1      40.034  25.094  26.533  1.00  0.00     0.010 A 
ATOM     36  C   UNL A   1      40.946  25.262  27.586  1.00  0.00    -0.014 A 
BRANCH  36  37
ATOM     37  C   UNL A   1      41.467  26.617  27.899  1.00  0.00     0.031 A 
ATOM     38  C   UNL A   1      42.892  26.977  27.576  1.00  0.00     0.074 A 
ATOM     39  C   UNL A   1      40.678  27.499  28.545  1.00  0.00     0.049 A 
ATOM     40  N   UNL A   1      43.533  28.092  27.813  1.00  0.00    -0.248 NA
ATOM     41  C   UNL A   1      43.713  25.941  26.927  1.00  0.00     0.031 C 
ATOM     42  C   UNL A   1      39.306  27.241  28.985  1.00  0.00     0.029 A 
ATOM     43  N   UNL A   1      40.926  28.781  28.968  1.00  0.00    -0.354 N 
ATOM     44  C   UNL A   1      44.836  27.881  27.379  1.00  0.00     0.074 A 
ATOM     45  C   UNL A   1      44.905  26.522  26.893  1.00  0.00     0.031 C 
ATOM     46  C   UNL A   1      38.832  28.330  29.610  1.00  0.00     0.029 A 
ATOM     47  C   UNL A   1      39.875  29.350  29.648  1.00  0.00     0.049 A 
ATOM     48  H   UNL A   1      41.776  29.249  28.801  1.00  0.00     0.167 HD
ATOM     49  C   UNL A   1      45.875  28.750  27.360  1.00  0.00     0.034 A 
ATOM     50  C   UNL A   1      39.766  30.552  30.246  1.00  0.00     0.034 A 
ATOM     51  C   UNL A   1      45.793  30.114  27.809  1.00  0.00     0.049 A 
ATOM     52  C   UNL A   1      40.923  31.512  30.177  1.00  0.00     0.074 A 
ATOM     53  C   UNL A   1      46.762  31.098  27.746  1.00  0.00     0.029 A 
ATOM     54  N   UNL A   1      44.685  30.682  28.418  1.00  0.00    -0.354 N 
ATOM     55  N   UNL A   1      42.097  31.349  29.617  1.00  0.00    -0.248 NA
ATOM     56  C   UNL A   1      40.727  32.834  30.787  1.00  0.00     0.031 C 
ATOM     57  C   UNL A   1      46.252  32.252  28.349  1.00  0.00     0.029 A 
ATOM     58  C   UNL A   1      44.951  31.999  28.750  1.00  0.00     0.049 A 
ATOM     59  H   UNL A   1      43.834  30.217  28.589  1.00  0.00     0.167 HD
ATOM     60  C   UNL A   1      42.766  32.557  29.775  1.00  0.00     0.074 A 
ATOM     61  C   UNL A   1      41.857  33.449  30.464  1.00  0.00     0.031 C 
ATOM     62  C   UNL A   1      44.023  32.893  29.394  1.00  0.00     0.034 A 
BRANCH  49  63
ATOM     63  C   UNL A   1      47.187  28.265  26.800  1.00  0.00     0.023 A 
ATOM     64  C   UNL A   1      48.241  27.927  27.674  1.00  0.00     0.012 A 
ATOM     65  C   UNL A   1      47.353  28.077  25.413  1.00  0.00     0.148 A 
ATOM     66  C   UNL A   1      49.451  27.444  27.176  1.00  0.00     0.002 A 
ATOM     67  C   UNL A   1      48.545  27.549  24.928  1.00  0.00     0.091 A 
ATOM     68  F   UNL A   1      46.348  28.422  24.596  1.00  0.00    -0.205 F 
ATOM     69  C   UNL A   1      49.598  27.245  25.806  1.00  0.00     0.022 A 
BRANCH  67  70
ATOM     70  S   UNL A   1      48.804  27.176  23.191  1.00  0.00     0.127 S 
ATOM     71  O   UNL A   1      48.141  28.308  22.544  1.00  0.00    -0.237 OA
ATOM     72  O   UNL A   1      50.263  27.185  23.090  1.00  0.00    -0.237 OA
ATOM     73  O   UNL A   1      48.185  25.878  22.959  1.00  0.00    -0.744 OA
ENDBRANCH  67  70
ENDBRANCH  49  63
BRANCH  50  74
ATOM     74  C   UNL A   1      38.494  30.934  30.921  1.00  0.00     0.023 A 
ATOM     75  C   UNL A   1      38.328  30.672  32.295  1.00  0.00     0.012 A 
ATOM     76  C   UNL A   1      37.462  31.581  30.215  1.00  0.00     0.148 A 
ATOM     77  C   UNL A   1      37.140  31.015  32.945  1.00  0.00     0.002 A 
ATOM     78  C   UNL A   1      36.307  31.973  30.881  1.00  0.00     0.091 A 
ATOM     79  F   UNL A   1      37.637  31.815  28.907  1.00  0.00    -0.205 F 
ATOM     80  C   UNL A   1      36.135  31.673  32.242  1.00  0.00     0.022 A 
BRANCH  78  81
ATOM     81  S   UNL A   1      35.019  32.942  30.089  1.00  0.00     0.127 S 
ATOM     82  O   UNL A   1      34.176  33.304  31.225  1.00  0.00    -0.237 OA
ATOM     83  O   UNL A   1      35.787  34.047  29.513  1.00  0.00    -0.237 OA
ATOM     84  O   UNL A   1      34.409  32.059  29.105  1.00  0.00    -0.744 OA
ENDBRANCH  78  81
ENDBRANCH  50  74
BRANCH  62  85
ATOM     85  C   UNL A   1      44.486  34.299  29.672  1.00  0.00     0.023 A 
ATOM     86  C   UNL A   1      45.125  34.606  30.889  1.00  0.00     0.012 A 
ATOM     87  C   UNL A   1      44.350  35.301  28.691  1.00  0.00     0.148 A 
ATOM     88  C   UNL A   1      45.587  35.898  31.140  1.00  0.00     0.002 A 
ATOM     89  C   UNL A   1      44.862  36.571  28.926  1.00  0.00     0.091 A 
ATOM     90  F   UNL A   1      43.724  34.995  27.544  1.00  0.00    -0.205 F 
ATOM     91  C   UNL A   1      45.468  36.876  30.156  1.00  0.00     0.022 A 
BRANCH  89  92
ATOM     92  S   UNL A   1      44.843  37.865  27.679  1.00  0.00     0.127 S 
ATOM     93  O   UNL A   1      45.811  37.357  26.709  1.00  0.00    -0.237 OA
ATOM     94  O   UNL A   1      43.452  37.835  27.225  1.00  0.00    -0.237 OA
ATOM     95  O   UNL A   1      45.230  39.091  28.365  1.00  0.00    -0.744 OA
ENDBRANCH  89  92
ENDBRANCH  62  85
ENDBRANCH  36  37
ENDBRANCH  28  31
ENDBRANCH  26  27
ENDBRANCH  25  26
ENDBRANCH  24  25
ENDBRANCH   1  24
TORSDOF 20
ENDMDL
