MODEL 1
REMARK VINA RESULT:     -12.0      0.000      0.000
REMARK SMILES CN(C(=O)N[C@@H]1C=C[C@@H](C(=O)NCCCCCCNC(=O)c2ccc(-c3c4nc(c(-c5cccc(S(=O)(=O)[O-])c5F)c5ccc([nH]5)c(-c5cccc(S(=O)(=O)[O-])c5F)c5nc(c(-c6cccc(S(=O)(=O)[O-])c6F)c6ccc3[nH]6)C=C5)C=C4)cc2)C1)[C@H]1CCS(=O)(=O)C1
REMARK SMILES IDX 15 1 14 2 13 3 12 4 10 5 11 6 9 8 6 9 7 10 85 11 8 12 5 13
REMARK SMILES IDX 3 14 4 15 2 17 1 18 86 19 87 20 92 21 88 22 89 23 90 24
REMARK SMILES IDX 91 25 16 26 17 27 18 28 19 29 20 30 21 32 22 33 23 34 84 35
REMARK SMILES IDX 24 36 83 37 25 38 26 39 27 40 77 41 28 42 82 43 76 44 78 45
REMARK SMILES IDX 29 46 81 47 75 48 74 49 30 51 62 52 42 53 61 54 43 55 46 56
REMARK SMILES IDX 60 57 79 58 44 59 45 60 59 62 80 63 47 64 31 65 32 66 40 67
REMARK SMILES IDX 33 68 35 69 41 70 34 71 36 72 37 73 38 74 39 75 63 76 64 77
REMARK SMILES IDX 72 78 65 79 67 80 73 81 66 82 68 83 69 84 70 85 71 86 48 87
REMARK SMILES IDX 49 88 57 89 50 90 52 91 58 92 51 93 53 94 54 95 55 96 56 97
REMARK H PARENT 12 7 5 16 19 31 78 50 46 61
REMARK Flexibility Score: inf
ROOT
ATOM      1  C   UNL A   1      33.529  23.710  26.566  1.00  0.00     0.002 C 
ENDROOT
BRANCH   1   2
ATOM      2  C   UNL A   1      32.025  23.643  26.849  1.00  0.00     0.021 C 
BRANCH   2   3
ATOM      3  C   UNL A   1      31.223  22.982  25.730  1.00  0.00     0.116 C 
BRANCH   3   4
ATOM      4  N   UNL A   1      31.431  21.549  25.703  1.00  0.00    -0.356 N 
ATOM      5  C   UNL A   1      32.017  20.727  24.795  1.00  0.00     0.227 C 
ATOM      6  O   UNL A   1      32.063  19.526  25.087  1.00  0.00    -0.274 OA
ATOM      7  H   UNL A   1      31.081  21.082  26.495  1.00  0.00     0.163 HD
BRANCH   5   8
ATOM      8  C   UNL A   1      32.602  21.205  23.461  1.00  0.00     0.103 C 
ATOM      9  C   UNL A   1      32.713  23.563  22.761  1.00  0.00     0.107 C 
ATOM     10  C   UNL A   1      34.056  23.012  23.129  1.00  0.00    -0.006 C 
ATOM     11  C   UNL A   1      31.817  22.312  22.741  1.00  0.00     0.047 C 
ATOM     12  C   UNL A   1      33.993  21.743  23.546  1.00  0.00    -0.016 C 
BRANCH   9  13
ATOM     13  N   UNL A   1      32.828  24.236  21.497  1.00  0.00    -0.332 N 
ATOM     14  C   UNL A   1      32.762  25.524  21.107  1.00  0.00     0.317 C 
ATOM     15  O   UNL A   1      32.771  25.696  19.884  1.00  0.00    -0.249 OA
ATOM     16  H   UNL A   1      32.994  23.619  20.748  1.00  0.00     0.165 HD
BRANCH  14  17
ATOM     17  N   UNL A   1      32.680  26.586  21.982  1.00  0.00    -0.324 N 
ATOM     18  C   UNL A   1      33.771  27.184  22.743  1.00  0.00     0.149 C 
BRANCH  17  19
ATOM     19  C   UNL A   1      31.337  27.206  22.118  1.00  0.00     0.102 C 
ATOM     20  C   UNL A   1      30.448  26.692  23.273  1.00  0.00     0.042 C 
ATOM     21  C   UNL A   1      31.420  28.721  22.330  1.00  0.00     0.162 C 
ATOM     22  C   UNL A   1      29.223  27.596  23.344  1.00  0.00     0.139 C 
ATOM     23  S   UNL A   1      29.767  29.199  22.778  1.00  0.00     0.152 S 
ATOM     24  O   UNL A   1      29.039  29.527  21.571  1.00  0.00    -0.229 OA
ATOM     25  O   UNL A   1      29.844  30.112  23.900  1.00  0.00    -0.229 OA
ENDBRANCH  17  19
ENDBRANCH  14  17
ENDBRANCH   9  13
ENDBRANCH   5   8
ENDBRANCH   3   4
ENDBRANCH   2   3
ENDBRANCH   1   2
BRANCH   1  26
ATOM     26  C   UNL A   1      34.392  22.815  27.464  1.00  0.00     0.002 C 
BRANCH  26  27
ATOM     27  C   UNL A   1      35.098  21.665  26.743  1.00  0.00     0.021 C 
BRANCH  27  28
ATOM     28  C   UNL A   1      36.304  22.087  25.911  1.00  0.00     0.116 C 
BRANCH  28  29
ATOM     29  N   UNL A   1      37.344  21.070  25.905  1.00  0.00    -0.352 N 
ATOM     30  C   UNL A   1      38.701  21.213  26.052  1.00  0.00     0.251 C 
ATOM     31  H   UNL A   1      37.029  20.146  25.778  1.00  0.00     0.163 HD
ATOM     32  O   UNL A   1      39.447  20.269  25.814  1.00  0.00    -0.269 OA
BRANCH  30  33
ATOM     33  C   UNL A   1      39.257  22.513  26.485  1.00  0.00     0.039 A 
ATOM     34  C   UNL A   1      40.340  22.526  27.367  1.00  0.00     0.014 A 
ATOM     35  C   UNL A   1      38.711  23.713  26.022  1.00  0.00     0.014 A 
ATOM     36  C   UNL A   1      40.911  23.745  27.740  1.00  0.00     0.010 A 
ATOM     37  C   UNL A   1      39.332  24.919  26.330  1.00  0.00     0.010 A 
ATOM     38  C   UNL A   1      40.432  24.949  27.199  1.00  0.00    -0.014 A 
BRANCH  38  39
ATOM     39  C   UNL A   1      41.077  26.248  27.523  1.00  0.00     0.031 A 
ATOM     40  C   UNL A   1      42.488  26.529  27.078  1.00  0.00     0.074 A 
ATOM     41  C   UNL A   1      40.423  27.142  28.290  1.00  0.00     0.049 A 
ATOM     42  N   UNL A   1      43.225  27.586  27.299  1.00  0.00    -0.248 NA
ATOM     43  C   UNL A   1      43.168  25.475  26.309  1.00  0.00     0.031 C 
ATOM     44  C   UNL A   1      39.078  26.961  28.841  1.00  0.00     0.029 A 
ATOM     45  N   UNL A   1      40.806  28.376  28.754  1.00  0.00    -0.354 N 
ATOM     46  C   UNL A   1      44.465  27.309  26.735  1.00  0.00     0.074 A 
ATOM     47  C   UNL A   1      44.390  25.972  26.189  1.00  0.00     0.031 C 
ATOM     48  C   UNL A   1      38.742  28.048  29.552  1.00  0.00     0.029 A 
ATOM     49  C   UNL A   1      39.859  28.988  29.541  1.00  0.00     0.049 A 
ATOM     50  H   UNL A   1      41.677  28.784  28.544  1.00  0.00     0.167 HD
ATOM     51  C   UNL A   1      45.560  28.104  26.657  1.00  0.00     0.034 A 
ATOM     52  C   UNL A   1      39.888  30.171  30.187  1.00  0.00     0.034 A 
ATOM     53  C   UNL A   1      45.617  29.446  27.168  1.00  0.00     0.049 A 
ATOM     54  C   UNL A   1      41.109  31.040  30.068  1.00  0.00     0.074 A 
ATOM     55  C   UNL A   1      46.643  30.367  27.051  1.00  0.00     0.029 A 
ATOM     56  N   UNL A   1      44.618  30.054  27.912  1.00  0.00    -0.354 N 
ATOM     57  N   UNL A   1      42.211  30.828  29.391  1.00  0.00    -0.248 NA
ATOM     58  C   UNL A   1      41.077  32.329  30.775  1.00  0.00     0.031 C 
ATOM     59  C   UNL A   1      46.284  31.515  27.765  1.00  0.00     0.029 A 
ATOM     60  C   UNL A   1      45.013  31.329  28.284  1.00  0.00     0.049 A 
ATOM     61  H   UNL A   1      43.755  29.642  28.142  1.00  0.00     0.167 HD
ATOM     62  C   UNL A   1      42.986  31.971  29.555  1.00  0.00     0.074 A 
ATOM     63  C   UNL A   1      42.218  32.880  30.382  1.00  0.00     0.031 C 
ATOM     64  C   UNL A   1      44.223  32.242  29.071  1.00  0.00     0.034 A 
BRANCH  51  65
ATOM     65  C   UNL A   1      46.782  27.548  25.972  1.00  0.00     0.023 A 
ATOM     66  C   UNL A   1      46.966  27.740  24.587  1.00  0.00     0.012 A 
ATOM     67  C   UNL A   1      47.773  26.873  26.712  1.00  0.00     0.148 A 
ATOM     68  C   UNL A   1      48.094  27.234  23.942  1.00  0.00     0.002 A 
ATOM     69  C   UNL A   1      48.919  26.416  26.071  1.00  0.00     0.091 A 
ATOM     70  F   UNL A   1      47.572  26.679  28.023  1.00  0.00    -0.205 F 
ATOM     71  C   UNL A   1      49.073  26.582  24.685  1.00  0.00     0.022 A 
BRANCH  69  72
ATOM     72  S   UNL A   1      50.274  25.637  26.955  1.00  0.00     0.127 S 
ATOM     73  O   UNL A   1      51.235  25.406  25.876  1.00  0.00    -0.237 OA
ATOM     74  O   UNL A   1      50.661  26.681  27.903  1.00  0.00    -0.237 OA
ATOM     75  O   UNL A   1      49.719  24.436  27.564  1.00  0.00    -0.744 OA
ENDBRANCH  69  72
ENDBRANCH  51  65
BRANCH  52  76
ATOM     76  C   UNL A   1      38.696  30.632  30.954  1.00  0.00     0.023 A 
ATOM     77  C   UNL A   1      38.641  30.411  32.344  1.00  0.00     0.012 A 
ATOM     78  C   UNL A   1      37.631  31.304  30.323  1.00  0.00     0.148 A 
ATOM     79  C   UNL A   1      37.531  30.815  33.087  1.00  0.00     0.002 A 
ATOM     80  C   UNL A   1      36.556  31.757  31.077  1.00  0.00     0.091 A 
ATOM     81  F   UNL A   1      37.701  31.500  28.999  1.00  0.00    -0.205 F 
ATOM     82  C   UNL A   1      36.493  31.496  32.456  1.00  0.00     0.022 A 
BRANCH  80  83
ATOM     83  S   UNL A   1      35.239  32.757  30.375  1.00  0.00     0.127 S 
ATOM     84  O   UNL A   1      34.717  31.876  29.334  1.00  0.00    -0.237 OA
ATOM     85  O   UNL A   1      34.358  32.942  31.527  1.00  0.00    -0.237 OA
ATOM     86  O   UNL A   1      35.878  33.979  29.906  1.00  0.00    -0.744 OA
ENDBRANCH  80  83
ENDBRANCH  52  76
BRANCH  64  87
ATOM     87  C   UNL A   1      44.815  33.594  29.377  1.00  0.00     0.023 A 
ATOM     88  C   UNL A   1      45.565  33.790  30.553  1.00  0.00     0.012 A 
ATOM     89  C   UNL A   1      44.684  34.653  28.456  1.00  0.00     0.148 A 
ATOM     90  C   UNL A   1      46.143  35.029  30.827  1.00  0.00     0.002 A 
ATOM     91  C   UNL A   1      45.309  35.868  28.709  1.00  0.00     0.091 A 
ATOM     92  F   UNL A   1      43.952  34.452  27.351  1.00  0.00    -0.205 F 
ATOM     93  C   UNL A   1      46.026  36.063  29.900  1.00  0.00     0.022 A 
BRANCH  91  94
ATOM     94  S   UNL A   1      45.299  37.220  27.527  1.00  0.00     0.127 S 
ATOM     95  O   UNL A   1      45.981  38.275  28.276  1.00  0.00    -0.237 OA
ATOM     96  O   UNL A   1      46.071  36.664  26.415  1.00  0.00    -0.237 OA
ATOM     97  O   UNL A   1      43.899  37.480  27.223  1.00  0.00    -0.744 OA
ENDBRANCH  91  94
ENDBRANCH  64  87
ENDBRANCH  38  39
ENDBRANCH  30  33
ENDBRANCH  28  29
ENDBRANCH  27  28
ENDBRANCH  26  27
ENDBRANCH   1  26
TORSDOF 19
ENDMDL
MODEL 2
REMARK VINA RESULT:     -11.9      1.488      3.775
REMARK SMILES CN(C(=O)N[C@@H]1C=C[C@@H](C(=O)NCCCCCCNC(=O)c2ccc(-c3c4nc(c(-c5cccc(S(=O)(=O)[O-])c5F)c5ccc([nH]5)c(-c5cccc(S(=O)(=O)[O-])c5F)c5nc(c(-c6cccc(S(=O)(=O)[O-])c6F)c6ccc3[nH]6)C=C5)C=C4)cc2)C1)[C@H]1CCS(=O)(=O)C1
REMARK SMILES IDX 15 1 14 2 13 3 12 4 10 5 11 6 9 8 6 9 7 10 85 11 8 12 5 13
REMARK SMILES IDX 3 14 4 15 2 17 1 18 86 19 87 20 92 21 88 22 89 23 90 24
REMARK SMILES IDX 91 25 16 26 17 27 18 28 19 29 20 30 21 32 22 33 23 34 84 35
REMARK SMILES IDX 24 36 83 37 25 38 26 39 27 40 77 41 28 42 82 43 76 44 78 45
REMARK SMILES IDX 29 46 81 47 75 48 74 49 30 51 62 52 42 53 61 54 43 55 46 56
REMARK SMILES IDX 60 57 79 58 44 59 45 60 59 62 80 63 47 64 31 65 32 66 40 67
REMARK SMILES IDX 33 68 35 69 41 70 34 71 36 72 37 73 38 74 39 75 63 76 64 77
REMARK SMILES IDX 72 78 65 79 67 80 73 81 66 82 68 83 69 84 70 85 71 86 48 87
REMARK SMILES IDX 49 88 57 89 50 90 52 91 58 92 51 93 53 94 54 95 55 96 56 97
REMARK H PARENT 12 7 5 16 19 31 78 50 46 61
REMARK Flexibility Score: inf
ROOT
ATOM      1  C   UNL A   1      33.798  24.216  23.216  1.00  0.00     0.002 C 
ENDROOT
BRANCH   1   2
ATOM      2  C   UNL A   1      33.645  25.438  22.303  1.00  0.00     0.021 C 
BRANCH   2   3
ATOM      3  C   UNL A   1      33.300  26.721  23.057  1.00  0.00     0.116 C 
BRANCH   3   4
ATOM      4  N   UNL A   1      32.286  27.486  22.363  1.00  0.00    -0.356 N 
ATOM      5  C   UNL A   1      30.991  27.767  22.658  1.00  0.00     0.227 C 
ATOM      6  O   UNL A   1      30.386  28.491  21.857  1.00  0.00    -0.274 OA
ATOM      7  H   UNL A   1      32.594  27.878  21.514  1.00  0.00     0.163 HD
BRANCH   5   8
ATOM      8  C   UNL A   1      30.263  27.241  23.901  1.00  0.00     0.103 C 
ATOM      9  C   UNL A   1      30.895  25.194  25.115  1.00  0.00     0.107 C 
ATOM     10  C   UNL A   1      31.245  26.438  25.871  1.00  0.00    -0.006 C 
ATOM     11  C   UNL A   1      30.034  25.723  23.953  1.00  0.00     0.047 C 
ATOM     12  C   UNL A   1      30.937  27.552  25.198  1.00  0.00    -0.016 C 
BRANCH   9  13
ATOM     13  N   UNL A   1      30.212  24.297  26.004  1.00  0.00    -0.332 N 
ATOM     14  C   UNL A   1      30.539  23.135  26.603  1.00  0.00     0.317 C 
ATOM     15  O   UNL A   1      29.610  22.580  27.199  1.00  0.00    -0.249 OA
ATOM     16  H   UNL A   1      29.301  24.598  26.227  1.00  0.00     0.165 HD
BRANCH  14  17
ATOM     17  N   UNL A   1      31.801  22.581  26.564  1.00  0.00    -0.324 N 
ATOM     18  C   UNL A   1      32.989  23.052  27.264  1.00  0.00     0.149 C 
BRANCH  17  19
ATOM     19  C   UNL A   1      31.936  21.345  25.751  1.00  0.00     0.102 C 
ATOM     20  C   UNL A   1      32.152  21.532  24.232  1.00  0.00     0.042 C 
ATOM     21  C   UNL A   1      33.110  20.477  26.212  1.00  0.00     0.162 C 
ATOM     22  C   UNL A   1      32.464  20.161  23.643  1.00  0.00     0.139 C 
ATOM     23  S   UNL A   1      33.282  19.249  24.939  1.00  0.00     0.152 S 
ATOM     24  O   UNL A   1      32.460  18.109  25.284  1.00  0.00    -0.229 OA
ATOM     25  O   UNL A   1      34.691  19.112  24.623  1.00  0.00    -0.229 OA
ENDBRANCH  17  19
ENDBRANCH  14  17
ENDBRANCH   9  13
ENDBRANCH   5   8
ENDBRANCH   3   4
ENDBRANCH   2   3
ENDBRANCH   1   2
BRANCH   1  26
ATOM     26  C   UNL A   1      35.204  24.020  23.794  1.00  0.00     0.002 C 
BRANCH  26  27
ATOM     27  C   UNL A   1      35.572  22.570  24.121  1.00  0.00     0.021 C 
BRANCH  27  28
ATOM     28  C   UNL A   1      36.080  22.352  25.542  1.00  0.00     0.116 C 
BRANCH  28  29
ATOM     29  N   UNL A   1      37.076  21.294  25.608  1.00  0.00    -0.352 N 
ATOM     30  C   UNL A   1      38.426  21.384  25.838  1.00  0.00     0.251 C 
ATOM     31  H   UNL A   1      36.732  20.383  25.466  1.00  0.00     0.163 HD
ATOM     32  O   UNL A   1      39.146  20.408  25.652  1.00  0.00    -0.269 OA
BRANCH  30  33
ATOM     33  C   UNL A   1      39.007  22.664  26.296  1.00  0.00     0.039 A 
ATOM     34  C   UNL A   1      40.045  22.640  27.231  1.00  0.00     0.014 A 
ATOM     35  C   UNL A   1      38.528  23.882  25.806  1.00  0.00     0.014 A 
ATOM     36  C   UNL A   1      40.640  23.839  27.631  1.00  0.00     0.010 A 
ATOM     37  C   UNL A   1      39.176  25.066  26.144  1.00  0.00     0.010 A 
ATOM     38  C   UNL A   1      40.233  25.058  27.066  1.00  0.00    -0.014 A 
BRANCH  38  39
ATOM     39  C   UNL A   1      40.908  26.333  27.421  1.00  0.00     0.031 A 
ATOM     40  C   UNL A   1      42.335  26.579  27.010  1.00  0.00     0.074 A 
ATOM     41  C   UNL A   1      40.263  27.237  28.185  1.00  0.00     0.049 A 
ATOM     42  N   UNL A   1      43.098  27.611  27.260  1.00  0.00    -0.248 NA
ATOM     43  C   UNL A   1      43.001  25.515  26.242  1.00  0.00     0.031 C 
ATOM     44  C   UNL A   1      38.901  27.088  28.705  1.00  0.00     0.029 A 
ATOM     45  N   UNL A   1      40.671  28.453  28.673  1.00  0.00    -0.354 N 
ATOM     46  C   UNL A   1      44.341  27.306  26.719  1.00  0.00     0.074 A 
ATOM     47  C   UNL A   1      44.240  25.978  26.154  1.00  0.00     0.031 C 
ATOM     48  C   UNL A   1      38.581  28.176  29.422  1.00  0.00     0.029 A 
ATOM     49  C   UNL A   1      39.725  29.083  29.448  1.00  0.00     0.049 A 
ATOM     50  H   UNL A   1      41.558  28.838  28.487  1.00  0.00     0.167 HD
ATOM     51  C   UNL A   1      45.459  28.069  26.675  1.00  0.00     0.034 A 
ATOM     52  C   UNL A   1      39.774  30.256  30.109  1.00  0.00     0.034 A 
ATOM     53  C   UNL A   1      45.544  29.403  27.205  1.00  0.00     0.049 A 
ATOM     54  C   UNL A   1      41.022  31.091  30.027  1.00  0.00     0.074 A 
ATOM     55  C   UNL A   1      46.598  30.295  27.122  1.00  0.00     0.029 A 
ATOM     56  N   UNL A   1      44.547  30.030  27.935  1.00  0.00    -0.354 N 
ATOM     57  N   UNL A   1      42.132  30.855  29.372  1.00  0.00    -0.248 NA
ATOM     58  C   UNL A   1      41.012  32.372  30.751  1.00  0.00     0.031 C 
ATOM     59  C   UNL A   1      46.257  31.444  27.843  1.00  0.00     0.029 A 
ATOM     60  C   UNL A   1      44.970  31.288  28.332  1.00  0.00     0.049 A 
ATOM     61  H   UNL A   1      43.667  29.640  28.141  1.00  0.00     0.167 HD
ATOM     62  C   UNL A   1      42.935  31.973  29.567  1.00  0.00     0.074 A 
ATOM     63  C   UNL A   1      42.176  32.894  30.389  1.00  0.00     0.031 C 
ATOM     64  C   UNL A   1      44.190  32.214  29.113  1.00  0.00     0.034 A 
BRANCH  51  65
ATOM     65  C   UNL A   1      46.680  27.486  26.010  1.00  0.00     0.023 A 
ATOM     66  C   UNL A   1      46.851  27.607  24.615  1.00  0.00     0.012 A 
ATOM     67  C   UNL A   1      47.682  26.858  26.775  1.00  0.00     0.148 A 
ATOM     68  C   UNL A   1      47.977  27.075  23.987  1.00  0.00     0.002 A 
ATOM     69  C   UNL A   1      48.826  26.376  26.149  1.00  0.00     0.091 A 
ATOM     70  F   UNL A   1      47.494  26.731  28.096  1.00  0.00    -0.205 F 
ATOM     71  C   UNL A   1      48.967  26.470  24.755  1.00  0.00     0.022 A 
BRANCH  69  72
ATOM     72  S   UNL A   1      50.194  25.653  27.060  1.00  0.00     0.127 S 
ATOM     73  O   UNL A   1      49.576  24.450  27.616  1.00  0.00    -0.237 OA
ATOM     74  O   UNL A   1      51.170  25.403  26.000  1.00  0.00    -0.237 OA
ATOM     75  O   UNL A   1      50.600  26.655  28.036  1.00  0.00    -0.744 OA
ENDBRANCH  69  72
ENDBRANCH  51  65
BRANCH  52  76
ATOM     76  C   UNL A   1      38.579  30.743  30.856  1.00  0.00     0.023 A 
ATOM     77  C   UNL A   1      38.511  30.552  32.250  1.00  0.00     0.012 A 
ATOM     78  C   UNL A   1      37.524  31.407  30.202  1.00  0.00     0.148 A 
ATOM     79  C   UNL A   1      37.399  30.981  32.975  1.00  0.00     0.002 A 
ATOM     80  C   UNL A   1      36.446  31.884  30.938  1.00  0.00     0.091 A 
ATOM     81  F   UNL A   1      37.606  31.574  28.874  1.00  0.00    -0.205 F 
ATOM     82  C   UNL A   1      36.371  31.654  32.321  1.00  0.00     0.022 A 
BRANCH  80  83
ATOM     83  S   UNL A   1      35.142  32.878  30.203  1.00  0.00     0.127 S 
ATOM     84  O   UNL A   1      34.589  31.959  29.211  1.00  0.00    -0.237 OA
ATOM     85  O   UNL A   1      34.278  33.136  31.355  1.00  0.00    -0.237 OA
ATOM     86  O   UNL A   1      35.800  34.062  29.669  1.00  0.00    -0.744 OA
ENDBRANCH  80  83
ENDBRANCH  52  76
BRANCH  64  87
ATOM     87  C   UNL A   1      44.814  33.544  29.449  1.00  0.00     0.023 A 
ATOM     88  C   UNL A   1      45.602  33.685  30.608  1.00  0.00     0.012 A 
ATOM     89  C   UNL A   1      44.672  34.639  28.572  1.00  0.00     0.148 A 
ATOM     90  C   UNL A   1      46.210  34.904  30.909  1.00  0.00     0.002 A 
ATOM     91  C   UNL A   1      45.326  35.833  28.849  1.00  0.00     0.091 A 
ATOM     92  F   UNL A   1      43.903  34.490  27.484  1.00  0.00    -0.205 F 
ATOM     93  C   UNL A   1      46.082  35.973  30.023  1.00  0.00     0.022 A 
BRANCH  91  94
ATOM     94  S   UNL A   1      45.302  37.228  27.718  1.00  0.00     0.127 S 
ATOM     95  O   UNL A   1      46.106  38.212  28.442  1.00  0.00    -0.237 OA
ATOM     96  O   UNL A   1      45.946  36.671  26.528  1.00  0.00    -0.237 OA
ATOM     97  O   UNL A   1      43.901  37.580  27.540  1.00  0.00    -0.744 OA
ENDBRANCH  91  94
ENDBRANCH  64  87
ENDBRANCH  38  39
ENDBRANCH  30  33
ENDBRANCH  28  29
ENDBRANCH  27  28
ENDBRANCH  26  27
ENDBRANCH   1  26
TORSDOF 19
ENDMDL
MODEL 3
REMARK VINA RESULT:     -11.8      1.926      2.510
REMARK SMILES CN(C(=O)N[C@@H]1C=C[C@@H](C(=O)NCCCCCCNC(=O)c2ccc(-c3c4nc(c(-c5cccc(S(=O)(=O)[O-])c5F)c5ccc([nH]5)c(-c5cccc(S(=O)(=O)[O-])c5F)c5nc(c(-c6cccc(S(=O)(=O)[O-])c6F)c6ccc3[nH]6)C=C5)C=C4)cc2)C1)[C@H]1CCS(=O)(=O)C1
REMARK SMILES IDX 15 1 14 2 13 3 12 4 10 5 11 6 9 8 6 9 7 10 85 11 8 12 5 13
REMARK SMILES IDX 3 14 4 15 2 17 1 18 86 19 87 20 92 21 88 22 89 23 90 24
REMARK SMILES IDX 91 25 16 26 17 27 18 28 19 29 20 30 21 32 22 33 23 34 84 35
REMARK SMILES IDX 24 36 83 37 25 38 26 39 27 40 77 41 28 42 82 43 76 44 78 45
REMARK SMILES IDX 29 46 81 47 75 48 74 49 30 51 62 52 42 53 61 54 43 55 46 56
REMARK SMILES IDX 60 57 79 58 44 59 45 60 59 62 80 63 47 64 31 65 32 66 40 67
REMARK SMILES IDX 33 68 35 69 41 70 34 71 36 72 37 73 38 74 39 75 63 76 64 77
REMARK SMILES IDX 72 78 65 79 67 80 73 81 66 82 68 83 69 84 70 85 71 86 48 87
REMARK SMILES IDX 49 88 57 89 50 90 52 91 58 92 51 93 53 94 54 95 55 96 56 97
REMARK H PARENT 12 7 5 16 19 31 78 50 46 61
REMARK Flexibility Score: inf
ROOT
ATOM      1  C   UNL A   1      34.716  20.320  24.980  1.00  0.00     0.002 C 
ENDROOT
BRANCH   1   2
ATOM      2  C   UNL A   1      33.471  20.610  25.826  1.00  0.00     0.021 C 
BRANCH   2   3
ATOM      3  C   UNL A   1      33.755  21.479  27.050  1.00  0.00     0.116 C 
BRANCH   3   4
ATOM      4  N   UNL A   1      32.644  22.359  27.345  1.00  0.00    -0.356 N 
ATOM      5  C   UNL A   1      32.183  23.484  26.740  1.00  0.00     0.227 C 
ATOM      6  O   UNL A   1      31.170  23.998  27.230  1.00  0.00    -0.274 OA
ATOM      7  H   UNL A   1      32.122  22.090  28.135  1.00  0.00     0.163 HD
BRANCH   5   8
ATOM      8  C   UNL A   1      32.845  24.130  25.518  1.00  0.00     0.103 C 
ATOM      9  C   UNL A   1      33.352  26.532  25.323  1.00  0.00     0.107 C 
ATOM     10  C   UNL A   1      34.583  25.702  25.525  1.00  0.00    -0.006 C 
ATOM     11  C   UNL A   1      32.259  25.478  25.070  1.00  0.00     0.047 C 
ATOM     12  C   UNL A   1      34.306  24.401  25.669  1.00  0.00    -0.016 C 
BRANCH   9  13
ATOM     13  N   UNL A   1      33.583  27.429  24.225  1.00  0.00    -0.332 N 
ATOM     14  C   UNL A   1      32.900  28.461  23.694  1.00  0.00     0.317 C 
ATOM     15  O   UNL A   1      33.369  28.905  22.641  1.00  0.00    -0.249 OA
ATOM     16  H   UNL A   1      34.431  27.250  23.757  1.00  0.00     0.165 HD
BRANCH  14  17
ATOM     17  N   UNL A   1      31.759  28.995  24.254  1.00  0.00    -0.324 N 
ATOM     18  C   UNL A   1      31.652  29.702  25.524  1.00  0.00     0.149 C 
BRANCH  17  19
ATOM     19  C   UNL A   1      30.522  28.866  23.442  1.00  0.00     0.102 C 
ATOM     20  C   UNL A   1      29.536  27.748  23.850  1.00  0.00     0.042 C 
ATOM     21  C   UNL A   1      29.688  30.151  23.453  1.00  0.00     0.162 C 
ATOM     22  C   UNL A   1      28.269  27.933  23.023  1.00  0.00     0.139 C 
ATOM     23  S   UNL A   1      28.143  29.685  22.708  1.00  0.00     0.152 S 
ATOM     24  O   UNL A   1      28.236  29.900  21.281  1.00  0.00    -0.229 OA
ATOM     25  O   UNL A   1      27.066  30.246  23.501  1.00  0.00    -0.229 OA
ENDBRANCH  17  19
ENDBRANCH  14  17
ENDBRANCH   9  13
ENDBRANCH   5   8
ENDBRANCH   3   4
ENDBRANCH   2   3
ENDBRANCH   1   2
BRANCH   1  26
ATOM     26  C   UNL A   1      35.950  21.151  25.350  1.00  0.00     0.002 C 
BRANCH  26  27
ATOM     27  C   UNL A   1      37.290  20.532  24.947  1.00  0.00     0.021 C 
BRANCH  27  28
ATOM     28  C   UNL A   1      38.500  21.118  25.667  1.00  0.00     0.116 C 
BRANCH  28  29
ATOM     29  N   UNL A   1      39.501  20.106  25.962  1.00  0.00    -0.352 N 
ATOM     30  C   UNL A   1      40.814  20.263  26.329  1.00  0.00     0.251 C 
ATOM     31  H   UNL A   1      39.192  19.174  25.889  1.00  0.00     0.163 HD
ATOM     32  O   UNL A   1      41.569  19.296  26.336  1.00  0.00    -0.269 OA
BRANCH  30  33
ATOM     33  C   UNL A   1      41.316  21.604  26.700  1.00  0.00     0.039 A 
ATOM     34  C   UNL A   1      41.760  22.463  25.693  1.00  0.00     0.014 A 
ATOM     35  C   UNL A   1      41.349  22.009  28.037  1.00  0.00     0.014 A 
ATOM     36  C   UNL A   1      42.184  23.752  26.024  1.00  0.00     0.010 A 
ATOM     37  C   UNL A   1      41.694  23.319  28.354  1.00  0.00     0.010 A 
ATOM     38  C   UNL A   1      42.124  24.201  27.353  1.00  0.00    -0.014 A 
BRANCH  38  39
ATOM     39  C   UNL A   1      42.496  25.594  27.712  1.00  0.00     0.031 A 
ATOM     40  C   UNL A   1      43.927  26.050  27.611  1.00  0.00     0.074 A 
ATOM     41  C   UNL A   1      41.558  26.426  28.207  1.00  0.00     0.049 A 
ATOM     42  N   UNL A   1      44.445  27.211  27.915  1.00  0.00    -0.248 NA
ATOM     43  C   UNL A   1      44.910  25.064  27.133  1.00  0.00     0.031 C 
ATOM     44  C   UNL A   1      40.150  26.084  28.419  1.00  0.00     0.029 A 
ATOM     45  N   UNL A   1      41.651  27.725  28.642  1.00  0.00    -0.354 N 
ATOM     46  C   UNL A   1      45.812  27.085  27.706  1.00  0.00     0.074 A 
ATOM     47  C   UNL A   1      46.049  25.724  27.279  1.00  0.00     0.031 C 
ATOM     48  C   UNL A   1      39.508  27.149  28.923  1.00  0.00     0.029 A 
ATOM     49  C   UNL A   1      40.464  28.237  29.110  1.00  0.00     0.049 A 
ATOM     50  H   UNL A   1      42.489  28.241  28.621  1.00  0.00     0.167 HD
ATOM     51  C   UNL A   1      46.783  28.022  27.835  1.00  0.00     0.034 A 
ATOM     52  C   UNL A   1      40.176  29.445  29.635  1.00  0.00     0.034 A 
ATOM     53  C   UNL A   1      46.538  29.385  28.224  1.00  0.00     0.049 A 
ATOM     54  C   UNL A   1      41.269  30.472  29.748  1.00  0.00     0.074 A 
ATOM     55  C   UNL A   1      47.436  30.435  28.286  1.00  0.00     0.029 A 
ATOM     56  N   UNL A   1      45.312  29.883  28.636  1.00  0.00    -0.354 N 
ATOM     57  N   UNL A   1      42.526  30.383  29.391  1.00  0.00    -0.248 NA
ATOM     58  C   UNL A   1      40.894  31.779  30.308  1.00  0.00     0.031 C 
ATOM     59  C   UNL A   1      46.764  31.556  28.783  1.00  0.00     0.029 A 
ATOM     60  C   UNL A   1      45.435  31.219  28.981  1.00  0.00     0.049 A 
ATOM     61  H   UNL A   1      44.477  29.364  28.678  1.00  0.00     0.167 HD
ATOM     62  C   UNL A   1      43.084  31.632  29.641  1.00  0.00     0.074 A 
ATOM     63  C   UNL A   1      42.020  32.465  30.166  1.00  0.00     0.031 C 
ATOM     64  C   UNL A   1      44.360  32.050  29.461  1.00  0.00     0.034 A 
BRANCH  51  65
ATOM     65  C   UNL A   1      48.200  27.610  27.530  1.00  0.00     0.023 A 
ATOM     66  C   UNL A   1      49.006  27.048  28.541  1.00  0.00     0.012 A 
ATOM     67  C   UNL A   1      48.719  27.738  26.227  1.00  0.00     0.148 A 
ATOM     68  C   UNL A   1      50.318  26.660  28.272  1.00  0.00     0.002 A 
ATOM     69  C   UNL A   1      50.010  27.301  25.954  1.00  0.00     0.091 A 
ATOM     70  F   UNL A   1      47.948  28.295  25.282  1.00  0.00    -0.205 F 
ATOM     71  C   UNL A   1      50.815  26.777  26.978  1.00  0.00     0.022 A 
BRANCH  69  72
ATOM     72  S   UNL A   1      50.712  27.334  24.301  1.00  0.00     0.127 S 
ATOM     73  O   UNL A   1      51.921  26.531  24.479  1.00  0.00    -0.237 OA
ATOM     74  O   UNL A   1      49.664  26.691  23.510  1.00  0.00    -0.237 OA
ATOM     75  O   UNL A   1      50.936  28.739  23.988  1.00  0.00    -0.744 OA
ENDBRANCH  69  72
ENDBRANCH  51  65
BRANCH  52  76
ATOM     76  C   UNL A   1      38.778  29.772  30.034  1.00  0.00     0.023 A 
ATOM     77  C   UNL A   1      38.355  29.501  31.351  1.00  0.00     0.012 A 
ATOM     78  C   UNL A   1      37.875  30.364  29.131  1.00  0.00     0.148 A 
ATOM     79  C   UNL A   1      37.048  29.780  31.750  1.00  0.00     0.002 A 
ATOM     80  C   UNL A   1      36.592  30.694  29.552  1.00  0.00     0.091 A 
ATOM     81  F   UNL A   1      38.296  30.609  27.882  1.00  0.00    -0.205 F 
ATOM     82  C   UNL A   1      36.170  30.384  30.854  1.00  0.00     0.022 A 
BRANCH  80  83
ATOM     83  S   UNL A   1      35.438  31.593  28.510  1.00  0.00     0.127 S 
ATOM     84  O   UNL A   1      35.048  30.570  27.543  1.00  0.00    -0.237 OA
ATOM     85  O   UNL A   1      34.398  31.965  29.470  1.00  0.00    -0.237 OA
ATOM     86  O   UNL A   1      36.186  32.720  27.971  1.00  0.00    -0.744 OA
ENDBRANCH  80  83
ENDBRANCH  52  76
BRANCH  64  87
ATOM     87  C   UNL A   1      44.680  33.488  29.784  1.00  0.00     0.023 A 
ATOM     88  C   UNL A   1      45.162  33.837  31.060  1.00  0.00     0.012 A 
ATOM     89  C   UNL A   1      44.565  34.483  28.793  1.00  0.00     0.148 A 
ATOM     90  C   UNL A   1      45.491  35.159  31.358  1.00  0.00     0.002 A 
ATOM     91  C   UNL A   1      44.948  35.788  29.078  1.00  0.00     0.091 A 
ATOM     92  F   UNL A   1      44.087  34.134  27.590  1.00  0.00    -0.205 F 
ATOM     93  C   UNL A   1      45.396  36.131  30.363  1.00  0.00     0.022 A 
BRANCH  91  94
ATOM     94  S   UNL A   1      44.956  37.083  27.834  1.00  0.00     0.127 S 
ATOM     95  O   UNL A   1      45.822  36.504  26.807  1.00  0.00    -0.237 OA
ATOM     96  O   UNL A   1      43.542  37.165  27.465  1.00  0.00    -0.237 OA
ATOM     97  O   UNL A   1      45.480  38.271  28.492  1.00  0.00    -0.744 OA
ENDBRANCH  91  94
ENDBRANCH  64  87
ENDBRANCH  38  39
ENDBRANCH  30  33
ENDBRANCH  28  29
ENDBRANCH  27  28
ENDBRANCH  26  27
ENDBRANCH   1  26
TORSDOF 19
ENDMDL
