MODEL 1
REMARK VINA RESULT:     -13.0      0.000      0.000
REMARK SMILES Cc1ccc(C(=O)N2C[C@@H](C(=O)NCCCCCCNC(=O)c3ccc(-c4c5nc(c(-c6cccc(S(=O)(=O)[O-])c6F)c6ccc([nH]6)c(-c6cccc(S(=O)(=O)[O-])c6F)c6nc(c(-c7cccc(S(=O)(=O)[O-])c7F)c7ccc4[nH]7)C=C6)C=C5)cc3)C[C@H](C(=O)N3CCOCC3)C2)cc1F
REMARK SMILES IDX 17 1 16 2 15 3 14 4 13 5 11 6 12 7 10 9 8 10 9 11 96 12
REMARK SMILES IDX 87 13 86 14 6 15 7 16 5 17 1 18 2 19 3 20 98 21 4 22 97 23
REMARK SMILES IDX 99 24 88 25 89 26 90 27 91 28 95 29 92 30 94 31 93 32 18 33
REMARK SMILES IDX 19 34 20 35 21 36 22 38 23 39 24 40 85 41 25 42 84 43 26 44
REMARK SMILES IDX 27 45 28 46 78 47 29 48 83 49 77 50 79 51 30 52 82 53 76 54
REMARK SMILES IDX 75 55 31 57 63 58 43 59 62 60 44 61 47 62 61 63 80 64 45 65
REMARK SMILES IDX 46 66 60 68 81 69 48 70 32 71 33 72 41 73 34 74 36 75 42 76
REMARK SMILES IDX 35 77 37 78 38 79 39 80 40 81 64 82 65 83 73 84 66 85 68 86
REMARK SMILES IDX 74 87 67 88 69 89 70 90 71 91 72 92 49 93 50 94 58 95 51 96
REMARK SMILES IDX 53 97 59 98 52 99 54 100 55 101 56 102 57 103
REMARK H PARENT 13 8 20 37 79 56 47 67
REMARK Flexibility Score: inf
ROOT
ATOM      1  C   UNL A   1      32.846  29.992  26.045  1.00  0.00     0.002 C 
ENDROOT
BRANCH   1   2
ATOM      2  C   UNL A   1      31.535  29.936  25.244  1.00  0.00     0.002 C 
BRANCH   2   3
ATOM      3  C   UNL A   1      31.050  28.537  24.859  1.00  0.00     0.021 C 
BRANCH   3   4
ATOM      4  C   UNL A   1      30.878  28.334  23.364  1.00  0.00     0.116 C 
BRANCH   4   5
ATOM      5  N   UNL A   1      32.117  28.544  22.647  1.00  0.00    -0.356 N 
ATOM      6  C   UNL A   1      33.136  27.688  22.403  1.00  0.00     0.224 C 
ATOM      7  O   UNL A   1      34.092  28.081  21.731  1.00  0.00    -0.275 OA
ATOM      8  H   UNL A   1      32.238  29.450  22.280  1.00  0.00     0.163 HD
BRANCH   6   9
ATOM      9  C   UNL A   1      33.113  26.279  22.947  1.00  0.00     0.099 C 
ATOM     10  N   UNL A   1      34.477  24.493  23.982  1.00  0.00    -0.337 N 
ATOM     11  C   UNL A   1      34.446  25.880  23.551  1.00  0.00     0.133 C 
ATOM     12  C   UNL A   1      34.043  23.492  23.007  1.00  0.00     0.133 C 
ATOM     13  C   UNL A   1      32.665  23.806  22.388  1.00  0.00     0.099 C 
ATOM     14  C   UNL A   1      32.489  25.266  21.979  1.00  0.00     0.030 C 
BRANCH  10  15
ATOM     15  C   UNL A   1      35.073  24.229  25.211  1.00  0.00     0.254 C 
ATOM     16  O   UNL A   1      35.088  25.050  26.127  1.00  0.00    -0.269 OA
BRANCH  15  17
ATOM     17  C   UNL A   1      35.839  22.980  25.423  1.00  0.00     0.042 A 
ATOM     18  C   UNL A   1      38.295  19.481  24.955  1.00  0.00     0.047 C 
ATOM     19  C   UNL A   1      37.419  20.673  25.197  1.00  0.00    -0.015 A 
ATOM     20  C   UNL A   1      36.024  20.584  25.104  1.00  0.00     0.007 A 
ATOM     21  C   UNL A   1      37.999  21.921  25.450  1.00  0.00     0.126 A 
ATOM     22  C   UNL A   1      35.235  21.734  25.210  1.00  0.00     0.014 A 
ATOM     23  C   UNL A   1      37.226  23.071  25.557  1.00  0.00     0.053 A 
ATOM     24  F   UNL A   1      39.333  22.028  25.532  1.00  0.00    -0.207 F 
ENDBRANCH  15  17
ENDBRANCH  10  15
BRANCH  13  25
ATOM     25  C   UNL A   1      31.573  23.104  23.207  1.00  0.00     0.227 C 
ATOM     26  O   UNL A   1      31.165  22.009  22.799  1.00  0.00    -0.275 OA
ATOM     27  N   UNL A   1      31.261  23.517  24.479  1.00  0.00    -0.338 N 
ATOM     28  C   UNL A   1      30.862  24.850  24.931  1.00  0.00     0.148 C 
ATOM     29  C   UNL A   1      31.070  22.506  25.514  1.00  0.00     0.148 C 
ATOM     30  C   UNL A   1      31.636  25.218  26.207  1.00  0.00     0.181 C 
ATOM     31  C   UNL A   1      31.850  22.928  26.764  1.00  0.00     0.181 C 
ATOM     32  O   UNL A   1      31.423  24.222  27.227  1.00  0.00    -0.378 OA
ENDBRANCH  13  25
ENDBRANCH   6   9
ENDBRANCH   4   5
ENDBRANCH   3   4
ENDBRANCH   2   3
ENDBRANCH   1   2
BRANCH   1  33
ATOM     33  C   UNL A   1      33.714  28.725  26.022  1.00  0.00     0.021 C 
BRANCH  33  34
ATOM     34  C   UNL A   1      34.756  28.713  27.115  1.00  0.00     0.116 C 
BRANCH  34  35
ATOM     35  N   UNL A   1      34.841  29.990  27.809  1.00  0.00    -0.352 N 
ATOM     36  C   UNL A   1      35.835  30.375  28.695  1.00  0.00     0.251 C 
ATOM     37  H   UNL A   1      34.124  30.641  27.634  1.00  0.00     0.163 HD
ATOM     38  O   UNL A   1      35.653  31.211  29.555  1.00  0.00    -0.269 OA
BRANCH  36  39
ATOM     39  C   UNL A   1      37.132  29.692  28.542  1.00  0.00     0.039 A 
ATOM     40  C   UNL A   1      37.940  29.849  27.412  1.00  0.00     0.014 A 
ATOM     41  C   UNL A   1      37.527  28.887  29.604  1.00  0.00     0.014 A 
ATOM     42  C   UNL A   1      39.181  29.211  27.384  1.00  0.00     0.010 A 
ATOM     43  C   UNL A   1      38.813  28.450  29.671  1.00  0.00     0.010 A 
ATOM     44  C   UNL A   1      39.606  28.522  28.526  1.00  0.00    -0.014 A 
BRANCH  44  45
ATOM     45  C   UNL A   1      40.802  27.704  28.610  1.00  0.00     0.031 A 
ATOM     46  C   UNL A   1      40.748  26.255  28.443  1.00  0.00     0.074 A 
ATOM     47  C   UNL A   1      41.964  28.371  28.792  1.00  0.00     0.049 A 
ATOM     48  N   UNL A   1      41.511  25.431  29.070  1.00  0.00    -0.248 NA
ATOM     49  C   UNL A   1      39.792  25.602  27.557  1.00  0.00     0.031 C 
ATOM     50  C   UNL A   1      43.337  27.912  28.739  1.00  0.00     0.029 A 
ATOM     51  N   UNL A   1      42.065  29.679  29.263  1.00  0.00    -0.354 N 
ATOM     52  C   UNL A   1      41.434  24.239  28.390  1.00  0.00     0.074 A 
ATOM     53  C   UNL A   1      40.232  24.339  27.590  1.00  0.00     0.031 C 
ATOM     54  C   UNL A   1      44.104  28.794  29.413  1.00  0.00     0.029 A 
ATOM     55  C   UNL A   1      43.217  29.766  30.042  1.00  0.00     0.049 A 
ATOM     56  H   UNL A   1      41.434  30.412  29.077  1.00  0.00     0.167 HD
ATOM     57  C   UNL A   1      42.508  23.396  28.408  1.00  0.00     0.034 A 
ATOM     58  C   UNL A   1      43.048  29.994  31.381  1.00  0.00     0.034 A 
ATOM     59  C   UNL A   1      43.617  23.980  29.168  1.00  0.00     0.049 A 
ATOM     60  C   UNL A   1      43.440  28.787  32.205  1.00  0.00     0.074 A 
ATOM     61  C   UNL A   1      44.809  24.584  28.796  1.00  0.00     0.029 A 
ATOM     62  N   UNL A   1      43.431  24.314  30.500  1.00  0.00    -0.354 N 
ATOM     63  N   UNL A   1      43.720  27.621  31.691  1.00  0.00    -0.248 NA
ATOM     64  C   UNL A   1      43.488  28.767  33.664  1.00  0.00     0.031 C 
ATOM     65  C   UNL A   1      45.339  25.272  29.925  1.00  0.00     0.029 A 
ATOM     66  C   UNL A   1      44.476  25.079  30.985  1.00  0.00     0.049 A 
ATOM     67  H   UNL A   1      42.652  24.040  31.036  1.00  0.00     0.167 HD
ATOM     68  C   UNL A   1      44.045  26.735  32.677  1.00  0.00     0.074 A 
ATOM     69  C   UNL A   1      43.828  27.487  33.902  1.00  0.00     0.031 C 
ATOM     70  C   UNL A   1      44.460  25.465  32.390  1.00  0.00     0.034 A 
BRANCH  57  71
ATOM     71  C   UNL A   1      42.655  22.200  27.482  1.00  0.00     0.023 A 
ATOM     72  C   UNL A   1      41.856  21.042  27.608  1.00  0.00     0.012 A 
ATOM     73  C   UNL A   1      43.600  22.181  26.432  1.00  0.00     0.148 A 
ATOM     74  C   UNL A   1      41.882  20.001  26.668  1.00  0.00     0.002 A 
ATOM     75  C   UNL A   1      43.653  21.127  25.517  1.00  0.00     0.091 A 
ATOM     76  F   UNL A   1      44.481  23.179  26.297  1.00  0.00    -0.205 F 
ATOM     77  C   UNL A   1      42.775  20.048  25.609  1.00  0.00     0.022 A 
BRANCH  75  78
ATOM     78  S   UNL A   1      44.883  21.168  24.209  1.00  0.00     0.127 S 
ATOM     79  O   UNL A   1      44.675  19.896  23.527  1.00  0.00    -0.237 OA
ATOM     80  O   UNL A   1      44.539  22.378  23.472  1.00  0.00    -0.237 OA
ATOM     81  O   UNL A   1      46.147  21.254  24.944  1.00  0.00    -0.744 OA
ENDBRANCH  75  78
ENDBRANCH  57  71
BRANCH  58  82
ATOM     82  C   UNL A   1      41.882  30.920  31.645  1.00  0.00     0.023 A 
ATOM     83  C   UNL A   1      42.059  32.313  31.725  1.00  0.00     0.012 A 
ATOM     84  C   UNL A   1      40.755  30.352  32.293  1.00  0.00     0.148 A 
ATOM     85  C   UNL A   1      41.199  33.092  32.520  1.00  0.00     0.002 A 
ATOM     86  C   UNL A   1      39.990  31.111  33.178  1.00  0.00     0.091 A 
ATOM     87  F   UNL A   1      40.540  29.032  32.167  1.00  0.00    -0.205 F 
ATOM     88  C   UNL A   1      40.198  32.488  33.285  1.00  0.00     0.022 A 
BRANCH  86  89
ATOM     89  S   UNL A   1      39.010  30.261  34.433  1.00  0.00     0.127 S 
ATOM     90  O   UNL A   1      40.021  29.527  35.187  1.00  0.00    -0.237 OA
ATOM     91  O   UNL A   1      38.331  31.347  35.137  1.00  0.00    -0.237 OA
ATOM     92  O   UNL A   1      38.094  29.426  33.655  1.00  0.00    -0.744 OA
ENDBRANCH  86  89
ENDBRANCH  58  82
BRANCH  70  93
ATOM     93  C   UNL A   1      44.830  24.415  33.406  1.00  0.00     0.023 A 
ATOM     94  C   UNL A   1      43.816  23.552  33.898  1.00  0.00     0.012 A 
ATOM     95  C   UNL A   1      46.126  24.186  33.875  1.00  0.00     0.148 A 
ATOM     96  C   UNL A   1      44.051  22.598  34.885  1.00  0.00     0.002 A 
ATOM     97  C   UNL A   1      46.350  23.281  34.912  1.00  0.00     0.091 A 
ATOM     98  F   UNL A   1      47.169  24.794  33.291  1.00  0.00    -0.205 F 
ATOM     99  C   UNL A   1      45.319  22.488  35.425  1.00  0.00     0.022 A 
BRANCH  97 100
ATOM    100  S   UNL A   1      47.971  23.244  35.672  1.00  0.00     0.127 S 
ATOM    101  O   UNL A   1      48.857  22.932  34.557  1.00  0.00    -0.237 OA
ATOM    102  O   UNL A   1      48.086  24.587  36.238  1.00  0.00    -0.237 OA
ATOM    103  O   UNL A   1      47.853  22.182  36.670  1.00  0.00    -0.744 OA
ENDBRANCH  97 100
ENDBRANCH  70  93
ENDBRANCH  44  45
ENDBRANCH  36  39
ENDBRANCH  34  35
ENDBRANCH  33  34
ENDBRANCH   1  33
TORSDOF 19
ENDMDL
MODEL 2
REMARK VINA RESULT:     -12.8      4.138      9.728
REMARK SMILES Cc1ccc(C(=O)N2C[C@@H](C(=O)NCCCCCCNC(=O)c3ccc(-c4c5nc(c(-c6cccc(S(=O)(=O)[O-])c6F)c6ccc([nH]6)c(-c6cccc(S(=O)(=O)[O-])c6F)c6nc(c(-c7cccc(S(=O)(=O)[O-])c7F)c7ccc4[nH]7)C=C6)C=C5)cc3)C[C@H](C(=O)N3CCOCC3)C2)cc1F
REMARK SMILES IDX 17 1 16 2 15 3 14 4 13 5 11 6 12 7 10 9 8 10 9 11 96 12
REMARK SMILES IDX 87 13 86 14 6 15 7 16 5 17 1 18 2 19 3 20 98 21 4 22 97 23
REMARK SMILES IDX 99 24 88 25 89 26 90 27 91 28 95 29 92 30 94 31 93 32 18 33
REMARK SMILES IDX 19 34 20 35 21 36 22 38 23 39 24 40 85 41 25 42 84 43 26 44
REMARK SMILES IDX 27 45 28 46 78 47 29 48 83 49 77 50 79 51 30 52 82 53 76 54
REMARK SMILES IDX 75 55 31 57 63 58 43 59 62 60 44 61 47 62 61 63 80 64 45 65
REMARK SMILES IDX 46 66 60 68 81 69 48 70 32 71 33 72 41 73 34 74 36 75 42 76
REMARK SMILES IDX 35 77 37 78 38 79 39 80 40 81 64 82 65 83 73 84 66 85 68 86
REMARK SMILES IDX 74 87 67 88 69 89 70 90 71 91 72 92 49 93 50 94 58 95 51 96
REMARK SMILES IDX 53 97 59 98 52 99 54 100 55 101 56 102 57 103
REMARK H PARENT 13 8 20 37 79 56 47 67
REMARK Flexibility Score: inf
ROOT
ATOM      1  C   UNL A   1      37.113  22.481  24.406  1.00  0.00     0.002 C 
ENDROOT
BRANCH   1   2
ATOM      2  C   UNL A   1      36.142  22.859  23.275  1.00  0.00     0.002 C 
BRANCH   2   3
ATOM      3  C   UNL A   1      34.962  23.743  23.682  1.00  0.00     0.021 C 
BRANCH   3   4
ATOM      4  C   UNL A   1      33.649  23.361  23.022  1.00  0.00     0.116 C 
BRANCH   4   5
ATOM      5  N   UNL A   1      33.465  24.038  21.757  1.00  0.00    -0.356 N 
ATOM      6  C   UNL A   1      32.799  25.179  21.470  1.00  0.00     0.224 C 
ATOM      7  O   UNL A   1      32.804  25.593  20.309  1.00  0.00    -0.275 OA
ATOM      8  H   UNL A   1      33.891  23.599  20.984  1.00  0.00     0.163 HD
BRANCH   6   9
ATOM      9  C   UNL A   1      32.054  25.934  22.547  1.00  0.00     0.099 C 
ATOM     10  N   UNL A   1      30.424  25.727  24.396  1.00  0.00    -0.337 N 
ATOM     11  C   UNL A   1      31.231  25.009  23.424  1.00  0.00     0.133 C 
ATOM     12  C   UNL A   1      29.589  26.814  23.883  1.00  0.00     0.133 C 
ATOM     13  C   UNL A   1      30.373  27.826  23.021  1.00  0.00     0.099 C 
ATOM     14  C   UNL A   1      31.327  27.178  22.021  1.00  0.00     0.030 C 
BRANCH  10  15
ATOM     15  C   UNL A   1      30.386  25.209  25.686  1.00  0.00     0.254 C 
ATOM     16  O   UNL A   1      29.855  25.806  26.622  1.00  0.00    -0.269 OA
BRANCH  15  17
ATOM     17  C   UNL A   1      31.107  23.960  26.018  1.00  0.00     0.042 A 
ATOM     18  C   UNL A   1      33.886  20.680  26.167  1.00  0.00     0.047 C 
ATOM     19  C   UNL A   1      32.867  21.780  26.170  1.00  0.00    -0.015 A 
ATOM     20  C   UNL A   1      31.686  21.682  25.423  1.00  0.00     0.007 A 
ATOM     21  C   UNL A   1      33.125  22.964  26.870  1.00  0.00     0.126 A 
ATOM     22  C   UNL A   1      30.811  22.769  25.341  1.00  0.00     0.014 A 
ATOM     23  C   UNL A   1      32.263  24.052  26.796  1.00  0.00     0.053 A 
ATOM     24  F   UNL A   1      34.255  23.081  27.581  1.00  0.00    -0.207 F 
ENDBRANCH  15  17
ENDBRANCH  10  15
BRANCH  13  25
ATOM     25  C   UNL A   1      30.866  28.972  23.915  1.00  0.00     0.227 C 
ATOM     26  O   UNL A   1      30.159  29.987  23.988  1.00  0.00    -0.275 OA
ATOM     27  N   UNL A   1      31.885  28.786  24.815  1.00  0.00    -0.338 N 
ATOM     28  C   UNL A   1      33.237  28.285  24.569  1.00  0.00     0.148 C 
ATOM     29  C   UNL A   1      31.743  29.343  26.157  1.00  0.00     0.148 C 
ATOM     30  C   UNL A   1      33.608  27.243  25.637  1.00  0.00     0.181 C 
ATOM     31  C   UNL A   1      32.135  28.269  27.180  1.00  0.00     0.181 C 
ATOM     32  O   UNL A   1      33.481  27.811  26.955  1.00  0.00    -0.378 OA
ENDBRANCH  13  25
ENDBRANCH   6   9
ENDBRANCH   4   5
ENDBRANCH   3   4
ENDBRANCH   2   3
ENDBRANCH   1   2
BRANCH   1  33
ATOM     33  C   UNL A   1      36.806  23.064  25.793  1.00  0.00     0.021 C 
BRANCH  33  34
ATOM     34  C   UNL A   1      37.791  24.130  26.209  1.00  0.00     0.116 C 
BRANCH  34  35
ATOM     35  N   UNL A   1      39.155  23.624  26.275  1.00  0.00    -0.352 N 
ATOM     36  C   UNL A   1      40.284  24.355  26.610  1.00  0.00     0.251 C 
ATOM     37  H   UNL A   1      39.288  22.673  26.061  1.00  0.00     0.163 HD
ATOM     38  O   UNL A   1      41.396  24.044  26.238  1.00  0.00    -0.269 OA
BRANCH  36  39
ATOM     39  C   UNL A   1      40.051  25.553  27.436  1.00  0.00     0.039 A 
ATOM     40  C   UNL A   1      39.424  25.501  28.684  1.00  0.00     0.014 A 
ATOM     41  C   UNL A   1      40.512  26.755  26.912  1.00  0.00     0.014 A 
ATOM     42  C   UNL A   1      39.304  26.679  29.422  1.00  0.00     0.010 A 
ATOM     43  C   UNL A   1      40.593  27.850  27.716  1.00  0.00     0.010 A 
ATOM     44  C   UNL A   1      39.902  27.844  28.926  1.00  0.00    -0.014 A 
BRANCH  44  45
ATOM     45  C   UNL A   1      39.758  29.167  29.506  1.00  0.00     0.031 A 
ATOM     46  C   UNL A   1      38.760  30.111  29.011  1.00  0.00     0.074 A 
ATOM     47  C   UNL A   1      40.558  29.442  30.560  1.00  0.00     0.049 A 
ATOM     48  N   UNL A   1      38.933  31.384  28.974  1.00  0.00    -0.248 NA
ATOM     49  C   UNL A   1      37.470  29.684  28.481  1.00  0.00     0.031 C 
ATOM     50  C   UNL A   1      40.559  30.562  31.480  1.00  0.00     0.029 A 
ATOM     51  N   UNL A   1      41.717  28.741  30.884  1.00  0.00    -0.354 N 
ATOM     52  C   UNL A   1      37.685  31.940  28.819  1.00  0.00     0.074 A 
ATOM     53  C   UNL A   1      36.850  30.861  28.336  1.00  0.00     0.031 C 
ATOM     54  C   UNL A   1      41.777  30.634  32.056  1.00  0.00     0.029 A 
ATOM     55  C   UNL A   1      42.635  29.649  31.408  1.00  0.00     0.049 A 
ATOM     56  H   UNL A   1      41.863  27.774  30.763  1.00  0.00     0.167 HD
ATOM     57  C   UNL A   1      37.446  33.185  29.328  1.00  0.00     0.034 A 
ATOM     58  C   UNL A   1      43.767  29.884  30.676  1.00  0.00     0.034 A 
ATOM     59  C   UNL A   1      38.634  33.703  30.015  1.00  0.00     0.049 A 
ATOM     60  C   UNL A   1      43.782  31.287  30.109  1.00  0.00     0.074 A 
ATOM     61  C   UNL A   1      38.974  33.836  31.352  1.00  0.00     0.029 A 
ATOM     62  N   UNL A   1      39.819  33.851  29.312  1.00  0.00    -0.354 N 
ATOM     63  N   UNL A   1      42.760  32.096  30.156  1.00  0.00    -0.248 NA
ATOM     64  C   UNL A   1      44.910  31.872  29.391  1.00  0.00     0.031 C 
ATOM     65  C   UNL A   1      40.375  34.077  31.441  1.00  0.00     0.029 A 
ATOM     66  C   UNL A   1      40.885  34.100  30.157  1.00  0.00     0.049 A 
ATOM     67  H   UNL A   1      39.894  33.786  28.333  1.00  0.00     0.167 HD
ATOM     68  C   UNL A   1      43.074  33.289  29.573  1.00  0.00     0.074 A 
ATOM     69  C   UNL A   1      44.416  33.078  29.057  1.00  0.00     0.031 C 
ATOM     70  C   UNL A   1      42.196  34.337  29.569  1.00  0.00     0.034 A 
BRANCH  57  71
ATOM     71  C   UNL A   1      36.057  33.782  29.472  1.00  0.00     0.023 A 
ATOM     72  C   UNL A   1      35.261  34.125  28.356  1.00  0.00     0.012 A 
ATOM     73  C   UNL A   1      35.477  34.026  30.736  1.00  0.00     0.148 A 
ATOM     74  C   UNL A   1      33.926  34.535  28.479  1.00  0.00     0.002 A 
ATOM     75  C   UNL A   1      34.158  34.471  30.860  1.00  0.00     0.091 A 
ATOM     76  F   UNL A   1      36.189  33.844  31.854  1.00  0.00    -0.205 F 
ATOM     77  C   UNL A   1      33.366  34.697  29.736  1.00  0.00     0.022 A 
BRANCH  75  78
ATOM     78  S   UNL A   1      33.487  34.763  32.501  1.00  0.00     0.127 S 
ATOM     79  O   UNL A   1      34.449  35.692  33.084  1.00  0.00    -0.237 OA
ATOM     80  O   UNL A   1      32.152  35.280  32.223  1.00  0.00    -0.237 OA
ATOM     81  O   UNL A   1      33.498  33.430  33.107  1.00  0.00    -0.744 OA
ENDBRANCH  75  78
ENDBRANCH  57  71
BRANCH  58  82
ATOM     82  C   UNL A   1      44.252  28.631  29.983  1.00  0.00     0.023 A 
ATOM     83  C   UNL A   1      45.187  27.774  30.591  1.00  0.00     0.012 A 
ATOM     84  C   UNL A   1      44.148  28.608  28.568  1.00  0.00     0.148 A 
ATOM     85  C   UNL A   1      46.062  27.006  29.803  1.00  0.00     0.002 A 
ATOM     86  C   UNL A   1      45.103  27.944  27.799  1.00  0.00     0.091 A 
ATOM     87  F   UNL A   1      43.212  29.373  27.981  1.00  0.00    -0.205 F 
ATOM     88  C   UNL A   1      46.056  27.128  28.411  1.00  0.00     0.022 A 
BRANCH  86  89
ATOM     89  S   UNL A   1      45.330  28.438  26.077  1.00  0.00     0.127 S 
ATOM     90  O   UNL A   1      44.077  28.024  25.456  1.00  0.00    -0.237 OA
ATOM     91  O   UNL A   1      45.576  29.876  26.159  1.00  0.00    -0.237 OA
ATOM     92  O   UNL A   1      46.509  27.683  25.650  1.00  0.00    -0.744 OA
ENDBRANCH  86  89
ENDBRANCH  58  82
BRANCH  70  93
ATOM     93  C   UNL A   1      42.447  35.686  28.945  1.00  0.00     0.023 A 
ATOM     94  C   UNL A   1      41.928  35.947  27.649  1.00  0.00     0.012 A 
ATOM     95  C   UNL A   1      43.122  36.737  29.570  1.00  0.00     0.148 A 
ATOM     96  C   UNL A   1      42.165  37.139  26.968  1.00  0.00     0.002 A 
ATOM     97  C   UNL A   1      43.420  37.901  28.864  1.00  0.00     0.091 A 
ATOM     98  F   UNL A   1      43.436  36.654  30.871  1.00  0.00    -0.205 F 
ATOM     99  C   UNL A   1      42.950  38.108  27.563  1.00  0.00     0.022 A 
BRANCH  97 100
ATOM    100  S   UNL A   1      44.535  39.086  29.611  1.00  0.00     0.127 S 
ATOM    101  O   UNL A   1      43.759  39.623  30.723  1.00  0.00    -0.237 OA
ATOM    102  O   UNL A   1      45.687  38.258  29.963  1.00  0.00    -0.237 OA
ATOM    103  O   UNL A   1      44.791  40.040  28.532  1.00  0.00    -0.744 OA
ENDBRANCH  97 100
ENDBRANCH  70  93
ENDBRANCH  44  45
ENDBRANCH  36  39
ENDBRANCH  34  35
ENDBRANCH  33  34
ENDBRANCH   1  33
TORSDOF 19
ENDMDL
MODEL 3
REMARK VINA RESULT:     -12.5      3.941      9.519
REMARK SMILES Cc1ccc(C(=O)N2C[C@@H](C(=O)NCCCCCCNC(=O)c3ccc(-c4c5nc(c(-c6cccc(S(=O)(=O)[O-])c6F)c6ccc([nH]6)c(-c6cccc(S(=O)(=O)[O-])c6F)c6nc(c(-c7cccc(S(=O)(=O)[O-])c7F)c7ccc4[nH]7)C=C6)C=C5)cc3)C[C@H](C(=O)N3CCOCC3)C2)cc1F
REMARK SMILES IDX 17 1 16 2 15 3 14 4 13 5 11 6 12 7 10 9 8 10 9 11 96 12
REMARK SMILES IDX 87 13 86 14 6 15 7 16 5 17 1 18 2 19 3 20 98 21 4 22 97 23
REMARK SMILES IDX 99 24 88 25 89 26 90 27 91 28 95 29 92 30 94 31 93 32 18 33
REMARK SMILES IDX 19 34 20 35 21 36 22 38 23 39 24 40 85 41 25 42 84 43 26 44
REMARK SMILES IDX 27 45 28 46 78 47 29 48 83 49 77 50 79 51 30 52 82 53 76 54
REMARK SMILES IDX 75 55 31 57 63 58 43 59 62 60 44 61 47 62 61 63 80 64 45 65
REMARK SMILES IDX 46 66 60 68 81 69 48 70 32 71 33 72 41 73 34 74 36 75 42 76
REMARK SMILES IDX 35 77 37 78 38 79 39 80 40 81 64 82 65 83 73 84 66 85 68 86
REMARK SMILES IDX 74 87 67 88 69 89 70 90 71 91 72 92 49 93 50 94 58 95 51 96
REMARK SMILES IDX 53 97 59 98 52 99 54 100 55 101 56 102 57 103
REMARK H PARENT 13 8 20 37 79 56 47 67
REMARK Flexibility Score: inf
ROOT
ATOM      1  C   UNL A   1      40.184  22.437  27.625  1.00  0.00     0.002 C 
ENDROOT
BRANCH   1   2
ATOM      2  C   UNL A   1      40.106  23.637  26.666  1.00  0.00     0.002 C 
BRANCH   2   3
ATOM      3  C   UNL A   1      38.712  24.228  26.453  1.00  0.00     0.021 C 
BRANCH   3   4
ATOM      4  C   UNL A   1      37.676  23.215  25.995  1.00  0.00     0.116 C 
BRANCH   4   5
ATOM      5  N   UNL A   1      37.424  23.309  24.574  1.00  0.00    -0.356 N 
ATOM      6  C   UNL A   1      36.308  23.017  23.868  1.00  0.00     0.224 C 
ATOM      7  O   UNL A   1      36.309  23.209  22.650  1.00  0.00    -0.275 OA
ATOM      8  H   UNL A   1      38.182  23.636  24.037  1.00  0.00     0.163 HD
BRANCH   6   9
ATOM      9  C   UNL A   1      35.082  22.457  24.551  1.00  0.00     0.099 C 
ATOM     10  N   UNL A   1      33.431  22.829  26.356  1.00  0.00    -0.337 N 
ATOM     11  C   UNL A   1      34.544  23.397  25.614  1.00  0.00     0.133 C 
ATOM     12  C   UNL A   1      33.628  21.492  26.916  1.00  0.00     0.133 C 
ATOM     13  C   UNL A   1      34.127  20.466  25.876  1.00  0.00     0.099 C 
ATOM     14  C   UNL A   1      35.242  20.991  24.975  1.00  0.00     0.030 C 
BRANCH  10  15
ATOM     15  C   UNL A   1      32.353  23.669  26.612  1.00  0.00     0.254 C 
ATOM     16  O   UNL A   1      31.675  23.581  27.636  1.00  0.00    -0.269 OA
BRANCH  15  17
ATOM     17  C   UNL A   1      31.888  24.632  25.588  1.00  0.00     0.042 A 
ATOM     18  C   UNL A   1      29.607  27.412  23.229  1.00  0.00     0.047 C 
ATOM     19  C   UNL A   1      30.462  26.444  23.990  1.00  0.00    -0.015 A 
ATOM     20  C   UNL A   1      30.508  25.086  23.647  1.00  0.00     0.007 A 
ATOM     21  C   UNL A   1      31.175  26.880  25.111  1.00  0.00     0.126 A 
ATOM     22  C   UNL A   1      31.214  24.181  24.446  1.00  0.00     0.014 A 
ATOM     23  C   UNL A   1      31.879  25.990  25.914  1.00  0.00     0.053 A 
ATOM     24  F   UNL A   1      31.135  28.173  25.462  1.00  0.00    -0.207 F 
ENDBRANCH  15  17
ENDBRANCH  10  15
BRANCH  13  25
ATOM     25  C   UNL A   1      32.919  19.748  25.258  1.00  0.00     0.227 C 
ATOM     26  O   UNL A   1      31.934  20.436  24.959  1.00  0.00    -0.275 OA
ATOM     27  N   UNL A   1      33.019  18.461  24.791  1.00  0.00    -0.338 N 
ATOM     28  C   UNL A   1      33.472  17.266  25.504  1.00  0.00     0.148 C 
ATOM     29  C   UNL A   1      32.406  18.134  23.507  1.00  0.00     0.148 C 
ATOM     30  C   UNL A   1      34.445  16.471  24.619  1.00  0.00     0.181 C 
ATOM     31  C   UNL A   1      33.412  17.334  22.671  1.00  0.00     0.181 C 
ATOM     32  O   UNL A   1      33.822  16.139  23.363  1.00  0.00    -0.378 OA
ENDBRANCH  13  25
ENDBRANCH   6   9
ENDBRANCH   4   5
ENDBRANCH   3   4
ENDBRANCH   2   3
ENDBRANCH   1   2
BRANCH   1  33
ATOM     33  C   UNL A   1      40.958  21.210  27.121  1.00  0.00     0.021 C 
BRANCH  33  34
ATOM     34  C   UNL A   1      41.774  21.503  25.885  1.00  0.00     0.116 C 
BRANCH  34  35
ATOM     35  N   UNL A   1      43.161  21.086  26.029  1.00  0.00    -0.352 N 
ATOM     36  C   UNL A   1      44.247  21.918  26.248  1.00  0.00     0.251 C 
ATOM     37  H   UNL A   1      43.346  20.121  25.966  1.00  0.00     0.163 HD
ATOM     38  O   UNL A   1      45.378  21.613  25.929  1.00  0.00    -0.269 OA
BRANCH  36  39
ATOM     39  C   UNL A   1      43.946  23.216  26.878  1.00  0.00     0.039 A 
ATOM     40  C   UNL A   1      43.775  24.392  26.143  1.00  0.00     0.014 A 
ATOM     41  C   UNL A   1      43.818  23.207  28.263  1.00  0.00     0.014 A 
ATOM     42  C   UNL A   1      43.430  25.561  26.822  1.00  0.00     0.010 A 
ATOM     43  C   UNL A   1      43.272  24.282  28.891  1.00  0.00     0.010 A 
ATOM     44  C   UNL A   1      43.174  25.486  28.196  1.00  0.00    -0.014 A 
BRANCH  44  45
ATOM     45  C   UNL A   1      42.933  26.626  29.063  1.00  0.00     0.031 A 
ATOM     46  C   UNL A   1      41.727  27.438  28.935  1.00  0.00     0.074 A 
ATOM     47  C   UNL A   1      43.858  26.846  30.023  1.00  0.00     0.049 A 
ATOM     48  N   UNL A   1      41.689  28.706  29.149  1.00  0.00    -0.248 NA
ATOM     49  C   UNL A   1      40.445  26.881  28.520  1.00  0.00     0.031 C 
ATOM     50  C   UNL A   1      43.852  27.754  31.153  1.00  0.00     0.029 A 
ATOM     51  N   UNL A   1      45.152  26.329  30.015  1.00  0.00    -0.354 N 
ATOM     52  C   UNL A   1      40.363  29.034  29.302  1.00  0.00     0.074 A 
ATOM     53  C   UNL A   1      39.633  27.925  28.724  1.00  0.00     0.031 C 
ATOM     54  C   UNL A   1      45.128  27.946  31.547  1.00  0.00     0.029 A 
ATOM     55  C   UNL A   1      45.997  27.281  30.584  1.00  0.00     0.049 A 
ATOM     56  H   UNL A   1      45.422  25.448  29.668  1.00  0.00     0.167 HD
ATOM     57  C   UNL A   1      40.029  30.092  30.097  1.00  0.00     0.034 A 
ATOM     58  C   UNL A   1      46.927  27.859  29.762  1.00  0.00     0.034 A 
ATOM     59  C   UNL A   1      41.226  30.689  30.699  1.00  0.00     0.049 A 
ATOM     60  C   UNL A   1      46.618  29.321  29.516  1.00  0.00     0.074 A 
ATOM     61  C   UNL A   1      41.779  30.632  31.969  1.00  0.00     0.029 A 
ATOM     62  N   UNL A   1      42.226  31.188  29.880  1.00  0.00    -0.354 N 
ATOM     63  N   UNL A   1      45.508  29.897  29.885  1.00  0.00    -0.248 NA
ATOM     64  C   UNL A   1      47.492  30.233  28.785  1.00  0.00     0.031 C 
ATOM     65  C   UNL A   1      43.118  31.113  31.902  1.00  0.00     0.029 A 
ATOM     66  C   UNL A   1      43.375  31.472  30.594  1.00  0.00     0.049 A 
ATOM     67  H   UNL A   1      42.131  31.323  28.910  1.00  0.00     0.167 HD
ATOM     68  C   UNL A   1      45.521  31.216  29.534  1.00  0.00     0.074 A 
ATOM     69  C   UNL A   1      46.763  31.365  28.795  1.00  0.00     0.031 C 
ATOM     70  C   UNL A   1      44.505  32.060  29.886  1.00  0.00     0.034 A 
BRANCH  57  71
ATOM     71  C   UNL A   1      38.613  30.378  30.568  1.00  0.00     0.023 A 
ATOM     72  C   UNL A   1      38.064  29.780  31.724  1.00  0.00     0.012 A 
ATOM     73  C   UNL A   1      37.762  31.266  29.874  1.00  0.00     0.148 A 
ATOM     74  C   UNL A   1      36.817  30.151  32.246  1.00  0.00     0.002 A 
ATOM     75  C   UNL A   1      36.502  31.608  30.373  1.00  0.00     0.091 A 
ATOM     76  F   UNL A   1      38.143  31.796  28.706  1.00  0.00    -0.205 F 
ATOM     77  C   UNL A   1      36.036  31.080  31.575  1.00  0.00     0.022 A 
BRANCH  75  78
ATOM     78  S   UNL A   1      35.472  32.742  29.435  1.00  0.00     0.127 S 
ATOM     79  O   UNL A   1      34.164  32.588  30.065  1.00  0.00    -0.237 OA
ATOM     80  O   UNL A   1      36.145  34.023  29.614  1.00  0.00    -0.237 OA
ATOM     81  O   UNL A   1      35.548  32.211  28.072  1.00  0.00    -0.744 OA
ENDBRANCH  75  78
ENDBRANCH  57  71
BRANCH  58  82
ATOM     82  C   UNL A   1      47.467  26.873  28.752  1.00  0.00     0.023 A 
ATOM     83  C   UNL A   1      48.681  26.197  28.967  1.00  0.00     0.012 A 
ATOM     84  C   UNL A   1      47.015  27.023  27.415  1.00  0.00     0.148 A 
ATOM     85  C   UNL A   1      49.466  25.786  27.875  1.00  0.00     0.002 A 
ATOM     86  C   UNL A   1      47.858  26.729  26.345  1.00  0.00     0.091 A 
ATOM     87  F   UNL A   1      45.823  27.608  27.202  1.00  0.00    -0.205 F 
ATOM     88  C   UNL A   1      49.082  26.095  26.568  1.00  0.00     0.022 A 
BRANCH  86  89
ATOM     89  S   UNL A   1      47.535  27.498  24.744  1.00  0.00     0.127 S 
ATOM     90  O   UNL A   1      46.353  26.782  24.276  1.00  0.00    -0.237 OA
ATOM     91  O   UNL A   1      47.357  28.912  25.069  1.00  0.00    -0.237 OA
ATOM     92  O   UNL A   1      48.755  27.239  23.979  1.00  0.00    -0.744 OA
ENDBRANCH  86  89
ENDBRANCH  58  82
BRANCH  70  93
ATOM     93  C   UNL A   1      44.425  33.525  29.538  1.00  0.00     0.023 A 
ATOM     94  C   UNL A   1      45.033  34.468  30.407  1.00  0.00     0.012 A 
ATOM     95  C   UNL A   1      43.831  34.034  28.380  1.00  0.00     0.148 A 
ATOM     96  C   UNL A   1      44.953  35.844  30.201  1.00  0.00     0.002 A 
ATOM     97  C   UNL A   1      43.689  35.410  28.209  1.00  0.00     0.091 A 
ATOM     98  F   UNL A   1      43.445  33.203  27.401  1.00  0.00    -0.205 F 
ATOM     99  C   UNL A   1      44.242  36.320  29.115  1.00  0.00     0.022 A 
BRANCH  97 100
ATOM    100  S   UNL A   1      42.665  35.998  26.864  1.00  0.00     0.127 S 
ATOM    101  O   UNL A   1      41.312  35.683  27.308  1.00  0.00    -0.237 OA
ATOM    102  O   UNL A   1      43.014  37.416  26.797  1.00  0.00    -0.237 OA
ATOM    103  O   UNL A   1      43.126  35.214  25.718  1.00  0.00    -0.744 OA
ENDBRANCH  97 100
ENDBRANCH  70  93
ENDBRANCH  44  45
ENDBRANCH  36  39
ENDBRANCH  34  35
ENDBRANCH  33  34
ENDBRANCH   1  33
TORSDOF 19
ENDMDL
