MODEL 1
REMARK VINA RESULT:     -10.4      0.000      0.000
REMARK SMILES O=C(Cn1c(SCCOc2ccccc2Cl)nc2ccccc21)NCCCCCCNC(=O)c1ccc(-c2c3nc(c(-c4cccc(S(=O)(=O)[O-])c4F)c4ccc([nH]4)c(-c4cccc(S(=O)(=O)[O-])c4F)c4nc(c(-c5cccc(S(=O)(=O)[O-])c5F)c5ccc2[nH]5)C=C4)C=C3)cc1
REMARK SMILES IDX 26 1 25 2 24 3 1 4 2 5 3 7 4 8 5 9 23 10 17 11 18 12 22 13
REMARK SMILES IDX 19 14 21 15 20 16 6 17 7 18 8 19 9 20 10 21 11 22 15 23
REMARK SMILES IDX 12 24 14 25 16 26 13 27 27 28 28 29 29 30 30 31 31 32 32 33
REMARK SMILES IDX 33 35 34 36 35 37 96 38 36 39 95 40 37 41 38 42 39 43 89 44
REMARK SMILES IDX 40 45 94 46 88 47 90 48 41 49 93 50 87 51 86 52 42 54 74 55
REMARK SMILES IDX 54 56 73 57 55 58 58 59 72 60 91 61 56 62 57 63 71 65 92 66
REMARK SMILES IDX 59 67 43 68 44 69 52 70 45 71 47 72 53 73 46 74 48 75 49 76
REMARK SMILES IDX 50 77 51 78 75 79 76 80 84 81 77 82 79 83 85 84 78 85 80 86
REMARK SMILES IDX 81 87 82 88 83 89 60 90 61 91 69 92 62 93 64 94 70 95 63 96
REMARK SMILES IDX 65 97 66 98 67 99 68 100
REMARK H PARENT 24 6 31 34 90 53 58 64
REMARK Flexibility Score: inf
ROOT
ATOM      1  C   UNL A   1      34.708  30.943  27.626  1.00  0.00     0.021 C 
ENDROOT
BRANCH   1   2
ATOM      2  C   UNL A   1      34.350  29.552  27.070  1.00  0.00     0.116 C 
BRANCH   2   3
ATOM      3  N   UNL A   1      33.889  29.529  25.680  1.00  0.00    -0.355 N 
ATOM      4  O   UNL A   1      31.994  28.301  26.089  1.00  0.00    -0.273 OA
ATOM      5  C   UNL A   1      32.692  28.934  25.296  1.00  0.00     0.240 C 
ATOM      6  H   UNL A   1      34.450  29.950  24.989  1.00  0.00     0.163 HD
BRANCH   5   7
ATOM      7  C   UNL A   1      32.339  28.978  23.803  1.00  0.00     0.224 C 
BRANCH   7   8
ATOM      8  N   UNL A   1      30.945  28.777  23.425  1.00  0.00    -0.309 N 
ATOM      9  C   UNL A   1      30.334  27.609  23.009  1.00  0.00     0.169 A 
ATOM     10  C   UNL A   1      29.932  29.719  23.563  1.00  0.00     0.069 A 
ATOM     11  N   UNL A   1      29.047  27.772  22.801  1.00  0.00    -0.222 NA
ATOM     12  C   UNL A   1      28.787  29.077  23.096  1.00  0.00     0.090 A 
ATOM     13  C   UNL A   1      29.899  31.049  24.001  1.00  0.00     0.028 A 
ATOM     14  C   UNL A   1      27.577  29.782  22.980  1.00  0.00     0.030 A 
ATOM     15  C   UNL A   1      28.685  31.739  23.877  1.00  0.00     0.002 A 
ATOM     16  C   UNL A   1      27.545  31.125  23.360  1.00  0.00     0.002 A 
BRANCH   9  17
ATOM     17  S   UNL A   1      31.019  26.029  22.841  1.00  0.00    -0.084 SA
BRANCH  17  18
ATOM     18  C   UNL A   1      30.669  25.089  24.339  1.00  0.00     0.119 C 
BRANCH  18  19
ATOM     19  C   UNL A   1      31.143  23.646  24.561  1.00  0.00     0.241 C 
BRANCH  19  20
ATOM     20  O   UNL A   1      32.221  23.465  25.485  1.00  0.00    -0.491 OA
BRANCH  20  21
ATOM     21  C   UNL A   1      33.025  22.353  25.372  1.00  0.00     0.137 A 
ATOM     22  C   UNL A   1      32.527  21.072  25.126  1.00  0.00     0.048 A 
ATOM     23  C   UNL A   1      34.427  22.521  25.389  1.00  0.00     0.083 A 
ATOM     24  C   UNL A   1      33.393  20.005  24.868  1.00  0.00     0.004 A 
ATOM     25  C   UNL A   1      35.288  21.451  25.134  1.00  0.00     0.024 A 
ATOM     26  Cl  UNL A   1      35.213  24.028  25.641  1.00  0.00    -0.080 Cl
ATOM     27  C   UNL A   1      34.770  20.195  24.861  1.00  0.00     0.002 A 
ENDBRANCH  20  21
ENDBRANCH  19  20
ENDBRANCH  18  19
ENDBRANCH  17  18
ENDBRANCH   9  17
ENDBRANCH   7   8
ENDBRANCH   5   7
ENDBRANCH   2   3
ENDBRANCH   1   2
BRANCH   1  28
ATOM     28  C   UNL A   1      33.580  31.903  28.046  1.00  0.00     0.002 C 
BRANCH  28  29
ATOM     29  C   UNL A   1      33.812  33.418  27.968  1.00  0.00     0.002 C 
BRANCH  29  30
ATOM     30  C   UNL A   1      32.593  34.353  28.029  1.00  0.00     0.021 C 
BRANCH  30  31
ATOM     31  C   UNL A   1      32.715  35.594  28.919  1.00  0.00     0.116 C 
BRANCH  31  32
ATOM     32  N   UNL A   1      32.746  35.320  30.343  1.00  0.00    -0.352 N 
ATOM     33  C   UNL A   1      33.717  35.027  31.267  1.00  0.00     0.251 C 
ATOM     34  H   UNL A   1      31.848  35.353  30.746  1.00  0.00     0.163 HD
ATOM     35  O   UNL A   1      33.383  35.209  32.443  1.00  0.00    -0.269 OA
BRANCH  33  36
ATOM     36  C   UNL A   1      35.069  34.450  30.996  1.00  0.00     0.039 A 
ATOM     37  C   UNL A   1      35.921  34.815  29.958  1.00  0.00     0.014 A 
ATOM     38  C   UNL A   1      35.463  33.374  31.828  1.00  0.00     0.014 A 
ATOM     39  C   UNL A   1      37.087  34.074  29.720  1.00  0.00     0.010 A 
ATOM     40  C   UNL A   1      36.623  32.631  31.591  1.00  0.00     0.010 A 
ATOM     41  C   UNL A   1      37.426  32.955  30.508  1.00  0.00    -0.014 A 
BRANCH  41  42
ATOM     42  C   UNL A   1      38.717  32.293  30.269  1.00  0.00     0.031 A 
ATOM     43  C   UNL A   1      38.560  30.985  29.579  1.00  0.00     0.074 A 
ATOM     44  C   UNL A   1      39.955  32.754  30.570  1.00  0.00     0.049 A 
ATOM     45  N   UNL A   1      38.562  29.822  30.142  1.00  0.00    -0.248 NA
ATOM     46  C   UNL A   1      38.167  30.964  28.164  1.00  0.00     0.031 C 
ATOM     47  C   UNL A   1      40.336  34.097  31.018  1.00  0.00     0.029 A 
ATOM     48  N   UNL A   1      41.170  32.120  30.469  1.00  0.00    -0.354 N 
ATOM     49  C   UNL A   1      38.447  28.907  29.102  1.00  0.00     0.074 A 
ATOM     50  C   UNL A   1      38.007  29.654  27.953  1.00  0.00     0.031 C 
ATOM     51  C   UNL A   1      41.683  34.240  30.938  1.00  0.00     0.029 A 
ATOM     52  C   UNL A   1      42.280  32.963  30.587  1.00  0.00     0.049 A 
ATOM     53  H   UNL A   1      41.252  31.149  30.326  1.00  0.00     0.167 HD
ATOM     54  C   UNL A   1      39.014  27.675  29.205  1.00  0.00     0.034 A 
ATOM     55  C   UNL A   1      43.585  32.626  30.402  1.00  0.00     0.034 A 
ATOM     56  C   UNL A   1      39.415  27.398  30.560  1.00  0.00     0.049 A 
ATOM     57  C   UNL A   1      43.684  31.183  30.695  1.00  0.00     0.074 A 
ATOM     58  C   UNL A   1      38.798  27.232  31.780  1.00  0.00     0.029 A 
ATOM     59  N   UNL A   1      40.736  27.669  30.801  1.00  0.00    -0.354 N 
ATOM     60  N   UNL A   1      43.518  30.674  31.883  1.00  0.00    -0.248 NA
ATOM     61  C   UNL A   1      43.693  30.234  29.592  1.00  0.00     0.031 C 
ATOM     62  C   UNL A   1      39.732  27.710  32.747  1.00  0.00     0.029 A 
ATOM     63  C   UNL A   1      40.899  28.096  32.085  1.00  0.00     0.049 A 
ATOM     64  H   UNL A   1      41.461  27.569  30.144  1.00  0.00     0.167 HD
ATOM     65  C   UNL A   1      42.942  29.444  31.632  1.00  0.00     0.074 A 
ATOM     66  C   UNL A   1      43.242  29.155  30.236  1.00  0.00     0.031 C 
ATOM     67  C   UNL A   1      42.004  28.939  32.481  1.00  0.00     0.034 A 
BRANCH  54  68
ATOM     68  C   UNL A   1      39.686  26.941  28.061  1.00  0.00     0.023 A 
ATOM     69  C   UNL A   1      39.400  25.562  27.919  1.00  0.00     0.012 A 
ATOM     70  C   UNL A   1      40.809  27.436  27.361  1.00  0.00     0.148 A 
ATOM     71  C   UNL A   1      40.210  24.720  27.147  1.00  0.00     0.002 A 
ATOM     72  C   UNL A   1      41.567  26.611  26.540  1.00  0.00     0.091 A 
ATOM     73  F   UNL A   1      41.246  28.675  27.599  1.00  0.00    -0.205 F 
ATOM     74  C   UNL A   1      41.289  25.247  26.448  1.00  0.00     0.022 A 
BRANCH  72  75
ATOM     75  S   UNL A   1      42.973  27.237  25.612  1.00  0.00     0.127 S 
ATOM     76  O   UNL A   1      43.509  26.012  25.033  1.00  0.00    -0.237 OA
ATOM     77  O   UNL A   1      42.324  28.146  24.670  1.00  0.00    -0.237 OA
ATOM     78  O   UNL A   1      43.824  27.905  26.597  1.00  0.00    -0.744 OA
ENDBRANCH  72  75
ENDBRANCH  54  68
BRANCH  55  79
ATOM     79  C   UNL A   1      44.763  33.353  29.846  1.00  0.00     0.023 A 
ATOM     80  C   UNL A   1      46.039  33.150  30.434  1.00  0.00     0.012 A 
ATOM     81  C   UNL A   1      44.723  33.943  28.567  1.00  0.00     0.148 A 
ATOM     82  C   UNL A   1      47.222  33.427  29.736  1.00  0.00     0.002 A 
ATOM     83  C   UNL A   1      45.905  34.225  27.880  1.00  0.00     0.091 A 
ATOM     84  F   UNL A   1      43.532  34.138  27.986  1.00  0.00    -0.205 F 
ATOM     85  C   UNL A   1      47.154  33.945  28.449  1.00  0.00     0.022 A 
BRANCH  83  86
ATOM     86  S   UNL A   1      45.904  34.895  26.210  1.00  0.00     0.127 S 
ATOM     87  O   UNL A   1      47.002  35.862  26.266  1.00  0.00    -0.237 OA
ATOM     88  O   UNL A   1      46.177  33.708  25.404  1.00  0.00    -0.237 OA
ATOM     89  O   UNL A   1      44.589  35.497  26.029  1.00  0.00    -0.744 OA
ENDBRANCH  83  86
ENDBRANCH  55  79
BRANCH  67  90
ATOM     90  C   UNL A   1      41.991  29.430  33.896  1.00  0.00     0.023 A 
ATOM     91  C   UNL A   1      42.871  28.960  34.888  1.00  0.00     0.012 A 
ATOM     92  C   UNL A   1      41.183  30.549  34.155  1.00  0.00     0.148 A 
ATOM     93  C   UNL A   1      42.954  29.618  36.119  1.00  0.00     0.002 A 
ATOM     94  C   UNL A   1      41.302  31.226  35.358  1.00  0.00     0.091 A 
ATOM     95  F   UNL A   1      40.350  30.963  33.187  1.00  0.00    -0.205 F 
ATOM     96  C   UNL A   1      42.185  30.761  36.346  1.00  0.00     0.022 A 
BRANCH  94  97
ATOM     97  S   UNL A   1      40.435  32.765  35.657  1.00  0.00     0.127 S 
ATOM     98  O   UNL A   1      39.038  32.335  35.658  1.00  0.00    -0.237 OA
ATOM     99  O   UNL A   1      40.957  33.161  36.966  1.00  0.00    -0.237 OA
ATOM    100  O   UNL A   1      40.804  33.662  34.567  1.00  0.00    -0.744 OA
ENDBRANCH  94  97
ENDBRANCH  67  90
ENDBRANCH  41  42
ENDBRANCH  33  36
ENDBRANCH  31  32
ENDBRANCH  30  31
ENDBRANCH  29  30
ENDBRANCH  28  29
ENDBRANCH   1  28
TORSDOF 22
ENDMDL
MODEL 2
REMARK VINA RESULT:     -10.1      5.418      9.998
REMARK SMILES O=C(Cn1c(SCCOc2ccccc2Cl)nc2ccccc21)NCCCCCCNC(=O)c1ccc(-c2c3nc(c(-c4cccc(S(=O)(=O)[O-])c4F)c4ccc([nH]4)c(-c4cccc(S(=O)(=O)[O-])c4F)c4nc(c(-c5cccc(S(=O)(=O)[O-])c5F)c5ccc2[nH]5)C=C4)C=C3)cc1
REMARK SMILES IDX 26 1 25 2 24 3 1 4 2 5 3 7 4 8 5 9 23 10 17 11 18 12 22 13
REMARK SMILES IDX 19 14 21 15 20 16 6 17 7 18 8 19 9 20 10 21 11 22 15 23
REMARK SMILES IDX 12 24 14 25 16 26 13 27 27 28 28 29 29 30 30 31 31 32 32 33
REMARK SMILES IDX 33 35 34 36 35 37 96 38 36 39 95 40 37 41 38 42 39 43 89 44
REMARK SMILES IDX 40 45 94 46 88 47 90 48 41 49 93 50 87 51 86 52 42 54 74 55
REMARK SMILES IDX 54 56 73 57 55 58 58 59 72 60 91 61 56 62 57 63 71 65 92 66
REMARK SMILES IDX 59 67 43 68 44 69 52 70 45 71 47 72 53 73 46 74 48 75 49 76
REMARK SMILES IDX 50 77 51 78 75 79 76 80 84 81 77 82 79 83 85 84 78 85 80 86
REMARK SMILES IDX 81 87 82 88 83 89 60 90 61 91 69 92 62 93 64 94 70 95 63 96
REMARK SMILES IDX 65 97 66 98 67 99 68 100
REMARK H PARENT 24 6 31 34 90 53 58 64
REMARK Flexibility Score: inf
ROOT
ATOM      1  C   UNL A   1      41.686  32.810  32.460  1.00  0.00     0.021 C 
ENDROOT
BRANCH   1   2
ATOM      2  C   UNL A   1      41.055  33.313  31.148  1.00  0.00     0.116 C 
BRANCH   2   3
ATOM      3  N   UNL A   1      40.152  32.370  30.482  1.00  0.00    -0.355 N 
ATOM      4  O   UNL A   1      38.551  33.924  29.951  1.00  0.00    -0.273 OA
ATOM      5  C   UNL A   1      38.966  32.767  29.877  1.00  0.00     0.240 C 
ATOM      6  H   UNL A   1      40.396  31.416  30.464  1.00  0.00     0.163 HD
BRANCH   5   7
ATOM      7  C   UNL A   1      38.115  31.670  29.224  1.00  0.00     0.224 C 
BRANCH   7   8
ATOM      8  N   UNL A   1      38.178  30.328  29.790  1.00  0.00    -0.309 N 
ATOM      9  C   UNL A   1      37.673  29.887  30.999  1.00  0.00     0.169 A 
ATOM     10  C   UNL A   1      38.643  29.199  29.127  1.00  0.00     0.069 A 
ATOM     11  N   UNL A   1      37.860  28.598  31.172  1.00  0.00    -0.222 NA
ATOM     12  C   UNL A   1      38.494  28.162  30.047  1.00  0.00     0.090 A 
ATOM     13  C   UNL A   1      39.202  28.980  27.861  1.00  0.00     0.028 A 
ATOM     14  C   UNL A   1      38.978  26.877  29.751  1.00  0.00     0.030 A 
ATOM     15  C   UNL A   1      39.681  27.692  27.581  1.00  0.00     0.002 A 
ATOM     16  C   UNL A   1      39.589  26.659  28.514  1.00  0.00     0.002 A 
BRANCH   9  17
ATOM     17  S   UNL A   1      36.786  30.776  32.191  1.00  0.00    -0.084 SA
BRANCH  17  18
ATOM     18  C   UNL A   1      35.406  31.604  31.378  1.00  0.00     0.119 C 
BRANCH  18  19
ATOM     19  C   UNL A   1      35.224  33.129  31.370  1.00  0.00     0.241 C 
BRANCH  19  20
ATOM     20  O   UNL A   1      33.929  33.617  31.736  1.00  0.00    -0.491 OA
BRANCH  20  21
ATOM     21  C   UNL A   1      33.753  34.966  31.947  1.00  0.00     0.137 A 
ATOM     22  C   UNL A   1      34.080  35.602  33.146  1.00  0.00     0.048 A 
ATOM     23  C   UNL A   1      33.332  35.775  30.869  1.00  0.00     0.083 A 
ATOM     24  C   UNL A   1      34.027  36.994  33.256  1.00  0.00     0.004 A 
ATOM     25  C   UNL A   1      33.277  37.165  30.985  1.00  0.00     0.024 A 
ATOM     26  Cl  UNL A   1      32.924  35.169  29.313  1.00  0.00    -0.080 Cl
ATOM     27  C   UNL A   1      33.637  37.776  32.175  1.00  0.00     0.002 A 
ENDBRANCH  20  21
ENDBRANCH  19  20
ENDBRANCH  18  19
ENDBRANCH  17  18
ENDBRANCH   9  17
ENDBRANCH   7   8
ENDBRANCH   5   7
ENDBRANCH   2   3
ENDBRANCH   1   2
BRANCH   1  28
ATOM     28  C   UNL A   1      41.664  33.716  33.706  1.00  0.00     0.002 C 
BRANCH  28  29
ATOM     29  C   UNL A   1      40.761  34.957  33.719  1.00  0.00     0.002 C 
BRANCH  29  30
ATOM     30  C   UNL A   1      39.668  35.061  34.794  1.00  0.00     0.021 C 
BRANCH  30  31
ATOM     31  C   UNL A   1      38.551  34.014  34.752  1.00  0.00     0.116 C 
BRANCH  31  32
ATOM     32  N   UNL A   1      38.404  33.232  35.966  1.00  0.00    -0.352 N 
ATOM     33  C   UNL A   1      39.075  32.190  36.553  1.00  0.00     0.251 C 
ATOM     34  H   UNL A   1      37.629  33.522  36.500  1.00  0.00     0.163 HD
ATOM     35  O   UNL A   1      38.844  32.038  37.757  1.00  0.00    -0.269 OA
BRANCH  33  36
ATOM     36  C   UNL A   1      39.971  31.205  35.874  1.00  0.00     0.039 A 
ATOM     37  C   UNL A   1      41.332  31.036  36.113  1.00  0.00     0.014 A 
ATOM     38  C   UNL A   1      39.383  30.444  34.834  1.00  0.00     0.014 A 
ATOM     39  C   UNL A   1      42.085  30.192  35.285  1.00  0.00     0.010 A 
ATOM     40  C   UNL A   1      40.133  29.605  34.005  1.00  0.00     0.010 A 
ATOM     41  C   UNL A   1      41.501  29.503  34.203  1.00  0.00    -0.014 A 
BRANCH  41  42
ATOM     42  C   UNL A   1      42.330  28.553  33.445  1.00  0.00     0.031 A 
ATOM     43  C   UNL A   1      42.918  27.500  34.315  1.00  0.00     0.074 A 
ATOM     44  C   UNL A   1      42.561  28.534  32.111  1.00  0.00     0.049 A 
ATOM     45  N   UNL A   1      44.117  27.491  34.796  1.00  0.00    -0.248 NA
ATOM     46  C   UNL A   1      42.043  26.459  34.870  1.00  0.00     0.031 C 
ATOM     47  C   UNL A   1      41.894  29.316  31.066  1.00  0.00     0.029 A 
ATOM     48  N   UNL A   1      43.416  27.739  31.385  1.00  0.00    -0.354 N 
ATOM     49  C   UNL A   1      44.229  26.292  35.490  1.00  0.00     0.074 A 
ATOM     50  C   UNL A   1      42.888  25.805  35.674  1.00  0.00     0.031 C 
ATOM     51  C   UNL A   1      42.205  28.808  29.846  1.00  0.00     0.029 A 
ATOM     52  C   UNL A   1      43.210  27.771  30.002  1.00  0.00     0.049 A 
ATOM     53  H   UNL A   1      44.117  27.191  31.806  1.00  0.00     0.167 HD
ATOM     54  C   UNL A   1      45.431  25.662  35.583  1.00  0.00     0.034 A 
ATOM     55  C   UNL A   1      43.820  26.995  29.067  1.00  0.00     0.034 A 
ATOM     56  C   UNL A   1      46.506  26.529  35.175  1.00  0.00     0.049 A 
ATOM     57  C   UNL A   1      45.126  26.611  29.639  1.00  0.00     0.074 A 
ATOM     58  C   UNL A   1      47.073  27.706  35.610  1.00  0.00     0.029 A 
ATOM     59  N   UNL A   1      46.881  26.351  33.870  1.00  0.00    -0.354 N 
ATOM     60  N   UNL A   1      46.095  27.453  29.856  1.00  0.00    -0.248 NA
ATOM     61  C   UNL A   1      45.274  25.299  30.251  1.00  0.00     0.031 C 
ATOM     62  C   UNL A   1      47.542  28.361  34.433  1.00  0.00     0.029 A 
ATOM     63  C   UNL A   1      47.292  27.536  33.335  1.00  0.00     0.049 A 
ATOM     64  H   UNL A   1      46.857  25.494  33.388  1.00  0.00     0.167 HD
ATOM     65  C   UNL A   1      46.713  26.953  30.986  1.00  0.00     0.074 A 
ATOM     66  C   UNL A   1      46.294  25.560  31.070  1.00  0.00     0.031 C 
ATOM     67  C   UNL A   1      47.234  27.801  31.916  1.00  0.00     0.034 A 
BRANCH  54  68
ATOM     68  C   UNL A   1      45.619  24.159  35.527  1.00  0.00     0.023 A 
ATOM     69  C   UNL A   1      45.050  23.475  34.427  1.00  0.00     0.012 A 
ATOM     70  C   UNL A   1      46.009  23.374  36.635  1.00  0.00     0.148 A 
ATOM     71  C   UNL A   1      44.852  22.089  34.446  1.00  0.00     0.002 A 
ATOM     72  C   UNL A   1      45.875  21.991  36.621  1.00  0.00     0.091 A 
ATOM     73  F   UNL A   1      46.373  23.968  37.774  1.00  0.00    -0.205 F 
ATOM     74  C   UNL A   1      45.274  21.344  35.540  1.00  0.00     0.022 A 
BRANCH  72  75
ATOM     75  S   UNL A   1      46.404  20.977  38.007  1.00  0.00     0.127 S 
ATOM     76  O   UNL A   1      45.653  21.570  39.105  1.00  0.00    -0.237 OA
ATOM     77  O   UNL A   1      45.960  19.649  37.587  1.00  0.00    -0.237 OA
ATOM     78  O   UNL A   1      47.858  21.130  38.070  1.00  0.00    -0.744 OA
ENDBRANCH  72  75
ENDBRANCH  54  68
BRANCH  55  79
ATOM     79  C   UNL A   1      43.368  26.393  27.779  1.00  0.00     0.023 A 
ATOM     80  C   UNL A   1      43.867  26.919  26.559  1.00  0.00     0.012 A 
ATOM     81  C   UNL A   1      42.758  25.124  27.739  1.00  0.00     0.148 A 
ATOM     82  C   UNL A   1      43.851  26.170  25.374  1.00  0.00     0.002 A 
ATOM     83  C   UNL A   1      42.737  24.385  26.554  1.00  0.00     0.091 A 
ATOM     84  F   UNL A   1      42.286  24.600  28.877  1.00  0.00    -0.205 F 
ATOM     85  C   UNL A   1      43.305  24.893  25.378  1.00  0.00     0.022 A 
BRANCH  83  86
ATOM     86  S   UNL A   1      42.050  22.724  26.474  1.00  0.00     0.127 S 
ATOM     87  O   UNL A   1      42.715  22.063  27.599  1.00  0.00    -0.237 OA
ATOM     88  O   UNL A   1      40.625  22.972  26.669  1.00  0.00    -0.237 OA
ATOM     89  O   UNL A   1      42.432  22.204  25.167  1.00  0.00    -0.744 OA
ENDBRANCH  83  86
ENDBRANCH  55  79
BRANCH  67  90
ATOM     90  C   UNL A   1      47.604  29.186  31.484  1.00  0.00     0.023 A 
ATOM     91  C   UNL A   1      48.813  29.497  30.835  1.00  0.00     0.012 A 
ATOM     92  C   UNL A   1      46.591  30.154  31.571  1.00  0.00     0.148 A 
ATOM     93  C   UNL A   1      48.995  30.761  30.262  1.00  0.00     0.002 A 
ATOM     94  C   UNL A   1      46.756  31.387  30.962  1.00  0.00     0.091 A 
ATOM     95  F   UNL A   1      45.455  29.822  32.204  1.00  0.00    -0.205 F 
ATOM     96  C   UNL A   1      47.959  31.697  30.308  1.00  0.00     0.022 A 
BRANCH  94  97
ATOM     97  S   UNL A   1      45.421  32.579  30.880  1.00  0.00     0.127 S 
ATOM     98  O   UNL A   1      45.223  32.914  32.290  1.00  0.00    -0.237 OA
ATOM     99  O   UNL A   1      46.013  33.647  30.073  1.00  0.00    -0.237 OA
ATOM    100  O   UNL A   1      44.300  31.896  30.245  1.00  0.00    -0.744 OA
ENDBRANCH  94  97
ENDBRANCH  67  90
ENDBRANCH  41  42
ENDBRANCH  33  36
ENDBRANCH  31  32
ENDBRANCH  30  31
ENDBRANCH  29  30
ENDBRANCH  28  29
ENDBRANCH   1  28
TORSDOF 22
ENDMDL
MODEL 3
REMARK VINA RESULT:      -9.8      4.748     10.514
REMARK SMILES O=C(Cn1c(SCCOc2ccccc2Cl)nc2ccccc21)NCCCCCCNC(=O)c1ccc(-c2c3nc(c(-c4cccc(S(=O)(=O)[O-])c4F)c4ccc([nH]4)c(-c4cccc(S(=O)(=O)[O-])c4F)c4nc(c(-c5cccc(S(=O)(=O)[O-])c5F)c5ccc2[nH]5)C=C4)C=C3)cc1
REMARK SMILES IDX 26 1 25 2 24 3 1 4 2 5 3 7 4 8 5 9 23 10 17 11 18 12 22 13
REMARK SMILES IDX 19 14 21 15 20 16 6 17 7 18 8 19 9 20 10 21 11 22 15 23
REMARK SMILES IDX 12 24 14 25 16 26 13 27 27 28 28 29 29 30 30 31 31 32 32 33
REMARK SMILES IDX 33 35 34 36 35 37 96 38 36 39 95 40 37 41 38 42 39 43 89 44
REMARK SMILES IDX 40 45 94 46 88 47 90 48 41 49 93 50 87 51 86 52 42 54 74 55
REMARK SMILES IDX 54 56 73 57 55 58 58 59 72 60 91 61 56 62 57 63 71 65 92 66
REMARK SMILES IDX 59 67 43 68 44 69 52 70 45 71 47 72 53 73 46 74 48 75 49 76
REMARK SMILES IDX 50 77 51 78 75 79 76 80 84 81 77 82 79 83 85 84 78 85 80 86
REMARK SMILES IDX 81 87 82 88 83 89 60 90 61 91 69 92 62 93 64 94 70 95 63 96
REMARK SMILES IDX 65 97 66 98 67 99 68 100
REMARK H PARENT 24 6 31 34 90 53 58 64
REMARK Flexibility Score: inf
ROOT
ATOM      1  C   UNL A   1      39.370  29.140  28.170  1.00  0.00     0.021 C 
ENDROOT
BRANCH   1   2
ATOM      2  C   UNL A   1      40.387  28.854  27.049  1.00  0.00     0.116 C 
BRANCH   2   3
ATOM      3  N   UNL A   1      41.746  28.541  27.497  1.00  0.00    -0.355 N 
ATOM      4  O   UNL A   1      42.648  28.381  25.393  1.00  0.00    -0.273 OA
ATOM      5  C   UNL A   1      42.808  28.374  26.615  1.00  0.00     0.240 C 
ATOM      6  H   UNL A   1      41.915  28.443  28.462  1.00  0.00     0.163 HD
BRANCH   5   7
ATOM      7  C   UNL A   1      44.175  28.040  27.224  1.00  0.00     0.224 C 
BRANCH   7   8
ATOM      8  N   UNL A   1      44.875  26.861  26.727  1.00  0.00    -0.309 N 
ATOM      9  C   UNL A   1      44.562  25.530  26.939  1.00  0.00     0.169 A 
ATOM     10  C   UNL A   1      45.920  26.874  25.811  1.00  0.00     0.069 A 
ATOM     11  N   UNL A   1      45.375  24.724  26.295  1.00  0.00    -0.222 NA
ATOM     12  C   UNL A   1      46.246  25.532  25.627  1.00  0.00     0.090 A 
ATOM     13  C   UNL A   1      46.626  27.895  25.163  1.00  0.00     0.028 A 
ATOM     14  C   UNL A   1      47.353  25.173  24.841  1.00  0.00     0.030 A 
ATOM     15  C   UNL A   1      47.730  27.521  24.382  1.00  0.00     0.002 A 
ATOM     16  C   UNL A   1      48.102  26.185  24.235  1.00  0.00     0.002 A 
BRANCH   9  17
ATOM     17  S   UNL A   1      43.235  24.858  27.823  1.00  0.00    -0.084 SA
BRANCH  17  18
ATOM     18  C   UNL A   1      42.042  24.191  26.647  1.00  0.00     0.119 C 
BRANCH  18  19
ATOM     19  C   UNL A   1      42.350  23.018  25.705  1.00  0.00     0.241 C 
BRANCH  19  20
ATOM     20  O   UNL A   1      42.781  21.801  26.323  1.00  0.00    -0.491 OA
BRANCH  20  21
ATOM     21  C   UNL A   1      43.753  21.043  25.711  1.00  0.00     0.137 A 
ATOM     22  C   UNL A   1      45.009  21.544  25.365  1.00  0.00     0.048 A 
ATOM     23  C   UNL A   1      43.522  19.663  25.522  1.00  0.00     0.083 A 
ATOM     24  C   UNL A   1      46.012  20.695  24.886  1.00  0.00     0.004 A 
ATOM     25  C   UNL A   1      44.525  18.819  25.040  1.00  0.00     0.024 A 
ATOM     26  Cl  UNL A   1      42.051  18.869  25.923  1.00  0.00    -0.080 Cl
ATOM     27  C   UNL A   1      45.775  19.334  24.734  1.00  0.00     0.002 A 
ENDBRANCH  20  21
ENDBRANCH  19  20
ENDBRANCH  18  19
ENDBRANCH  17  18
ENDBRANCH   9  17
ENDBRANCH   7   8
ENDBRANCH   5   7
ENDBRANCH   2   3
ENDBRANCH   1   2
BRANCH   1  28
ATOM     28  C   UNL A   1      37.995  29.732  27.811  1.00  0.00     0.002 C 
BRANCH  28  29
ATOM     29  C   UNL A   1      36.863  29.692  28.848  1.00  0.00     0.002 C 
BRANCH  29  30
ATOM     30  C   UNL A   1      35.412  29.812  28.358  1.00  0.00     0.021 C 
BRANCH  30  31
ATOM     31  C   UNL A   1      35.026  31.109  27.641  1.00  0.00     0.116 C 
BRANCH  31  32
ATOM     32  N   UNL A   1      34.272  32.049  28.448  1.00  0.00    -0.352 N 
ATOM     33  C   UNL A   1      34.541  32.862  29.521  1.00  0.00     0.251 C 
ATOM     34  H   UNL A   1      33.335  32.122  28.154  1.00  0.00     0.163 HD
ATOM     35  O   UNL A   1      33.724  33.772  29.697  1.00  0.00    -0.269 OA
BRANCH  33  36
ATOM     36  C   UNL A   1      35.650  32.703  30.510  1.00  0.00     0.039 A 
ATOM     37  C   UNL A   1      36.949  33.183  30.367  1.00  0.00     0.014 A 
ATOM     38  C   UNL A   1      35.358  31.915  31.649  1.00  0.00     0.014 A 
ATOM     39  C   UNL A   1      37.933  32.816  31.295  1.00  0.00     0.010 A 
ATOM     40  C   UNL A   1      36.338  31.545  32.574  1.00  0.00     0.010 A 
ATOM     41  C   UNL A   1      37.645  31.965  32.381  1.00  0.00    -0.014 A 
BRANCH  41  42
ATOM     42  C   UNL A   1      38.701  31.711  33.374  1.00  0.00     0.031 A 
ATOM     43  C   UNL A   1      38.688  32.707  34.477  1.00  0.00     0.074 A 
ATOM     44  C   UNL A   1      39.601  30.699  33.388  1.00  0.00     0.049 A 
ATOM     45  N   UNL A   1      39.450  33.746  34.575  1.00  0.00    -0.248 NA
ATOM     46  C   UNL A   1      37.601  32.668  35.465  1.00  0.00     0.031 C 
ATOM     47  C   UNL A   1      39.626  29.499  32.546  1.00  0.00     0.029 A 
ATOM     48  N   UNL A   1      40.669  30.494  34.228  1.00  0.00    -0.354 N 
ATOM     49  C   UNL A   1      39.118  34.336  35.789  1.00  0.00     0.074 A 
ATOM     50  C   UNL A   1      37.860  33.762  36.187  1.00  0.00     0.031 C 
ATOM     51  C   UNL A   1      40.509  28.602  33.055  1.00  0.00     0.029 A 
ATOM     52  C   UNL A   1      41.227  29.213  34.161  1.00  0.00     0.049 A 
ATOM     53  H   UNL A   1      41.014  31.193  34.829  1.00  0.00     0.167 HD
ATOM     54  C   UNL A   1      40.057  35.017  36.500  1.00  0.00     0.034 A 
ATOM     55  C   UNL A   1      42.200  28.702  34.962  1.00  0.00     0.034 A 
ATOM     56  C   UNL A   1      41.227  35.278  35.703  1.00  0.00     0.049 A 
ATOM     57  C   UNL A   1      42.985  29.856  35.443  1.00  0.00     0.074 A 
ATOM     58  C   UNL A   1      41.536  36.004  34.574  1.00  0.00     0.029 A 
ATOM     59  N   UNL A   1      42.225  34.358  35.886  1.00  0.00    -0.354 N 
ATOM     60  N   UNL A   1      43.734  30.591  34.672  1.00  0.00    -0.248 NA
ATOM     61  C   UNL A   1      42.722  30.389  36.771  1.00  0.00     0.031 C 
ATOM     62  C   UNL A   1      42.587  35.283  33.934  1.00  0.00     0.029 A 
ATOM     63  C   UNL A   1      42.915  34.179  34.724  1.00  0.00     0.049 A 
ATOM     64  H   UNL A   1      42.416  33.895  36.732  1.00  0.00     0.167 HD
ATOM     65  C   UNL A   1      43.636  31.851  35.230  1.00  0.00     0.074 A 
ATOM     66  C   UNL A   1      43.167  31.634  36.593  1.00  0.00     0.031 C 
ATOM     67  C   UNL A   1      43.628  32.956  34.434  1.00  0.00     0.034 A 
BRANCH  54  68
ATOM     68  C   UNL A   1      40.172  34.994  38.012  1.00  0.00     0.023 A 
ATOM     69  C   UNL A   1      40.349  36.235  38.668  1.00  0.00     0.012 A 
ATOM     70  C   UNL A   1      40.455  33.830  38.761  1.00  0.00     0.148 A 
ATOM     71  C   UNL A   1      40.813  36.309  39.987  1.00  0.00     0.002 A 
ATOM     72  C   UNL A   1      40.847  33.907  40.092  1.00  0.00     0.091 A 
ATOM     73  F   UNL A   1      40.494  32.641  38.153  1.00  0.00    -0.205 F 
ATOM     74  C   UNL A   1      41.053  35.144  40.704  1.00  0.00     0.022 A 
BRANCH  72  75
ATOM     75  S   UNL A   1      41.171  32.433  41.068  1.00  0.00     0.127 S 
ATOM     76  O   UNL A   1      41.704  33.007  42.295  1.00  0.00    -0.237 OA
ATOM     77  O   UNL A   1      39.834  31.851  41.176  1.00  0.00    -0.237 OA
ATOM     78  O   UNL A   1      42.107  31.637  40.273  1.00  0.00    -0.744 OA
ENDBRANCH  72  75
ENDBRANCH  54  68
BRANCH  55  79
ATOM     79  C   UNL A   1      42.467  27.341  35.513  1.00  0.00     0.023 A 
ATOM     80  C   UNL A   1      41.578  26.801  36.479  1.00  0.00     0.012 A 
ATOM     81  C   UNL A   1      43.344  26.449  34.865  1.00  0.00     0.148 A 
ATOM     82  C   UNL A   1      41.496  25.422  36.713  1.00  0.00     0.002 A 
ATOM     83  C   UNL A   1      43.264  25.076  35.109  1.00  0.00     0.091 A 
ATOM     84  F   UNL A   1      44.187  26.930  33.944  1.00  0.00    -0.205 F 
ATOM     85  C   UNL A   1      42.325  24.557  36.010  1.00  0.00     0.022 A 
BRANCH  83  86
ATOM     86  S   UNL A   1      44.300  23.889  34.240  1.00  0.00     0.127 S 
ATOM     87  O   UNL A   1      43.591  22.630  34.480  1.00  0.00    -0.237 OA
ATOM     88  O   UNL A   1      44.234  24.373  32.865  1.00  0.00    -0.237 OA
ATOM     89  O   UNL A   1      45.607  23.967  34.879  1.00  0.00    -0.744 OA
ENDBRANCH  83  86
ENDBRANCH  55  79
BRANCH  67  90
ATOM     90  C   UNL A   1      44.240  32.852  33.071  1.00  0.00     0.023 A 
ATOM     91  C   UNL A   1      45.622  32.957  32.832  1.00  0.00     0.012 A 
ATOM     92  C   UNL A   1      43.384  32.435  32.038  1.00  0.00     0.148 A 
ATOM     93  C   UNL A   1      46.142  32.628  31.576  1.00  0.00     0.002 A 
ATOM     94  C   UNL A   1      43.908  32.065  30.811  1.00  0.00     0.091 A 
ATOM     95  F   UNL A   1      42.070  32.354  32.303  1.00  0.00    -0.205 F 
ATOM     96  C   UNL A   1      45.289  32.163  30.573  1.00  0.00     0.022 A 
BRANCH  94  97
ATOM     97  S   UNL A   1      42.881  31.345  29.532  1.00  0.00     0.127 S 
ATOM     98  O   UNL A   1      42.547  30.042  30.104  1.00  0.00    -0.237 OA
ATOM     99  O   UNL A   1      41.766  32.291  29.466  1.00  0.00    -0.237 OA
ATOM    100  O   UNL A   1      43.700  31.297  28.326  1.00  0.00    -0.744 OA
ENDBRANCH  94  97
ENDBRANCH  67  90
ENDBRANCH  41  42
ENDBRANCH  33  36
ENDBRANCH  31  32
ENDBRANCH  30  31
ENDBRANCH  29  30
ENDBRANCH  28  29
ENDBRANCH   1  28
TORSDOF 22
ENDMDL
