MODEL 1
REMARK VINA RESULT:     -11.2      0.000      0.000
REMARK SMILES CCC[C@H]1CC[C@H](C(=O)NCCCCCCNC(=O)c2ccc(-c3c4nc(c(-c5cccc(S(=O)(=O)[O-])c5F)c5ccc([nH]5)c(-c5cccc(S(=O)(=O)[O-])c5F)c5nc(c(-c6cccc(S(=O)(=O)[O-])c6F)c6ccc3[nH]6)C=C5)C=C4)cc2)[C@H](Sc2ccncc2)C1
REMARK SMILES IDX 14 1 13 2 12 3 11 4 10 5 8 6 9 7 7 9 4 10 5 11 91 12 6 13
REMARK SMILES IDX 83 14 3 15 2 16 1 17 84 18 85 19 86 20 90 21 87 22 89 23
REMARK SMILES IDX 88 24 15 25 16 26 17 27 18 28 19 30 20 31 21 32 82 33 22 34
REMARK SMILES IDX 81 35 23 36 24 37 25 38 75 39 26 40 80 41 74 42 76 43 27 44
REMARK SMILES IDX 79 45 73 46 72 47 28 49 60 50 40 51 59 52 41 53 44 54 58 55
REMARK SMILES IDX 77 56 42 57 43 58 57 60 78 61 45 62 29 63 30 64 38 65 31 66
REMARK SMILES IDX 33 67 39 68 32 69 34 70 35 71 36 72 37 73 61 74 62 75 70 76
REMARK SMILES IDX 63 77 65 78 71 79 64 80 66 81 67 82 68 83 69 84 46 85 47 86
REMARK SMILES IDX 55 87 48 88 50 89 56 90 49 91 51 92 52 93 53 94 54 95
REMARK H PARENT 10 8 17 29 76 48 44 59
REMARK Flexibility Score: inf
ROOT
ATOM      1  C   UNL A   1      31.244  28.424  24.134  1.00  0.00     0.002 C 
ENDROOT
BRANCH   1   2
ATOM      2  C   UNL A   1      30.272  27.315  23.708  1.00  0.00     0.002 C 
BRANCH   2   3
ATOM      3  C   UNL A   1      30.934  26.064  23.140  1.00  0.00     0.021 C 
BRANCH   3   4
ATOM      4  C   UNL A   1      30.438  24.780  23.786  1.00  0.00     0.116 C 
BRANCH   4   5
ATOM      5  N   UNL A   1      30.936  24.591  25.122  1.00  0.00    -0.356 N 
ATOM      6  C   UNL A   1      32.055  24.001  25.602  1.00  0.00     0.224 C 
ATOM      7  O   UNL A   1      32.197  24.062  26.833  1.00  0.00    -0.275 OA
ATOM      8  H   UNL A   1      30.351  24.963  25.822  1.00  0.00     0.163 HD
BRANCH   6   9
ATOM      9  C   UNL A   1      33.095  23.227  24.780  1.00  0.00     0.092 C 
ATOM     10  C   UNL A   1      35.907  22.797  25.836  1.00  0.00    -0.010 C 
ATOM     11  C   UNL A   1      35.433  24.181  25.317  1.00  0.00     0.004 C 
ATOM     12  C   UNL A   1      34.763  21.801  26.171  1.00  0.00     0.019 C 
ATOM     13  C   UNL A   1      34.254  24.139  24.352  1.00  0.00     0.015 C 
ATOM     14  C   UNL A   1      33.617  21.833  25.162  1.00  0.00     0.064 C 
BRANCH  10  15
ATOM     15  C   UNL A   1      36.954  22.260  24.832  1.00  0.00     0.003 C 
BRANCH  15  16
ATOM     16  C   UNL A   1      36.905  20.765  24.509  1.00  0.00    -0.003 C 
ATOM     17  C   UNL A   1      38.123  19.996  25.003  1.00  0.00     0.004 C 
ENDBRANCH  15  16
ENDBRANCH  10  15
BRANCH  14  18
ATOM     18  S   UNL A   1      32.391  20.458  25.373  1.00  0.00    -0.122 SA
BRANCH  18  19
ATOM     19  C   UNL A   1      32.966  19.148  24.324  1.00  0.00     0.011 A 
ATOM     20  C   UNL A   1      34.010  18.328  24.743  1.00  0.00     0.035 A 
ATOM     21  C   UNL A   1      32.297  18.827  23.146  1.00  0.00     0.035 A 
ATOM     22  C   UNL A   1      34.417  17.294  23.918  1.00  0.00     0.112 A 
ATOM     23  C   UNL A   1      32.751  17.747  22.405  1.00  0.00     0.112 A 
ATOM     24  N   UNL A   1      33.814  16.988  22.752  1.00  0.00    -0.265 NA
ENDBRANCH  18  19
ENDBRANCH  14  18
ENDBRANCH   6   9
ENDBRANCH   4   5
ENDBRANCH   3   4
ENDBRANCH   2   3
ENDBRANCH   1   2
BRANCH   1  25
ATOM     25  C   UNL A   1      32.591  27.946  24.684  1.00  0.00     0.021 C 
BRANCH  25  26
ATOM     26  C   UNL A   1      33.558  29.062  25.059  1.00  0.00     0.116 C 
BRANCH  26  27
ATOM     27  N   UNL A   1      32.858  30.255  25.512  1.00  0.00    -0.352 N 
ATOM     28  C   UNL A   1      33.058  31.000  26.645  1.00  0.00     0.251 C 
ATOM     29  H   UNL A   1      32.139  30.572  24.920  1.00  0.00     0.163 HD
ATOM     30  O   UNL A   1      32.238  31.844  26.983  1.00  0.00    -0.269 OA
BRANCH  28  31
ATOM     31  C   UNL A   1      34.271  30.768  27.451  1.00  0.00     0.039 A 
ATOM     32  C   UNL A   1      34.481  29.510  28.020  1.00  0.00     0.014 A 
ATOM     33  C   UNL A   1      35.194  31.800  27.643  1.00  0.00     0.014 A 
ATOM     34  C   UNL A   1      35.645  29.275  28.752  1.00  0.00     0.010 A 
ATOM     35  C   UNL A   1      36.388  31.540  28.303  1.00  0.00     0.010 A 
ATOM     36  C   UNL A   1      36.615  30.282  28.882  1.00  0.00    -0.014 A 
BRANCH  36  37
ATOM     37  C   UNL A   1      37.866  30.065  29.647  1.00  0.00     0.031 A 
ATOM     38  C   UNL A   1      38.918  29.140  29.098  1.00  0.00     0.074 A 
ATOM     39  C   UNL A   1      38.010  30.617  30.867  1.00  0.00     0.049 A 
ATOM     40  N   UNL A   1      40.021  28.722  29.658  1.00  0.00    -0.248 NA
ATOM     41  C   UNL A   1      38.679  28.584  27.755  1.00  0.00     0.031 C 
ATOM     42  C   UNL A   1      37.030  31.483  31.527  1.00  0.00     0.029 A 
ATOM     43  N   UNL A   1      39.023  30.503  31.785  1.00  0.00    -0.354 N 
ATOM     44  C   UNL A   1      40.583  27.823  28.759  1.00  0.00     0.074 A 
ATOM     45  C   UNL A   1      39.682  27.728  27.633  1.00  0.00     0.031 C 
ATOM     46  C   UNL A   1      37.489  31.817  32.744  1.00  0.00     0.029 A 
ATOM     47  C   UNL A   1      38.772  31.159  32.967  1.00  0.00     0.049 A 
ATOM     48  H   UNL A   1      39.852  29.998  31.614  1.00  0.00     0.167 HD
ATOM     49  C   UNL A   1      41.757  27.154  28.854  1.00  0.00     0.034 A 
ATOM     50  C   UNL A   1      39.487  31.209  34.108  1.00  0.00     0.034 A 
ATOM     51  C   UNL A   1      42.664  27.287  29.959  1.00  0.00     0.049 A 
ATOM     52  C   UNL A   1      40.802  30.479  34.176  1.00  0.00     0.074 A 
ATOM     53  C   UNL A   1      43.916  26.719  30.116  1.00  0.00     0.029 A 
ATOM     54  N   UNL A   1      42.416  28.034  31.100  1.00  0.00    -0.354 N 
ATOM     55  N   UNL A   1      41.380  29.737  33.263  1.00  0.00    -0.248 NA
ATOM     56  C   UNL A   1      41.579  30.619  35.416  1.00  0.00     0.031 C 
ATOM     57  C   UNL A   1      44.409  27.094  31.368  1.00  0.00     0.029 A 
ATOM     58  C   UNL A   1      43.485  27.935  31.970  1.00  0.00     0.049 A 
ATOM     59  H   UNL A   1      41.598  28.556  31.266  1.00  0.00     0.167 HD
ATOM     60  C   UNL A   1      42.609  29.365  33.795  1.00  0.00     0.074 A 
ATOM     61  C   UNL A   1      42.693  29.967  35.111  1.00  0.00     0.031 C 
ATOM     62  C   UNL A   1      43.579  28.593  33.248  1.00  0.00     0.034 A 
BRANCH  49  63
ATOM     63  C   UNL A   1      42.141  26.246  27.715  1.00  0.00     0.023 A 
ATOM     64  C   UNL A   1      42.985  26.723  26.691  1.00  0.00     0.012 A 
ATOM     65  C   UNL A   1      41.712  24.905  27.686  1.00  0.00     0.148 A 
ATOM     66  C   UNL A   1      43.363  25.893  25.636  1.00  0.00     0.002 A 
ATOM     67  C   UNL A   1      42.134  24.069  26.660  1.00  0.00     0.091 A 
ATOM     68  F   UNL A   1      40.893  24.475  28.657  1.00  0.00    -0.205 F 
ATOM     69  C   UNL A   1      42.947  24.565  25.627  1.00  0.00     0.022 A 
BRANCH  67  70
ATOM     70  S   UNL A   1      41.723  22.321  26.602  1.00  0.00     0.127 S 
ATOM     71  O   UNL A   1      40.263  22.365  26.528  1.00  0.00    -0.237 OA
ATOM     72  O   UNL A   1      42.384  21.892  25.370  1.00  0.00    -0.237 OA
ATOM     73  O   UNL A   1      42.268  21.739  27.821  1.00  0.00    -0.744 OA
ENDBRANCH  67  70
ENDBRANCH  49  63
BRANCH  50  74
ATOM     74  C   UNL A   1      39.000  32.020  35.260  1.00  0.00     0.023 A 
ATOM     75  C   UNL A   1      39.115  33.423  35.218  1.00  0.00     0.012 A 
ATOM     76  C   UNL A   1      38.406  31.413  36.384  1.00  0.00     0.148 A 
ATOM     77  C   UNL A   1      38.684  34.204  36.290  1.00  0.00     0.002 A 
ATOM     78  C   UNL A   1      37.927  32.201  37.423  1.00  0.00     0.091 A 
ATOM     79  F   UNL A   1      38.310  30.076  36.406  1.00  0.00    -0.205 F 
ATOM     80  C   UNL A   1      38.082  33.595  37.387  1.00  0.00     0.022 A 
BRANCH  78  81
ATOM     81  S   UNL A   1      37.024  31.515  38.816  1.00  0.00     0.127 S 
ATOM     82  O   UNL A   1      37.984  31.678  39.905  1.00  0.00    -0.237 OA
ATOM     83  O   UNL A   1      35.859  32.397  38.882  1.00  0.00    -0.237 OA
ATOM     84  O   UNL A   1      36.716  30.138  38.448  1.00  0.00    -0.744 OA
ENDBRANCH  78  81
ENDBRANCH  50  74
BRANCH  62  85
ATOM     85  C   UNL A   1      44.856  28.405  34.022  1.00  0.00     0.023 A 
ATOM     86  C   UNL A   1      45.932  29.297  33.848  1.00  0.00     0.012 A 
ATOM     87  C   UNL A   1      44.940  27.398  35.004  1.00  0.00     0.148 A 
ATOM     88  C   UNL A   1      47.083  29.174  34.627  1.00  0.00     0.002 A 
ATOM     89  C   UNL A   1      46.066  27.316  35.813  1.00  0.00     0.091 A 
ATOM     90  F   UNL A   1      43.910  26.549  35.139  1.00  0.00    -0.205 F 
ATOM     91  C   UNL A   1      47.143  28.195  35.617  1.00  0.00     0.022 A 
BRANCH  89  92
ATOM     92  S   UNL A   1      46.188  26.159  37.180  1.00  0.00     0.127 S 
ATOM     93  O   UNL A   1      47.562  26.375  37.631  1.00  0.00    -0.237 OA
ATOM     94  O   UNL A   1      45.160  26.656  38.095  1.00  0.00    -0.237 OA
ATOM     95  O   UNL A   1      45.917  24.842  36.621  1.00  0.00    -0.744 OA
ENDBRANCH  89  92
ENDBRANCH  62  85
ENDBRANCH  36  37
ENDBRANCH  28  31
ENDBRANCH  26  27
ENDBRANCH  25  26
ENDBRANCH   1  25
TORSDOF 20
ENDMDL
MODEL 2
REMARK VINA RESULT:     -11.2      4.745      7.948
REMARK SMILES CCC[C@H]1CC[C@H](C(=O)NCCCCCCNC(=O)c2ccc(-c3c4nc(c(-c5cccc(S(=O)(=O)[O-])c5F)c5ccc([nH]5)c(-c5cccc(S(=O)(=O)[O-])c5F)c5nc(c(-c6cccc(S(=O)(=O)[O-])c6F)c6ccc3[nH]6)C=C5)C=C4)cc2)[C@H](Sc2ccncc2)C1
REMARK SMILES IDX 14 1 13 2 12 3 11 4 10 5 8 6 9 7 7 9 4 10 5 11 91 12 6 13
REMARK SMILES IDX 83 14 3 15 2 16 1 17 84 18 85 19 86 20 90 21 87 22 89 23
REMARK SMILES IDX 88 24 15 25 16 26 17 27 18 28 19 30 20 31 21 32 82 33 22 34
REMARK SMILES IDX 81 35 23 36 24 37 25 38 75 39 26 40 80 41 74 42 76 43 27 44
REMARK SMILES IDX 79 45 73 46 72 47 28 49 60 50 40 51 59 52 41 53 44 54 58 55
REMARK SMILES IDX 77 56 42 57 43 58 57 60 78 61 45 62 29 63 30 64 38 65 31 66
REMARK SMILES IDX 33 67 39 68 32 69 34 70 35 71 36 72 37 73 61 74 62 75 70 76
REMARK SMILES IDX 63 77 65 78 71 79 64 80 66 81 67 82 68 83 69 84 46 85 47 86
REMARK SMILES IDX 55 87 48 88 50 89 56 90 49 91 51 92 52 93 53 94 54 95
REMARK H PARENT 10 8 17 29 76 48 44 59
REMARK Flexibility Score: inf
ROOT
ATOM      1  C   UNL A   1      35.321  22.049  24.399  1.00  0.00     0.002 C 
ENDROOT
BRANCH   1   2
ATOM      2  C   UNL A   1      33.862  22.018  24.877  1.00  0.00     0.002 C 
BRANCH   2   3
ATOM      3  C   UNL A   1      32.855  21.545  23.834  1.00  0.00     0.021 C 
BRANCH   3   4
ATOM      4  C   UNL A   1      32.034  22.679  23.239  1.00  0.00     0.116 C 
BRANCH   4   5
ATOM      5  N   UNL A   1      32.843  23.708  22.642  1.00  0.00    -0.356 N 
ATOM      6  C   UNL A   1      32.989  25.025  22.916  1.00  0.00     0.224 C 
ATOM      7  O   UNL A   1      33.826  25.619  22.218  1.00  0.00    -0.275 OA
ATOM      8  H   UNL A   1      33.396  23.394  21.890  1.00  0.00     0.163 HD
BRANCH   6   9
ATOM      9  C   UNL A   1      32.179  25.833  23.939  1.00  0.00     0.092 C 
ATOM     10  C   UNL A   1      33.471  28.070  25.530  1.00  0.00    -0.010 C 
ATOM     11  C   UNL A   1      33.767  26.577  25.832  1.00  0.00     0.004 C 
ATOM     12  C   UNL A   1      32.837  28.339  24.138  1.00  0.00     0.019 C 
ATOM     13  C   UNL A   1      32.696  25.599  25.365  1.00  0.00     0.015 C 
ATOM     14  C   UNL A   1      31.784  27.306  23.742  1.00  0.00     0.064 C 
BRANCH  10  15
ATOM     15  C   UNL A   1      32.664  28.633  26.724  1.00  0.00     0.003 C 
BRANCH  15  16
ATOM     16  C   UNL A   1      32.785  30.134  26.999  1.00  0.00    -0.003 C 
ATOM     17  C   UNL A   1      31.602  30.943  26.484  1.00  0.00     0.004 C 
ENDBRANCH  15  16
ENDBRANCH  10  15
BRANCH  14  18
ATOM     18  S   UNL A   1      30.810  27.764  22.232  1.00  0.00    -0.122 SA
BRANCH  18  19
ATOM     19  C   UNL A   1      29.508  28.820  22.815  1.00  0.00     0.011 A 
ATOM     20  C   UNL A   1      29.787  30.136  23.173  1.00  0.00     0.035 A 
ATOM     21  C   UNL A   1      28.180  28.404  22.782  1.00  0.00     0.035 A 
ATOM     22  C   UNL A   1      28.746  30.946  23.593  1.00  0.00     0.112 A 
ATOM     23  C   UNL A   1      27.201  29.300  23.182  1.00  0.00     0.112 A 
ATOM     24  N   UNL A   1      27.456  30.554  23.613  1.00  0.00    -0.265 NA
ENDBRANCH  18  19
ENDBRANCH  14  18
ENDBRANCH   6   9
ENDBRANCH   4   5
ENDBRANCH   3   4
ENDBRANCH   2   3
ENDBRANCH   1   2
BRANCH   1  25
ATOM     25  C   UNL A   1      36.005  23.418  24.453  1.00  0.00     0.021 C 
BRANCH  25  26
ATOM     26  C   UNL A   1      36.788  23.689  25.731  1.00  0.00     0.116 C 
BRANCH  26  27
ATOM     27  N   UNL A   1      37.778  22.653  25.988  1.00  0.00    -0.352 N 
ATOM     28  C   UNL A   1      39.078  22.778  26.403  1.00  0.00     0.251 C 
ATOM     29  H   UNL A   1      37.469  21.729  25.845  1.00  0.00     0.163 HD
ATOM     30  O   UNL A   1      39.837  21.819  26.360  1.00  0.00    -0.269 OA
BRANCH  28  31
ATOM     31  C   UNL A   1      39.549  24.085  26.898  1.00  0.00     0.039 A 
ATOM     32  C   UNL A   1      40.114  24.992  25.999  1.00  0.00     0.014 A 
ATOM     33  C   UNL A   1      39.432  24.406  28.254  1.00  0.00     0.014 A 
ATOM     34  C   UNL A   1      40.527  26.244  26.455  1.00  0.00     0.010 A 
ATOM     35  C   UNL A   1      39.769  25.680  28.690  1.00  0.00     0.010 A 
ATOM     36  C   UNL A   1      40.339  26.603  27.799  1.00  0.00    -0.014 A 
BRANCH  36  37
ATOM     37  C   UNL A   1      40.760  27.927  28.318  1.00  0.00     0.031 A 
ATOM     38  C   UNL A   1      42.225  28.214  28.507  1.00  0.00     0.074 A 
ATOM     39  C   UNL A   1      39.832  28.822  28.707  1.00  0.00     0.049 A 
ATOM     40  N   UNL A   1      42.797  29.253  29.056  1.00  0.00    -0.248 NA
ATOM     41  C   UNL A   1      43.170  27.181  28.051  1.00  0.00     0.031 C 
ATOM     42  C   UNL A   1      38.383  28.628  28.626  1.00  0.00     0.029 A 
ATOM     43  N   UNL A   1      39.970  30.060  29.280  1.00  0.00    -0.354 N 
ATOM     44  C   UNL A   1      44.160  28.979  29.052  1.00  0.00     0.074 A 
ATOM     45  C   UNL A   1      44.327  27.662  28.480  1.00  0.00     0.031 C 
ATOM     46  C   UNL A   1      37.767  29.707  29.135  1.00  0.00     0.029 A 
ATOM     47  C   UNL A   1      38.774  30.649  29.614  1.00  0.00     0.049 A 
ATOM     48  H   UNL A   1      40.844  30.487  29.439  1.00  0.00     0.167 HD
ATOM     49  C   UNL A   1      45.182  29.764  29.466  1.00  0.00     0.034 A 
ATOM     50  C   UNL A   1      38.518  31.809  30.252  1.00  0.00     0.034 A 
ATOM     51  C   UNL A   1      45.007  31.089  29.996  1.00  0.00     0.049 A 
ATOM     52  C   UNL A   1      39.672  32.676  30.677  1.00  0.00     0.074 A 
ATOM     53  C   UNL A   1      45.978  32.000  30.368  1.00  0.00     0.029 A 
ATOM     54  N   UNL A   1      43.780  31.688  30.235  1.00  0.00    -0.354 N 
ATOM     55  N   UNL A   1      40.959  32.458  30.546  1.00  0.00    -0.248 NA
ATOM     56  C   UNL A   1      39.343  33.963  31.306  1.00  0.00     0.031 C 
ATOM     57  C   UNL A   1      45.339  33.138  30.866  1.00  0.00     0.029 A 
ATOM     58  C   UNL A   1      43.968  32.953  30.758  1.00  0.00     0.049 A 
ATOM     59  H   UNL A   1      42.905  31.273  30.059  1.00  0.00     0.167 HD
ATOM     60  C   UNL A   1      41.590  33.599  31.026  1.00  0.00     0.074 A 
ATOM     61  C   UNL A   1      40.544  34.508  31.449  1.00  0.00     0.031 C 
ATOM     62  C   UNL A   1      42.915  33.869  31.113  1.00  0.00     0.034 A 
BRANCH  49  63
ATOM     63  C   UNL A   1      46.581  29.225  29.330  1.00  0.00     0.023 A 
ATOM     64  C   UNL A   1      47.142  28.456  30.370  1.00  0.00     0.012 A 
ATOM     65  C   UNL A   1      47.322  29.434  28.150  1.00  0.00     0.148 A 
ATOM     66  C   UNL A   1      48.431  27.937  30.256  1.00  0.00     0.002 A 
ATOM     67  C   UNL A   1      48.586  28.870  28.022  1.00  0.00     0.091 A 
ATOM     68  F   UNL A   1      46.781  30.184  27.180  1.00  0.00    -0.205 F 
ATOM     69  C   UNL A   1      49.147  28.134  29.078  1.00  0.00     0.022 A 
BRANCH  67  70
ATOM     70  S   UNL A   1      49.554  28.994  26.514  1.00  0.00     0.127 S 
ATOM     71  O   UNL A   1      48.632  28.435  25.526  1.00  0.00    -0.237 OA
ATOM     72  O   UNL A   1      49.764  30.438  26.403  1.00  0.00    -0.237 OA
ATOM     73  O   UNL A   1      50.764  28.218  26.747  1.00  0.00    -0.744 OA
ENDBRANCH  67  70
ENDBRANCH  49  63
BRANCH  50  74
ATOM     74  C   UNL A   1      37.110  32.241  30.480  1.00  0.00     0.023 A 
ATOM     75  C   UNL A   1      36.500  31.987  31.724  1.00  0.00     0.012 A 
ATOM     76  C   UNL A   1      36.381  32.918  29.483  1.00  0.00     0.148 A 
ATOM     77  C   UNL A   1      35.178  32.365  31.958  1.00  0.00     0.002 A 
ATOM     78  C   UNL A   1      35.083  33.343  29.742  1.00  0.00     0.091 A 
ATOM     79  F   UNL A   1      36.978  33.146  28.305  1.00  0.00    -0.205 F 
ATOM     80  C   UNL A   1      34.473  33.049  30.972  1.00  0.00     0.022 A 
BRANCH  78  81
ATOM     81  S   UNL A   1      34.145  34.342  28.582  1.00  0.00     0.127 S 
ATOM     82  O   UNL A   1      32.888  34.534  29.301  1.00  0.00    -0.237 OA
ATOM     83  O   UNL A   1      34.981  35.536  28.470  1.00  0.00    -0.237 OA
ATOM     84  O   UNL A   1      34.058  33.552  27.360  1.00  0.00    -0.744 OA
ENDBRANCH  78  81
ENDBRANCH  50  74
BRANCH  62  85
ATOM     85  C   UNL A   1      43.330  35.227  31.613  1.00  0.00     0.023 A 
ATOM     86  C   UNL A   1      43.618  36.263  30.705  1.00  0.00     0.012 A 
ATOM     87  C   UNL A   1      43.326  35.497  32.997  1.00  0.00     0.148 A 
ATOM     88  C   UNL A   1      43.919  37.544  31.168  1.00  0.00     0.002 A 
ATOM     89  C   UNL A   1      43.572  36.787  33.448  1.00  0.00     0.091 A 
ATOM     90  F   UNL A   1      43.066  34.490  33.844  1.00  0.00    -0.205 F 
ATOM     91  C   UNL A   1      43.881  37.809  32.536  1.00  0.00     0.022 A 
BRANCH  89  92
ATOM     92  S   UNL A   1      43.441  37.243  35.179  1.00  0.00     0.127 S 
ATOM     93  O   UNL A   1      43.816  38.656  35.144  1.00  0.00    -0.237 OA
ATOM     94  O   UNL A   1      42.026  36.993  35.456  1.00  0.00    -0.237 OA
ATOM     95  O   UNL A   1      44.363  36.374  35.898  1.00  0.00    -0.744 OA
ENDBRANCH  89  92
ENDBRANCH  62  85
ENDBRANCH  36  37
ENDBRANCH  28  31
ENDBRANCH  26  27
ENDBRANCH  25  26
ENDBRANCH   1  25
TORSDOF 20
ENDMDL
MODEL 3
REMARK VINA RESULT:     -11.1      2.742      7.935
REMARK SMILES CCC[C@H]1CC[C@H](C(=O)NCCCCCCNC(=O)c2ccc(-c3c4nc(c(-c5cccc(S(=O)(=O)[O-])c5F)c5ccc([nH]5)c(-c5cccc(S(=O)(=O)[O-])c5F)c5nc(c(-c6cccc(S(=O)(=O)[O-])c6F)c6ccc3[nH]6)C=C5)C=C4)cc2)[C@H](Sc2ccncc2)C1
REMARK SMILES IDX 14 1 13 2 12 3 11 4 10 5 8 6 9 7 7 9 4 10 5 11 91 12 6 13
REMARK SMILES IDX 83 14 3 15 2 16 1 17 84 18 85 19 86 20 90 21 87 22 89 23
REMARK SMILES IDX 88 24 15 25 16 26 17 27 18 28 19 30 20 31 21 32 82 33 22 34
REMARK SMILES IDX 81 35 23 36 24 37 25 38 75 39 26 40 80 41 74 42 76 43 27 44
REMARK SMILES IDX 79 45 73 46 72 47 28 49 60 50 40 51 59 52 41 53 44 54 58 55
REMARK SMILES IDX 77 56 42 57 43 58 57 60 78 61 45 62 29 63 30 64 38 65 31 66
REMARK SMILES IDX 33 67 39 68 32 69 34 70 35 71 36 72 37 73 61 74 62 75 70 76
REMARK SMILES IDX 63 77 65 78 71 79 64 80 66 81 67 82 68 83 69 84 46 85 47 86
REMARK SMILES IDX 55 87 48 88 50 89 56 90 49 91 51 92 52 93 53 94 54 95
REMARK H PARENT 10 8 17 29 76 48 44 59
REMARK Flexibility Score: inf
ROOT
ATOM      1  C   UNL A   1      31.848  28.128  26.474  1.00  0.00     0.002 C 
ENDROOT
BRANCH   1   2
ATOM      2  C   UNL A   1      31.628  26.609  26.495  1.00  0.00     0.002 C 
BRANCH   2   3
ATOM      3  C   UNL A   1      32.865  25.777  26.173  1.00  0.00     0.021 C 
BRANCH   3   4
ATOM      4  C   UNL A   1      32.556  24.302  25.967  1.00  0.00     0.116 C 
BRANCH   4   5
ATOM      5  N   UNL A   1      31.758  24.051  24.796  1.00  0.00    -0.356 N 
ATOM      6  C   UNL A   1      31.886  23.167  23.780  1.00  0.00     0.224 C 
ATOM      7  O   UNL A   1      30.972  23.191  22.942  1.00  0.00    -0.275 OA
ATOM      8  H   UNL A   1      30.968  24.634  24.720  1.00  0.00     0.163 HD
BRANCH   6   9
ATOM      9  C   UNL A   1      33.069  22.216  23.550  1.00  0.00     0.092 C 
ATOM     10  C   UNL A   1      35.697  22.618  25.011  1.00  0.00    -0.010 C 
ATOM     11  C   UNL A   1      35.258  23.550  23.850  1.00  0.00     0.004 C 
ATOM     12  C   UNL A   1      34.553  21.774  25.636  1.00  0.00     0.019 C 
ATOM     13  C   UNL A   1      34.245  22.944  22.885  1.00  0.00     0.015 C 
ATOM     14  C   UNL A   1      33.576  21.217  24.602  1.00  0.00     0.064 C 
BRANCH  10  15
ATOM     15  C   UNL A   1      36.906  21.794  24.511  1.00  0.00     0.003 C 
BRANCH  15  16
ATOM     16  C   UNL A   1      38.170  21.818  25.375  1.00  0.00    -0.003 C 
ATOM     17  C   UNL A   1      38.362  23.125  26.134  1.00  0.00     0.004 C 
ENDBRANCH  15  16
ENDBRANCH  10  15
BRANCH  14  18
ATOM     18  S   UNL A   1      32.384  19.974  25.287  1.00  0.00    -0.122 SA
BRANCH  18  19
ATOM     19  C   UNL A   1      33.049  18.390  24.843  1.00  0.00     0.011 A 
ATOM     20  C   UNL A   1      32.884  17.302  25.696  1.00  0.00     0.035 A 
ATOM     21  C   UNL A   1      33.608  18.174  23.586  1.00  0.00     0.035 A 
ATOM     22  C   UNL A   1      33.384  16.071  25.309  1.00  0.00     0.112 A 
ATOM     23  C   UNL A   1      34.044  16.897  23.271  1.00  0.00     0.112 A 
ATOM     24  N   UNL A   1      33.969  15.844  24.116  1.00  0.00    -0.265 NA
ENDBRANCH  18  19
ENDBRANCH  14  18
ENDBRANCH   6   9
ENDBRANCH   4   5
ENDBRANCH   3   4
ENDBRANCH   2   3
ENDBRANCH   1   2
BRANCH   1  25
ATOM     25  C   UNL A   1      32.917  28.628  25.497  1.00  0.00     0.021 C 
BRANCH  25  26
ATOM     26  C   UNL A   1      34.182  29.162  26.156  1.00  0.00     0.116 C 
BRANCH  26  27
ATOM     27  N   UNL A   1      33.951  30.438  26.815  1.00  0.00    -0.352 N 
ATOM     28  C   UNL A   1      34.608  30.996  27.882  1.00  0.00     0.251 C 
ATOM     29  H   UNL A   1      33.218  30.980  26.442  1.00  0.00     0.163 HD
ATOM     30  O   UNL A   1      34.147  31.976  28.450  1.00  0.00    -0.269 OA
BRANCH  28  31
ATOM     31  C   UNL A   1      35.877  30.395  28.335  1.00  0.00     0.039 A 
ATOM     32  C   UNL A   1      37.039  30.614  27.593  1.00  0.00     0.014 A 
ATOM     33  C   UNL A   1      35.908  29.613  29.494  1.00  0.00     0.014 A 
ATOM     34  C   UNL A   1      38.248  30.078  28.038  1.00  0.00     0.010 A 
ATOM     35  C   UNL A   1      37.124  29.151  29.977  1.00  0.00     0.010 A 
ATOM     36  C   UNL A   1      38.302  29.360  29.243  1.00  0.00    -0.014 A 
BRANCH  36  37
ATOM     37  C   UNL A   1      39.570  28.782  29.750  1.00  0.00     0.031 A 
ATOM     38  C   UNL A   1      40.309  29.480  30.860  1.00  0.00     0.074 A 
ATOM     39  C   UNL A   1      40.100  27.698  29.152  1.00  0.00     0.049 A 
ATOM     40  N   UNL A   1      41.484  29.212  31.363  1.00  0.00    -0.248 NA
ATOM     41  C   UNL A   1      39.654  30.656  31.459  1.00  0.00     0.031 C 
ATOM     42  C   UNL A   1      39.502  26.974  28.027  1.00  0.00     0.029 A 
ATOM     43  N   UNL A   1      41.279  27.037  29.384  1.00  0.00    -0.354 N 
ATOM     44  C   UNL A   1      41.728  30.208  32.302  1.00  0.00     0.074 A 
ATOM     45  C   UNL A   1      40.596  31.106  32.273  1.00  0.00     0.031 C 
ATOM     46  C   UNL A   1      40.320  25.973  27.666  1.00  0.00     0.029 A 
ATOM     47  C   UNL A   1      41.516  26.007  28.503  1.00  0.00     0.049 A 
ATOM     48  H   UNL A   1      41.898  27.276  30.111  1.00  0.00     0.167 HD
ATOM     49  C   UNL A   1      42.790  30.348  33.130  1.00  0.00     0.034 A 
ATOM     50  C   UNL A   1      42.584  25.196  28.373  1.00  0.00     0.034 A 
ATOM     51  C   UNL A   1      43.891  29.426  33.179  1.00  0.00     0.049 A 
ATOM     52  C   UNL A   1      43.739  25.356  29.325  1.00  0.00     0.074 A 
ATOM     53  C   UNL A   1      44.976  29.429  34.037  1.00  0.00     0.029 A 
ATOM     54  N   UNL A   1      44.051  28.342  32.331  1.00  0.00    -0.354 N 
ATOM     55  N   UNL A   1      43.894  26.225  30.295  1.00  0.00    -0.248 NA
ATOM     56  C   UNL A   1      44.851  24.404  29.190  1.00  0.00     0.031 C 
ATOM     57  C   UNL A   1      45.811  28.366  33.684  1.00  0.00     0.029 A 
ATOM     58  C   UNL A   1      45.222  27.673  32.638  1.00  0.00     0.049 A 
ATOM     59  H   UNL A   1      43.425  28.086  31.616  1.00  0.00     0.167 HD
ATOM     60  C   UNL A   1      45.091  25.893  30.918  1.00  0.00     0.074 A 
ATOM     61  C   UNL A   1      45.621  24.741  30.216  1.00  0.00     0.031 C 
ATOM     62  C   UNL A   1      45.700  26.489  31.971  1.00  0.00     0.034 A 
BRANCH  49  63
ATOM     63  C   UNL A   1      42.794  31.521  34.074  1.00  0.00     0.023 A 
ATOM     64  C   UNL A   1      43.320  32.759  33.654  1.00  0.00     0.012 A 
ATOM     65  C   UNL A   1      42.227  31.413  35.359  1.00  0.00     0.148 A 
ATOM     66  C   UNL A   1      43.320  33.860  34.510  1.00  0.00     0.002 A 
ATOM     67  C   UNL A   1      42.182  32.528  36.188  1.00  0.00     0.091 A 
ATOM     68  F   UNL A   1      41.749  30.223  35.749  1.00  0.00    -0.205 F 
ATOM     69  C   UNL A   1      42.741  33.747  35.770  1.00  0.00     0.022 A 
BRANCH  67  70
ATOM     70  S   UNL A   1      41.383  32.509  37.796  1.00  0.00     0.127 S 
ATOM     71  O   UNL A   1      41.503  33.909  38.201  1.00  0.00    -0.237 OA
ATOM     72  O   UNL A   1      40.025  32.085  37.458  1.00  0.00    -0.237 OA
ATOM     73  O   UNL A   1      42.134  31.560  38.608  1.00  0.00    -0.744 OA
ENDBRANCH  67  70
ENDBRANCH  49  63
BRANCH  50  74
ATOM     74  C   UNL A   1      42.589  24.128  27.334  1.00  0.00     0.023 A 
ATOM     75  C   UNL A   1      43.151  24.393  26.070  1.00  0.00     0.012 A 
ATOM     76  C   UNL A   1      42.060  22.849  27.597  1.00  0.00     0.148 A 
ATOM     77  C   UNL A   1      43.153  23.417  25.074  1.00  0.00     0.002 A 
ATOM     78  C   UNL A   1      42.116  21.863  26.619  1.00  0.00     0.091 A 
ATOM     79  F   UNL A   1      41.526  22.619  28.804  1.00  0.00    -0.205 F 
ATOM     80  C   UNL A   1      42.644  22.151  25.350  1.00  0.00     0.022 A 
BRANCH  78  81
ATOM     81  S   UNL A   1      41.604  20.169  26.926  1.00  0.00     0.127 S 
ATOM     82  O   UNL A   1      40.327  20.363  27.610  1.00  0.00    -0.237 OA
ATOM     83  O   UNL A   1      41.502  19.636  25.568  1.00  0.00    -0.237 OA
ATOM     84  O   UNL A   1      42.665  19.575  27.728  1.00  0.00    -0.744 OA
ENDBRANCH  78  81
ENDBRANCH  50  74
BRANCH  62  85
ATOM     85  C   UNL A   1      46.971  25.876  32.495  1.00  0.00     0.023 A 
ATOM     86  C   UNL A   1      46.937  24.999  33.595  1.00  0.00     0.012 A 
ATOM     87  C   UNL A   1      48.187  26.093  31.816  1.00  0.00     0.148 A 
ATOM     88  C   UNL A   1      48.101  24.364  34.027  1.00  0.00     0.002 A 
ATOM     89  C   UNL A   1      49.330  25.415  32.218  1.00  0.00     0.091 A 
ATOM     90  F   UNL A   1      48.198  26.947  30.781  1.00  0.00    -0.205 F 
ATOM     91  C   UNL A   1      49.293  24.560  33.330  1.00  0.00     0.022 A 
BRANCH  89  92
ATOM     92  S   UNL A   1      50.880  25.523  31.318  1.00  0.00     0.127 S 
ATOM     93  O   UNL A   1      50.477  25.099  29.978  1.00  0.00    -0.237 OA
ATOM     94  O   UNL A   1      51.205  26.945  31.436  1.00  0.00    -0.237 OA
ATOM     95  O   UNL A   1      51.808  24.631  32.000  1.00  0.00    -0.744 OA
ENDBRANCH  89  92
ENDBRANCH  62  85
ENDBRANCH  36  37
ENDBRANCH  28  31
ENDBRANCH  26  27
ENDBRANCH  25  26
ENDBRANCH   1  25
TORSDOF 20
ENDMDL
