MODEL 1
REMARK VINA RESULT:     -11.6      0.000      0.000
REMARK SMILES C=CCOc1ccccc1-c1cc(C(=O)NCCCCCCNC(=O)c2ccc(-c3c4nc(c(-c5cccc(S(=O)(=O)[O-])c5F)c5ccc([nH]5)c(-c5cccc(S(=O)(=O)[O-])c5F)c5nc(c(-c6cccc(S(=O)(=O)[O-])c6F)c6ccc3[nH]6)C=C5)C=C4)cc2)nc(N)n1
REMARK SMILES IDX 19 1 18 2 17 3 16 4 14 5 15 6 13 8 11 9 12 10 92 11 90 12
REMARK SMILES IDX 89 13 10 14 5 15 6 16 7 17 9 18 8 19 4 20 3 21 2 22 1 23
REMARK SMILES IDX 91 24 20 27 21 28 22 29 23 30 24 31 25 33 26 34 27 35 88 36
REMARK SMILES IDX 28 37 87 38 29 39 30 40 31 41 81 42 32 43 86 44 80 45 82 46
REMARK SMILES IDX 33 47 85 48 79 49 78 50 34 52 66 53 46 54 65 55 47 56 50 57
REMARK SMILES IDX 64 58 83 59 48 60 49 61 63 63 84 64 51 65 35 66 36 67 44 68
REMARK SMILES IDX 37 69 39 70 45 71 38 72 40 73 41 74 42 75 43 76 67 77 68 78
REMARK SMILES IDX 76 79 69 80 71 81 77 82 70 83 72 84 73 85 74 86 75 87 52 88
REMARK SMILES IDX 53 89 61 90 54 91 56 92 62 93 55 94 57 95 58 96 59 97 60 98
REMARK H PARENT 16 7 91 25 91 26 23 32 82 51 50 62
REMARK Flexibility Score: inf
ROOT
ATOM      1  C   UNL A   1      32.345  29.495  27.230  1.00  0.00     0.002 C 
ENDROOT
BRANCH   1   2
ATOM      2  C   UNL A   1      33.593  28.703  26.835  1.00  0.00     0.021 C 
BRANCH   2   3
ATOM      3  C   UNL A   1      33.338  27.383  26.112  1.00  0.00     0.116 C 
BRANCH   3   4
ATOM      4  N   UNL A   1      32.089  26.760  26.513  1.00  0.00    -0.351 N 
ATOM      5  C   UNL A   1      31.460  25.646  26.005  1.00  0.00     0.270 C 
ATOM      6  O   UNL A   1      30.375  25.317  26.490  1.00  0.00    -0.268 OA
ATOM      7  H   UNL A   1      31.623  27.199  27.260  1.00  0.00     0.163 HD
BRANCH   5   8
ATOM      8  C   UNL A   1      32.024  24.873  24.857  1.00  0.00     0.134 A 
ATOM      9  C   UNL A   1      32.811  22.865  23.991  1.00  0.00     0.080 A 
ATOM     10  C   UNL A   1      32.475  23.600  25.104  1.00  0.00     0.063 A 
ATOM     11  N   UNL A   1      32.777  23.386  22.745  1.00  0.00    -0.213 NA
ATOM     12  C   UNL A   1      32.349  24.642  22.618  1.00  0.00     0.221 A 
ATOM     13  N   UNL A   1      31.987  25.425  23.628  1.00  0.00    -0.208 NA
BRANCH   9  14
ATOM     14  C   UNL A   1      33.119  21.432  24.068  1.00  0.00     0.042 A 
ATOM     15  C   UNL A   1      34.231  20.940  24.780  1.00  0.00     0.129 A 
ATOM     16  C   UNL A   1      34.525  19.573  24.810  1.00  0.00     0.047 A 
ATOM     17  C   UNL A   1      33.685  18.668  24.163  1.00  0.00     0.004 A 
ATOM     18  C   UNL A   1      32.278  20.497  23.441  1.00  0.00     0.014 A 
ATOM     19  C   UNL A   1      32.558  19.129  23.484  1.00  0.00     0.001 A 
BRANCH  15  20
ATOM     20  O   UNL A   1      35.104  21.795  25.410  1.00  0.00    -0.489 OA
BRANCH  20  21
ATOM     21  C   UNL A   1      36.470  21.376  25.258  1.00  0.00     0.257 C 
BRANCH  21  22
ATOM     22  C   UNL A   1      37.099  22.129  24.122  1.00  0.00     0.006 C 
ATOM     23  C   UNL A   1      36.441  22.978  23.321  1.00  0.00     0.007 C 
ENDBRANCH  21  22
ENDBRANCH  20  21
ENDBRANCH  15  20
ENDBRANCH   9  14
BRANCH  12  24
ATOM     24  N   UNL A   1      32.173  25.127  21.356  1.00  0.00    -0.368 N 
ATOM     25  H   UNL A   1      32.207  24.516  20.584  1.00  0.00     0.159 HD
ATOM     26  H   UNL A   1      32.011  26.088  21.216  1.00  0.00     0.159 HD
ENDBRANCH  12  24
ENDBRANCH   5   8
ENDBRANCH   3   4
ENDBRANCH   2   3
ENDBRANCH   1   2
BRANCH   1  27
ATOM     27  C   UNL A   1      31.790  30.428  26.152  1.00  0.00     0.002 C 
BRANCH  27  28
ATOM     28  C   UNL A   1      31.573  31.878  26.589  1.00  0.00     0.021 C 
BRANCH  28  29
ATOM     29  C   UNL A   1      32.765  32.531  27.278  1.00  0.00     0.116 C 
BRANCH  29  30
ATOM     30  N   UNL A   1      32.532  33.934  27.581  1.00  0.00    -0.352 N 
ATOM     31  C   UNL A   1      33.113  34.723  28.545  1.00  0.00     0.251 C 
ATOM     32  H   UNL A   1      31.863  34.383  27.015  1.00  0.00     0.163 HD
ATOM     33  O   UNL A   1      32.667  35.842  28.772  1.00  0.00    -0.269 OA
BRANCH  31  34
ATOM     34  C   UNL A   1      34.265  34.210  29.320  1.00  0.00     0.039 A 
ATOM     35  C   UNL A   1      34.023  33.473  30.482  1.00  0.00     0.014 A 
ATOM     36  C   UNL A   1      35.576  34.455  28.905  1.00  0.00     0.014 A 
ATOM     37  C   UNL A   1      35.096  32.935  31.197  1.00  0.00     0.010 A 
ATOM     38  C   UNL A   1      36.639  33.852  29.573  1.00  0.00     0.010 A 
ATOM     39  C   UNL A   1      36.412  33.094  30.732  1.00  0.00    -0.014 A 
BRANCH  39  40
ATOM     40  C   UNL A   1      37.561  32.472  31.441  1.00  0.00     0.031 A 
ATOM     41  C   UNL A   1      38.309  31.326  30.813  1.00  0.00     0.074 A 
ATOM     42  C   UNL A   1      37.881  32.885  32.683  1.00  0.00     0.049 A 
ATOM     43  N   UNL A   1      39.301  30.626  31.300  1.00  0.00    -0.248 NA
ATOM     44  C   UNL A   1      37.869  30.893  29.476  1.00  0.00     0.031 C 
ATOM     45  C   UNL A   1      37.186  33.935  33.430  1.00  0.00     0.029 A 
ATOM     46  N   UNL A   1      38.857  32.454  33.547  1.00  0.00    -0.354 N 
ATOM     47  C   UNL A   1      39.580  29.650  30.349  1.00  0.00     0.074 A 
ATOM     48  C   UNL A   1      38.629  29.826  29.273  1.00  0.00     0.031 C 
ATOM     49  C   UNL A   1      37.761  34.071  34.636  1.00  0.00     0.029 A 
ATOM     50  C   UNL A   1      38.840  33.096  34.763  1.00  0.00     0.049 A 
ATOM     51  H   UNL A   1      39.507  31.752  33.317  1.00  0.00     0.167 HD
ATOM     52  C   UNL A   1      40.555  28.711  30.355  1.00  0.00     0.034 A 
ATOM     53  C   UNL A   1      39.600  32.916  35.861  1.00  0.00     0.034 A 
ATOM     54  C   UNL A   1      41.522  28.560  31.411  1.00  0.00     0.049 A 
ATOM     55  C   UNL A   1      40.693  31.883  35.833  1.00  0.00     0.074 A 
ATOM     56  C   UNL A   1      42.600  27.696  31.472  1.00  0.00     0.029 A 
ATOM     57  N   UNL A   1      41.519  29.280  32.596  1.00  0.00    -0.354 N 
ATOM     58  N   UNL A   1      41.039  31.073  34.862  1.00  0.00    -0.248 NA
ATOM     59  C   UNL A   1      41.526  31.763  37.039  1.00  0.00     0.031 C 
ATOM     60  C   UNL A   1      43.229  27.868  32.709  1.00  0.00     0.029 A 
ATOM     61  C   UNL A   1      42.567  28.871  33.401  1.00  0.00     0.049 A 
ATOM     62  H   UNL A   1      40.867  29.981  32.829  1.00  0.00     0.167 HD
ATOM     63  C   UNL A   1      42.150  30.377  35.323  1.00  0.00     0.074 A 
ATOM     64  C   UNL A   1      42.431  30.874  36.654  1.00  0.00     0.031 C 
ATOM     65  C   UNL A   1      42.867  29.406  34.704  1.00  0.00     0.034 A 
BRANCH  52  66
ATOM     66  C   UNL A   1      40.653  27.793  29.163  1.00  0.00     0.023 A 
ATOM     67  C   UNL A   1      39.818  26.658  29.084  1.00  0.00     0.012 A 
ATOM     68  C   UNL A   1      41.529  28.079  28.099  1.00  0.00     0.148 A 
ATOM     69  C   UNL A   1      39.882  25.802  27.985  1.00  0.00     0.002 A 
ATOM     70  C   UNL A   1      41.551  27.249  26.984  1.00  0.00     0.091 A 
ATOM     71  F   UNL A   1      42.328  29.151  28.198  1.00  0.00    -0.205 F 
ATOM     72  C   UNL A   1      40.740  26.104  26.932  1.00  0.00     0.022 A 
BRANCH  70  73
ATOM     73  S   UNL A   1      42.561  27.594  25.538  1.00  0.00     0.127 S 
ATOM     74  O   UNL A   1      42.292  26.423  24.704  1.00  0.00    -0.237 OA
ATOM     75  O   UNL A   1      41.976  28.841  25.046  1.00  0.00    -0.237 OA
ATOM     76  O   UNL A   1      43.929  27.715  26.023  1.00  0.00    -0.744 OA
ENDBRANCH  70  73
ENDBRANCH  52  66
BRANCH  53  77
ATOM     77  C   UNL A   1      39.387  33.771  37.063  1.00  0.00     0.023 A 
ATOM     78  C   UNL A   1      39.839  35.105  37.055  1.00  0.00     0.012 A 
ATOM     79  C   UNL A   1      38.724  33.278  38.204  1.00  0.00     0.148 A 
ATOM     80  C   UNL A   1      39.665  35.922  38.172  1.00  0.00     0.002 A 
ATOM     81  C   UNL A   1      38.504  34.113  39.291  1.00  0.00     0.091 A 
ATOM     82  F   UNL A   1      38.311  32.002  38.195  1.00  0.00    -0.205 F 
ATOM     83  C   UNL A   1      38.990  35.430  39.286  1.00  0.00     0.022 A 
BRANCH  81  84
ATOM     84  S   UNL A   1      37.534  33.607  40.716  1.00  0.00     0.127 S 
ATOM     85  O   UNL A   1      37.429  34.855  41.466  1.00  0.00    -0.237 OA
ATOM     86  O   UNL A   1      36.291  33.157  40.088  1.00  0.00    -0.237 OA
ATOM     87  O   UNL A   1      38.301  32.547  41.359  1.00  0.00    -0.744 OA
ENDBRANCH  81  84
ENDBRANCH  53  77
BRANCH  65  88
ATOM     88  C   UNL A   1      44.060  28.843  35.433  1.00  0.00     0.023 A 
ATOM     89  C   UNL A   1      45.335  29.415  35.254  1.00  0.00     0.012 A 
ATOM     90  C   UNL A   1      43.899  27.789  36.355  1.00  0.00     0.148 A 
ATOM     91  C   UNL A   1      46.437  28.923  35.952  1.00  0.00     0.002 A 
ATOM     92  C   UNL A   1      44.991  27.340  37.088  1.00  0.00     0.091 A 
ATOM     93  F   UNL A   1      42.682  27.246  36.500  1.00  0.00    -0.205 F 
ATOM     94  C   UNL A   1      46.263  27.896  36.877  1.00  0.00     0.022 A 
BRANCH  92  95
ATOM     95  S   UNL A   1      44.844  26.093  38.372  1.00  0.00     0.127 S 
ATOM     96  O   UNL A   1      43.965  25.114  37.736  1.00  0.00    -0.237 OA
ATOM     97  O   UNL A   1      46.230  25.653  38.535  1.00  0.00    -0.237 OA
ATOM     98  O   UNL A   1      44.284  26.773  39.532  1.00  0.00    -0.744 OA
ENDBRANCH  92  95
ENDBRANCH  65  88
ENDBRANCH  39  40
ENDBRANCH  31  34
ENDBRANCH  29  30
ENDBRANCH  28  29
ENDBRANCH  27  28
ENDBRANCH   1  27
TORSDOF 21
ENDMDL
MODEL 2
REMARK VINA RESULT:     -11.6      5.516      9.127
REMARK SMILES C=CCOc1ccccc1-c1cc(C(=O)NCCCCCCNC(=O)c2ccc(-c3c4nc(c(-c5cccc(S(=O)(=O)[O-])c5F)c5ccc([nH]5)c(-c5cccc(S(=O)(=O)[O-])c5F)c5nc(c(-c6cccc(S(=O)(=O)[O-])c6F)c6ccc3[nH]6)C=C5)C=C4)cc2)nc(N)n1
REMARK SMILES IDX 19 1 18 2 17 3 16 4 14 5 15 6 13 8 11 9 12 10 92 11 90 12
REMARK SMILES IDX 89 13 10 14 5 15 6 16 7 17 9 18 8 19 4 20 3 21 2 22 1 23
REMARK SMILES IDX 91 24 20 27 21 28 22 29 23 30 24 31 25 33 26 34 27 35 88 36
REMARK SMILES IDX 28 37 87 38 29 39 30 40 31 41 81 42 32 43 86 44 80 45 82 46
REMARK SMILES IDX 33 47 85 48 79 49 78 50 34 52 66 53 46 54 65 55 47 56 50 57
REMARK SMILES IDX 64 58 83 59 48 60 49 61 63 63 84 64 51 65 35 66 36 67 44 68
REMARK SMILES IDX 37 69 39 70 45 71 38 72 40 73 41 74 42 75 43 76 67 77 68 78
REMARK SMILES IDX 76 79 69 80 71 81 77 82 70 83 72 84 73 85 74 86 75 87 52 88
REMARK SMILES IDX 53 89 61 90 54 91 56 92 62 93 55 94 57 95 58 96 59 97 60 98
REMARK H PARENT 16 7 91 25 91 26 23 32 82 51 50 62
REMARK Flexibility Score: inf
ROOT
ATOM      1  C   UNL A   1      35.160  24.163  24.339  1.00  0.00     0.002 C 
ENDROOT
BRANCH   1   2
ATOM      2  C   UNL A   1      34.794  24.753  25.701  1.00  0.00     0.021 C 
BRANCH   2   3
ATOM      3  C   UNL A   1      33.433  25.441  25.780  1.00  0.00     0.116 C 
BRANCH   3   4
ATOM      4  N   UNL A   1      32.331  24.496  25.788  1.00  0.00    -0.351 N 
ATOM      5  C   UNL A   1      31.249  24.401  24.942  1.00  0.00     0.270 C 
ATOM      6  O   UNL A   1      30.411  23.524  25.165  1.00  0.00    -0.268 OA
ATOM      7  H   UNL A   1      32.362  23.822  26.505  1.00  0.00     0.163 HD
BRANCH   5   8
ATOM      8  C   UNL A   1      31.040  25.357  23.813  1.00  0.00     0.134 A 
ATOM      9  C   UNL A   1      30.164  27.359  23.023  1.00  0.00     0.080 A 
ATOM     10  C   UNL A   1      30.182  26.409  24.017  1.00  0.00     0.063 A 
ATOM     11  N   UNL A   1      30.880  27.227  21.885  1.00  0.00    -0.213 NA
ATOM     12  C   UNL A   1      31.661  26.153  21.775  1.00  0.00     0.221 A 
ATOM     13  N   UNL A   1      31.760  25.191  22.687  1.00  0.00    -0.208 NA
BRANCH   9  14
ATOM     14  C   UNL A   1      29.455  28.635  23.179  1.00  0.00     0.042 A 
ATOM     15  C   UNL A   1      30.082  29.785  23.700  1.00  0.00     0.129 A 
ATOM     16  C   UNL A   1      29.376  30.980  23.872  1.00  0.00     0.047 A 
ATOM     17  C   UNL A   1      28.039  31.058  23.484  1.00  0.00     0.004 A 
ATOM     18  C   UNL A   1      28.113  28.747  22.778  1.00  0.00     0.014 A 
ATOM     19  C   UNL A   1      27.409  29.945  22.931  1.00  0.00     0.001 A 
BRANCH  15  20
ATOM     20  O   UNL A   1      31.390  29.749  24.122  1.00  0.00    -0.489 OA
BRANCH  20  21
ATOM     21  C   UNL A   1      31.511  30.058  25.520  1.00  0.00     0.257 C 
BRANCH  21  22
ATOM     22  C   UNL A   1      31.699  28.789  26.298  1.00  0.00     0.006 C 
ATOM     23  C   UNL A   1      32.483  28.673  27.379  1.00  0.00     0.007 C 
ENDBRANCH  21  22
ENDBRANCH  20  21
ENDBRANCH  15  20
ENDBRANCH   9  14
BRANCH  12  24
ATOM     24  N   UNL A   1      32.496  26.083  20.699  1.00  0.00    -0.368 N 
ATOM     25  H   UNL A   1      33.250  26.712  20.620  1.00  0.00     0.159 HD
ATOM     26  H   UNL A   1      32.346  25.405  20.002  1.00  0.00     0.159 HD
ENDBRANCH  12  24
ENDBRANCH   5   8
ENDBRANCH   3   4
ENDBRANCH   2   3
ENDBRANCH   1   2
BRANCH   1  27
ATOM     27  C   UNL A   1      34.819  22.683  24.150  1.00  0.00     0.002 C 
BRANCH  27  28
ATOM     28  C   UNL A   1      35.993  21.714  24.308  1.00  0.00     0.021 C 
BRANCH  28  29
ATOM     29  C   UNL A   1      36.662  21.727  25.677  1.00  0.00     0.116 C 
BRANCH  29  30
ATOM     30  N   UNL A   1      37.703  20.718  25.796  1.00  0.00    -0.352 N 
ATOM     31  C   UNL A   1      39.040  20.877  26.070  1.00  0.00     0.251 C 
ATOM     32  H   UNL A   1      37.407  19.789  25.661  1.00  0.00     0.163 HD
ATOM     33  O   UNL A   1      39.806  19.927  25.960  1.00  0.00    -0.269 OA
BRANCH  31  34
ATOM     34  C   UNL A   1      39.554  22.203  26.480  1.00  0.00     0.039 A 
ATOM     35  C   UNL A   1      40.518  22.271  27.489  1.00  0.00     0.014 A 
ATOM     36  C   UNL A   1      39.087  23.373  25.876  1.00  0.00     0.014 A 
ATOM     37  C   UNL A   1      41.054  23.509  27.853  1.00  0.00     0.010 A 
ATOM     38  C   UNL A   1      39.678  24.596  26.184  1.00  0.00     0.010 A 
ATOM     39  C   UNL A   1      40.660  24.679  27.182  1.00  0.00    -0.014 A 
BRANCH  39  40
ATOM     40  C   UNL A   1      41.268  25.996  27.508  1.00  0.00     0.031 A 
ATOM     41  C   UNL A   1      42.683  26.302  27.093  1.00  0.00     0.074 A 
ATOM     42  C   UNL A   1      40.575  26.887  28.245  1.00  0.00     0.049 A 
ATOM     43  N   UNL A   1      43.398  27.372  27.331  1.00  0.00    -0.248 NA
ATOM     44  C   UNL A   1      43.397  25.261  26.336  1.00  0.00     0.031 C 
ATOM     45  C   UNL A   1      39.225  26.680  28.771  1.00  0.00     0.029 A 
ATOM     46  N   UNL A   1      40.922  28.134  28.702  1.00  0.00    -0.354 N 
ATOM     47  C   UNL A   1      44.652  27.120  26.787  1.00  0.00     0.074 A 
ATOM     48  C   UNL A   1      44.613  25.782  26.238  1.00  0.00     0.031 C 
ATOM     49  C   UNL A   1      38.855  27.763  29.472  1.00  0.00     0.029 A 
ATOM     50  C   UNL A   1      39.952  28.726  29.477  1.00  0.00     0.049 A 
ATOM     51  H   UNL A   1      41.783  28.563  28.495  1.00  0.00     0.167 HD
ATOM     52  C   UNL A   1      45.731  27.936  26.723  1.00  0.00     0.034 A 
ATOM     53  C   UNL A   1      39.948  29.906  30.127  1.00  0.00     0.034 A 
ATOM     54  C   UNL A   1      45.756  29.279  27.239  1.00  0.00     0.049 A 
ATOM     55  C   UNL A   1      41.150  30.806  30.020  1.00  0.00     0.074 A 
ATOM     56  C   UNL A   1      46.771  30.215  27.149  1.00  0.00     0.029 A 
ATOM     57  N   UNL A   1      44.727  29.872  27.953  1.00  0.00    -0.354 N 
ATOM     58  N   UNL A   1      42.271  30.610  29.369  1.00  0.00    -0.248 NA
ATOM     59  C   UNL A   1      41.073  32.104  30.705  1.00  0.00     0.031 C 
ATOM     60  C   UNL A   1      46.369  31.363  27.839  1.00  0.00     0.029 A 
ATOM     61  C   UNL A   1      45.087  31.157  28.322  1.00  0.00     0.049 A 
ATOM     62  H   UNL A   1      43.867  29.444  28.165  1.00  0.00     0.167 HD
ATOM     63  C   UNL A   1      43.015  31.773  29.533  1.00  0.00     0.074 A 
ATOM     64  C   UNL A   1      42.209  32.675  30.329  1.00  0.00     0.031 C 
ATOM     65  C   UNL A   1      44.257  32.064  29.074  1.00  0.00     0.034 A 
BRANCH  52  66
ATOM     66  C   UNL A   1      46.966  27.412  26.035  1.00  0.00     0.023 A 
ATOM     67  C   UNL A   1      47.137  27.620  24.650  1.00  0.00     0.012 A 
ATOM     68  C   UNL A   1      47.981  26.764  26.765  1.00  0.00     0.148 A 
ATOM     69  C   UNL A   1      48.277  27.155  23.996  1.00  0.00     0.002 A 
ATOM     70  C   UNL A   1      49.138  26.348  26.115  1.00  0.00     0.091 A 
ATOM     71  F   UNL A   1      47.795  26.559  28.076  1.00  0.00    -0.205 F 
ATOM     72  C   UNL A   1      49.281  26.529  24.730  1.00  0.00     0.022 A 
BRANCH  70  73
ATOM     73  S   UNL A   1      50.525  25.606  26.984  1.00  0.00     0.127 S 
ATOM     74  O   UNL A   1      49.910  24.406  27.550  1.00  0.00    -0.237 OA
ATOM     75  O   UNL A   1      51.468  25.352  25.894  1.00  0.00    -0.237 OA
ATOM     76  O   UNL A   1      50.969  26.597  27.953  1.00  0.00    -0.744 OA
ENDBRANCH  70  73
ENDBRANCH  52  66
BRANCH  53  77
ATOM     77  C   UNL A   1      38.744  30.330  30.895  1.00  0.00     0.023 A 
ATOM     78  C   UNL A   1      38.623  29.969  32.252  1.00  0.00     0.012 A 
ATOM     79  C   UNL A   1      37.729  31.103  30.298  1.00  0.00     0.148 A 
ATOM     80  C   UNL A   1      37.499  30.341  32.990  1.00  0.00     0.002 A 
ATOM     81  C   UNL A   1      36.640  31.518  31.054  1.00  0.00     0.091 A 
ATOM     82  F   UNL A   1      37.859  31.428  29.004  1.00  0.00    -0.205 F 
ATOM     83  C   UNL A   1      36.512  31.123  32.394  1.00  0.00     0.022 A 
BRANCH  81  84
ATOM     84  S   UNL A   1      35.386  32.631  30.409  1.00  0.00     0.127 S 
ATOM     85  O   UNL A   1      35.105  32.043  29.104  1.00  0.00    -0.237 OA
ATOM     86  O   UNL A   1      34.317  32.483  31.397  1.00  0.00    -0.237 OA
ATOM     87  O   UNL A   1      36.005  33.951  30.387  1.00  0.00    -0.744 OA
ENDBRANCH  81  84
ENDBRANCH  53  77
BRANCH  65  88
ATOM     88  C   UNL A   1      44.814  33.432  29.376  1.00  0.00     0.023 A 
ATOM     89  C   UNL A   1      45.528  33.657  30.569  1.00  0.00     0.012 A 
ATOM     90  C   UNL A   1      44.690  34.476  28.438  1.00  0.00     0.148 A 
ATOM     91  C   UNL A   1      46.078  34.910  30.841  1.00  0.00     0.002 A 
ATOM     92  C   UNL A   1      45.286  35.705  28.690  1.00  0.00     0.091 A 
ATOM     93  F   UNL A   1      43.992  34.247  27.316  1.00  0.00    -0.205 F 
ATOM     94  C   UNL A   1      45.968  35.928  29.896  1.00  0.00     0.022 A 
BRANCH  92  95
ATOM     95  S   UNL A   1      45.284  37.042  27.490  1.00  0.00     0.127 S 
ATOM     96  O   UNL A   1      46.173  36.514  26.456  1.00  0.00    -0.237 OA
ATOM     97  O   UNL A   1      43.874  37.110  27.105  1.00  0.00    -0.237 OA
ATOM     98  O   UNL A   1      45.777  38.217  28.195  1.00  0.00    -0.744 OA
ENDBRANCH  92  95
ENDBRANCH  65  88
ENDBRANCH  39  40
ENDBRANCH  31  34
ENDBRANCH  29  30
ENDBRANCH  28  29
ENDBRANCH  27  28
ENDBRANCH   1  27
TORSDOF 21
ENDMDL
MODEL 3
REMARK VINA RESULT:     -11.5      3.409      8.578
REMARK SMILES C=CCOc1ccccc1-c1cc(C(=O)NCCCCCCNC(=O)c2ccc(-c3c4nc(c(-c5cccc(S(=O)(=O)[O-])c5F)c5ccc([nH]5)c(-c5cccc(S(=O)(=O)[O-])c5F)c5nc(c(-c6cccc(S(=O)(=O)[O-])c6F)c6ccc3[nH]6)C=C5)C=C4)cc2)nc(N)n1
REMARK SMILES IDX 19 1 18 2 17 3 16 4 14 5 15 6 13 8 11 9 12 10 92 11 90 12
REMARK SMILES IDX 89 13 10 14 5 15 6 16 7 17 9 18 8 19 4 20 3 21 2 22 1 23
REMARK SMILES IDX 91 24 20 27 21 28 22 29 23 30 24 31 25 33 26 34 27 35 88 36
REMARK SMILES IDX 28 37 87 38 29 39 30 40 31 41 81 42 32 43 86 44 80 45 82 46
REMARK SMILES IDX 33 47 85 48 79 49 78 50 34 52 66 53 46 54 65 55 47 56 50 57
REMARK SMILES IDX 64 58 83 59 48 60 49 61 63 63 84 64 51 65 35 66 36 67 44 68
REMARK SMILES IDX 37 69 39 70 45 71 38 72 40 73 41 74 42 75 43 76 67 77 68 78
REMARK SMILES IDX 76 79 69 80 71 81 77 82 70 83 72 84 73 85 74 86 75 87 52 88
REMARK SMILES IDX 53 89 61 90 54 91 56 92 62 93 55 94 57 95 58 96 59 97 60 98
REMARK H PARENT 16 7 91 25 91 26 23 32 82 51 50 62
REMARK Flexibility Score: inf
ROOT
ATOM      1  C   UNL A   1      30.989  28.319  24.003  1.00  0.00     0.002 C 
ENDROOT
BRANCH   1   2
ATOM      2  C   UNL A   1      30.648  26.919  24.514  1.00  0.00     0.021 C 
BRANCH   2   3
ATOM      3  C   UNL A   1      30.513  25.838  23.444  1.00  0.00     0.116 C 
BRANCH   3   4
ATOM      4  N   UNL A   1      31.774  25.546  22.785  1.00  0.00    -0.351 N 
ATOM      5  C   UNL A   1      32.537  24.401  22.818  1.00  0.00     0.270 C 
ATOM      6  O   UNL A   1      33.602  24.392  22.196  1.00  0.00    -0.268 OA
ATOM      7  H   UNL A   1      32.136  26.275  22.232  1.00  0.00     0.163 HD
BRANCH   5   8
ATOM      8  C   UNL A   1      32.139  23.207  23.624  1.00  0.00     0.134 A 
ATOM      9  C   UNL A   1      32.412  20.956  24.134  1.00  0.00     0.080 A 
ATOM     10  C   UNL A   1      32.655  21.988  23.258  1.00  0.00     0.063 A 
ATOM     11  N   UNL A   1      31.648  21.111  25.237  1.00  0.00    -0.213 NA
ATOM     12  C   UNL A   1      31.172  22.331  25.486  1.00  0.00     0.221 A 
ATOM     13  N   UNL A   1      31.367  23.392  24.712  1.00  0.00    -0.208 NA
BRANCH   9  14
ATOM     14  C   UNL A   1      33.057  19.646  23.991  1.00  0.00     0.042 A 
ATOM     15  C   UNL A   1      34.263  19.325  24.647  1.00  0.00     0.129 A 
ATOM     16  C   UNL A   1      34.878  18.082  24.467  1.00  0.00     0.047 A 
ATOM     17  C   UNL A   1      34.273  17.119  23.660  1.00  0.00     0.004 A 
ATOM     18  C   UNL A   1      32.460  18.650  23.199  1.00  0.00     0.014 A 
ATOM     19  C   UNL A   1      33.062  17.400  23.031  1.00  0.00     0.001 A 
BRANCH  15  20
ATOM     20  O   UNL A   1      34.911  20.251  25.430  1.00  0.00    -0.489 OA
BRANCH  20  21
ATOM     21  C   UNL A   1      36.210  20.578  24.911  1.00  0.00     0.257 C 
BRANCH  21  22
ATOM     22  C   UNL A   1      36.280  22.051  24.630  1.00  0.00     0.006 C 
ATOM     23  C   UNL A   1      36.447  22.581  23.411  1.00  0.00     0.007 C 
ENDBRANCH  21  22
ENDBRANCH  20  21
ENDBRANCH  15  20
ENDBRANCH   9  14
BRANCH  12  24
ATOM     24  N   UNL A   1      30.525  22.529  26.669  1.00  0.00    -0.368 N 
ATOM     25  H   UNL A   1      29.699  23.065  26.695  1.00  0.00     0.159 HD
ATOM     26  H   UNL A   1      30.883  22.138  27.499  1.00  0.00     0.159 HD
ENDBRANCH  12  24
ENDBRANCH   5   8
ENDBRANCH   3   4
ENDBRANCH   2   3
ENDBRANCH   1   2
BRANCH   1  27
ATOM     27  C   UNL A   1      31.821  29.183  24.954  1.00  0.00     0.002 C 
BRANCH  27  28
ATOM     28  C   UNL A   1      32.461  28.437  26.126  1.00  0.00     0.021 C 
BRANCH  28  29
ATOM     29  C   UNL A   1      33.830  28.953  26.551  1.00  0.00     0.116 C 
BRANCH  29  30
ATOM     30  N   UNL A   1      33.797  30.350  26.955  1.00  0.00    -0.352 N 
ATOM     31  C   UNL A   1      34.664  31.041  27.768  1.00  0.00     0.251 C 
ATOM     32  H   UNL A   1      33.047  30.876  26.594  1.00  0.00     0.163 HD
ATOM     33  O   UNL A   1      34.383  32.174  28.141  1.00  0.00    -0.269 OA
BRANCH  31  34
ATOM     34  C   UNL A   1      35.927  30.405  28.205  1.00  0.00     0.039 A 
ATOM     35  C   UNL A   1      37.062  30.537  27.402  1.00  0.00     0.014 A 
ATOM     36  C   UNL A   1      35.991  29.680  29.398  1.00  0.00     0.014 A 
ATOM     37  C   UNL A   1      38.276  29.990  27.824  1.00  0.00     0.010 A 
ATOM     38  C   UNL A   1      37.217  29.204  29.855  1.00  0.00     0.010 A 
ATOM     39  C   UNL A   1      38.371  29.345  29.069  1.00  0.00    -0.014 A 
BRANCH  39  40
ATOM     40  C   UNL A   1      39.668  28.815  29.566  1.00  0.00     0.031 A 
ATOM     41  C   UNL A   1      40.400  29.520  30.677  1.00  0.00     0.074 A 
ATOM     42  C   UNL A   1      40.227  27.746  28.965  1.00  0.00     0.049 A 
ATOM     43  N   UNL A   1      41.562  29.237  31.207  1.00  0.00    -0.248 NA
ATOM     44  C   UNL A   1      39.754  30.712  31.251  1.00  0.00     0.031 C 
ATOM     45  C   UNL A   1      39.655  27.020  27.829  1.00  0.00     0.029 A 
ATOM     46  N   UNL A   1      41.414  27.099  29.207  1.00  0.00    -0.354 N 
ATOM     47  C   UNL A   1      41.803  30.233  32.147  1.00  0.00     0.074 A 
ATOM     48  C   UNL A   1      40.684  31.147  32.090  1.00  0.00     0.031 C 
ATOM     49  C   UNL A   1      40.486  26.026  27.479  1.00  0.00     0.029 A 
ATOM     50  C   UNL A   1      41.665  26.064  28.339  1.00  0.00     0.049 A 
ATOM     51  H   UNL A   1      42.026  27.354  29.935  1.00  0.00     0.167 HD
ATOM     52  C   UNL A   1      42.847  30.362  33.000  1.00  0.00     0.034 A 
ATOM     53  C   UNL A   1      42.729  25.243  28.236  1.00  0.00     0.034 A 
ATOM     54  C   UNL A   1      43.942  29.432  33.079  1.00  0.00     0.049 A 
ATOM     55  C   UNL A   1      43.864  25.391  29.213  1.00  0.00     0.074 A 
ATOM     56  C   UNL A   1      45.004  29.428  33.966  1.00  0.00     0.029 A 
ATOM     57  N   UNL A   1      44.126  28.351  32.231  1.00  0.00    -0.354 N 
ATOM     58  N   UNL A   1      44.000  26.247  30.196  1.00  0.00    -0.248 NA
ATOM     59  C   UNL A   1      44.976  24.437  29.090  1.00  0.00     0.031 C 
ATOM     60  C   UNL A   1      45.848  28.364  33.633  1.00  0.00     0.029 A 
ATOM     61  C   UNL A   1      45.290  27.681  32.564  1.00  0.00     0.049 A 
ATOM     62  H   UNL A   1      43.517  28.097  31.500  1.00  0.00     0.167 HD
ATOM     63  C   UNL A   1      45.190  25.912  30.832  1.00  0.00     0.074 A 
ATOM     64  C   UNL A   1      45.726  24.762  30.134  1.00  0.00     0.031 C 
ATOM     65  C   UNL A   1      45.789  26.508  31.893  1.00  0.00     0.034 A 
BRANCH  52  66
ATOM     66  C   UNL A   1      42.836  31.533  33.949  1.00  0.00     0.023 A 
ATOM     67  C   UNL A   1      43.280  32.798  33.506  1.00  0.00     0.012 A 
ATOM     68  C   UNL A   1      42.339  31.399  35.260  1.00  0.00     0.148 A 
ATOM     69  C   UNL A   1      43.267  33.897  34.363  1.00  0.00     0.002 A 
ATOM     70  C   UNL A   1      42.283  32.511  36.093  1.00  0.00     0.091 A 
ATOM     71  F   UNL A   1      41.939  30.187  35.671  1.00  0.00    -0.205 F 
ATOM     72  C   UNL A   1      42.759  33.756  35.651  1.00  0.00     0.022 A 
BRANCH  70  73
ATOM     73  S   UNL A   1      41.571  32.453  37.741  1.00  0.00     0.127 S 
ATOM     74  O   UNL A   1      42.318  31.351  38.347  1.00  0.00    -0.237 OA
ATOM     75  O   UNL A   1      41.906  33.777  38.266  1.00  0.00    -0.237 OA
ATOM     76  O   UNL A   1      40.147  32.215  37.557  1.00  0.00    -0.744 OA
ENDBRANCH  70  73
ENDBRANCH  52  66
BRANCH  53  77
ATOM     77  C   UNL A   1      42.747  24.171  27.201  1.00  0.00     0.023 A 
ATOM     78  C   UNL A   1      43.430  24.389  25.988  1.00  0.00     0.012 A 
ATOM     79  C   UNL A   1      42.110  22.934  27.418  1.00  0.00     0.148 A 
ATOM     80  C   UNL A   1      43.450  23.408  24.997  1.00  0.00     0.002 A 
ATOM     81  C   UNL A   1      42.182  21.940  26.450  1.00  0.00     0.091 A 
ATOM     82  F   UNL A   1      41.458  22.750  28.575  1.00  0.00    -0.205 F 
ATOM     83  C   UNL A   1      42.835  22.180  25.231  1.00  0.00     0.022 A 
BRANCH  81  84
ATOM     84  S   UNL A   1      41.531  20.287  26.714  1.00  0.00     0.127 S 
ATOM     85  O   UNL A   1      41.823  19.642  25.437  1.00  0.00    -0.237 OA
ATOM     86  O   UNL A   1      42.341  19.822  27.841  1.00  0.00    -0.237 OA
ATOM     87  O   UNL A   1      40.118  20.464  27.023  1.00  0.00    -0.744 OA
ENDBRANCH  81  84
ENDBRANCH  53  77
BRANCH  65  88
ATOM     88  C   UNL A   1      47.073  25.905  32.403  1.00  0.00     0.023 A 
ATOM     89  C   UNL A   1      48.312  26.345  31.897  1.00  0.00     0.012 A 
ATOM     90  C   UNL A   1      47.050  24.950  33.439  1.00  0.00     0.148 A 
ATOM     91  C   UNL A   1      49.506  25.819  32.389  1.00  0.00     0.002 A 
ATOM     92  C   UNL A   1      48.245  24.470  33.962  1.00  0.00     0.091 A 
ATOM     93  F   UNL A   1      45.861  24.530  33.896  1.00  0.00    -0.205 F 
ATOM     94  C   UNL A   1      49.473  24.892  33.428  1.00  0.00     0.022 A 
BRANCH  92  95
ATOM     95  S   UNL A   1      48.303  23.353  35.367  1.00  0.00     0.127 S 
ATOM     96  O   UNL A   1      47.721  24.176  36.426  1.00  0.00    -0.237 OA
ATOM     97  O   UNL A   1      47.455  22.248  34.919  1.00  0.00    -0.237 OA
ATOM     98  O   UNL A   1      49.706  23.005  35.548  1.00  0.00    -0.744 OA
ENDBRANCH  92  95
ENDBRANCH  65  88
ENDBRANCH  39  40
ENDBRANCH  31  34
ENDBRANCH  29  30
ENDBRANCH  28  29
ENDBRANCH  27  28
ENDBRANCH   1  27
TORSDOF 21
ENDMDL
