MODEL 1
REMARK VINA RESULT:     -12.5      0.000      0.000
REMARK SMILES O=C(NCCCCCCNC(=O)c1cc(-c2cccc(F)c2)nc2c(F)cccc12)c1ccc(-c2c3nc(c(-c4cccc(S(=O)(=O)[O-])c4F)c4ccc([nH]4)c(-c4cccc(S(=O)(=O)[O-])c4F)c4nc(c(-c5cccc(S(=O)(=O)[O-])c5F)c5ccc2[nH]5)C=C4)C=C3)cc1
REMARK SMILES IDX 5 1 4 2 3 3 1 4 2 5 31 7 32 8 93 9 33 10 92 11 34 12 35 13
REMARK SMILES IDX 36 14 86 15 37 16 91 17 85 18 87 19 38 20 90 21 84 22 83 23
REMARK SMILES IDX 39 25 71 26 51 27 70 28 52 29 55 30 69 31 88 32 53 33 54 34
REMARK SMILES IDX 68 36 89 37 56 38 40 39 41 40 49 41 42 42 44 43 50 44 43 45
REMARK SMILES IDX 45 46 46 47 47 48 48 49 72 50 73 51 81 52 74 53 76 54 82 55
REMARK SMILES IDX 75 56 77 57 78 58 79 59 80 60 57 61 58 62 66 63 59 64 61 65
REMARK SMILES IDX 67 66 60 67 62 68 63 69 64 70 65 71 6 72 7 73 8 74 9 75
REMARK SMILES IDX 10 76 11 77 12 79 13 80 14 81 30 82 15 83 24 84 29 85 23 86
REMARK SMILES IDX 25 87 28 88 26 89 27 90 16 91 17 92 22 93 18 94 20 95 19 96
REMARK SMILES IDX 21 97
REMARK H PARENT 3 6 87 24 55 35 10 78
REMARK Flexibility Score: inf
ROOT
ATOM      1  C   UNL A   1      37.875  19.746  25.005  1.00  0.00     0.021 C 
ENDROOT
BRANCH   1   2
ATOM      2  C   UNL A   1      39.077  20.214  25.818  1.00  0.00     0.116 C 
BRANCH   2   3
ATOM      3  N   UNL A   1      40.148  19.234  25.871  1.00  0.00    -0.352 N 
ATOM      4  O   UNL A   1      42.262  18.472  26.006  1.00  0.00    -0.269 OA
ATOM      5  C   UNL A   1      41.488  19.420  26.119  1.00  0.00     0.251 C 
ATOM      6  H   UNL A   1      39.875  18.302  25.705  1.00  0.00     0.163 HD
BRANCH   5   7
ATOM      7  C   UNL A   1      41.999  20.764  26.479  1.00  0.00     0.039 A 
ATOM      8  C   UNL A   1      42.203  21.124  27.813  1.00  0.00     0.014 A 
ATOM      9  C   UNL A   1      42.268  21.682  25.459  1.00  0.00     0.014 A 
ATOM     10  C   UNL A   1      42.521  22.442  28.132  1.00  0.00     0.010 A 
ATOM     11  C   UNL A   1      42.665  22.985  25.781  1.00  0.00     0.010 A 
ATOM     12  C   UNL A   1      42.751  23.390  27.121  1.00  0.00    -0.014 A 
BRANCH  12  13
ATOM     13  C   UNL A   1      43.108  24.786  27.492  1.00  0.00     0.031 A 
ATOM     14  C   UNL A   1      44.502  25.316  27.283  1.00  0.00     0.074 A 
ATOM     15  C   UNL A   1      42.153  25.591  28.000  1.00  0.00     0.049 A 
ATOM     16  N   UNL A   1      44.961  26.522  27.500  1.00  0.00    -0.248 NA
ATOM     17  C   UNL A   1      45.515  24.378  26.771  1.00  0.00     0.031 C 
ATOM     18  C   UNL A   1      40.777  25.182  28.287  1.00  0.00     0.029 A 
ATOM     19  N   UNL A   1      42.188  26.915  28.359  1.00  0.00    -0.354 N 
ATOM     20  C   UNL A   1      46.314  26.481  27.189  1.00  0.00     0.074 A 
ATOM     21  C   UNL A   1      46.610  25.127  26.773  1.00  0.00     0.031 C 
ATOM     22  C   UNL A   1      40.091  26.238  28.746  1.00  0.00     0.029 A 
ATOM     23  C   UNL A   1      40.985  27.389  28.828  1.00  0.00     0.049 A 
ATOM     24  H   UNL A   1      42.997  27.472  28.288  1.00  0.00     0.167 HD
ATOM     25  C   UNL A   1      47.220  27.487  27.219  1.00  0.00     0.034 A 
ATOM     26  C   UNL A   1      40.636  28.610  29.279  1.00  0.00     0.034 A 
ATOM     27  C   UNL A   1      46.913  28.846  27.576  1.00  0.00     0.049 A 
ATOM     28  C   UNL A   1      41.660  29.710  29.282  1.00  0.00     0.074 A 
ATOM     29  C   UNL A   1      47.751  29.948  27.554  1.00  0.00     0.029 A 
ATOM     30  N   UNL A   1      45.679  29.290  28.023  1.00  0.00    -0.354 N 
ATOM     31  N   UNL A   1      42.897  29.683  28.849  1.00  0.00    -0.248 NA
ATOM     32  C   UNL A   1      41.239  31.013  29.817  1.00  0.00     0.031 C 
ATOM     33  C   UNL A   1      47.027  31.056  28.000  1.00  0.00     0.029 A 
ATOM     34  C   UNL A   1      45.737  30.647  28.293  1.00  0.00     0.049 A 
ATOM     35  H   UNL A   1      44.881  28.725  28.132  1.00  0.00     0.167 HD
ATOM     36  C   UNL A   1      43.398  30.963  29.049  1.00  0.00     0.074 A 
ATOM     37  C   UNL A   1      42.322  31.752  29.612  1.00  0.00     0.031 C 
ATOM     38  C   UNL A   1      44.647  31.433  28.812  1.00  0.00     0.034 A 
BRANCH  25  39
ATOM     39  C   UNL A   1      48.634  27.189  26.792  1.00  0.00     0.023 A 
ATOM     40  C   UNL A   1      49.480  26.482  27.670  1.00  0.00     0.012 A 
ATOM     41  C   UNL A   1      49.081  27.492  25.492  1.00  0.00     0.148 A 
ATOM     42  C   UNL A   1      50.754  26.089  27.264  1.00  0.00     0.002 A 
ATOM     43  C   UNL A   1      50.340  27.067  25.081  1.00  0.00     0.091 A 
ATOM     44  F   UNL A   1      48.263  28.176  24.679  1.00  0.00    -0.205 F 
ATOM     45  C   UNL A   1      51.179  26.371  25.968  1.00  0.00     0.022 A 
BRANCH  43  46
ATOM     46  S   UNL A   1      50.957  27.316  23.412  1.00  0.00     0.127 S 
ATOM     47  O   UNL A   1      51.020  28.775  23.337  1.00  0.00    -0.237 OA
ATOM     48  O   UNL A   1      52.260  26.652  23.464  1.00  0.00    -0.237 OA
ATOM     49  O   UNL A   1      49.987  26.690  22.526  1.00  0.00    -0.744 OA
ENDBRANCH  43  46
ENDBRANCH  25  39
BRANCH  26  50
ATOM     50  C   UNL A   1      39.231  28.859  29.707  1.00  0.00     0.023 A 
ATOM     51  C   UNL A   1      38.843  28.538  31.022  1.00  0.00     0.012 A 
ATOM     52  C   UNL A   1      38.301  29.475  28.847  1.00  0.00     0.148 A 
ATOM     53  C   UNL A   1      37.552  28.818  31.469  1.00  0.00     0.002 A 
ATOM     54  C   UNL A   1      37.036  29.805  29.318  1.00  0.00     0.091 A 
ATOM     55  F   UNL A   1      38.680  29.750  27.591  1.00  0.00    -0.205 F 
ATOM     56  C   UNL A   1      36.653  29.466  30.624  1.00  0.00     0.022 A 
BRANCH  54  57
ATOM     57  S   UNL A   1      35.883  30.777  28.341  1.00  0.00     0.127 S 
ATOM     58  O   UNL A   1      34.894  31.165  29.342  1.00  0.00    -0.237 OA
ATOM     59  O   UNL A   1      36.731  31.867  27.856  1.00  0.00    -0.237 OA
ATOM     60  O   UNL A   1      35.415  29.878  27.294  1.00  0.00    -0.744 OA
ENDBRANCH  54  57
ENDBRANCH  26  50
BRANCH  38  61
ATOM     61  C   UNL A   1      44.941  32.865  29.167  1.00  0.00     0.023 A 
ATOM     62  C   UNL A   1      45.522  33.155  30.416  1.00  0.00     0.012 A 
ATOM     63  C   UNL A   1      44.758  33.900  28.228  1.00  0.00     0.148 A 
ATOM     64  C   UNL A   1      45.907  34.457  30.732  1.00  0.00     0.002 A 
ATOM     65  C   UNL A   1      45.181  35.187  28.534  1.00  0.00     0.091 A 
ATOM     66  F   UNL A   1      44.188  33.602  27.051  1.00  0.00    -0.205 F 
ATOM     67  C   UNL A   1      45.750  35.469  29.788  1.00  0.00     0.022 A 
BRANCH  65  68
ATOM     68  S   UNL A   1      45.106  36.537  27.351  1.00  0.00     0.127 S 
ATOM     69  O   UNL A   1      43.702  36.503  26.948  1.00  0.00    -0.237 OA
ATOM     70  O   UNL A   1      45.479  37.690  28.170  1.00  0.00    -0.237 OA
ATOM     71  O   UNL A   1      46.063  36.205  26.302  1.00  0.00    -0.744 OA
ENDBRANCH  65  68
ENDBRANCH  38  61
ENDBRANCH  12  13
ENDBRANCH   5   7
ENDBRANCH   2   3
ENDBRANCH   1   2
BRANCH   1  72
ATOM     72  C   UNL A   1      36.723  20.743  24.884  1.00  0.00     0.002 C 
BRANCH  72  73
ATOM     73  C   UNL A   1      37.039  22.060  24.169  1.00  0.00     0.002 C 
BRANCH  73  74
ATOM     74  C   UNL A   1      36.946  23.335  25.013  1.00  0.00     0.021 C 
BRANCH  74  75
ATOM     75  C   UNL A   1      35.616  24.079  24.949  1.00  0.00     0.116 C 
BRANCH  75  76
ATOM     76  N   UNL A   1      35.111  24.229  23.596  1.00  0.00    -0.352 N 
ATOM     77  C   UNL A   1      33.967  23.707  23.046  1.00  0.00     0.252 C 
ATOM     78  H   UNL A   1      35.662  24.778  22.992  1.00  0.00     0.163 HD
ATOM     79  O   UNL A   1      33.682  23.910  21.870  1.00  0.00    -0.269 OA
BRANCH  77  80
ATOM     80  C   UNL A   1      33.099  22.837  23.861  1.00  0.00     0.051 A 
ATOM     81  C   UNL A   1      33.409  21.478  23.834  1.00  0.00     0.043 A 
ATOM     82  C   UNL A   1      32.031  23.335  24.638  1.00  0.00     0.016 A 
ATOM     83  C   UNL A   1      32.659  20.626  24.620  1.00  0.00     0.072 A 
ATOM     84  C   UNL A   1      31.357  22.396  25.440  1.00  0.00     0.107 A 
ATOM     85  C   UNL A   1      31.619  24.694  24.659  1.00  0.00     0.011 A 
ATOM     86  N   UNL A   1      31.660  21.078  25.412  1.00  0.00    -0.245 NA
ATOM     87  C   UNL A   1      30.354  22.873  26.288  1.00  0.00     0.149 A 
ATOM     88  C   UNL A   1      30.613  25.133  25.515  1.00  0.00     0.004 A 
ATOM     89  F   UNL A   1      29.706  22.017  27.097  1.00  0.00    -0.205 F 
ATOM     90  C   UNL A   1      29.987  24.217  26.346  1.00  0.00     0.041 A 
BRANCH  83  91
ATOM     91  C   UNL A   1      32.888  19.177  24.645  1.00  0.00     0.003 A 
ATOM     92  C   UNL A   1      32.534  18.419  25.777  1.00  0.00     0.010 A 
ATOM     93  C   UNL A   1      33.460  18.504  23.554  1.00  0.00     0.049 A 
ATOM     94  C   UNL A   1      32.726  17.034  25.813  1.00  0.00     0.004 A 
ATOM     95  C   UNL A   1      33.657  17.128  23.602  1.00  0.00     0.123 A 
ATOM     96  C   UNL A   1      33.291  16.387  24.718  1.00  0.00     0.039 A 
ATOM     97  F   UNL A   1      34.211  16.506  22.553  1.00  0.00    -0.207 F 
ENDBRANCH  83  91
ENDBRANCH  77  80
ENDBRANCH  75  76
ENDBRANCH  74  75
ENDBRANCH  73  74
ENDBRANCH  72  73
ENDBRANCH   1  72
TORSDOF 17
ENDMDL
MODEL 2
REMARK VINA RESULT:     -12.5      0.709      7.345
REMARK SMILES O=C(NCCCCCCNC(=O)c1cc(-c2cccc(F)c2)nc2c(F)cccc12)c1ccc(-c2c3nc(c(-c4cccc(S(=O)(=O)[O-])c4F)c4ccc([nH]4)c(-c4cccc(S(=O)(=O)[O-])c4F)c4nc(c(-c5cccc(S(=O)(=O)[O-])c5F)c5ccc2[nH]5)C=C4)C=C3)cc1
REMARK SMILES IDX 5 1 4 2 3 3 1 4 2 5 31 7 32 8 93 9 33 10 92 11 34 12 35 13
REMARK SMILES IDX 36 14 86 15 37 16 91 17 85 18 87 19 38 20 90 21 84 22 83 23
REMARK SMILES IDX 39 25 71 26 51 27 70 28 52 29 55 30 69 31 88 32 53 33 54 34
REMARK SMILES IDX 68 36 89 37 56 38 40 39 41 40 49 41 42 42 44 43 50 44 43 45
REMARK SMILES IDX 45 46 46 47 47 48 48 49 72 50 73 51 81 52 74 53 76 54 82 55
REMARK SMILES IDX 75 56 77 57 78 58 79 59 80 60 57 61 58 62 66 63 59 64 61 65
REMARK SMILES IDX 67 66 60 67 62 68 63 69 64 70 65 71 6 72 7 73 8 74 9 75
REMARK SMILES IDX 10 76 11 77 12 79 13 80 14 81 30 82 15 83 24 84 29 85 23 86
REMARK SMILES IDX 25 87 28 88 26 89 27 90 16 91 17 92 22 93 18 94 20 95 19 96
REMARK SMILES IDX 21 97
REMARK H PARENT 3 6 87 24 55 35 10 78
REMARK Flexibility Score: inf
ROOT
ATOM      1  C   UNL A   1      38.167  19.397  24.977  1.00  0.00     0.021 C 
ENDROOT
BRANCH   1   2
ATOM      2  C   UNL A   1      39.101  19.910  26.067  1.00  0.00     0.116 C 
BRANCH   2   3
ATOM      3  N   UNL A   1      40.357  19.183  26.134  1.00  0.00    -0.352 N 
ATOM      4  O   UNL A   1      42.586  18.892  26.251  1.00  0.00    -0.269 OA
ATOM      5  C   UNL A   1      41.630  19.658  26.344  1.00  0.00     0.251 C 
ATOM      6  H   UNL A   1      40.285  18.208  26.012  1.00  0.00     0.163 HD
BRANCH   5   7
ATOM      7  C   UNL A   1      41.849  21.094  26.638  1.00  0.00     0.039 A 
ATOM      8  C   UNL A   1      41.557  22.077  25.691  1.00  0.00     0.014 A 
ATOM      9  C   UNL A   1      42.367  21.458  27.885  1.00  0.00     0.014 A 
ATOM     10  C   UNL A   1      41.929  23.399  25.928  1.00  0.00     0.010 A 
ATOM     11  C   UNL A   1      42.666  22.800  28.151  1.00  0.00     0.010 A 
ATOM     12  C   UNL A   1      42.492  23.775  27.158  1.00  0.00    -0.014 A 
BRANCH  12  13
ATOM     13  C   UNL A   1      42.862  25.198  27.391  1.00  0.00     0.031 A 
ATOM     14  C   UNL A   1      41.911  26.150  28.065  1.00  0.00     0.074 A 
ATOM     15  C   UNL A   1      44.082  25.626  27.010  1.00  0.00     0.049 A 
ATOM     16  N   UNL A   1      42.101  27.403  28.392  1.00  0.00    -0.248 NA
ATOM     17  C   UNL A   1      40.575  25.641  28.415  1.00  0.00     0.031 C 
ATOM     18  C   UNL A   1      45.077  24.809  26.311  1.00  0.00     0.029 A 
ATOM     19  N   UNL A   1      44.697  26.843  27.159  1.00  0.00    -0.354 N 
ATOM     20  C   UNL A   1      40.906  27.841  28.950  1.00  0.00     0.074 A 
ATOM     21  C   UNL A   1      39.988  26.723  28.912  1.00  0.00     0.031 C 
ATOM     22  C   UNL A   1      46.187  25.536  26.121  1.00  0.00     0.029 A 
ATOM     23  C   UNL A   1      45.972  26.882  26.643  1.00  0.00     0.049 A 
ATOM     24  H   UNL A   1      44.268  27.615  27.593  1.00  0.00     0.167 HD
ATOM     25  C   UNL A   1      40.610  29.056  29.471  1.00  0.00     0.034 A 
ATOM     26  C   UNL A   1      46.870  27.885  26.591  1.00  0.00     0.034 A 
ATOM     27  C   UNL A   1      41.540  30.148  29.561  1.00  0.00     0.049 A 
ATOM     28  C   UNL A   1      46.518  29.215  27.195  1.00  0.00     0.074 A 
ATOM     29  C   UNL A   1      41.351  31.387  30.150  1.00  0.00     0.029 A 
ATOM     30  N   UNL A   1      42.827  30.141  29.048  1.00  0.00    -0.354 N 
ATOM     31  N   UNL A   1      45.433  29.562  27.843  1.00  0.00    -0.248 NA
ATOM     32  C   UNL A   1      47.518  30.287  27.079  1.00  0.00     0.031 C 
ATOM     33  C   UNL A   1      42.520  32.134  29.981  1.00  0.00     0.029 A 
ATOM     34  C   UNL A   1      43.440  31.357  29.295  1.00  0.00     0.049 A 
ATOM     35  H   UNL A   1      43.244  29.382  28.580  1.00  0.00     0.167 HD
ATOM     36  C   UNL A   1      45.622  30.886  28.221  1.00  0.00     0.074 A 
ATOM     37  C   UNL A   1      46.940  31.270  27.759  1.00  0.00     0.031 C 
ATOM     38  C   UNL A   1      44.768  31.715  28.869  1.00  0.00     0.034 A 
BRANCH  25  39
ATOM     39  C   UNL A   1      39.237  29.268  30.055  1.00  0.00     0.023 A 
ATOM     40  C   UNL A   1      38.963  28.789  31.352  1.00  0.00     0.012 A 
ATOM     41  C   UNL A   1      38.271  30.040  29.382  1.00  0.00     0.148 A 
ATOM     42  C   UNL A   1      37.744  29.068  31.968  1.00  0.00     0.002 A 
ATOM     43  C   UNL A   1      37.071  30.343  30.014  1.00  0.00     0.091 A 
ATOM     44  F   UNL A   1      38.550  30.473  28.143  1.00  0.00    -0.205 F 
ATOM     45  C   UNL A   1      36.804  29.854  31.305  1.00  0.00     0.022 A 
BRANCH  43  46
ATOM     46  S   UNL A   1      35.821  31.404  29.278  1.00  0.00     0.127 S 
ATOM     47  O   UNL A   1      36.644  32.454  28.679  1.00  0.00    -0.237 OA
ATOM     48  O   UNL A   1      35.184  30.506  28.315  1.00  0.00    -0.237 OA
ATOM     49  O   UNL A   1      34.964  31.836  30.372  1.00  0.00    -0.744 OA
ENDBRANCH  43  46
ENDBRANCH  25  39
BRANCH  26  50
ATOM     50  C   UNL A   1      48.210  27.638  25.990  1.00  0.00     0.023 A 
ATOM     51  C   UNL A   1      49.275  27.237  26.819  1.00  0.00     0.012 A 
ATOM     52  C   UNL A   1      48.418  27.728  24.599  1.00  0.00     0.148 A 
ATOM     53  C   UNL A   1      50.525  26.938  26.274  1.00  0.00     0.002 A 
ATOM     54  C   UNL A   1      49.647  27.371  24.058  1.00  0.00     0.091 A 
ATOM     55  F   UNL A   1      47.400  28.137  23.829  1.00  0.00    -0.205 F 
ATOM     56  C   UNL A   1      50.707  26.989  24.894  1.00  0.00     0.022 A 
BRANCH  54  57
ATOM     57  S   UNL A   1      49.908  27.262  22.284  1.00  0.00     0.127 S 
ATOM     58  O   UNL A   1      48.870  26.316  21.886  1.00  0.00    -0.237 OA
ATOM     59  O   UNL A   1      49.682  28.643  21.853  1.00  0.00    -0.237 OA
ATOM     60  O   UNL A   1      51.283  26.808  22.125  1.00  0.00    -0.744 OA
ENDBRANCH  54  57
ENDBRANCH  26  50
BRANCH  38  61
ATOM     61  C   UNL A   1      45.211  33.131  29.115  1.00  0.00     0.023 A 
ATOM     62  C   UNL A   1      45.894  33.437  30.307  1.00  0.00     0.012 A 
ATOM     63  C   UNL A   1      45.064  34.122  28.125  1.00  0.00     0.148 A 
ATOM     64  C   UNL A   1      46.415  34.713  30.518  1.00  0.00     0.002 A 
ATOM     65  C   UNL A   1      45.620  35.380  28.323  1.00  0.00     0.091 A 
ATOM     66  F   UNL A   1      44.397  33.812  27.003  1.00  0.00    -0.205 F 
ATOM     67  C   UNL A   1      46.290  35.680  29.522  1.00  0.00     0.022 A 
BRANCH  65  68
ATOM     68  S   UNL A   1      45.594  36.660  27.063  1.00  0.00     0.127 S 
ATOM     69  O   UNL A   1      44.160  36.901  26.914  1.00  0.00    -0.237 OA
ATOM     70  O   UNL A   1      46.332  37.746  27.706  1.00  0.00    -0.237 OA
ATOM     71  O   UNL A   1      46.253  36.088  25.896  1.00  0.00    -0.744 OA
ENDBRANCH  65  68
ENDBRANCH  38  61
ENDBRANCH  12  13
ENDBRANCH   5   7
ENDBRANCH   2   3
ENDBRANCH   1   2
BRANCH   1  72
ATOM     72  C   UNL A   1      36.942  20.264  24.685  1.00  0.00     0.002 C 
BRANCH  72  73
ATOM     73  C   UNL A   1      37.197  21.767  24.537  1.00  0.00     0.002 C 
BRANCH  73  74
ATOM     74  C   UNL A   1      36.808  22.646  25.730  1.00  0.00     0.021 C 
BRANCH  74  75
ATOM     75  C   UNL A   1      35.859  23.800  25.424  1.00  0.00     0.116 C 
BRANCH  75  76
ATOM     76  N   UNL A   1      35.548  23.923  24.010  1.00  0.00    -0.352 N 
ATOM     77  C   UNL A   1      34.477  23.411  23.322  1.00  0.00     0.252 C 
ATOM     78  H   UNL A   1      36.190  24.442  23.475  1.00  0.00     0.163 HD
ATOM     79  O   UNL A   1      34.361  23.587  22.113  1.00  0.00    -0.269 OA
BRANCH  77  80
ATOM     80  C   UNL A   1      33.483  22.584  24.031  1.00  0.00     0.051 A 
ATOM     81  C   UNL A   1      33.708  21.208  23.999  1.00  0.00     0.043 A 
ATOM     82  C   UNL A   1      32.380  23.135  24.718  1.00  0.00     0.016 A 
ATOM     83  C   UNL A   1      32.836  20.392  24.690  1.00  0.00     0.072 A 
ATOM     84  C   UNL A   1      31.577  22.227  25.431  1.00  0.00     0.107 A 
ATOM     85  C   UNL A   1      32.055  24.517  24.735  1.00  0.00     0.011 A 
ATOM     86  N   UNL A   1      31.797  20.893  25.398  1.00  0.00    -0.245 NA
ATOM     87  C   UNL A   1      30.531  22.752  26.194  1.00  0.00     0.149 A 
ATOM     88  C   UNL A   1      31.003  25.005  25.505  1.00  0.00     0.004 A 
ATOM     89  F   UNL A   1      29.757  21.924  26.918  1.00  0.00    -0.205 F 
ATOM     90  C   UNL A   1      30.245  24.115  26.252  1.00  0.00     0.041 A 
BRANCH  83  91
ATOM     91  C   UNL A   1      32.970  18.931  24.700  1.00  0.00     0.003 A 
ATOM     92  C   UNL A   1      32.493  18.179  25.790  1.00  0.00     0.010 A 
ATOM     93  C   UNL A   1      33.570  18.241  23.635  1.00  0.00     0.049 A 
ATOM     94  C   UNL A   1      32.594  16.784  25.810  1.00  0.00     0.004 A 
ATOM     95  C   UNL A   1      33.675  16.854  23.668  1.00  0.00     0.123 A 
ATOM     96  C   UNL A   1      33.188  16.119  24.741  1.00  0.00     0.039 A 
ATOM     97  F   UNL A   1      34.257  16.214  22.644  1.00  0.00    -0.207 F 
ENDBRANCH  83  91
ENDBRANCH  77  80
ENDBRANCH  75  76
ENDBRANCH  74  75
ENDBRANCH  73  74
ENDBRANCH  72  73
ENDBRANCH   1  72
TORSDOF 17
ENDMDL
MODEL 3
REMARK VINA RESULT:     -12.4      5.356      9.725
REMARK SMILES O=C(NCCCCCCNC(=O)c1cc(-c2cccc(F)c2)nc2c(F)cccc12)c1ccc(-c2c3nc(c(-c4cccc(S(=O)(=O)[O-])c4F)c4ccc([nH]4)c(-c4cccc(S(=O)(=O)[O-])c4F)c4nc(c(-c5cccc(S(=O)(=O)[O-])c5F)c5ccc2[nH]5)C=C4)C=C3)cc1
REMARK SMILES IDX 5 1 4 2 3 3 1 4 2 5 31 7 32 8 93 9 33 10 92 11 34 12 35 13
REMARK SMILES IDX 36 14 86 15 37 16 91 17 85 18 87 19 38 20 90 21 84 22 83 23
REMARK SMILES IDX 39 25 71 26 51 27 70 28 52 29 55 30 69 31 88 32 53 33 54 34
REMARK SMILES IDX 68 36 89 37 56 38 40 39 41 40 49 41 42 42 44 43 50 44 43 45
REMARK SMILES IDX 45 46 46 47 47 48 48 49 72 50 73 51 81 52 74 53 76 54 82 55
REMARK SMILES IDX 75 56 77 57 78 58 79 59 80 60 57 61 58 62 66 63 59 64 61 65
REMARK SMILES IDX 67 66 60 67 62 68 63 69 64 70 65 71 6 72 7 73 8 74 9 75
REMARK SMILES IDX 10 76 11 77 12 79 13 80 14 81 30 82 15 83 24 84 29 85 23 86
REMARK SMILES IDX 25 87 28 88 26 89 27 90 16 91 17 92 22 93 18 94 20 95 19 96
REMARK SMILES IDX 21 97
REMARK H PARENT 3 6 87 24 55 35 10 78
REMARK Flexibility Score: inf
ROOT
ATOM      1  C   UNL A   1      40.799  21.907  26.060  1.00  0.00     0.021 C 
ENDROOT
BRANCH   1   2
ATOM      2  C   UNL A   1      42.283  21.662  26.307  1.00  0.00     0.116 C 
BRANCH   2   3
ATOM      3  N   UNL A   1      43.140  22.295  25.319  1.00  0.00    -0.352 N 
ATOM      4  O   UNL A   1      44.201  23.974  24.258  1.00  0.00    -0.269 OA
ATOM      5  C   UNL A   1      43.566  23.600  25.242  1.00  0.00     0.251 C 
ATOM      6  H   UNL A   1      43.464  21.703  24.601  1.00  0.00     0.163 HD
BRANCH   5   7
ATOM      7  C   UNL A   1      43.226  24.559  26.320  1.00  0.00     0.039 A 
ATOM      8  C   UNL A   1      43.332  24.200  27.665  1.00  0.00     0.014 A 
ATOM      9  C   UNL A   1      42.782  25.839  25.972  1.00  0.00     0.014 A 
ATOM     10  C   UNL A   1      42.848  25.057  28.650  1.00  0.00     0.010 A 
ATOM     11  C   UNL A   1      42.370  26.729  26.970  1.00  0.00     0.010 A 
ATOM     12  C   UNL A   1      42.356  26.329  28.315  1.00  0.00    -0.014 A 
BRANCH  12  13
ATOM     13  C   UNL A   1      41.863  27.232  29.390  1.00  0.00     0.031 A 
ATOM     14  C   UNL A   1      40.554  27.964  29.255  1.00  0.00     0.074 A 
ATOM     15  C   UNL A   1      42.596  27.372  30.513  1.00  0.00     0.049 A 
ATOM     16  N   UNL A   1      39.956  28.742  30.121  1.00  0.00    -0.248 NA
ATOM     17  C   UNL A   1      39.819  27.811  27.987  1.00  0.00     0.031 C 
ATOM     18  C   UNL A   1      43.900  26.748  30.746  1.00  0.00     0.029 A 
ATOM     19  N   UNL A   1      42.352  28.073  31.667  1.00  0.00    -0.354 N 
ATOM     20  C   UNL A   1      38.802  29.198  29.497  1.00  0.00     0.074 A 
ATOM     21  C   UNL A   1      38.782  28.618  28.172  1.00  0.00     0.031 C 
ATOM     22  C   UNL A   1      44.327  27.067  31.976  1.00  0.00     0.029 A 
ATOM     23  C   UNL A   1      43.351  27.952  32.605  1.00  0.00     0.049 A 
ATOM     24  H   UNL A   1      41.541  28.613  31.809  1.00  0.00     0.167 HD
ATOM     25  C   UNL A   1      37.833  30.004  29.993  1.00  0.00     0.034 A 
ATOM     26  C   UNL A   1      43.474  28.491  33.834  1.00  0.00     0.034 A 
ATOM     27  C   UNL A   1      37.825  30.534  31.330  1.00  0.00     0.049 A 
ATOM     28  C   UNL A   1      42.374  29.366  34.363  1.00  0.00     0.074 A 
ATOM     29  C   UNL A   1      36.842  31.291  31.945  1.00  0.00     0.029 A 
ATOM     30  N   UNL A   1      38.842  30.369  32.257  1.00  0.00    -0.354 N 
ATOM     31  N   UNL A   1      41.225  29.669  33.808  1.00  0.00    -0.248 NA
ATOM     32  C   UNL A   1      42.574  29.960  35.694  1.00  0.00     0.031 C 
ATOM     33  C   UNL A   1      37.271  31.596  33.240  1.00  0.00     0.029 A 
ATOM     34  C   UNL A   1      38.517  31.022  33.434  1.00  0.00     0.049 A 
ATOM     35  H   UNL A   1      39.672  29.863  32.101  1.00  0.00     0.167 HD
ATOM     36  C   UNL A   1      40.562  30.479  34.722  1.00  0.00     0.074 A 
ATOM     37  C   UNL A   1      41.422  30.593  35.882  1.00  0.00     0.031 C 
ATOM     38  C   UNL A   1      39.361  31.093  34.599  1.00  0.00     0.034 A 
BRANCH  25  39
ATOM     39  C   UNL A   1      36.651  30.324  29.117  1.00  0.00     0.023 A 
ATOM     40  C   UNL A   1      35.941  29.268  28.511  1.00  0.00     0.012 A 
ATOM     41  C   UNL A   1      36.170  31.642  28.996  1.00  0.00     0.148 A 
ATOM     42  C   UNL A   1      34.776  29.519  27.789  1.00  0.00     0.002 A 
ATOM     43  C   UNL A   1      34.989  31.882  28.303  1.00  0.00     0.091 A 
ATOM     44  F   UNL A   1      36.869  32.632  29.570  1.00  0.00    -0.205 F 
ATOM     45  C   UNL A   1      34.294  30.822  27.695  1.00  0.00     0.022 A 
BRANCH  43  46
ATOM     46  S   UNL A   1      34.242  33.512  28.182  1.00  0.00     0.127 S 
ATOM     47  O   UNL A   1      34.224  33.931  29.583  1.00  0.00    -0.237 OA
ATOM     48  O   UNL A   1      35.205  34.230  27.345  1.00  0.00    -0.237 OA
ATOM     49  O   UNL A   1      32.935  33.313  27.576  1.00  0.00    -0.744 OA
ENDBRANCH  43  46
ENDBRANCH  25  39
BRANCH  26  50
ATOM     50  C   UNL A   1      44.668  28.162  34.662  1.00  0.00     0.023 A 
ATOM     51  C   UNL A   1      45.772  29.036  34.659  1.00  0.00     0.012 A 
ATOM     52  C   UNL A   1      44.687  27.033  35.504  1.00  0.00     0.148 A 
ATOM     53  C   UNL A   1      46.877  28.785  35.473  1.00  0.00     0.002 A 
ATOM     54  C   UNL A   1      45.766  26.823  36.355  1.00  0.00     0.091 A 
ATOM     55  F   UNL A   1      43.638  26.199  35.475  1.00  0.00    -0.205 F 
ATOM     56  C   UNL A   1      46.868  27.689  36.332  1.00  0.00     0.022 A 
BRANCH  54  57
ATOM     57  S   UNL A   1      45.754  25.525  37.598  1.00  0.00     0.127 S 
ATOM     58  O   UNL A   1      47.098  25.633  38.157  1.00  0.00    -0.237 OA
ATOM     59  O   UNL A   1      44.679  25.960  38.489  1.00  0.00    -0.237 OA
ATOM     60  O   UNL A   1      45.461  24.298  36.868  1.00  0.00    -0.744 OA
ENDBRANCH  54  57
ENDBRANCH  26  50
BRANCH  38  61
ATOM     61  C   UNL A   1      38.892  31.960  35.735  1.00  0.00     0.023 A 
ATOM     62  C   UNL A   1      39.072  33.354  35.651  1.00  0.00     0.012 A 
ATOM     63  C   UNL A   1      38.171  31.417  36.816  1.00  0.00     0.148 A 
ATOM     64  C   UNL A   1      38.553  34.196  36.634  1.00  0.00     0.002 A 
ATOM     65  C   UNL A   1      37.621  32.264  37.771  1.00  0.00     0.091 A 
ATOM     66  F   UNL A   1      38.025  30.085  36.883  1.00  0.00    -0.205 F 
ATOM     67  C   UNL A   1      37.817  33.653  37.685  1.00  0.00     0.022 A 
BRANCH  65  68
ATOM     68  S   UNL A   1      36.580  31.669  39.108  1.00  0.00     0.127 S 
ATOM     69  O   UNL A   1      37.452  31.851  40.267  1.00  0.00    -0.237 OA
ATOM     70  O   UNL A   1      35.443  32.587  39.050  1.00  0.00    -0.237 OA
ATOM     71  O   UNL A   1      36.259  30.286  38.782  1.00  0.00    -0.744 OA
ENDBRANCH  65  68
ENDBRANCH  38  61
ENDBRANCH  12  13
ENDBRANCH   5   7
ENDBRANCH   2   3
ENDBRANCH   1   2
BRANCH   1  72
ATOM     72  C   UNL A   1      39.987  22.359  27.273  1.00  0.00     0.002 C 
BRANCH  72  73
ATOM     73  C   UNL A   1      39.763  23.868  27.414  1.00  0.00     0.002 C 
BRANCH  73  74
ATOM     74  C   UNL A   1      38.677  24.483  26.526  1.00  0.00     0.021 C 
BRANCH  74  75
ATOM     75  C   UNL A   1      37.572  23.534  26.075  1.00  0.00     0.116 C 
BRANCH  75  76
ATOM     76  N   UNL A   1      37.527  23.355  24.634  1.00  0.00    -0.352 N 
ATOM     77  C   UNL A   1      36.432  23.334  23.807  1.00  0.00     0.252 C 
ATOM     78  H   UNL A   1      38.398  23.233  24.191  1.00  0.00     0.163 HD
ATOM     79  O   UNL A   1      36.555  23.153  22.600  1.00  0.00    -0.269 OA
BRANCH  77  80
ATOM     80  C   UNL A   1      35.081  23.468  24.385  1.00  0.00     0.051 A 
ATOM     81  C   UNL A   1      34.634  24.774  24.579  1.00  0.00     0.043 A 
ATOM     82  C   UNL A   1      34.275  22.356  24.710  1.00  0.00     0.016 A 
ATOM     83  C   UNL A   1      33.356  24.955  25.069  1.00  0.00     0.072 A 
ATOM     84  C   UNL A   1      32.973  22.643  25.158  1.00  0.00     0.107 A 
ATOM     85  C   UNL A   1      34.693  21.003  24.601  1.00  0.00     0.011 A 
ATOM     86  N   UNL A   1      32.541  23.911  25.345  1.00  0.00    -0.245 NA
ATOM     87  C   UNL A   1      32.121  21.564  25.402  1.00  0.00     0.149 A 
ATOM     88  C   UNL A   1      33.816  19.951  24.855  1.00  0.00     0.004 A 
ATOM     89  F   UNL A   1      30.857  21.792  25.799  1.00  0.00    -0.205 F 
ATOM     90  C   UNL A   1      32.516  20.236  25.243  1.00  0.00     0.041 A 
BRANCH  83  91
ATOM     91  C   UNL A   1      32.799  26.287  25.332  1.00  0.00     0.003 A 
ATOM     92  C   UNL A   1      32.822  27.279  24.333  1.00  0.00     0.010 A 
ATOM     93  C   UNL A   1      32.232  26.615  26.573  1.00  0.00     0.049 A 
ATOM     94  C   UNL A   1      32.279  28.548  24.557  1.00  0.00     0.004 A 
ATOM     95  C   UNL A   1      31.703  27.883  26.791  1.00  0.00     0.123 A 
ATOM     96  C   UNL A   1      31.716  28.850  25.794  1.00  0.00     0.039 A 
ATOM     97  F   UNL A   1      31.171  28.178  27.985  1.00  0.00    -0.207 F 
ENDBRANCH  83  91
ENDBRANCH  77  80
ENDBRANCH  75  76
ENDBRANCH  74  75
ENDBRANCH  73  74
ENDBRANCH  72  73
ENDBRANCH   1  72
TORSDOF 17
ENDMDL
