MODEL 1
REMARK VINA RESULT:     -11.5      0.000      0.000
REMARK SMILES C[C@@H]1CCCN(c2ccc(NC(=O)Cc3cccs3)c(C(=O)NCCCCCCNC(=O)c3ccc(-c4c5nc(c(-c6cccc(S(=O)(=O)[O-])c6F)c6ccc([nH]6)c(-c6cccc(S(=O)(=O)[O-])c6F)c6nc(c(-c7cccc(S(=O)(=O)[O-])c7F)c7ccc4[nH]7)C=C6)C=C5)cc3)c2)C1
REMARK SMILES IDX 26 1 25 2 24 3 23 4 21 5 22 6 20 8 7 9 8 10 96 11 9 12 10 13
REMARK SMILES IDX 6 14 1 15 2 16 3 17 97 18 4 19 5 20 11 21 12 22 13 24 14 25
REMARK SMILES IDX 15 26 16 27 19 28 17 29 18 30 27 31 28 32 29 33 30 34 31 35
REMARK SMILES IDX 32 37 33 38 34 39 95 40 35 41 94 42 36 43 37 44 38 45 88 46
REMARK SMILES IDX 39 47 93 48 87 49 89 50 40 51 92 52 86 53 85 54 41 56 73 57
REMARK SMILES IDX 53 58 72 59 54 60 57 61 71 62 90 63 55 64 56 65 70 67 91 68
REMARK SMILES IDX 58 69 42 70 43 71 51 72 44 73 46 74 52 75 45 76 47 77 48 78
REMARK SMILES IDX 49 79 50 80 74 81 75 82 83 83 76 84 78 85 84 86 77 87 79 88
REMARK SMILES IDX 80 89 81 90 82 91 59 92 60 93 68 94 61 95 63 96 69 97 62 98
REMARK SMILES IDX 64 99 65 100 66 101 67 102
REMARK H PARENT 23 7 11 23 30 36 89 55 57 66
REMARK Flexibility Score: inf
ROOT
ATOM      1  C   UNL A   1      31.779  30.299  26.339  1.00  0.00     0.002 C 
ENDROOT
BRANCH   1   2
ATOM      2  C   UNL A   1      33.288  30.052  26.354  1.00  0.00     0.021 C 
BRANCH   2   3
ATOM      3  C   UNL A   1      33.778  28.710  25.823  1.00  0.00     0.116 C 
BRANCH   3   4
ATOM      4  N   UNL A   1      34.439  28.755  24.529  1.00  0.00    -0.352 N 
ATOM      5  C   UNL A   1      33.955  28.498  23.261  1.00  0.00     0.253 C 
ATOM      6  O   UNL A   1      34.731  28.633  22.312  1.00  0.00    -0.269 OA
ATOM      7  H   UNL A   1      35.388  29.011  24.563  1.00  0.00     0.163 HD
BRANCH   5   8
ATOM      8  C   UNL A   1      32.565  27.993  22.995  1.00  0.00     0.065 A 
ATOM      9  C   UNL A   1      30.178  28.495  22.903  1.00  0.00     0.038 A 
ATOM     10  C   UNL A   1      29.925  27.127  22.876  1.00  0.00     0.028 A 
ATOM     11  C   UNL A   1      31.508  28.899  22.832  1.00  0.00     0.042 A 
ATOM     12  C   UNL A   1      30.965  26.194  22.850  1.00  0.00     0.029 A 
ATOM     13  C   UNL A   1      32.294  26.598  22.985  1.00  0.00     0.054 A 
BRANCH   9  14
ATOM     14  N   UNL A   1      29.148  29.397  23.060  1.00  0.00    -0.371 N 
ATOM     15  C   UNL A   1      29.391  33.209  23.231  1.00  0.00     0.009 C 
ATOM     16  C   UNL A   1      29.229  31.826  22.599  1.00  0.00     0.005 C 
ATOM     17  C   UNL A   1      27.851  31.700  21.936  1.00  0.00     0.007 C 
ATOM     18  C   UNL A   1      29.442  30.712  23.644  1.00  0.00     0.119 C 
ATOM     19  C   UNL A   1      27.667  30.310  21.332  1.00  0.00     0.022 C 
ATOM     20  C   UNL A   1      27.862  29.228  22.390  1.00  0.00     0.116 C 
ENDBRANCH   9  14
BRANCH  13  21
ATOM     21  N   UNL A   1      33.360  25.681  23.146  1.00  0.00    -0.325 N 
ATOM     22  C   UNL A   1      33.969  25.075  24.207  1.00  0.00     0.229 C 
ATOM     23  H   UNL A   1      33.759  25.418  22.284  1.00  0.00     0.169 HD
ATOM     24  O   UNL A   1      34.895  24.292  23.951  1.00  0.00    -0.274 OA
BRANCH  22  25
ATOM     25  C   UNL A   1      33.578  25.289  25.654  1.00  0.00     0.147 C 
BRANCH  25  26
ATOM     26  C   UNL A   1      32.281  24.639  26.063  1.00  0.00     0.014 A 
ATOM     27  C   UNL A   1      31.000  25.147  26.186  1.00  0.00     0.016 A 
ATOM     28  S   UNL A   1      32.298  22.953  26.422  1.00  0.00    -0.148 S 
ATOM     29  C   UNL A   1      30.034  24.149  26.505  1.00  0.00     0.012 A 
ATOM     30  C   UNL A   1      30.611  22.915  26.683  1.00  0.00     0.065 A 
ENDBRANCH  25  26
ENDBRANCH  22  25
ENDBRANCH  13  21
ENDBRANCH   5   8
ENDBRANCH   3   4
ENDBRANCH   2   3
ENDBRANCH   1   2
BRANCH   1  31
ATOM     31  C   UNL A   1      31.307  31.739  26.127  1.00  0.00     0.002 C 
BRANCH  31  32
ATOM     32  C   UNL A   1      31.438  32.697  27.313  1.00  0.00     0.021 C 
BRANCH  32  33
ATOM     33  C   UNL A   1      32.759  33.448  27.438  1.00  0.00     0.116 C 
BRANCH  33  34
ATOM     34  N   UNL A   1      32.611  34.768  28.022  1.00  0.00    -0.352 N 
ATOM     35  C   UNL A   1      33.247  35.328  29.103  1.00  0.00     0.251 C 
ATOM     36  H   UNL A   1      31.954  35.351  27.577  1.00  0.00     0.163 HD
ATOM     37  O   UNL A   1      32.878  36.425  29.515  1.00  0.00    -0.269 OA
BRANCH  35  38
ATOM     38  C   UNL A   1      34.358  34.621  29.787  1.00  0.00     0.039 A 
ATOM     39  C   UNL A   1      34.108  34.027  31.028  1.00  0.00     0.014 A 
ATOM     40  C   UNL A   1      35.648  34.582  29.249  1.00  0.00     0.014 A 
ATOM     41  C   UNL A   1      35.138  33.374  31.712  1.00  0.00     0.010 A 
ATOM     42  C   UNL A   1      36.655  33.865  29.896  1.00  0.00     0.010 A 
ATOM     43  C   UNL A   1      36.419  33.276  31.146  1.00  0.00    -0.014 A 
BRANCH  43  44
ATOM     44  C   UNL A   1      37.526  32.597  31.870  1.00  0.00     0.031 A 
ATOM     45  C   UNL A   1      38.222  31.411  31.252  1.00  0.00     0.074 A 
ATOM     46  C   UNL A   1      37.873  33.008  33.107  1.00  0.00     0.049 A 
ATOM     47  N   UNL A   1      39.192  30.679  31.734  1.00  0.00    -0.248 NA
ATOM     48  C   UNL A   1      37.748  30.974  29.928  1.00  0.00     0.031 C 
ATOM     49  C   UNL A   1      37.228  34.092  33.850  1.00  0.00     0.029 A 
ATOM     50  N   UNL A   1      38.841  32.548  33.965  1.00  0.00    -0.354 N 
ATOM     51  C   UNL A   1      39.419  29.678  30.796  1.00  0.00     0.074 A 
ATOM     52  C   UNL A   1      38.459  29.873  29.732  1.00  0.00     0.031 C 
ATOM     53  C   UNL A   1      37.823  34.219  35.048  1.00  0.00     0.029 A 
ATOM     54  C   UNL A   1      38.875  33.214  35.168  1.00  0.00     0.049 A 
ATOM     55  H   UNL A   1      39.453  31.810  33.741  1.00  0.00     0.167 HD
ATOM     56  C   UNL A   1      40.361  28.705  30.798  1.00  0.00     0.034 A 
ATOM     57  C   UNL A   1      39.667  33.040  36.244  1.00  0.00     0.034 A 
ATOM     58  C   UNL A   1      41.349  28.544  31.831  1.00  0.00     0.049 A 
ATOM     59  C   UNL A   1      40.749  31.993  36.194  1.00  0.00     0.074 A 
ATOM     60  C   UNL A   1      42.395  27.639  31.889  1.00  0.00     0.029 A 
ATOM     61  N   UNL A   1      41.416  29.307  32.986  1.00  0.00    -0.354 N 
ATOM     62  N   UNL A   1      41.041  31.154  35.230  1.00  0.00    -0.248 NA
ATOM     63  C   UNL A   1      41.640  31.901  37.360  1.00  0.00     0.031 C 
ATOM     64  C   UNL A   1      43.085  27.845  33.088  1.00  0.00     0.029 A 
ATOM     65  C   UNL A   1      42.485  28.897  33.763  1.00  0.00     0.049 A 
ATOM     66  H   UNL A   1      40.794  30.033  33.219  1.00  0.00     0.167 HD
ATOM     67  C   UNL A   1      42.177  30.470  35.652  1.00  0.00     0.074 A 
ATOM     68  C   UNL A   1      42.527  31.005  36.952  1.00  0.00     0.031 C 
ATOM     69  C   UNL A   1      42.860  29.481  35.025  1.00  0.00     0.034 A 
BRANCH  56  70
ATOM     70  C   UNL A   1      40.406  27.770  29.615  1.00  0.00     0.023 A 
ATOM     71  C   UNL A   1      39.488  26.703  29.538  1.00  0.00     0.012 A 
ATOM     72  C   UNL A   1      41.313  27.978  28.558  1.00  0.00     0.148 A 
ATOM     73  C   UNL A   1      39.498  25.833  28.448  1.00  0.00     0.002 A 
ATOM     74  C   UNL A   1      41.285  27.135  27.452  1.00  0.00     0.091 A 
ATOM     75  F   UNL A   1      42.193  28.985  28.657  1.00  0.00    -0.205 F 
ATOM     76  C   UNL A   1      40.388  26.055  27.401  1.00  0.00     0.022 A 
BRANCH  74  77
ATOM     77  S   UNL A   1      42.336  27.384  26.017  1.00  0.00     0.127 S 
ATOM     78  O   UNL A   1      41.656  26.574  25.008  1.00  0.00    -0.237 OA
ATOM     79  O   UNL A   1      42.237  28.829  25.809  1.00  0.00    -0.237 OA
ATOM     80  O   UNL A   1      43.661  26.916  26.403  1.00  0.00    -0.744 OA
ENDBRANCH  74  77
ENDBRANCH  56  70
BRANCH  57  81
ATOM     81  C   UNL A   1      39.523  33.932  37.430  1.00  0.00     0.023 A 
ATOM     82  C   UNL A   1      40.058  35.234  37.386  1.00  0.00     0.012 A 
ATOM     83  C   UNL A   1      38.844  33.508  38.588  1.00  0.00     0.148 A 
ATOM     84  C   UNL A   1      39.954  36.085  38.485  1.00  0.00     0.002 A 
ATOM     85  C   UNL A   1      38.695  34.380  39.660  1.00  0.00     0.091 A 
ATOM     86  F   UNL A   1      38.351  32.261  38.616  1.00  0.00    -0.205 F 
ATOM     87  C   UNL A   1      39.264  35.662  39.619  1.00  0.00     0.022 A 
BRANCH  85  88
ATOM     88  S   UNL A   1      37.710  33.967  41.104  1.00  0.00     0.127 S 
ATOM     89  O   UNL A   1      36.588  33.249  40.506  1.00  0.00    -0.237 OA
ATOM     90  O   UNL A   1      38.634  33.136  41.875  1.00  0.00    -0.237 OA
ATOM     91  O   UNL A   1      37.384  35.240  41.734  1.00  0.00    -0.744 OA
ENDBRANCH  85  88
ENDBRANCH  57  81
BRANCH  69  92
ATOM     92  C   UNL A   1      44.096  28.947  35.702  1.00  0.00     0.023 A 
ATOM     93  C   UNL A   1      45.341  29.573  35.494  1.00  0.00     0.012 A 
ATOM     94  C   UNL A   1      44.008  27.861  36.595  1.00  0.00     0.148 A 
ATOM     95  C   UNL A   1      46.486  29.101  36.136  1.00  0.00     0.002 A 
ATOM     96  C   UNL A   1      45.143  27.430  37.270  1.00  0.00     0.091 A 
ATOM     97  F   UNL A   1      42.818  27.265  36.763  1.00  0.00    -0.205 F 
ATOM     98  C   UNL A   1      46.385  28.039  37.032  1.00  0.00     0.022 A 
BRANCH  96  99
ATOM     99  S   UNL A   1      45.081  26.135  38.514  1.00  0.00     0.127 S 
ATOM    100  O   UNL A   1      44.124  26.687  39.472  1.00  0.00    -0.237 OA
ATOM    101  O   UNL A   1      44.586  24.991  37.749  1.00  0.00    -0.237 OA
ATOM    102  O   UNL A   1      46.445  25.988  39.002  1.00  0.00    -0.744 OA
ENDBRANCH  96  99
ENDBRANCH  69  92
ENDBRANCH  43  44
ENDBRANCH  35  38
ENDBRANCH  33  34
ENDBRANCH  32  33
ENDBRANCH  31  32
ENDBRANCH   1  31
TORSDOF 20
ENDMDL
MODEL 2
REMARK VINA RESULT:     -11.4      1.748      7.507
REMARK SMILES C[C@@H]1CCCN(c2ccc(NC(=O)Cc3cccs3)c(C(=O)NCCCCCCNC(=O)c3ccc(-c4c5nc(c(-c6cccc(S(=O)(=O)[O-])c6F)c6ccc([nH]6)c(-c6cccc(S(=O)(=O)[O-])c6F)c6nc(c(-c7cccc(S(=O)(=O)[O-])c7F)c7ccc4[nH]7)C=C6)C=C5)cc3)c2)C1
REMARK SMILES IDX 26 1 25 2 24 3 23 4 21 5 22 6 20 8 7 9 8 10 96 11 9 12 10 13
REMARK SMILES IDX 6 14 1 15 2 16 3 17 97 18 4 19 5 20 11 21 12 22 13 24 14 25
REMARK SMILES IDX 15 26 16 27 19 28 17 29 18 30 27 31 28 32 29 33 30 34 31 35
REMARK SMILES IDX 32 37 33 38 34 39 95 40 35 41 94 42 36 43 37 44 38 45 88 46
REMARK SMILES IDX 39 47 93 48 87 49 89 50 40 51 92 52 86 53 85 54 41 56 73 57
REMARK SMILES IDX 53 58 72 59 54 60 57 61 71 62 90 63 55 64 56 65 70 67 91 68
REMARK SMILES IDX 58 69 42 70 43 71 51 72 44 73 46 74 52 75 45 76 47 77 48 78
REMARK SMILES IDX 49 79 50 80 74 81 75 82 83 83 76 84 78 85 84 86 77 87 79 88
REMARK SMILES IDX 80 89 81 90 82 91 59 92 60 93 68 94 61 95 63 96 69 97 62 98
REMARK SMILES IDX 64 99 65 100 66 101 67 102
REMARK H PARENT 23 7 11 23 30 36 89 55 57 66
REMARK Flexibility Score: inf
ROOT
ATOM      1  C   UNL A   1      31.807  29.752  26.830  1.00  0.00     0.002 C 
ENDROOT
BRANCH   1   2
ATOM      2  C   UNL A   1      33.274  29.363  27.018  1.00  0.00     0.021 C 
BRANCH   2   3
ATOM      3  C   UNL A   1      33.795  28.197  26.185  1.00  0.00     0.116 C 
BRANCH   3   4
ATOM      4  N   UNL A   1      34.485  28.565  24.960  1.00  0.00    -0.352 N 
ATOM      5  C   UNL A   1      34.050  28.573  23.648  1.00  0.00     0.253 C 
ATOM      6  O   UNL A   1      34.840  28.958  22.784  1.00  0.00    -0.269 OA
ATOM      7  H   UNL A   1      35.416  28.857  25.085  1.00  0.00     0.163 HD
BRANCH   5   8
ATOM      8  C   UNL A   1      32.700  28.066  23.225  1.00  0.00     0.065 A 
ATOM      9  C   UNL A   1      30.305  28.504  23.040  1.00  0.00     0.038 A 
ATOM     10  C   UNL A   1      30.109  27.146  22.813  1.00  0.00     0.028 A 
ATOM     11  C   UNL A   1      31.621  28.955  23.113  1.00  0.00     0.042 A 
ATOM     12  C   UNL A   1      31.183  26.257  22.733  1.00  0.00     0.029 A 
ATOM     13  C   UNL A   1      32.485  26.679  23.010  1.00  0.00     0.054 A 
BRANCH   9  14
ATOM     14  N   UNL A   1      29.234  29.346  23.246  1.00  0.00    -0.371 N 
ATOM     15  C   UNL A   1      29.220  33.168  23.181  1.00  0.00     0.009 C 
ATOM     16  C   UNL A   1      29.099  31.741  22.645  1.00  0.00     0.005 C 
ATOM     17  C   UNL A   1      27.677  31.484  22.128  1.00  0.00     0.007 C 
ATOM     18  C   UNL A   1      29.486  30.711  23.725  1.00  0.00     0.119 C 
ATOM     19  C   UNL A   1      27.536  30.051  21.623  1.00  0.00     0.022 C 
ATOM     20  C   UNL A   1      27.906  29.051  22.715  1.00  0.00     0.116 C 
ENDBRANCH   9  14
BRANCH  13  21
ATOM     21  N   UNL A   1      33.574  25.781  23.118  1.00  0.00    -0.325 N 
ATOM     22  C   UNL A   1      34.044  24.936  24.081  1.00  0.00     0.229 C 
ATOM     23  H   UNL A   1      34.126  25.763  22.302  1.00  0.00     0.169 HD
ATOM     24  O   UNL A   1      35.053  24.272  23.803  1.00  0.00    -0.274 OA
BRANCH  22  25
ATOM     25  C   UNL A   1      33.408  24.754  25.444  1.00  0.00     0.147 C 
BRANCH  25  26
ATOM     26  C   UNL A   1      33.625  23.399  26.069  1.00  0.00     0.014 A 
ATOM     27  C   UNL A   1      34.476  22.981  27.077  1.00  0.00     0.016 A 
ATOM     28  S   UNL A   1      32.655  22.086  25.515  1.00  0.00    -0.148 S 
ATOM     29  C   UNL A   1      34.283  21.615  27.436  1.00  0.00     0.012 A 
ATOM     30  C   UNL A   1      33.338  21.006  26.648  1.00  0.00     0.065 A 
ENDBRANCH  25  26
ENDBRANCH  22  25
ENDBRANCH  13  21
ENDBRANCH   5   8
ENDBRANCH   3   4
ENDBRANCH   2   3
ENDBRANCH   1   2
BRANCH   1  31
ATOM     31  C   UNL A   1      31.520  31.052  26.075  1.00  0.00     0.002 C 
BRANCH  31  32
ATOM     32  C   UNL A   1      31.506  32.345  26.894  1.00  0.00     0.021 C 
BRANCH  32  33
ATOM     33  C   UNL A   1      32.864  32.948  27.236  1.00  0.00     0.116 C 
BRANCH  33  34
ATOM     34  N   UNL A   1      32.764  34.233  27.903  1.00  0.00    -0.352 N 
ATOM     35  C   UNL A   1      33.498  34.739  28.948  1.00  0.00     0.251 C 
ATOM     36  H   UNL A   1      32.065  34.832  27.555  1.00  0.00     0.163 HD
ATOM     37  O   UNL A   1      33.164  35.808  29.454  1.00  0.00    -0.269 OA
BRANCH  35  38
ATOM     38  C   UNL A   1      34.673  34.008  29.484  1.00  0.00     0.039 A 
ATOM     39  C   UNL A   1      35.936  34.302  28.961  1.00  0.00     0.014 A 
ATOM     40  C   UNL A   1      34.540  33.007  30.450  1.00  0.00     0.014 A 
ATOM     41  C   UNL A   1      37.063  33.615  29.425  1.00  0.00     0.010 A 
ATOM     42  C   UNL A   1      35.673  32.377  30.965  1.00  0.00     0.010 A 
ATOM     43  C   UNL A   1      36.943  32.655  30.441  1.00  0.00    -0.014 A 
BRANCH  43  44
ATOM     44  C   UNL A   1      38.132  31.907  30.931  1.00  0.00     0.031 A 
ATOM     45  C   UNL A   1      38.778  32.285  32.240  1.00  0.00     0.074 A 
ATOM     46  C   UNL A   1      38.667  30.924  30.178  1.00  0.00     0.049 A 
ATOM     47  N   UNL A   1      39.827  31.766  32.823  1.00  0.00    -0.248 NA
ATOM     48  C   UNL A   1      38.183  33.411  32.978  1.00  0.00     0.031 C 
ATOM     49  C   UNL A   1      38.185  30.513  28.859  1.00  0.00     0.029 A 
ATOM     50  N   UNL A   1      39.746  30.107  30.408  1.00  0.00    -0.354 N 
ATOM     51  C   UNL A   1      40.040  32.521  33.972  1.00  0.00     0.074 A 
ATOM     52  C   UNL A   1      39.033  33.560  33.984  1.00  0.00     0.031 C 
ATOM     53  C   UNL A   1      38.959  29.516  28.399  1.00  0.00     0.029 A 
ATOM     54  C   UNL A   1      40.004  29.231  29.379  1.00  0.00     0.049 A 
ATOM     55  H   UNL A   1      40.284  30.144  31.231  1.00  0.00     0.167 HD
ATOM     56  C   UNL A   1      40.964  32.349  34.946  1.00  0.00     0.034 A 
ATOM     57  C   UNL A   1      40.968  28.300  29.242  1.00  0.00     0.034 A 
ATOM     58  C   UNL A   1      41.931  31.285  34.959  1.00  0.00     0.049 A 
ATOM     59  C   UNL A   1      41.944  28.086  30.370  1.00  0.00     0.074 A 
ATOM     60  C   UNL A   1      42.860  30.977  35.938  1.00  0.00     0.029 A 
ATOM     61  N   UNL A   1      42.093  30.352  33.946  1.00  0.00    -0.354 N 
ATOM     62  N   UNL A   1      42.031  28.717  31.516  1.00  0.00    -0.248 NA
ATOM     63  C   UNL A   1      42.922  27.002  30.205  1.00  0.00     0.031 C 
ATOM     64  C   UNL A   1      43.595  29.867  35.509  1.00  0.00     0.029 A 
ATOM     65  C   UNL A   1      43.104  29.467  34.276  1.00  0.00     0.049 A 
ATOM     66  H   UNL A   1      41.567  30.325  33.115  1.00  0.00     0.167 HD
ATOM     67  C   UNL A   1      43.039  28.075  32.227  1.00  0.00     0.074 A 
ATOM     68  C   UNL A   1      43.521  26.997  31.388  1.00  0.00     0.031 C 
ATOM     69  C   UNL A   1      43.529  28.359  33.459  1.00  0.00     0.034 A 
BRANCH  56  70
ATOM     70  C   UNL A   1      40.936  33.303  36.114  1.00  0.00     0.023 A 
ATOM     71  C   UNL A   1      41.672  34.504  36.048  1.00  0.00     0.012 A 
ATOM     72  C   UNL A   1      40.144  33.042  37.248  1.00  0.00     0.148 A 
ATOM     73  C   UNL A   1      41.653  35.411  37.107  1.00  0.00     0.002 A 
ATOM     74  C   UNL A   1      40.091  33.973  38.281  1.00  0.00     0.091 A 
ATOM     75  F   UNL A   1      39.466  31.886  37.304  1.00  0.00    -0.205 F 
ATOM     76  C   UNL A   1      40.854  35.151  38.218  1.00  0.00     0.022 A 
BRANCH  74  77
ATOM     77  S   UNL A   1      39.032  33.769  39.717  1.00  0.00     0.127 S 
ATOM     78  O   UNL A   1      37.739  33.492  39.094  1.00  0.00    -0.237 OA
ATOM     79  O   UNL A   1      39.644  32.623  40.390  1.00  0.00    -0.237 OA
ATOM     80  O   UNL A   1      39.113  35.021  40.457  1.00  0.00    -0.744 OA
ENDBRANCH  74  77
ENDBRANCH  56  70
BRANCH  57  81
ATOM     81  C   UNL A   1      41.009  27.441  28.024  1.00  0.00     0.023 A 
ATOM     82  C   UNL A   1      41.656  27.913  26.866  1.00  0.00     0.012 A 
ATOM     83  C   UNL A   1      40.432  26.157  28.013  1.00  0.00     0.148 A 
ATOM     84  C   UNL A   1      41.695  27.139  25.706  1.00  0.00     0.002 A 
ATOM     85  C   UNL A   1      40.522  25.368  26.872  1.00  0.00     0.091 A 
ATOM     86  F   UNL A   1      39.810  25.730  29.122  1.00  0.00    -0.205 F 
ATOM     87  C   UNL A   1      41.137  25.863  25.712  1.00  0.00     0.022 A 
BRANCH  85  88
ATOM     88  S   UNL A   1      39.948  23.666  26.834  1.00  0.00     0.127 S 
ATOM     89  O   UNL A   1      40.223  23.227  28.199  1.00  0.00    -0.237 OA
ATOM     90  O   UNL A   1      38.531  23.830  26.511  1.00  0.00    -0.237 OA
ATOM     91  O   UNL A   1      40.728  23.013  25.789  1.00  0.00    -0.744 OA
ENDBRANCH  85  88
ENDBRANCH  57  81
BRANCH  69  92
ATOM     92  C   UNL A   1      44.605  27.459  34.009  1.00  0.00     0.023 A 
ATOM     93  C   UNL A   1      45.961  27.736  33.746  1.00  0.00     0.012 A 
ATOM     94  C   UNL A   1      44.270  26.373  34.843  1.00  0.00     0.148 A 
ATOM     95  C   UNL A   1      46.965  26.923  34.272  1.00  0.00     0.002 A 
ATOM     96  C   UNL A   1      45.277  25.599  35.405  1.00  0.00     0.091 A 
ATOM     97  F   UNL A   1      42.973  26.113  35.064  1.00  0.00    -0.205 F 
ATOM     98  C   UNL A   1      46.624  25.863  35.110  1.00  0.00     0.022 A 
BRANCH  96  99
ATOM     99  S   UNL A   1      44.929  24.279  36.573  1.00  0.00     0.127 S 
ATOM    100  O   UNL A   1      46.240  24.070  37.186  1.00  0.00    -0.237 OA
ATOM    101  O   UNL A   1      43.936  24.896  37.453  1.00  0.00    -0.237 OA
ATOM    102  O   UNL A   1      44.421  23.170  35.778  1.00  0.00    -0.744 OA
ENDBRANCH  96  99
ENDBRANCH  69  92
ENDBRANCH  43  44
ENDBRANCH  35  38
ENDBRANCH  33  34
ENDBRANCH  32  33
ENDBRANCH  31  32
ENDBRANCH   1  31
TORSDOF 20
ENDMDL
MODEL 3
REMARK VINA RESULT:     -11.4      2.306      8.463
REMARK SMILES C[C@@H]1CCCN(c2ccc(NC(=O)Cc3cccs3)c(C(=O)NCCCCCCNC(=O)c3ccc(-c4c5nc(c(-c6cccc(S(=O)(=O)[O-])c6F)c6ccc([nH]6)c(-c6cccc(S(=O)(=O)[O-])c6F)c6nc(c(-c7cccc(S(=O)(=O)[O-])c7F)c7ccc4[nH]7)C=C6)C=C5)cc3)c2)C1
REMARK SMILES IDX 26 1 25 2 24 3 23 4 21 5 22 6 20 8 7 9 8 10 96 11 9 12 10 13
REMARK SMILES IDX 6 14 1 15 2 16 3 17 97 18 4 19 5 20 11 21 12 22 13 24 14 25
REMARK SMILES IDX 15 26 16 27 19 28 17 29 18 30 27 31 28 32 29 33 30 34 31 35
REMARK SMILES IDX 32 37 33 38 34 39 95 40 35 41 94 42 36 43 37 44 38 45 88 46
REMARK SMILES IDX 39 47 93 48 87 49 89 50 40 51 92 52 86 53 85 54 41 56 73 57
REMARK SMILES IDX 53 58 72 59 54 60 57 61 71 62 90 63 55 64 56 65 70 67 91 68
REMARK SMILES IDX 58 69 42 70 43 71 51 72 44 73 46 74 52 75 45 76 47 77 48 78
REMARK SMILES IDX 49 79 50 80 74 81 75 82 83 83 76 84 78 85 84 86 77 87 79 88
REMARK SMILES IDX 80 89 81 90 82 91 59 92 60 93 68 94 61 95 63 96 69 97 62 98
REMARK SMILES IDX 64 99 65 100 66 101 67 102
REMARK H PARENT 23 7 11 23 30 36 89 55 57 66
REMARK Flexibility Score: inf
ROOT
ATOM      1  C   UNL A   1      33.944  29.026  27.223  1.00  0.00     0.002 C 
ENDROOT
BRANCH   1   2
ATOM      2  C   UNL A   1      34.079  28.594  25.763  1.00  0.00     0.021 C 
BRANCH   2   3
ATOM      3  C   UNL A   1      32.825  28.064  25.077  1.00  0.00     0.116 C 
BRANCH   3   4
ATOM      4  N   UNL A   1      31.742  27.679  25.967  1.00  0.00    -0.352 N 
ATOM      5  C   UNL A   1      31.031  26.498  26.064  1.00  0.00     0.253 C 
ATOM      6  O   UNL A   1      30.163  26.421  26.936  1.00  0.00    -0.269 OA
ATOM      7  H   UNL A   1      31.471  28.376  26.607  1.00  0.00     0.163 HD
BRANCH   5   8
ATOM      8  C   UNL A   1      31.213  25.347  25.117  1.00  0.00     0.065 A 
ATOM      9  C   UNL A   1      32.738  23.712  24.137  1.00  0.00     0.038 A 
ATOM     10  C   UNL A   1      31.779  23.449  23.164  1.00  0.00     0.028 A 
ATOM     11  C   UNL A   1      32.378  24.568  25.174  1.00  0.00     0.042 A 
ATOM     12  C   UNL A   1      30.530  24.074  23.185  1.00  0.00     0.029 A 
ATOM     13  C   UNL A   1      30.249  25.084  24.107  1.00  0.00     0.054 A 
BRANCH   9  14
ATOM     14  N   UNL A   1      34.009  23.189  24.032  1.00  0.00    -0.371 N 
ATOM     15  C   UNL A   1      37.068  24.040  26.161  1.00  0.00     0.009 C 
ATOM     16  C   UNL A   1      35.800  23.301  25.734  1.00  0.00     0.005 C 
ATOM     17  C   UNL A   1      36.115  21.829  25.433  1.00  0.00     0.007 C 
ATOM     18  C   UNL A   1      35.145  23.984  24.516  1.00  0.00     0.119 C 
ATOM     19  C   UNL A   1      34.860  21.091  24.973  1.00  0.00     0.022 C 
ATOM     20  C   UNL A   1      34.244  21.775  23.756  1.00  0.00     0.116 C 
ENDBRANCH   9  14
BRANCH  13  21
ATOM     21  N   UNL A   1      29.070  25.865  24.050  1.00  0.00    -0.325 N 
ATOM     22  C   UNL A   1      28.746  27.100  23.568  1.00  0.00     0.229 C 
ATOM     23  H   UNL A   1      28.299  25.408  24.458  1.00  0.00     0.169 HD
ATOM     24  O   UNL A   1      27.565  27.459  23.688  1.00  0.00    -0.274 OA
BRANCH  22  25
ATOM     25  C   UNL A   1      29.725  28.039  22.894  1.00  0.00     0.147 C 
BRANCH  25  26
ATOM     26  C   UNL A   1      29.333  29.494  22.927  1.00  0.00     0.014 A 
ATOM     27  C   UNL A   1      29.567  30.485  23.865  1.00  0.00     0.016 A 
ATOM     28  S   UNL A   1      28.472  30.132  21.577  1.00  0.00    -0.148 S 
ATOM     29  C   UNL A   1      29.103  31.766  23.447  1.00  0.00     0.012 A 
ATOM     30  C   UNL A   1      28.467  31.710  22.231  1.00  0.00     0.065 A 
ENDBRANCH  25  26
ENDBRANCH  22  25
ENDBRANCH  13  21
ENDBRANCH   5   8
ENDBRANCH   3   4
ENDBRANCH   2   3
ENDBRANCH   1   2
BRANCH   1  31
ATOM     31  C   UNL A   1      34.148  30.510  27.535  1.00  0.00     0.002 C 
BRANCH  31  32
ATOM     32  C   UNL A   1      32.903  31.402  27.522  1.00  0.00     0.021 C 
BRANCH  32  33
ATOM     33  C   UNL A   1      33.040  32.748  26.819  1.00  0.00     0.116 C 
BRANCH  33  34
ATOM     34  N   UNL A   1      32.718  33.873  27.677  1.00  0.00    -0.352 N 
ATOM     35  C   UNL A   1      33.296  34.271  28.858  1.00  0.00     0.251 C 
ATOM     36  H   UNL A   1      31.973  34.437  27.366  1.00  0.00     0.163 HD
ATOM     37  O   UNL A   1      32.783  35.186  29.498  1.00  0.00    -0.269 OA
BRANCH  35  38
ATOM     38  C   UNL A   1      34.514  33.602  29.377  1.00  0.00     0.039 A 
ATOM     39  C   UNL A   1      34.368  32.619  30.360  1.00  0.00     0.014 A 
ATOM     40  C   UNL A   1      35.794  33.967  28.949  1.00  0.00     0.014 A 
ATOM     41  C   UNL A   1      35.497  31.985  30.890  1.00  0.00     0.010 A 
ATOM     42  C   UNL A   1      36.913  33.280  29.422  1.00  0.00     0.010 A 
ATOM     43  C   UNL A   1      36.779  32.301  30.416  1.00  0.00    -0.014 A 
BRANCH  43  44
ATOM     44  C   UNL A   1      37.988  31.645  30.982  1.00  0.00     0.031 A 
ATOM     45  C   UNL A   1      38.410  31.928  32.402  1.00  0.00     0.074 A 
ATOM     46  C   UNL A   1      38.741  30.838  30.207  1.00  0.00     0.049 A 
ATOM     47  N   UNL A   1      39.439  31.468  33.065  1.00  0.00    -0.248 NA
ATOM     48  C   UNL A   1      37.580  32.871  33.170  1.00  0.00     0.031 C 
ATOM     49  C   UNL A   1      38.487  30.543  28.796  1.00  0.00     0.029 A 
ATOM     50  N   UNL A   1      39.884  30.133  30.493  1.00  0.00    -0.354 N 
ATOM     51  C   UNL A   1      39.403  32.090  34.308  1.00  0.00     0.074 A 
ATOM     52  C   UNL A   1      38.271  32.991  34.294  1.00  0.00     0.031 C 
ATOM     53  C   UNL A   1      39.440  29.713  28.342  1.00  0.00     0.029 A 
ATOM     54  C   UNL A   1      40.384  29.432  29.420  1.00  0.00     0.049 A 
ATOM     55  H   UNL A   1      40.306  30.129  31.382  1.00  0.00     0.167 HD
ATOM     56  C   UNL A   1      40.213  31.907  35.377  1.00  0.00     0.034 A 
ATOM     57  C   UNL A   1      41.476  28.649  29.317  1.00  0.00     0.034 A 
ATOM     58  C   UNL A   1      41.307  30.974  35.407  1.00  0.00     0.049 A 
ATOM     59  C   UNL A   1      42.323  28.412  30.539  1.00  0.00     0.074 A 
ATOM     60  C   UNL A   1      42.141  30.657  36.465  1.00  0.00     0.029 A 
ATOM     61  N   UNL A   1      41.719  30.204  34.330  1.00  0.00    -0.354 N 
ATOM     62  N   UNL A   1      42.182  28.897  31.749  1.00  0.00    -0.248 NA
ATOM     63  C   UNL A   1      43.453  27.482  30.394  1.00  0.00     0.031 C 
ATOM     64  C   UNL A   1      43.067  29.707  36.023  1.00  0.00     0.029 A 
ATOM     65  C   UNL A   1      42.792  29.411  34.697  1.00  0.00     0.049 A 
ATOM     66  H   UNL A   1      41.308  30.220  33.435  1.00  0.00     0.167 HD
ATOM     67  C   UNL A   1      43.171  28.295  32.518  1.00  0.00     0.074 A 
ATOM     68  C   UNL A   1      43.895  27.398  31.640  1.00  0.00     0.031 C 
ATOM     69  C   UNL A   1      43.462  28.477  33.830  1.00  0.00     0.034 A 
BRANCH  56  70
ATOM     70  C   UNL A   1      39.912  32.694  36.628  1.00  0.00     0.023 A 
ATOM     71  C   UNL A   1      40.616  33.889  36.884  1.00  0.00     0.012 A 
ATOM     72  C   UNL A   1      38.901  32.286  37.518  1.00  0.00     0.148 A 
ATOM     73  C   UNL A   1      40.346  34.644  38.025  1.00  0.00     0.002 A 
ATOM     74  C   UNL A   1      38.604  33.069  38.630  1.00  0.00     0.091 A 
ATOM     75  F   UNL A   1      38.255  31.137  37.271  1.00  0.00    -0.205 F 
ATOM     76  C   UNL A   1      39.334  34.240  38.891  1.00  0.00     0.022 A 
BRANCH  74  77
ATOM     77  S   UNL A   1      37.266  32.677  39.762  1.00  0.00     0.127 S 
ATOM     78  O   UNL A   1      37.325  33.805  40.690  1.00  0.00    -0.237 OA
ATOM     79  O   UNL A   1      36.103  32.675  38.875  1.00  0.00    -0.237 OA
ATOM     80  O   UNL A   1      37.594  31.379  40.337  1.00  0.00    -0.744 OA
ENDBRANCH  74  77
ENDBRANCH  56  70
BRANCH  57  81
ATOM     81  C   UNL A   1      41.783  27.964  28.029  1.00  0.00     0.023 A 
ATOM     82  C   UNL A   1      42.265  28.717  26.941  1.00  0.00     0.012 A 
ATOM     83  C   UNL A   1      41.623  26.573  27.883  1.00  0.00     0.148 A 
ATOM     84  C   UNL A   1      42.545  28.107  25.720  1.00  0.00     0.002 A 
ATOM     85  C   UNL A   1      41.956  25.961  26.680  1.00  0.00     0.091 A 
ATOM     86  F   UNL A   1      41.152  25.873  28.926  1.00  0.00    -0.205 F 
ATOM     87  C   UNL A   1      42.400  26.727  25.591  1.00  0.00     0.022 A 
BRANCH  85  88
ATOM     88  S   UNL A   1      41.926  24.178  26.468  1.00  0.00     0.127 S 
ATOM     89  O   UNL A   1      42.717  23.728  27.610  1.00  0.00    -0.237 OA
ATOM     90  O   UNL A   1      40.495  23.885  26.555  1.00  0.00    -0.237 OA
ATOM     91  O   UNL A   1      42.508  23.929  25.155  1.00  0.00    -0.744 OA
ENDBRANCH  85  88
ENDBRANCH  57  81
BRANCH  69  92
ATOM     92  C   UNL A   1      44.573  27.648  34.422  1.00  0.00     0.023 A 
ATOM     93  C   UNL A   1      45.896  28.133  34.413  1.00  0.00     0.012 A 
ATOM     94  C   UNL A   1      44.291  26.417  35.046  1.00  0.00     0.148 A 
ATOM     95  C   UNL A   1      46.927  27.385  34.982  1.00  0.00     0.002 A 
ATOM     96  C   UNL A   1      45.315  25.702  35.655  1.00  0.00     0.091 A 
ATOM     97  F   UNL A   1      43.029  25.963  35.025  1.00  0.00    -0.205 F 
ATOM     98  C   UNL A   1      46.636  26.177  35.612  1.00  0.00     0.022 A 
BRANCH  96  99
ATOM     99  S   UNL A   1      45.009  24.189  36.574  1.00  0.00     0.127 S 
ATOM    100  O   UNL A   1      46.368  23.703  36.808  1.00  0.00    -0.237 OA
ATOM    101  O   UNL A   1      44.323  24.682  37.768  1.00  0.00    -0.237 OA
ATOM    102  O   UNL A   1      44.184  23.358  35.707  1.00  0.00    -0.744 OA
ENDBRANCH  96  99
ENDBRANCH  69  92
ENDBRANCH  43  44
ENDBRANCH  35  38
ENDBRANCH  33  34
ENDBRANCH  32  33
ENDBRANCH  31  32
ENDBRANCH   1  31
TORSDOF 20
ENDMDL
