MODEL 1
REMARK VINA RESULT:     -11.2      0.000      0.000
REMARK SMILES COc1ccccc1OC1CCN(c2cccc(C(=O)NCCCCCCNC(=O)c3ccc(-c4c5nc(c(-c6cccc(S(=O)(=O)[O-])c6F)c6ccc([nH]6)c(-c6cccc(S(=O)(=O)[O-])c6F)c6nc(c(-c7cccc(S(=O)(=O)[O-])c7F)c7ccc4[nH]7)C=C6)C=C5)cc3)n2)CC1
REMARK SMILES IDX 24 1 23 2 22 3 21 4 19 5 20 6 18 8 14 9 15 10 94 11 16 12
REMARK SMILES IDX 17 13 13 14 10 15 11 16 96 17 12 18 95 19 9 20 8 21 3 22
REMARK SMILES IDX 4 23 5 24 7 25 6 26 2 27 1 28 25 29 26 30 27 31 28 32 29 33
REMARK SMILES IDX 30 35 31 36 32 37 93 38 33 39 92 40 34 41 35 42 36 43 86 44
REMARK SMILES IDX 37 45 91 46 85 47 87 48 38 49 90 50 84 51 83 52 39 54 71 55
REMARK SMILES IDX 51 56 70 57 52 58 55 59 69 60 88 61 53 62 54 63 68 65 89 66
REMARK SMILES IDX 56 67 40 68 41 69 49 70 42 71 44 72 50 73 43 74 45 75 46 76
REMARK SMILES IDX 47 77 48 78 72 79 73 80 81 81 74 82 76 83 82 84 75 85 77 86
REMARK SMILES IDX 78 87 79 88 80 89 57 90 58 91 66 92 59 93 61 94 67 95 60 96
REMARK SMILES IDX 62 97 63 98 64 99 65 100
REMARK H PARENT 21 7 28 34 87 53 55 64
REMARK Flexibility Score: inf
ROOT
ATOM      1  C   UNL A   1      35.520  35.322  33.429  1.00  0.00     0.002 C 
ENDROOT
BRANCH   1   2
ATOM      2  C   UNL A   1      34.142  35.756  32.933  1.00  0.00     0.021 C 
BRANCH   2   3
ATOM      3  C   UNL A   1      33.446  34.776  32.001  1.00  0.00     0.116 C 
BRANCH   3   4
ATOM      4  N   UNL A   1      32.881  35.419  30.837  1.00  0.00    -0.351 N 
ATOM      5  C   UNL A   1      33.125  35.252  29.494  1.00  0.00     0.269 C 
ATOM      6  O   UNL A   1      32.539  36.026  28.730  1.00  0.00    -0.268 OA
ATOM      7  H   UNL A   1      32.201  36.099  31.043  1.00  0.00     0.163 HD
BRANCH   5   8
ATOM      8  C   UNL A   1      34.049  34.200  28.937  1.00  0.00     0.130 A 
ATOM      9  C   UNL A   1      34.099  32.130  27.898  1.00  0.00     0.129 A 
ATOM     10  C   UNL A   1      35.482  32.084  27.980  1.00  0.00     0.047 A 
ATOM     11  N   UNL A   1      33.396  33.203  28.293  1.00  0.00    -0.226 NA
ATOM     12  C   UNL A   1      36.158  33.121  28.600  1.00  0.00     0.006 A 
ATOM     13  C   UNL A   1      35.421  34.157  29.158  1.00  0.00     0.034 A 
BRANCH   9  14
ATOM     14  N   UNL A   1      33.396  30.991  27.570  1.00  0.00    -0.356 N 
ATOM     15  C   UNL A   1      32.219  28.193  25.294  1.00  0.00     0.177 C 
ATOM     16  C   UNL A   1      33.836  27.998  26.357  1.00  0.00     0.066 C 
ATOM     17  C   UNL A   1      31.407  29.959  25.206  1.00  0.00     0.066 C 
ATOM     18  C   UNL A   1      34.287  29.383  27.648  1.00  0.00     0.122 C 
ATOM     19  C   UNL A   1      31.897  31.285  26.537  1.00  0.00     0.122 C 
BRANCH  15  20
ATOM     20  O   UNL A   1      31.221  27.333  25.920  1.00  0.00    -0.486 OA
BRANCH  20  21
ATOM     21  C   UNL A   1      31.308  26.079  25.347  1.00  0.00     0.161 A 
ATOM     22  C   UNL A   1      30.605  25.806  24.162  1.00  0.00     0.160 A 
ATOM     23  C   UNL A   1      30.701  24.545  23.582  1.00  0.00     0.050 A 
ATOM     24  C   UNL A   1      31.517  23.575  24.168  1.00  0.00     0.004 A 
ATOM     25  C   UNL A   1      32.112  25.116  25.941  1.00  0.00     0.050 A 
ATOM     26  C   UNL A   1      32.222  23.860  25.341  1.00  0.00     0.004 A 
BRANCH  22  27
ATOM     27  O   UNL A   1      29.927  26.924  23.716  1.00  0.00    -0.493 OA
ATOM     28  C   UNL A   1      28.909  28.356  23.133  1.00  0.00     0.278 C 
ENDBRANCH  22  27
ENDBRANCH  20  21
ENDBRANCH  15  20
ENDBRANCH   9  14
ENDBRANCH   5   8
ENDBRANCH   3   4
ENDBRANCH   2   3
ENDBRANCH   1   2
BRANCH   1  29
ATOM     29  C   UNL A   1      35.529  34.171  34.442  1.00  0.00     0.002 C 
BRANCH  29  30
ATOM     30  C   UNL A   1      36.564  33.070  34.191  1.00  0.00     0.021 C 
BRANCH  30  31
ATOM     31  C   UNL A   1      36.493  32.425  32.812  1.00  0.00     0.116 C 
BRANCH  31  32
ATOM     32  N   UNL A   1      36.483  30.975  32.895  1.00  0.00    -0.352 N 
ATOM     33  C   UNL A   1      37.321  30.068  32.298  1.00  0.00     0.251 C 
ATOM     34  H   UNL A   1      35.775  30.589  33.459  1.00  0.00     0.163 HD
ATOM     35  O   UNL A   1      37.028  28.875  32.288  1.00  0.00    -0.269 OA
BRANCH  33  36
ATOM     36  C   UNL A   1      38.569  30.534  31.661  1.00  0.00     0.039 A 
ATOM     37  C   UNL A   1      38.625  30.629  30.268  1.00  0.00     0.014 A 
ATOM     38  C   UNL A   1      39.684  30.869  32.434  1.00  0.00     0.014 A 
ATOM     39  C   UNL A   1      39.785  31.106  29.655  1.00  0.00     0.010 A 
ATOM     40  C   UNL A   1      40.809  31.418  31.827  1.00  0.00     0.010 A 
ATOM     41  C   UNL A   1      40.876  31.533  30.431  1.00  0.00    -0.014 A 
BRANCH  41  42
ATOM     42  C   UNL A   1      42.091  32.106  29.800  1.00  0.00     0.031 A 
ATOM     43  C   UNL A   1      43.266  31.224  29.475  1.00  0.00     0.074 A 
ATOM     44  C   UNL A   1      42.165  33.435  29.590  1.00  0.00     0.049 A 
ATOM     45  N   UNL A   1      44.427  31.551  28.972  1.00  0.00    -0.248 NA
ATOM     46  C   UNL A   1      43.129  29.789  29.778  1.00  0.00     0.031 C 
ATOM     47  C   UNL A   1      41.119  34.404  29.928  1.00  0.00     0.029 A 
ATOM     48  N   UNL A   1      43.172  34.205  29.065  1.00  0.00    -0.354 N 
ATOM     49  C   UNL A   1      45.168  30.376  28.927  1.00  0.00     0.074 A 
ATOM     50  C   UNL A   1      44.339  29.334  29.490  1.00  0.00     0.031 C 
ATOM     51  C   UNL A   1      41.536  35.636  29.594  1.00  0.00     0.029 A 
ATOM     52  C   UNL A   1      42.888  35.551  29.054  1.00  0.00     0.049 A 
ATOM     53  H   UNL A   1      44.017  33.830  28.727  1.00  0.00     0.167 HD
ATOM     54  C   UNL A   1      46.413  30.177  28.435  1.00  0.00     0.034 A 
ATOM     55  C   UNL A   1      43.639  36.601  28.666  1.00  0.00     0.034 A 
ATOM     56  C   UNL A   1      47.222  31.211  27.849  1.00  0.00     0.049 A 
ATOM     57  C   UNL A   1      45.013  36.349  28.109  1.00  0.00     0.074 A 
ATOM     58  C   UNL A   1      48.466  31.097  27.255  1.00  0.00     0.029 A 
ATOM     59  N   UNL A   1      46.876  32.552  27.797  1.00  0.00    -0.354 N 
ATOM     60  N   UNL A   1      45.639  35.210  27.941  1.00  0.00    -0.248 NA
ATOM     61  C   UNL A   1      45.772  37.524  27.658  1.00  0.00     0.031 C 
ATOM     62  C   UNL A   1      48.887  32.375  26.875  1.00  0.00     0.029 A 
ATOM     63  C   UNL A   1      47.887  33.279  27.193  1.00  0.00     0.049 A 
ATOM     64  H   UNL A   1      46.034  32.932  28.138  1.00  0.00     0.167 HD
ATOM     65  C   UNL A   1      46.847  35.526  27.330  1.00  0.00     0.074 A 
ATOM     66  C   UNL A   1      46.856  36.962  27.140  1.00  0.00     0.031 C 
ATOM     67  C   UNL A   1      47.863  34.702  26.968  1.00  0.00     0.034 A 
BRANCH  54  68
ATOM     68  C   UNL A   1      46.964  28.774  28.471  1.00  0.00     0.023 A 
ATOM     69  C   UNL A   1      47.673  28.331  29.607  1.00  0.00     0.012 A 
ATOM     70  C   UNL A   1      46.733  27.876  27.410  1.00  0.00     0.148 A 
ATOM     71  C   UNL A   1      48.178  27.032  29.670  1.00  0.00     0.002 A 
ATOM     72  C   UNL A   1      47.195  26.568  27.502  1.00  0.00     0.091 A 
ATOM     73  F   UNL A   1      46.073  28.318  26.331  1.00  0.00    -0.205 F 
ATOM     74  C   UNL A   1      47.929  26.148  28.623  1.00  0.00     0.022 A 
BRANCH  72  75
ATOM     75  S   UNL A   1      46.858  25.330  26.245  1.00  0.00     0.127 S 
ATOM     76  O   UNL A   1      47.726  25.774  25.154  1.00  0.00    -0.237 OA
ATOM     77  O   UNL A   1      47.290  24.098  26.905  1.00  0.00    -0.237 OA
ATOM     78  O   UNL A   1      45.430  25.407  25.976  1.00  0.00    -0.744 OA
ENDBRANCH  72  75
ENDBRANCH  54  68
BRANCH  55  79
ATOM     79  C   UNL A   1      43.082  37.982  28.740  1.00  0.00     0.023 A 
ATOM     80  C   UNL A   1      42.223  38.439  27.722  1.00  0.00     0.012 A 
ATOM     81  C   UNL A   1      43.383  38.834  29.820  1.00  0.00     0.148 A 
ATOM     82  C   UNL A   1      41.699  39.731  27.761  1.00  0.00     0.002 A 
ATOM     83  C   UNL A   1      42.812  40.099  29.882  1.00  0.00     0.091 A 
ATOM     84  F   UNL A   1      44.208  38.382  30.774  1.00  0.00    -0.205 F 
ATOM     85  C   UNL A   1      41.986  40.558  28.844  1.00  0.00     0.022 A 
BRANCH  83  86
ATOM     86  S   UNL A   1      43.020  41.182  31.300  1.00  0.00     0.127 S 
ATOM     87  O   UNL A   1      44.436  41.525  31.211  1.00  0.00    -0.237 OA
ATOM     88  O   UNL A   1      42.098  42.274  30.982  1.00  0.00    -0.237 OA
ATOM     89  O   UNL A   1      42.635  40.391  32.461  1.00  0.00    -0.744 OA
ENDBRANCH  83  86
ENDBRANCH  55  79
BRANCH  67  90
ATOM     90  C   UNL A   1      49.056  35.321  26.287  1.00  0.00     0.023 A 
ATOM     91  C   UNL A   1      49.038  35.550  24.897  1.00  0.00     0.012 A 
ATOM     92  C   UNL A   1      50.167  35.745  27.043  1.00  0.00     0.148 A 
ATOM     93  C   UNL A   1      50.121  36.157  24.264  1.00  0.00     0.002 A 
ATOM     94  C   UNL A   1      51.220  36.399  26.413  1.00  0.00     0.091 A 
ATOM     95  F   UNL A   1      50.173  35.504  28.361  1.00  0.00    -0.205 F 
ATOM     96  C   UNL A   1      51.205  36.593  25.024  1.00  0.00     0.022 A 
BRANCH  94  97
ATOM     97  S   UNL A   1      52.610  37.084  27.322  1.00  0.00     0.127 S 
ATOM     98  O   UNL A   1      53.481  35.917  27.455  1.00  0.00    -0.237 OA
ATOM     99  O   UNL A   1      53.103  38.110  26.402  1.00  0.00    -0.237 OA
ATOM    100  O   UNL A   1      52.064  37.599  28.569  1.00  0.00    -0.744 OA
ENDBRANCH  94  97
ENDBRANCH  67  90
ENDBRANCH  41  42
ENDBRANCH  33  36
ENDBRANCH  31  32
ENDBRANCH  30  31
ENDBRANCH  29  30
ENDBRANCH   1  29
TORSDOF 20
ENDMDL
MODEL 2
REMARK VINA RESULT:     -10.9      0.487      7.504
REMARK SMILES COc1ccccc1OC1CCN(c2cccc(C(=O)NCCCCCCNC(=O)c3ccc(-c4c5nc(c(-c6cccc(S(=O)(=O)[O-])c6F)c6ccc([nH]6)c(-c6cccc(S(=O)(=O)[O-])c6F)c6nc(c(-c7cccc(S(=O)(=O)[O-])c7F)c7ccc4[nH]7)C=C6)C=C5)cc3)n2)CC1
REMARK SMILES IDX 24 1 23 2 22 3 21 4 19 5 20 6 18 8 14 9 15 10 94 11 16 12
REMARK SMILES IDX 17 13 13 14 10 15 11 16 96 17 12 18 95 19 9 20 8 21 3 22
REMARK SMILES IDX 4 23 5 24 7 25 6 26 2 27 1 28 25 29 26 30 27 31 28 32 29 33
REMARK SMILES IDX 30 35 31 36 32 37 93 38 33 39 92 40 34 41 35 42 36 43 86 44
REMARK SMILES IDX 37 45 91 46 85 47 87 48 38 49 90 50 84 51 83 52 39 54 71 55
REMARK SMILES IDX 51 56 70 57 52 58 55 59 69 60 88 61 53 62 54 63 68 65 89 66
REMARK SMILES IDX 56 67 40 68 41 69 49 70 42 71 44 72 50 73 43 74 45 75 46 76
REMARK SMILES IDX 47 77 48 78 72 79 73 80 81 81 74 82 76 83 82 84 75 85 77 86
REMARK SMILES IDX 78 87 79 88 80 89 57 90 58 91 66 92 59 93 61 94 67 95 60 96
REMARK SMILES IDX 62 97 63 98 64 99 65 100
REMARK H PARENT 21 7 28 34 87 53 55 64
REMARK Flexibility Score: inf
ROOT
ATOM      1  C   UNL A   1      35.700  35.243  33.390  1.00  0.00     0.002 C 
ENDROOT
BRANCH   1   2
ATOM      2  C   UNL A   1      34.368  35.759  32.846  1.00  0.00     0.021 C 
BRANCH   2   3
ATOM      3  C   UNL A   1      33.571  34.761  32.020  1.00  0.00     0.116 C 
BRANCH   3   4
ATOM      4  N   UNL A   1      32.954  35.364  30.860  1.00  0.00    -0.351 N 
ATOM      5  C   UNL A   1      33.151  35.164  29.514  1.00  0.00     0.269 C 
ATOM      6  O   UNL A   1      32.525  35.907  28.752  1.00  0.00    -0.268 OA
ATOM      7  H   UNL A   1      32.271  36.039  31.073  1.00  0.00     0.163 HD
BRANCH   5   8
ATOM      8  C   UNL A   1      34.070  34.110  28.952  1.00  0.00     0.130 A 
ATOM      9  C   UNL A   1      34.110  32.051  27.892  1.00  0.00     0.129 A 
ATOM     10  C   UNL A   1      35.494  31.993  27.981  1.00  0.00     0.047 A 
ATOM     11  N   UNL A   1      33.413  33.125  28.293  1.00  0.00    -0.226 NA
ATOM     12  C   UNL A   1      36.173  33.019  28.616  1.00  0.00     0.006 A 
ATOM     13  C   UNL A   1      35.440  34.055  29.181  1.00  0.00     0.034 A 
BRANCH   9  14
ATOM     14  N   UNL A   1      33.401  30.920  27.548  1.00  0.00    -0.356 N 
ATOM     15  C   UNL A   1      32.239  28.140  25.243  1.00  0.00     0.177 C 
ATOM     16  C   UNL A   1      33.831  27.924  26.340  1.00  0.00     0.066 C 
ATOM     17  C   UNL A   1      31.450  29.915  25.141  1.00  0.00     0.066 C 
ATOM     18  C   UNL A   1      34.272  29.302  27.642  1.00  0.00     0.122 C 
ATOM     19  C   UNL A   1      31.928  31.233  26.484  1.00  0.00     0.122 C 
BRANCH  15  20
ATOM     20  O   UNL A   1      31.218  27.290  25.848  1.00  0.00    -0.486 OA
BRANCH  20  21
ATOM     21  C   UNL A   1      31.297  26.038  25.269  1.00  0.00     0.161 A 
ATOM     22  C   UNL A   1      30.568  25.765  24.101  1.00  0.00     0.160 A 
ATOM     23  C   UNL A   1      30.656  24.506  23.515  1.00  0.00     0.050 A 
ATOM     24  C   UNL A   1      31.490  23.538  24.080  1.00  0.00     0.004 A 
ATOM     25  C   UNL A   1      32.120  25.077  25.842  1.00  0.00     0.050 A 
ATOM     26  C   UNL A   1      32.220  23.824  25.237  1.00  0.00     0.004 A 
BRANCH  22  27
ATOM     27  O   UNL A   1      29.874  26.881  23.673  1.00  0.00    -0.493 OA
ATOM     28  C   UNL A   1      28.863  28.355  23.195  1.00  0.00     0.278 C 
ENDBRANCH  22  27
ENDBRANCH  20  21
ENDBRANCH  15  20
ENDBRANCH   9  14
ENDBRANCH   5   8
ENDBRANCH   3   4
ENDBRANCH   2   3
ENDBRANCH   1   2
BRANCH   1  29
ATOM     29  C   UNL A   1      35.602  34.134  34.443  1.00  0.00     0.002 C 
BRANCH  29  30
ATOM     30  C   UNL A   1      36.490  32.909  34.206  1.00  0.00     0.021 C 
BRANCH  30  31
ATOM     31  C   UNL A   1      36.350  32.270  32.830  1.00  0.00     0.116 C 
BRANCH  31  32
ATOM     32  N   UNL A   1      36.512  30.828  32.886  1.00  0.00    -0.352 N 
ATOM     33  C   UNL A   1      37.467  30.041  32.293  1.00  0.00     0.251 C 
ATOM     34  H   UNL A   1      35.843  30.347  33.424  1.00  0.00     0.163 HD
ATOM     35  O   UNL A   1      37.320  28.823  32.253  1.00  0.00    -0.269 OA
BRANCH  33  36
ATOM     36  C   UNL A   1      38.665  30.668  31.697  1.00  0.00     0.039 A 
ATOM     37  C   UNL A   1      39.737  31.006  32.527  1.00  0.00     0.014 A 
ATOM     38  C   UNL A   1      38.727  30.929  30.325  1.00  0.00     0.014 A 
ATOM     39  C   UNL A   1      40.890  31.562  31.972  1.00  0.00     0.010 A 
ATOM     40  C   UNL A   1      39.906  31.409  29.764  1.00  0.00     0.010 A 
ATOM     41  C   UNL A   1      40.996  31.740  30.582  1.00  0.00    -0.014 A 
BRANCH  41  42
ATOM     42  C   UNL A   1      42.241  32.266  29.966  1.00  0.00     0.031 A 
ATOM     43  C   UNL A   1      42.402  33.743  29.724  1.00  0.00     0.074 A 
ATOM     44  C   UNL A   1      43.194  31.406  29.557  1.00  0.00     0.049 A 
ATOM     45  N   UNL A   1      43.390  34.380  29.153  1.00  0.00    -0.248 NA
ATOM     46  C   UNL A   1      41.297  34.615  30.154  1.00  0.00     0.031 C 
ATOM     47  C   UNL A   1      43.122  29.947  29.675  1.00  0.00     0.029 A 
ATOM     48  N   UNL A   1      44.398  31.629  28.940  1.00  0.00    -0.354 N 
ATOM     49  C   UNL A   1      43.017  35.718  29.127  1.00  0.00     0.074 A 
ATOM     50  C   UNL A   1      41.693  35.797  29.704  1.00  0.00     0.031 C 
ATOM     51  C   UNL A   1      44.236  29.409  29.154  1.00  0.00     0.029 A 
ATOM     52  C   UNL A   1      45.083  30.477  28.634  1.00  0.00     0.049 A 
ATOM     53  H   UNL A   1      44.740  32.529  28.735  1.00  0.00     0.167 HD
ATOM     54  C   UNL A   1      43.721  36.788  28.690  1.00  0.00     0.034 A 
ATOM     55  C   UNL A   1      46.256  30.298  27.994  1.00  0.00     0.034 A 
ATOM     56  C   UNL A   1      45.049  36.707  28.144  1.00  0.00     0.049 A 
ATOM     57  C   UNL A   1      47.025  31.505  27.532  1.00  0.00     0.074 A 
ATOM     58  C   UNL A   1      45.878  37.740  27.743  1.00  0.00     0.029 A 
ATOM     59  N   UNL A   1      45.738  35.528  27.909  1.00  0.00    -0.354 N 
ATOM     60  N   UNL A   1      46.718  32.774  27.648  1.00  0.00    -0.248 NA
ATOM     61  C   UNL A   1      48.319  31.257  26.880  1.00  0.00     0.031 C 
ATOM     62  C   UNL A   1      47.054  37.182  27.231  1.00  0.00     0.029 A 
ATOM     63  C   UNL A   1      46.976  35.805  27.355  1.00  0.00     0.049 A 
ATOM     64  H   UNL A   1      45.398  34.626  28.107  1.00  0.00     0.167 HD
ATOM     65  C   UNL A   1      47.795  33.476  27.121  1.00  0.00     0.074 A 
ATOM     66  C   UNL A   1      48.772  32.492  26.702  1.00  0.00     0.031 C 
ATOM     67  C   UNL A   1      47.958  34.817  26.986  1.00  0.00     0.034 A 
BRANCH  54  68
ATOM     68  C   UNL A   1      43.085  38.148  28.823  1.00  0.00     0.023 A 
ATOM     69  C   UNL A   1      42.144  38.576  27.863  1.00  0.00     0.012 A 
ATOM     70  C   UNL A   1      43.373  38.979  29.923  1.00  0.00     0.148 A 
ATOM     71  C   UNL A   1      41.530  39.823  27.974  1.00  0.00     0.002 A 
ATOM     72  C   UNL A   1      42.720  40.199  30.054  1.00  0.00     0.091 A 
ATOM     73  F   UNL A   1      44.282  38.565  30.817  1.00  0.00    -0.205 F 
ATOM     74  C   UNL A   1      41.809  40.629  29.075  1.00  0.00     0.022 A 
BRANCH  72  75
ATOM     75  S   UNL A   1      42.947  41.274  31.476  1.00  0.00     0.127 S 
ATOM     76  O   UNL A   1      41.930  42.298  31.234  1.00  0.00    -0.237 OA
ATOM     77  O   UNL A   1      42.652  40.374  32.590  1.00  0.00    -0.237 OA
ATOM     78  O   UNL A   1      44.325  41.738  31.414  1.00  0.00    -0.744 OA
ENDBRANCH  72  75
ENDBRANCH  54  68
BRANCH  55  79
ATOM     79  C   UNL A   1      46.798  28.923  27.801  1.00  0.00     0.023 A 
ATOM     80  C   UNL A   1      47.419  28.265  28.881  1.00  0.00     0.012 A 
ATOM     81  C   UNL A   1      46.682  28.257  26.566  1.00  0.00     0.148 A 
ATOM     82  C   UNL A   1      47.946  26.983  28.724  1.00  0.00     0.002 A 
ATOM     83  C   UNL A   1      47.158  26.959  26.432  1.00  0.00     0.091 A 
ATOM     84  F   UNL A   1      46.093  28.904  25.550  1.00  0.00    -0.205 F 
ATOM     85  C   UNL A   1      47.808  26.327  27.503  1.00  0.00     0.022 A 
BRANCH  83  86
ATOM     86  S   UNL A   1      46.907  25.990  24.941  1.00  0.00     0.127 S 
ATOM     87  O   UNL A   1      46.821  27.029  23.919  1.00  0.00    -0.237 OA
ATOM     88  O   UNL A   1      48.128  25.183  24.899  1.00  0.00    -0.237 OA
ATOM     89  O   UNL A   1      45.689  25.224  25.166  1.00  0.00    -0.744 OA
ENDBRANCH  83  86
ENDBRANCH  55  79
BRANCH  67  90
ATOM     90  C   UNL A   1      49.256  35.308  26.401  1.00  0.00     0.023 A 
ATOM     91  C   UNL A   1      49.405  35.424  25.005  1.00  0.00     0.012 A 
ATOM     92  C   UNL A   1      50.305  35.726  27.245  1.00  0.00     0.148 A 
ATOM     93  C   UNL A   1      50.588  35.914  24.456  1.00  0.00     0.002 A 
ATOM     94  C   UNL A   1      51.461  36.264  26.692  1.00  0.00     0.091 A 
ATOM     95  F   UNL A   1      50.151  35.592  28.569  1.00  0.00    -0.205 F 
ATOM     96  C   UNL A   1      51.611  36.346  25.299  1.00  0.00     0.022 A 
BRANCH  94  97
ATOM     97  S   UNL A   1      52.788  36.937  27.699  1.00  0.00     0.127 S 
ATOM     98  O   UNL A   1      52.130  38.080  28.332  1.00  0.00    -0.237 OA
ATOM     99  O   UNL A   1      53.081  35.826  28.605  1.00  0.00    -0.237 OA
ATOM    100  O   UNL A   1      53.866  37.270  26.779  1.00  0.00    -0.744 OA
ENDBRANCH  94  97
ENDBRANCH  67  90
ENDBRANCH  41  42
ENDBRANCH  33  36
ENDBRANCH  31  32
ENDBRANCH  30  31
ENDBRANCH  29  30
ENDBRANCH   1  29
TORSDOF 20
ENDMDL
MODEL 3
REMARK VINA RESULT:     -10.8      4.551      7.518
REMARK SMILES COc1ccccc1OC1CCN(c2cccc(C(=O)NCCCCCCNC(=O)c3ccc(-c4c5nc(c(-c6cccc(S(=O)(=O)[O-])c6F)c6ccc([nH]6)c(-c6cccc(S(=O)(=O)[O-])c6F)c6nc(c(-c7cccc(S(=O)(=O)[O-])c7F)c7ccc4[nH]7)C=C6)C=C5)cc3)n2)CC1
REMARK SMILES IDX 24 1 23 2 22 3 21 4 19 5 20 6 18 8 14 9 15 10 94 11 16 12
REMARK SMILES IDX 17 13 13 14 10 15 11 16 96 17 12 18 95 19 9 20 8 21 3 22
REMARK SMILES IDX 4 23 5 24 7 25 6 26 2 27 1 28 25 29 26 30 27 31 28 32 29 33
REMARK SMILES IDX 30 35 31 36 32 37 93 38 33 39 92 40 34 41 35 42 36 43 86 44
REMARK SMILES IDX 37 45 91 46 85 47 87 48 38 49 90 50 84 51 83 52 39 54 71 55
REMARK SMILES IDX 51 56 70 57 52 58 55 59 69 60 88 61 53 62 54 63 68 65 89 66
REMARK SMILES IDX 56 67 40 68 41 69 49 70 42 71 44 72 50 73 43 74 45 75 46 76
REMARK SMILES IDX 47 77 48 78 72 79 73 80 81 81 74 82 76 83 82 84 75 85 77 86
REMARK SMILES IDX 78 87 79 88 80 89 57 90 58 91 66 92 59 93 61 94 67 95 60 96
REMARK SMILES IDX 62 97 63 98 64 99 65 100
REMARK H PARENT 21 7 28 34 87 53 55 64
REMARK Flexibility Score: inf
ROOT
ATOM      1  C   UNL A   1      36.947  33.949  31.110  1.00  0.00     0.002 C 
ENDROOT
BRANCH   1   2
ATOM      2  C   UNL A   1      37.935  32.783  31.122  1.00  0.00     0.021 C 
BRANCH   2   3
ATOM      3  C   UNL A   1      38.533  32.421  29.772  1.00  0.00     0.116 C 
BRANCH   3   4
ATOM      4  N   UNL A   1      37.586  31.761  28.902  1.00  0.00    -0.351 N 
ATOM      5  C   UNL A   1      37.364  30.429  28.638  1.00  0.00     0.269 C 
ATOM      6  O   UNL A   1      36.530  30.175  27.764  1.00  0.00    -0.268 OA
ATOM      7  H   UNL A   1      36.995  32.374  28.410  1.00  0.00     0.163 HD
BRANCH   5   8
ATOM      8  C   UNL A   1      38.077  29.307  29.348  1.00  0.00     0.130 A 
ATOM      9  C   UNL A   1      39.527  27.529  29.030  1.00  0.00     0.129 A 
ATOM     10  C   UNL A   1      39.378  27.126  30.349  1.00  0.00     0.047 A 
ATOM     11  N   UNL A   1      38.955  28.646  28.555  1.00  0.00    -0.226 NA
ATOM     12  C   UNL A   1      38.514  27.825  31.175  1.00  0.00     0.006 A 
ATOM     13  C   UNL A   1      37.792  28.885  30.641  1.00  0.00     0.034 A 
BRANCH   9  14
ATOM     14  N   UNL A   1      40.128  26.684  28.122  1.00  0.00    -0.356 N 
ATOM     15  C   UNL A   1      42.336  23.800  27.025  1.00  0.00     0.177 C 
ATOM     16  C   UNL A   1      40.456  23.514  27.436  1.00  0.00     0.066 C 
ATOM     17  C   UNL A   1      43.105  25.527  27.483  1.00  0.00     0.066 C 
ATOM     18  C   UNL A   1      39.328  25.056  27.807  1.00  0.00     0.122 C 
ATOM     19  C   UNL A   1      41.916  27.023  27.826  1.00  0.00     0.122 C 
BRANCH  15  20
ATOM     20  O   UNL A   1      42.450  23.691  25.574  1.00  0.00    -0.486 OA
BRANCH  20  21
ATOM     21  C   UNL A   1      43.679  23.138  25.275  1.00  0.00     0.161 A 
ATOM     22  C   UNL A   1      43.846  21.745  25.329  1.00  0.00     0.160 A 
ATOM     23  C   UNL A   1      45.084  21.189  25.019  1.00  0.00     0.050 A 
ATOM     24  C   UNL A   1      46.137  22.020  24.629  1.00  0.00     0.004 A 
ATOM     25  C   UNL A   1      44.724  23.971  24.899  1.00  0.00     0.050 A 
ATOM     26  C   UNL A   1      45.956  23.405  24.567  1.00  0.00     0.004 A 
BRANCH  22  27
ATOM     27  O   UNL A   1      42.663  21.113  25.661  1.00  0.00    -0.493 OA
ATOM     28  C   UNL A   1      41.127  20.245  26.219  1.00  0.00     0.278 C 
ENDBRANCH  22  27
ENDBRANCH  20  21
ENDBRANCH  15  20
ENDBRANCH   9  14
ENDBRANCH   5   8
ENDBRANCH   3   4
ENDBRANCH   2   3
ENDBRANCH   1   2
BRANCH   1  29
ATOM     29  C   UNL A   1      36.609  34.548  32.479  1.00  0.00     0.002 C 
BRANCH  29  30
ATOM     30  C   UNL A   1      37.453  34.044  33.654  1.00  0.00     0.021 C 
BRANCH  30  31
ATOM     31  C   UNL A   1      36.790  32.969  34.506  1.00  0.00     0.116 C 
BRANCH  31  32
ATOM     32  N   UNL A   1      37.352  32.918  35.845  1.00  0.00    -0.352 N 
ATOM     33  C   UNL A   1      38.479  32.271  36.285  1.00  0.00     0.251 C 
ATOM     34  H   UNL A   1      36.855  33.416  36.531  1.00  0.00     0.163 HD
ATOM     35  O   UNL A   1      38.680  32.140  37.489  1.00  0.00    -0.269 OA
BRANCH  33  36
ATOM     36  C   UNL A   1      39.442  31.728  35.305  1.00  0.00     0.039 A 
ATOM     37  C   UNL A   1      38.994  30.806  34.355  1.00  0.00     0.014 A 
ATOM     38  C   UNL A   1      40.783  32.120  35.328  1.00  0.00     0.014 A 
ATOM     39  C   UNL A   1      39.884  30.315  33.399  1.00  0.00     0.010 A 
ATOM     40  C   UNL A   1      41.648  31.691  34.326  1.00  0.00     0.010 A 
ATOM     41  C   UNL A   1      41.211  30.776  33.357  1.00  0.00    -0.014 A 
BRANCH  41  42
ATOM     42  C   UNL A   1      42.152  30.317  32.306  1.00  0.00     0.031 A 
ATOM     43  C   UNL A   1      42.803  28.964  32.408  1.00  0.00     0.074 A 
ATOM     44  C   UNL A   1      42.479  31.150  31.298  1.00  0.00     0.049 A 
ATOM     45  N   UNL A   1      43.687  28.414  31.617  1.00  0.00    -0.248 NA
ATOM     46  C   UNL A   1      42.433  28.129  33.563  1.00  0.00     0.031 C 
ATOM     47  C   UNL A   1      41.968  32.513  31.128  1.00  0.00     0.029 A 
ATOM     48  N   UNL A   1      43.336  30.984  30.239  1.00  0.00    -0.354 N 
ATOM     49  C   UNL A   1      44.001  27.187  32.191  1.00  0.00     0.074 A 
ATOM     50  C   UNL A   1      43.243  27.091  33.419  1.00  0.00     0.031 C 
ATOM     51  C   UNL A   1      42.515  33.053  30.028  1.00  0.00     0.029 A 
ATOM     52  C   UNL A   1      43.440  32.094  29.435  1.00  0.00     0.049 A 
ATOM     53  H   UNL A   1      43.829  30.148  30.071  1.00  0.00     0.167 HD
ATOM     54  C   UNL A   1      44.823  26.218  31.726  1.00  0.00     0.034 A 
ATOM     55  C   UNL A   1      44.206  32.320  28.349  1.00  0.00     0.034 A 
ATOM     56  C   UNL A   1      45.553  26.307  30.490  1.00  0.00     0.049 A 
ATOM     57  C   UNL A   1      45.099  31.221  27.845  1.00  0.00     0.074 A 
ATOM     58  C   UNL A   1      46.353  25.350  29.893  1.00  0.00     0.029 A 
ATOM     59  N   UNL A   1      45.584  27.423  29.668  1.00  0.00    -0.354 N 
ATOM     60  N   UNL A   1      45.272  30.013  28.324  1.00  0.00    -0.248 NA
ATOM     61  C   UNL A   1      45.879  31.503  26.631  1.00  0.00     0.031 C 
ATOM     62  C   UNL A   1      46.897  25.900  28.728  1.00  0.00     0.029 A 
ATOM     63  C   UNL A   1      46.401  27.184  28.576  1.00  0.00     0.049 A 
ATOM     64  H   UNL A   1      45.097  28.262  29.836  1.00  0.00     0.167 HD
ATOM     65  C   UNL A   1      46.148  29.379  27.450  1.00  0.00     0.074 A 
ATOM     66  C   UNL A   1      46.455  30.330  26.402  1.00  0.00     0.031 C 
ATOM     67  C   UNL A   1      46.660  28.124  27.516  1.00  0.00     0.034 A 
BRANCH  54  68
ATOM     68  C   UNL A   1      44.947  24.954  32.539  1.00  0.00     0.023 A 
ATOM     69  C   UNL A   1      44.052  23.887  32.311  1.00  0.00     0.012 A 
ATOM     70  C   UNL A   1      45.978  24.798  33.485  1.00  0.00     0.148 A 
ATOM     71  C   UNL A   1      44.157  22.703  33.039  1.00  0.00     0.002 A 
ATOM     72  C   UNL A   1      46.108  23.596  34.170  1.00  0.00     0.091 A 
ATOM     73  F   UNL A   1      46.809  25.828  33.701  1.00  0.00    -0.205 F 
ATOM     74  C   UNL A   1      45.192  22.553  33.960  1.00  0.00     0.022 A 
BRANCH  72  75
ATOM     75  S   UNL A   1      47.453  23.272  35.316  1.00  0.00     0.127 S 
ATOM     76  O   UNL A   1      47.147  21.909  35.751  1.00  0.00    -0.237 OA
ATOM     77  O   UNL A   1      48.627  23.386  34.450  1.00  0.00    -0.237 OA
ATOM     78  O   UNL A   1      47.357  24.292  36.350  1.00  0.00    -0.744 OA
ENDBRANCH  72  75
ENDBRANCH  54  68
BRANCH  55  79
ATOM     79  C   UNL A   1      44.118  33.626  27.635  1.00  0.00     0.023 A 
ATOM     80  C   UNL A   1      43.343  33.725  26.464  1.00  0.00     0.012 A 
ATOM     81  C   UNL A   1      44.780  34.771  28.119  1.00  0.00     0.148 A 
ATOM     82  C   UNL A   1      43.254  34.931  25.769  1.00  0.00     0.002 A 
ATOM     83  C   UNL A   1      44.642  35.983  27.455  1.00  0.00     0.091 A 
ATOM     84  F   UNL A   1      45.518  34.653  29.232  1.00  0.00    -0.205 F 
ATOM     85  C   UNL A   1      43.896  36.062  26.269  1.00  0.00     0.022 A 
BRANCH  83  86
ATOM     86  S   UNL A   1      45.323  37.516  28.096  1.00  0.00     0.127 S 
ATOM     87  O   UNL A   1      44.872  38.484  27.100  1.00  0.00    -0.237 OA
ATOM     88  O   UNL A   1      44.661  37.617  29.398  1.00  0.00    -0.237 OA
ATOM     89  O   UNL A   1      46.763  37.311  28.169  1.00  0.00    -0.744 OA
ENDBRANCH  83  86
ENDBRANCH  55  79
BRANCH  67  90
ATOM     90  C   UNL A   1      47.574  27.683  26.401  1.00  0.00     0.023 A 
ATOM     91  C   UNL A   1      47.073  26.899  25.344  1.00  0.00     0.012 A 
ATOM     92  C   UNL A   1      48.916  28.114  26.367  1.00  0.00     0.148 A 
ATOM     93  C   UNL A   1      47.901  26.519  24.289  1.00  0.00     0.002 A 
ATOM     94  C   UNL A   1      49.720  27.777  25.286  1.00  0.00     0.091 A 
ATOM     95  F   UNL A   1      49.378  28.846  27.390  1.00  0.00    -0.205 F 
ATOM     96  C   UNL A   1      49.220  26.968  24.253  1.00  0.00     0.022 A 
BRANCH  94  97
ATOM     97  S   UNL A   1      51.398  28.392  25.104  1.00  0.00     0.127 S 
ATOM     98  O   UNL A   1      51.206  29.832  25.272  1.00  0.00    -0.237 OA
ATOM     99  O   UNL A   1      52.089  27.736  26.215  1.00  0.00    -0.237 OA
ATOM    100  O   UNL A   1      51.842  27.972  23.782  1.00  0.00    -0.744 OA
ENDBRANCH  94  97
ENDBRANCH  67  90
ENDBRANCH  41  42
ENDBRANCH  33  36
ENDBRANCH  31  32
ENDBRANCH  30  31
ENDBRANCH  29  30
ENDBRANCH   1  29
TORSDOF 20
ENDMDL
