MODEL 1
REMARK VINA RESULT:     -11.9      0.000      0.000
REMARK SMILES CC[C@@H]1C=CCN1S(=O)(=O)c1sc2c(c1C(=O)NCCCCCCNC(=O)c1ccc(-c3c4nc(c(-c5cccc(S(=O)(=O)[O-])c5F)c5ccc([nH]5)c(-c5cccc(S(=O)(=O)[O-])c5F)c5nc(c(-c6cccc(S(=O)(=O)[O-])c6F)c6ccc3[nH]6)C=C5)C=C4)cc1)CC[NH2+]C2
REMARK SMILES IDX 21 1 20 2 19 3 18 4 16 5 17 6 15 8 11 9 12 10 13 11 14 12
REMARK SMILES IDX 94 13 91 14 93 15 92 16 8 19 9 20 10 21 7 22 3 23 4 24 5 25
REMARK SMILES IDX 6 26 2 27 1 28 22 29 23 30 24 31 25 32 26 33 27 35 28 36
REMARK SMILES IDX 29 37 90 38 30 39 89 40 31 41 32 42 33 43 83 44 34 45 88 46
REMARK SMILES IDX 82 47 84 48 35 49 87 50 81 51 80 52 36 54 68 55 48 56 67 57
REMARK SMILES IDX 49 58 52 59 66 60 85 61 50 62 51 63 65 65 86 66 53 67 37 68
REMARK SMILES IDX 38 69 46 70 39 71 41 72 47 73 40 74 42 75 43 76 44 77 45 78
REMARK SMILES IDX 69 79 70 80 78 81 71 82 73 83 79 84 72 85 74 86 75 87 76 88
REMARK SMILES IDX 77 89 54 90 55 91 63 92 56 93 58 94 64 95 57 96 59 97 60 98
REMARK SMILES IDX 61 99 62 100
REMARK H PARENT 18 7 93 17 93 18 25 34 84 53 52 64
REMARK Flexibility Score: inf
ROOT
ATOM      1  C   UNL A   1      38.293  23.322  25.512  1.00  0.00     0.002 C 
ENDROOT
BRANCH   1   2
ATOM      2  C   UNL A   1      36.802  23.601  25.258  1.00  0.00     0.021 C 
BRANCH   2   3
ATOM      3  C   UNL A   1      36.025  22.685  24.319  1.00  0.00     0.116 C 
BRANCH   3   4
ATOM      4  N   UNL A   1      35.306  23.334  23.260  1.00  0.00    -0.352 N 
ATOM      5  C   UNL A   1      34.244  24.198  23.252  1.00  0.00     0.253 C 
ATOM      6  O   UNL A   1      34.029  24.668  22.126  1.00  0.00    -0.269 OA
ATOM      7  H   UNL A   1      35.644  23.117  22.362  1.00  0.00     0.163 HD
BRANCH   5   8
ATOM      8  C   UNL A   1      33.318  24.536  24.371  1.00  0.00     0.074 A 
ATOM      9  C   UNL A   1      32.610  23.752  25.310  1.00  0.00     0.148 A 
ATOM     10  S   UNL A   1      31.782  24.756  26.465  1.00  0.00    -0.120 S 
ATOM     11  C   UNL A   1      32.259  26.187  25.762  1.00  0.00     0.064 A 
ATOM     12  C   UNL A   1      33.105  25.983  24.696  1.00  0.00    -0.009 A 
ATOM     13  C   UNL A   1      31.834  27.506  26.333  1.00  0.00     0.308 C 
ATOM     14  C   UNL A   1      33.665  27.208  23.998  1.00  0.00     0.099 C 
ATOM     15  N   UNL A   1      32.087  28.609  25.390  1.00  0.00    -0.342 N 
ATOM     16  C   UNL A   1      33.448  28.493  24.839  1.00  0.00     0.265 C 
ATOM     17  H   UNL A   1      31.409  28.566  24.629  1.00  0.00     0.346 HD
ATOM     18  H   UNL A   1      31.997  29.498  25.881  1.00  0.00     0.346 HD
BRANCH   9  19
ATOM     19  S   UNL A   1      32.306  22.007  25.781  1.00  0.00     0.254 S 
ATOM     20  O   UNL A   1      30.869  21.828  25.752  1.00  0.00    -0.206 OA
ATOM     21  O   UNL A   1      32.989  21.800  27.039  1.00  0.00    -0.206 OA
BRANCH  19  22
ATOM     22  N   UNL A   1      33.004  21.017  24.583  1.00  0.00    -0.186 NA
ATOM     23  C   UNL A   1      33.180  19.557  24.888  1.00  0.00     0.096 C 
ATOM     24  C   UNL A   1      32.487  18.869  23.760  1.00  0.00    -0.010 C 
ATOM     25  C   UNL A   1      32.111  19.731  22.819  1.00  0.00    -0.013 C 
ATOM     26  C   UNL A   1      32.414  21.126  23.212  1.00  0.00     0.130 C 
BRANCH  23  27
ATOM     27  C   UNL A   1      34.675  19.203  24.816  1.00  0.00     0.021 C 
ATOM     28  C   UNL A   1      34.884  17.804  24.289  1.00  0.00     0.006 C 
ENDBRANCH  23  27
ENDBRANCH  19  22
ENDBRANCH   9  19
ENDBRANCH   5   8
ENDBRANCH   3   4
ENDBRANCH   2   3
ENDBRANCH   1   2
BRANCH   1  29
ATOM     29  C   UNL A   1      38.765  22.039  26.224  1.00  0.00     0.002 C 
BRANCH  29  30
ATOM     30  C   UNL A   1      39.166  20.801  25.411  1.00  0.00     0.021 C 
BRANCH  30  31
ATOM     31  C   UNL A   1      39.548  19.568  26.215  1.00  0.00     0.116 C 
BRANCH  31  32
ATOM     32  N   UNL A   1      40.806  18.944  25.824  1.00  0.00    -0.352 N 
ATOM     33  C   UNL A   1      42.050  19.542  25.724  1.00  0.00     0.251 C 
ATOM     34  H   UNL A   1      40.767  17.984  25.607  1.00  0.00     0.163 HD
ATOM     35  O   UNL A   1      42.943  19.004  25.074  1.00  0.00    -0.269 OA
BRANCH  33  36
ATOM     36  C   UNL A   1      42.303  20.840  26.393  1.00  0.00     0.039 A 
ATOM     37  C   UNL A   1      42.650  21.977  25.653  1.00  0.00     0.014 A 
ATOM     38  C   UNL A   1      42.209  20.921  27.780  1.00  0.00     0.014 A 
ATOM     39  C   UNL A   1      42.822  23.197  26.311  1.00  0.00     0.010 A 
ATOM     40  C   UNL A   1      42.241  22.145  28.409  1.00  0.00     0.010 A 
ATOM     41  C   UNL A   1      42.595  23.281  27.693  1.00  0.00    -0.014 A 
BRANCH  41  42
ATOM     42  C   UNL A   1      42.599  24.574  28.378  1.00  0.00     0.031 A 
ATOM     43  C   UNL A   1      41.386  25.406  28.137  1.00  0.00     0.074 A 
ATOM     44  C   UNL A   1      43.495  24.906  29.336  1.00  0.00     0.049 A 
ATOM     45  N   UNL A   1      41.316  26.554  27.548  1.00  0.00    -0.248 NA
ATOM     46  C   UNL A   1      40.074  24.833  28.480  1.00  0.00     0.031 C 
ATOM     47  C   UNL A   1      44.548  24.063  29.919  1.00  0.00     0.029 A 
ATOM     48  N   UNL A   1      43.555  26.028  30.110  1.00  0.00    -0.354 N 
ATOM     49  C   UNL A   1      39.986  26.956  27.660  1.00  0.00     0.074 A 
ATOM     50  C   UNL A   1      39.244  25.787  28.053  1.00  0.00     0.031 C 
ATOM     51  C   UNL A   1      44.940  24.584  31.102  1.00  0.00     0.029 A 
ATOM     52  C   UNL A   1      44.304  25.874  31.276  1.00  0.00     0.049 A 
ATOM     53  H   UNL A   1      43.109  26.870  29.867  1.00  0.00     0.167 HD
ATOM     54  C   UNL A   1      39.642  28.274  27.675  1.00  0.00     0.034 A 
ATOM     55  C   UNL A   1      44.357  26.726  32.330  1.00  0.00     0.034 A 
ATOM     56  C   UNL A   1      40.715  29.105  27.190  1.00  0.00     0.049 A 
ATOM     57  C   UNL A   1      43.876  28.041  31.855  1.00  0.00     0.074 A 
ATOM     58  C   UNL A   1      41.464  29.159  26.031  1.00  0.00     0.029 A 
ATOM     59  N   UNL A   1      41.423  29.822  28.124  1.00  0.00    -0.354 N 
ATOM     60  N   UNL A   1      44.525  28.779  31.000  1.00  0.00    -0.248 NA
ATOM     61  C   UNL A   1      42.466  28.350  32.013  1.00  0.00     0.031 C 
ATOM     62  C   UNL A   1      42.789  29.454  26.468  1.00  0.00     0.029 A 
ATOM     63  C   UNL A   1      42.752  29.639  27.851  1.00  0.00     0.049 A 
ATOM     64  H   UNL A   1      41.046  30.366  28.852  1.00  0.00     0.167 HD
ATOM     65  C   UNL A   1      43.532  29.303  30.185  1.00  0.00     0.074 A 
ATOM     66  C   UNL A   1      42.287  29.102  30.925  1.00  0.00     0.031 C 
ATOM     67  C   UNL A   1      43.775  29.579  28.870  1.00  0.00     0.034 A 
BRANCH  54  68
ATOM     68  C   UNL A   1      38.495  28.862  28.470  1.00  0.00     0.023 A 
ATOM     69  C   UNL A   1      37.545  29.638  27.765  1.00  0.00     0.012 A 
ATOM     70  C   UNL A   1      38.453  28.935  29.882  1.00  0.00     0.148 A 
ATOM     71  C   UNL A   1      36.648  30.485  28.427  1.00  0.00     0.002 A 
ATOM     72  C   UNL A   1      37.505  29.711  30.537  1.00  0.00     0.091 A 
ATOM     73  F   UNL A   1      39.416  28.367  30.612  1.00  0.00    -0.205 F 
ATOM     74  C   UNL A   1      36.622  30.517  29.814  1.00  0.00     0.022 A 
BRANCH  72  75
ATOM     75  S   UNL A   1      37.396  29.741  32.331  1.00  0.00     0.127 S 
ATOM     76  O   UNL A   1      38.587  30.504  32.685  1.00  0.00    -0.237 OA
ATOM     77  O   UNL A   1      36.126  30.437  32.541  1.00  0.00    -0.237 OA
ATOM     78  O   UNL A   1      37.383  28.342  32.745  1.00  0.00    -0.744 OA
ENDBRANCH  72  75
ENDBRANCH  54  68
BRANCH  55  79
ATOM     79  C   UNL A   1      44.586  26.473  33.773  1.00  0.00     0.023 A 
ATOM     80  C   UNL A   1      45.861  26.717  34.323  1.00  0.00     0.012 A 
ATOM     81  C   UNL A   1      43.501  26.295  34.659  1.00  0.00     0.148 A 
ATOM     82  C   UNL A   1      46.042  26.832  35.706  1.00  0.00     0.002 A 
ATOM     83  C   UNL A   1      43.686  26.409  36.035  1.00  0.00     0.091 A 
ATOM     84  F   UNL A   1      42.276  26.113  34.149  1.00  0.00    -0.205 F 
ATOM     85  C   UNL A   1      44.954  26.691  36.562  1.00  0.00     0.022 A 
BRANCH  83  86
ATOM     86  S   UNL A   1      42.319  26.280  37.197  1.00  0.00     0.127 S 
ATOM     87  O   UNL A   1      41.789  24.949  36.899  1.00  0.00    -0.237 OA
ATOM     88  O   UNL A   1      43.002  26.395  38.482  1.00  0.00    -0.237 OA
ATOM     89  O   UNL A   1      41.412  27.373  36.865  1.00  0.00    -0.744 OA
ENDBRANCH  83  86
ENDBRANCH  55  79
BRANCH  67  90
ATOM     90  C   UNL A   1      45.204  29.566  28.387  1.00  0.00     0.023 A 
ATOM     91  C   UNL A   1      45.884  28.377  28.044  1.00  0.00     0.012 A 
ATOM     92  C   UNL A   1      45.823  30.798  28.122  1.00  0.00     0.148 A 
ATOM     93  C   UNL A   1      47.162  28.419  27.480  1.00  0.00     0.002 A 
ATOM     94  C   UNL A   1      47.072  30.838  27.516  1.00  0.00     0.091 A 
ATOM     95  F   UNL A   1      45.168  31.922  28.452  1.00  0.00    -0.205 F 
ATOM     96  C   UNL A   1      47.751  29.651  27.203  1.00  0.00     0.022 A 
BRANCH  94  97
ATOM     97  S   UNL A   1      47.817  32.394  27.026  1.00  0.00     0.127 S 
ATOM     98  O   UNL A   1      46.828  32.927  26.093  1.00  0.00    -0.237 OA
ATOM     99  O   UNL A   1      47.911  33.115  28.298  1.00  0.00    -0.237 OA
ATOM    100  O   UNL A   1      49.110  32.050  26.447  1.00  0.00    -0.744 OA
ENDBRANCH  94  97
ENDBRANCH  67  90
ENDBRANCH  41  42
ENDBRANCH  33  36
ENDBRANCH  31  32
ENDBRANCH  30  31
ENDBRANCH  29  30
ENDBRANCH   1  29
TORSDOF 19
ENDMDL
MODEL 2
REMARK VINA RESULT:     -11.7      1.704      3.567
REMARK SMILES CC[C@@H]1C=CCN1S(=O)(=O)c1sc2c(c1C(=O)NCCCCCCNC(=O)c1ccc(-c3c4nc(c(-c5cccc(S(=O)(=O)[O-])c5F)c5ccc([nH]5)c(-c5cccc(S(=O)(=O)[O-])c5F)c5nc(c(-c6cccc(S(=O)(=O)[O-])c6F)c6ccc3[nH]6)C=C5)C=C4)cc1)CC[NH2+]C2
REMARK SMILES IDX 21 1 20 2 19 3 18 4 16 5 17 6 15 8 11 9 12 10 13 11 14 12
REMARK SMILES IDX 94 13 91 14 93 15 92 16 8 19 9 20 10 21 7 22 3 23 4 24 5 25
REMARK SMILES IDX 6 26 2 27 1 28 22 29 23 30 24 31 25 32 26 33 27 35 28 36
REMARK SMILES IDX 29 37 90 38 30 39 89 40 31 41 32 42 33 43 83 44 34 45 88 46
REMARK SMILES IDX 82 47 84 48 35 49 87 50 81 51 80 52 36 54 68 55 48 56 67 57
REMARK SMILES IDX 49 58 52 59 66 60 85 61 50 62 51 63 65 65 86 66 53 67 37 68
REMARK SMILES IDX 38 69 46 70 39 71 41 72 47 73 40 74 42 75 43 76 44 77 45 78
REMARK SMILES IDX 69 79 70 80 78 81 71 82 73 83 79 84 72 85 74 86 75 87 76 88
REMARK SMILES IDX 77 89 54 90 55 91 63 92 56 93 58 94 64 95 57 96 59 97 60 98
REMARK SMILES IDX 61 99 62 100
REMARK H PARENT 18 7 93 17 93 18 25 34 84 53 52 64
REMARK Flexibility Score: inf
ROOT
ATOM      1  C   UNL A   1      37.810  23.265  25.648  1.00  0.00     0.002 C 
ENDROOT
BRANCH   1   2
ATOM      2  C   UNL A   1      36.296  23.131  25.877  1.00  0.00     0.021 C 
BRANCH   2   3
ATOM      3  C   UNL A   1      35.776  22.014  26.774  1.00  0.00     0.116 C 
BRANCH   3   4
ATOM      4  N   UNL A   1      34.602  22.317  27.541  1.00  0.00    -0.352 N 
ATOM      5  C   UNL A   1      33.275  22.406  27.211  1.00  0.00     0.253 C 
ATOM      6  O   UNL A   1      32.551  22.525  28.210  1.00  0.00    -0.269 OA
ATOM      7  H   UNL A   1      34.785  22.496  28.491  1.00  0.00     0.163 HD
BRANCH   5   8
ATOM      8  C   UNL A   1      32.662  22.466  25.854  1.00  0.00     0.074 A 
ATOM      9  C   UNL A   1      32.047  23.503  25.116  1.00  0.00     0.148 A 
ATOM     10  S   UNL A   1      31.639  22.971  23.510  1.00  0.00    -0.120 S 
ATOM     11  C   UNL A   1      32.178  21.414  23.747  1.00  0.00     0.064 A 
ATOM     12  C   UNL A   1      32.747  21.247  24.989  1.00  0.00    -0.009 A 
ATOM     13  C   UNL A   1      32.089  20.393  22.653  1.00  0.00     0.308 C 
ATOM     14  C   UNL A   1      33.336  19.888  25.314  1.00  0.00     0.099 C 
ATOM     15  N   UNL A   1      32.312  19.032  23.167  1.00  0.00    -0.342 N 
ATOM     16  C   UNL A   1      33.498  19.015  24.042  1.00  0.00     0.265 C 
ATOM     17  H   UNL A   1      31.495  18.732  23.699  1.00  0.00     0.346 HD
ATOM     18  H   UNL A   1      32.464  18.397  22.383  1.00  0.00     0.346 HD
BRANCH   9  19
ATOM     19  S   UNL A   1      31.578  25.270  25.245  1.00  0.00     0.254 S 
ATOM     20  O   UNL A   1      31.256  25.499  26.639  1.00  0.00    -0.206 OA
ATOM     21  O   UNL A   1      30.536  25.487  24.266  1.00  0.00    -0.206 OA
BRANCH  19  22
ATOM     22  N   UNL A   1      32.945  26.202  24.841  1.00  0.00    -0.186 NA
ATOM     23  C   UNL A   1      32.741  27.425  23.994  1.00  0.00     0.096 C 
ATOM     24  C   UNL A   1      33.362  28.521  24.792  1.00  0.00    -0.010 C 
ATOM     25  C   UNL A   1      34.008  28.048  25.855  1.00  0.00    -0.013 C 
ATOM     26  C   UNL A   1      33.843  26.581  25.976  1.00  0.00     0.130 C 
BRANCH  23  27
ATOM     27  C   UNL A   1      33.540  27.274  22.689  1.00  0.00     0.021 C 
ATOM     28  C   UNL A   1      32.945  26.209  21.799  1.00  0.00     0.006 C 
ENDBRANCH  23  27
ENDBRANCH  19  22
ENDBRANCH   9  19
ENDBRANCH   5   8
ENDBRANCH   3   4
ENDBRANCH   2   3
ENDBRANCH   1   2
BRANCH   1  29
ATOM     29  C   UNL A   1      38.803  22.206  26.167  1.00  0.00     0.002 C 
BRANCH  29  30
ATOM     30  C   UNL A   1      39.121  20.961  25.328  1.00  0.00     0.021 C 
BRANCH  30  31
ATOM     31  C   UNL A   1      39.345  19.672  26.105  1.00  0.00     0.116 C 
BRANCH  31  32
ATOM     32  N   UNL A   1      40.590  18.979  25.798  1.00  0.00    -0.352 N 
ATOM     33  C   UNL A   1      41.869  19.509  25.776  1.00  0.00     0.251 C 
ATOM     34  H   UNL A   1      40.514  18.021  25.583  1.00  0.00     0.163 HD
ATOM     35  O   UNL A   1      42.771  18.919  25.187  1.00  0.00    -0.269 OA
BRANCH  33  36
ATOM     36  C   UNL A   1      42.149  20.796  26.455  1.00  0.00     0.039 A 
ATOM     37  C   UNL A   1      42.669  21.886  25.747  1.00  0.00     0.014 A 
ATOM     38  C   UNL A   1      41.904  20.913  27.821  1.00  0.00     0.014 A 
ATOM     39  C   UNL A   1      42.862  23.102  26.407  1.00  0.00     0.010 A 
ATOM     40  C   UNL A   1      41.963  22.142  28.436  1.00  0.00     0.010 A 
ATOM     41  C   UNL A   1      42.487  23.232  27.753  1.00  0.00    -0.014 A 
BRANCH  41  42
ATOM     42  C   UNL A   1      42.519  24.535  28.419  1.00  0.00     0.031 A 
ATOM     43  C   UNL A   1      41.317  25.383  28.176  1.00  0.00     0.074 A 
ATOM     44  C   UNL A   1      43.427  24.865  29.365  1.00  0.00     0.049 A 
ATOM     45  N   UNL A   1      41.262  26.523  27.571  1.00  0.00    -0.248 NA
ATOM     46  C   UNL A   1      39.998  24.837  28.536  1.00  0.00     0.031 C 
ATOM     47  C   UNL A   1      44.470  24.013  29.953  1.00  0.00     0.029 A 
ATOM     48  N   UNL A   1      43.511  25.996  30.123  1.00  0.00    -0.354 N 
ATOM     49  C   UNL A   1      39.940  26.950  27.687  1.00  0.00     0.074 A 
ATOM     50  C   UNL A   1      39.182  25.799  28.101  1.00  0.00     0.031 C 
ATOM     51  C   UNL A   1      44.879  24.544  31.126  1.00  0.00     0.029 A 
ATOM     52  C   UNL A   1      44.266  25.847  31.286  1.00  0.00     0.049 A 
ATOM     53  H   UNL A   1      43.077  26.842  29.871  1.00  0.00     0.167 HD
ATOM     54  C   UNL A   1      39.618  28.273  27.685  1.00  0.00     0.034 A 
ATOM     55  C   UNL A   1      44.342  26.712  32.327  1.00  0.00     0.034 A 
ATOM     56  C   UNL A   1      40.701  29.079  27.180  1.00  0.00     0.049 A 
ATOM     57  C   UNL A   1      43.879  28.028  31.837  1.00  0.00     0.074 A 
ATOM     58  C   UNL A   1      41.442  29.104  26.015  1.00  0.00     0.029 A 
ATOM     59  N   UNL A   1      41.428  29.797  28.099  1.00  0.00    -0.354 N 
ATOM     60  N   UNL A   1      44.534  28.743  30.966  1.00  0.00    -0.248 NA
ATOM     61  C   UNL A   1      42.476  28.362  32.001  1.00  0.00     0.031 C 
ATOM     62  C   UNL A   1      42.775  29.383  26.438  1.00  0.00     0.029 A 
ATOM     63  C   UNL A   1      42.751  29.588  27.819  1.00  0.00     0.049 A 
ATOM     64  H   UNL A   1      41.066  30.357  28.822  1.00  0.00     0.167 HD
ATOM     65  C   UNL A   1      43.544  29.272  30.152  1.00  0.00     0.074 A 
ATOM     66  C   UNL A   1      42.302  29.102  30.904  1.00  0.00     0.031 C 
ATOM     67  C   UNL A   1      43.781  29.525  28.831  1.00  0.00     0.034 A 
BRANCH  54  68
ATOM     68  C   UNL A   1      38.487  28.891  28.480  1.00  0.00     0.023 A 
ATOM     69  C   UNL A   1      37.573  29.714  27.780  1.00  0.00     0.012 A 
ATOM     70  C   UNL A   1      38.436  28.943  29.892  1.00  0.00     0.148 A 
ATOM     71  C   UNL A   1      36.703  30.584  28.448  1.00  0.00     0.002 A 
ATOM     72  C   UNL A   1      37.511  29.744  30.552  1.00  0.00     0.091 A 
ATOM     73  F   UNL A   1      39.370  28.327  30.621  1.00  0.00    -0.205 F 
ATOM     74  C   UNL A   1      36.667  30.594  29.836  1.00  0.00     0.022 A 
BRANCH  72  75
ATOM     75  S   UNL A   1      37.388  29.750  32.346  1.00  0.00     0.127 S 
ATOM     76  O   UNL A   1      38.577  30.506  32.720  1.00  0.00    -0.237 OA
ATOM     77  O   UNL A   1      36.117  30.444  32.555  1.00  0.00    -0.237 OA
ATOM     78  O   UNL A   1      37.369  28.345  32.740  1.00  0.00    -0.744 OA
ENDBRANCH  72  75
ENDBRANCH  54  68
BRANCH  55  79
ATOM     79  C   UNL A   1      44.577  26.475  33.771  1.00  0.00     0.023 A 
ATOM     80  C   UNL A   1      45.851  26.739  34.316  1.00  0.00     0.012 A 
ATOM     81  C   UNL A   1      43.497  26.294  34.662  1.00  0.00     0.148 A 
ATOM     82  C   UNL A   1      46.035  26.869  35.697  1.00  0.00     0.002 A 
ATOM     83  C   UNL A   1      43.685  26.424  36.036  1.00  0.00     0.091 A 
ATOM     84  F   UNL A   1      42.273  26.094  34.158  1.00  0.00    -0.205 F 
ATOM     85  C   UNL A   1      44.950  26.724  36.557  1.00  0.00     0.022 A 
BRANCH  83  86
ATOM     86  S   UNL A   1      42.322  26.291  37.204  1.00  0.00     0.127 S 
ATOM     87  O   UNL A   1      41.787  24.963  36.899  1.00  0.00    -0.237 OA
ATOM     88  O   UNL A   1      43.011  26.395  38.487  1.00  0.00    -0.237 OA
ATOM     89  O   UNL A   1      41.416  27.388  36.882  1.00  0.00    -0.744 OA
ENDBRANCH  83  86
ENDBRANCH  55  79
BRANCH  67  90
ATOM     90  C   UNL A   1      45.206  29.481  28.338  1.00  0.00     0.023 A 
ATOM     91  C   UNL A   1      46.100  30.563  28.486  1.00  0.00     0.012 A 
ATOM     92  C   UNL A   1      45.700  28.259  27.854  1.00  0.00     0.148 A 
ATOM     93  C   UNL A   1      47.446  30.436  28.132  1.00  0.00     0.002 A 
ATOM     94  C   UNL A   1      47.048  28.120  27.550  1.00  0.00     0.091 A 
ATOM     95  F   UNL A   1      44.841  27.236  27.717  1.00  0.00    -0.205 F 
ATOM     96  C   UNL A   1      47.924  29.208  27.676  1.00  0.00     0.022 A 
BRANCH  94  97
ATOM     97  S   UNL A   1      47.734  26.531  27.079  1.00  0.00     0.127 S 
ATOM     98  O   UNL A   1      48.864  26.922  26.239  1.00  0.00    -0.237 OA
ATOM     99  O   UNL A   1      48.104  25.949  28.371  1.00  0.00    -0.237 OA
ATOM    100  O   UNL A   1      46.658  25.820  26.398  1.00  0.00    -0.744 OA
ENDBRANCH  94  97
ENDBRANCH  67  90
ENDBRANCH  41  42
ENDBRANCH  33  36
ENDBRANCH  31  32
ENDBRANCH  30  31
ENDBRANCH  29  30
ENDBRANCH   1  29
TORSDOF 19
ENDMDL
MODEL 3
REMARK VINA RESULT:     -11.5      1.207      3.271
REMARK SMILES CC[C@@H]1C=CCN1S(=O)(=O)c1sc2c(c1C(=O)NCCCCCCNC(=O)c1ccc(-c3c4nc(c(-c5cccc(S(=O)(=O)[O-])c5F)c5ccc([nH]5)c(-c5cccc(S(=O)(=O)[O-])c5F)c5nc(c(-c6cccc(S(=O)(=O)[O-])c6F)c6ccc3[nH]6)C=C5)C=C4)cc1)CC[NH2+]C2
REMARK SMILES IDX 21 1 20 2 19 3 18 4 16 5 17 6 15 8 11 9 12 10 13 11 14 12
REMARK SMILES IDX 94 13 91 14 93 15 92 16 8 19 9 20 10 21 7 22 3 23 4 24 5 25
REMARK SMILES IDX 6 26 2 27 1 28 22 29 23 30 24 31 25 32 26 33 27 35 28 36
REMARK SMILES IDX 29 37 90 38 30 39 89 40 31 41 32 42 33 43 83 44 34 45 88 46
REMARK SMILES IDX 82 47 84 48 35 49 87 50 81 51 80 52 36 54 68 55 48 56 67 57
REMARK SMILES IDX 49 58 52 59 66 60 85 61 50 62 51 63 65 65 86 66 53 67 37 68
REMARK SMILES IDX 38 69 46 70 39 71 41 72 47 73 40 74 42 75 43 76 44 77 45 78
REMARK SMILES IDX 69 79 70 80 78 81 71 82 73 83 79 84 72 85 74 86 75 87 76 88
REMARK SMILES IDX 77 89 54 90 55 91 63 92 56 93 58 94 64 95 57 96 59 97 60 98
REMARK SMILES IDX 61 99 62 100
REMARK H PARENT 18 7 93 17 93 18 25 34 84 53 52 64
REMARK Flexibility Score: inf
ROOT
ATOM      1  C   UNL A   1      38.331  23.020  25.842  1.00  0.00     0.002 C 
ENDROOT
BRANCH   1   2
ATOM      2  C   UNL A   1      36.926  22.673  25.320  1.00  0.00     0.021 C 
BRANCH   2   3
ATOM      3  C   UNL A   1      36.027  21.768  26.154  1.00  0.00     0.116 C 
BRANCH   3   4
ATOM      4  N   UNL A   1      34.932  22.412  26.822  1.00  0.00    -0.352 N 
ATOM      5  C   UNL A   1      33.702  22.835  26.393  1.00  0.00     0.253 C 
ATOM      6  O   UNL A   1      32.976  23.193  27.332  1.00  0.00    -0.269 OA
ATOM      7  H   UNL A   1      35.097  22.583  27.777  1.00  0.00     0.163 HD
BRANCH   5   8
ATOM      8  C   UNL A   1      33.213  22.988  24.994  1.00  0.00     0.074 A 
ATOM      9  C   UNL A   1      33.067  24.103  24.137  1.00  0.00     0.148 A 
ATOM     10  S   UNL A   1      32.554  23.609  22.550  1.00  0.00    -0.120 S 
ATOM     11  C   UNL A   1      32.454  21.994  22.940  1.00  0.00     0.064 A 
ATOM     12  C   UNL A   1      32.866  21.747  24.230  1.00  0.00    -0.009 A 
ATOM     13  C   UNL A   1      32.030  20.980  21.921  1.00  0.00     0.308 C 
ATOM     14  C   UNL A   1      32.884  20.305  24.698  1.00  0.00     0.099 C 
ATOM     15  N   UNL A   1      31.701  19.689  22.550  1.00  0.00    -0.342 N 
ATOM     16  C   UNL A   1      32.755  19.316  23.509  1.00  0.00     0.265 C 
ATOM     17  H   UNL A   1      30.810  19.769  23.040  1.00  0.00     0.346 HD
ATOM     18  H   UNL A   1      31.633  18.971  21.828  1.00  0.00     0.346 HD
BRANCH   9  19
ATOM     19  S   UNL A   1      33.296  25.921  24.100  1.00  0.00     0.254 S 
ATOM     20  O   UNL A   1      33.574  26.263  22.720  1.00  0.00    -0.206 OA
ATOM     21  O   UNL A   1      34.307  26.224  25.089  1.00  0.00    -0.206 OA
BRANCH  19  22
ATOM     22  N   UNL A   1      31.820  26.640  24.554  1.00  0.00    -0.186 NA
ATOM     23  C   UNL A   1      30.782  26.852  23.490  1.00  0.00     0.096 C 
ATOM     24  C   UNL A   1      29.569  26.174  24.034  1.00  0.00    -0.010 C 
ATOM     25  C   UNL A   1      29.752  25.775  25.290  1.00  0.00    -0.013 C 
ATOM     26  C   UNL A   1      31.136  26.045  25.744  1.00  0.00     0.130 C 
BRANCH  23  27
ATOM     27  C   UNL A   1      30.476  28.355  23.376  1.00  0.00     0.021 C 
ATOM     28  C   UNL A   1      29.031  28.596  23.008  1.00  0.00     0.006 C 
ENDBRANCH  23  27
ENDBRANCH  19  22
ENDBRANCH   9  19
ENDBRANCH   5   8
ENDBRANCH   3   4
ENDBRANCH   2   3
ENDBRANCH   1   2
BRANCH   1  29
ATOM     29  C   UNL A   1      39.314  21.925  26.304  1.00  0.00     0.002 C 
BRANCH  29  30
ATOM     30  C   UNL A   1      39.411  20.596  25.543  1.00  0.00     0.021 C 
BRANCH  30  31
ATOM     31  C   UNL A   1      39.947  19.411  26.333  1.00  0.00     0.116 C 
BRANCH  31  32
ATOM     32  N   UNL A   1      41.217  18.878  25.856  1.00  0.00    -0.352 N 
ATOM     33  C   UNL A   1      42.412  19.559  25.695  1.00  0.00     0.251 C 
ATOM     34  H   UNL A   1      41.227  17.922  25.622  1.00  0.00     0.163 HD
ATOM     35  O   UNL A   1      43.296  19.091  24.982  1.00  0.00    -0.269 OA
BRANCH  33  36
ATOM     36  C   UNL A   1      42.620  20.859  26.373  1.00  0.00     0.039 A 
ATOM     37  C   UNL A   1      42.997  21.997  25.650  1.00  0.00     0.014 A 
ATOM     38  C   UNL A   1      42.454  20.941  27.753  1.00  0.00     0.014 A 
ATOM     39  C   UNL A   1      43.125  23.220  26.314  1.00  0.00     0.010 A 
ATOM     40  C   UNL A   1      42.444  22.166  28.381  1.00  0.00     0.010 A 
ATOM     41  C   UNL A   1      42.826  23.304  27.683  1.00  0.00    -0.014 A 
BRANCH  41  42
ATOM     42  C   UNL A   1      42.786  24.598  28.365  1.00  0.00     0.031 A 
ATOM     43  C   UNL A   1      41.541  25.383  28.129  1.00  0.00     0.074 A 
ATOM     44  C   UNL A   1      43.674  24.965  29.317  1.00  0.00     0.049 A 
ATOM     45  N   UNL A   1      41.426  26.526  27.538  1.00  0.00    -0.248 NA
ATOM     46  C   UNL A   1      40.253  24.762  28.480  1.00  0.00     0.031 C 
ATOM     47  C   UNL A   1      44.760  24.163  29.897  1.00  0.00     0.029 A 
ATOM     48  N   UNL A   1      43.695  26.090  30.089  1.00  0.00    -0.354 N 
ATOM     49  C   UNL A   1      40.082  26.879  27.656  1.00  0.00     0.074 A 
ATOM     50  C   UNL A   1      39.386  25.684  28.054  1.00  0.00     0.031 C 
ATOM     51  C   UNL A   1      45.138  24.702  31.077  1.00  0.00     0.029 A 
ATOM     52  C   UNL A   1      44.455  25.967  31.252  1.00  0.00     0.049 A 
ATOM     53  H   UNL A   1      43.217  26.915  29.846  1.00  0.00     0.167 HD
ATOM     54  C   UNL A   1      39.689  28.183  27.669  1.00  0.00     0.034 A 
ATOM     55  C   UNL A   1      44.483  26.823  32.304  1.00  0.00     0.034 A 
ATOM     56  C   UNL A   1      40.728  29.052  27.177  1.00  0.00     0.049 A 
ATOM     57  C   UNL A   1      43.950  28.118  31.828  1.00  0.00     0.074 A 
ATOM     58  C   UNL A   1      41.469  29.131  26.014  1.00  0.00     0.029 A 
ATOM     59  N   UNL A   1      41.414  29.798  28.106  1.00  0.00    -0.354 N 
ATOM     60  N   UNL A   1      44.567  28.878  30.968  1.00  0.00    -0.248 NA
ATOM     61  C   UNL A   1      42.531  28.374  31.993  1.00  0.00     0.031 C 
ATOM     62  C   UNL A   1      42.784  29.477  26.443  1.00  0.00     0.029 A 
ATOM     63  C   UNL A   1      42.747  29.663  27.827  1.00  0.00     0.049 A 
ATOM     64  H   UNL A   1      41.020  30.328  28.835  1.00  0.00     0.167 HD
ATOM     65  C   UNL A   1      43.551  29.363  30.157  1.00  0.00     0.074 A 
ATOM     66  C   UNL A   1      42.318  29.117  30.904  1.00  0.00     0.031 C 
ATOM     67  C   UNL A   1      43.777  29.644  28.840  1.00  0.00     0.034 A 
BRANCH  54  68
ATOM     68  C   UNL A   1      38.525  28.729  28.469  1.00  0.00     0.023 A 
ATOM     69  C   UNL A   1      37.525  29.439  27.762  1.00  0.00     0.012 A 
ATOM     70  C   UNL A   1      38.501  28.834  29.879  1.00  0.00     0.148 A 
ATOM     71  C   UNL A   1      36.596  30.254  28.418  1.00  0.00     0.002 A 
ATOM     72  C   UNL A   1      37.523  29.575  30.531  1.00  0.00     0.091 A 
ATOM     73  F   UNL A   1      39.503  28.333  30.607  1.00  0.00    -0.205 F 
ATOM     74  C   UNL A   1      36.589  30.317  29.805  1.00  0.00     0.022 A 
BRANCH  72  75
ATOM     75  S   UNL A   1      37.439  29.642  32.326  1.00  0.00     0.127 S 
ATOM     76  O   UNL A   1      36.186  30.359  32.535  1.00  0.00    -0.237 OA
ATOM     77  O   UNL A   1      37.410  28.222  32.676  1.00  0.00    -0.237 OA
ATOM     78  O   UNL A   1      38.653  30.334  32.748  1.00  0.00    -0.744 OA
ENDBRANCH  72  75
ENDBRANCH  54  68
BRANCH  55  79
ATOM     79  C   UNL A   1      44.727  26.582  33.745  1.00  0.00     0.023 A 
ATOM     80  C   UNL A   1      45.979  26.921  34.300  1.00  0.00     0.012 A 
ATOM     81  C   UNL A   1      43.659  26.317  34.629  1.00  0.00     0.148 A 
ATOM     82  C   UNL A   1      46.149  27.043  35.683  1.00  0.00     0.002 A 
ATOM     83  C   UNL A   1      43.832  26.439  36.005  1.00  0.00     0.091 A 
ATOM     84  F   UNL A   1      42.452  26.044  34.116  1.00  0.00    -0.205 F 
ATOM     85  C   UNL A   1      45.073  26.815  36.536  1.00  0.00     0.022 A 
BRANCH  83  86
ATOM     86  S   UNL A   1      42.477  26.200  37.165  1.00  0.00     0.127 S 
ATOM     87  O   UNL A   1      42.047  24.836  36.856  1.00  0.00    -0.237 OA
ATOM     88  O   UNL A   1      43.148  26.356  38.452  1.00  0.00    -0.237 OA
ATOM     89  O   UNL A   1      41.491  27.225  36.839  1.00  0.00    -0.744 OA
ENDBRANCH  83  86
ENDBRANCH  55  79
BRANCH  67  90
ATOM     90  C   UNL A   1      45.203  29.683  28.350  1.00  0.00     0.023 A 
ATOM     91  C   UNL A   1      45.925  28.520  28.006  1.00  0.00     0.012 A 
ATOM     92  C   UNL A   1      45.774  30.937  28.080  1.00  0.00     0.148 A 
ATOM     93  C   UNL A   1      47.198  28.608  27.435  1.00  0.00     0.002 A 
ATOM     94  C   UNL A   1      47.018  31.022  27.467  1.00  0.00     0.091 A 
ATOM     95  F   UNL A   1      45.079  32.036  28.411  1.00  0.00    -0.205 F 
ATOM     96  C   UNL A   1      47.739  29.860  27.152  1.00  0.00     0.022 A 
BRANCH  94  97
ATOM     97  S   UNL A   1      47.702  32.604  26.971  1.00  0.00     0.127 S 
ATOM     98  O   UNL A   1      46.687  33.098  26.043  1.00  0.00    -0.237 OA
ATOM     99  O   UNL A   1      47.777  33.330  28.241  1.00  0.00    -0.237 OA
ATOM    100  O   UNL A   1      49.003  32.307  26.383  1.00  0.00    -0.744 OA
ENDBRANCH  94  97
ENDBRANCH  67  90
ENDBRANCH  41  42
ENDBRANCH  33  36
ENDBRANCH  31  32
ENDBRANCH  30  31
ENDBRANCH  29  30
ENDBRANCH   1  29
TORSDOF 19
ENDMDL
