MODEL 1
REMARK VINA RESULT:     -14.1      0.000      0.000
REMARK SMILES Cc1ccccc1C(=O)Nc1cc(C(=O)NCCCCCCNC(=O)c2ccc(-c3c4nc(c(-c5cccc(S(=O)(=O)[O-])c5F)c5ccc([nH]5)c(-c5cccc(S(=O)(=O)[O-])c5F)c5nc(c(-c6cccc(S(=O)(=O)[O-])c6F)c6ccc3[nH]6)C=C5)C=C4)cc2)ccc1N1CC[NH+](CC(=O)Nc2ccc(F)cc2)CC1
REMARK SMILES IDX 19 1 18 2 17 3 16 4 14 5 15 6 13 8 11 9 12 10 91 11 90 12
REMARK SMILES IDX 89 13 10 14 8 15 9 16 7 18 1 19 2 20 3 21 4 22 6 23 5 24
REMARK SMILES IDX 92 25 93 26 108 27 94 28 107 29 95 30 96 32 97 33 98 34
REMARK SMILES IDX 99 35 100 37 101 38 106 39 102 40 105 41 103 42 104 43 20 44
REMARK SMILES IDX 21 45 22 46 23 47 24 48 25 50 26 51 27 52 88 53 28 54 87 55
REMARK SMILES IDX 29 56 30 57 31 58 81 59 32 60 86 61 80 62 82 63 33 64 85 65
REMARK SMILES IDX 79 66 78 67 34 69 66 70 46 71 65 72 47 73 50 74 64 75 83 76
REMARK SMILES IDX 48 77 49 78 63 80 84 81 51 82 35 83 36 84 44 85 37 86 39 87
REMARK SMILES IDX 45 88 38 89 40 90 41 91 42 92 43 93 67 94 68 95 76 96 69 97
REMARK SMILES IDX 71 98 77 99 70 100 72 101 73 102 74 103 75 104 52 105 53 106
REMARK SMILES IDX 61 107 54 108 56 109 62 110 55 111 57 112 58 113 59 114
REMARK SMILES IDX 60 115
REMARK H PARENT 16 7 10 17 95 31 99 36 23 49 82 68 50 79
REMARK Flexibility Score: inf
ROOT
ATOM      1  C   UNL A   1      34.304  34.039  27.633  1.00  0.00     0.002 C 
ENDROOT
BRANCH   1   2
ATOM      2  C   UNL A   1      34.897  32.697  28.073  1.00  0.00     0.021 C 
BRANCH   2   3
ATOM      3  C   UNL A   1      34.006  31.503  27.719  1.00  0.00     0.116 C 
BRANCH   3   4
ATOM      4  N   UNL A   1      32.773  31.930  27.087  1.00  0.00    -0.352 N 
ATOM      5  C   UNL A   1      31.747  31.247  26.479  1.00  0.00     0.251 C 
ATOM      6  O   UNL A   1      30.795  31.912  26.066  1.00  0.00    -0.269 OA
ATOM      7  H   UNL A   1      32.645  32.906  27.096  1.00  0.00     0.163 HD
BRANCH   5   8
ATOM      8  C   UNL A   1      31.689  29.760  26.364  1.00  0.00     0.042 A 
ATOM      9  C   UNL A   1      31.743  27.699  25.101  1.00  0.00     0.065 A 
ATOM     10  C   UNL A   1      31.541  29.077  25.168  1.00  0.00     0.042 A 
ATOM     11  C   UNL A   1      31.876  26.895  26.268  1.00  0.00     0.061 A 
ATOM     12  C   UNL A   1      31.900  27.594  27.483  1.00  0.00     0.029 A 
ATOM     13  C   UNL A   1      31.851  29.000  27.529  1.00  0.00     0.016 A 
BRANCH   9  14
ATOM     14  N   UNL A   1      31.796  27.123  23.823  1.00  0.00    -0.320 N 
ATOM     15  C   UNL A   1      31.071  27.454  22.688  1.00  0.00     0.255 C 
ATOM     16  O   UNL A   1      31.521  27.070  21.601  1.00  0.00    -0.269 OA
ATOM     17  H   UNL A   1      32.436  26.383  23.718  1.00  0.00     0.170 HD
BRANCH  15  18
ATOM     18  C   UNL A   1      29.798  28.240  22.648  1.00  0.00     0.043 A 
ATOM     19  C   UNL A   1      28.212  26.673  23.973  1.00  0.00     0.045 C 
ATOM     20  C   UNL A   1      28.535  27.906  23.182  1.00  0.00    -0.038 A 
ATOM     21  C   UNL A   1      27.457  28.809  23.005  1.00  0.00     0.004 A 
ATOM     22  C   UNL A   1      27.643  30.062  22.424  1.00  0.00     0.000 A 
ATOM     23  C   UNL A   1      29.967  29.534  22.108  1.00  0.00     0.014 A 
ATOM     24  C   UNL A   1      28.909  30.439  22.008  1.00  0.00     0.001 A 
ENDBRANCH  15  18
ENDBRANCH   9  14
BRANCH  11  25
ATOM     25  N   UNL A   1      32.030  25.511  26.231  1.00  0.00    -0.359 N 
ATOM     26  C   UNL A   1      33.345  24.836  26.058  1.00  0.00     0.178 C 
ATOM     27  C   UNL A   1      30.927  24.668  25.777  1.00  0.00     0.178 C 
ATOM     28  C   UNL A   1      33.305  23.296  26.411  1.00  0.00     0.284 C 
ATOM     29  C   UNL A   1      30.931  23.407  26.643  1.00  0.00     0.284 C 
ATOM     30  N   UNL A   1      32.039  22.541  26.259  1.00  0.00    -0.324 N 
ATOM     31  H   UNL A   1      32.128  21.751  26.898  1.00  0.00     0.348 HD
BRANCH  30  32
ATOM     32  C   UNL A   1      31.802  21.777  25.014  1.00  0.00     0.364 C 
BRANCH  32  33
ATOM     33  C   UNL A   1      32.995  21.460  24.113  1.00  0.00     0.279 C 
ATOM     34  O   UNL A   1      33.437  22.339  23.356  1.00  0.00    -0.268 OA
ATOM     35  N   UNL A   1      33.696  20.283  24.119  1.00  0.00    -0.321 N 
ATOM     36  H   UNL A   1      34.593  20.406  23.735  1.00  0.00     0.170 HD
BRANCH  35  37
ATOM     37  C   UNL A   1      33.498  18.942  24.520  1.00  0.00     0.041 A 
ATOM     38  C   UNL A   1      33.934  17.955  23.616  1.00  0.00     0.029 A 
ATOM     39  C   UNL A   1      32.812  18.511  25.651  1.00  0.00     0.029 A 
ATOM     40  C   UNL A   1      33.642  16.599  23.812  1.00  0.00     0.041 A 
ATOM     41  C   UNL A   1      32.458  17.162  25.823  1.00  0.00     0.041 A 
ATOM     42  C   UNL A   1      32.877  16.216  24.901  1.00  0.00     0.123 A 
ATOM     43  F   UNL A   1      32.553  14.927  25.065  1.00  0.00    -0.207 F 
ENDBRANCH  35  37
ENDBRANCH  32  33
ENDBRANCH  30  32
ENDBRANCH  11  25
ENDBRANCH   5   8
ENDBRANCH   3   4
ENDBRANCH   2   3
ENDBRANCH   1   2
BRANCH   1  44
ATOM     44  C   UNL A   1      34.561  35.218  28.588  1.00  0.00     0.002 C 
BRANCH  44  45
ATOM     45  C   UNL A   1      33.307  35.924  29.110  1.00  0.00     0.021 C 
BRANCH  45  46
ATOM     46  C   UNL A   1      32.879  35.443  30.487  1.00  0.00     0.116 C 
BRANCH  46  47
ATOM     47  N   UNL A   1      33.608  36.095  31.563  1.00  0.00    -0.352 N 
ATOM     48  C   UNL A   1      34.532  35.579  32.447  1.00  0.00     0.251 C 
ATOM     49  H   UNL A   1      33.411  37.053  31.679  1.00  0.00     0.163 HD
ATOM     50  O   UNL A   1      34.854  36.260  33.423  1.00  0.00    -0.269 OA
BRANCH  48  51
ATOM     51  C   UNL A   1      35.225  34.306  32.140  1.00  0.00     0.039 A 
ATOM     52  C   UNL A   1      35.332  33.358  33.168  1.00  0.00     0.014 A 
ATOM     53  C   UNL A   1      35.959  34.147  30.968  1.00  0.00     0.014 A 
ATOM     54  C   UNL A   1      36.355  32.413  33.132  1.00  0.00     0.010 A 
ATOM     55  C   UNL A   1      37.027  33.279  30.969  1.00  0.00     0.010 A 
ATOM     56  C   UNL A   1      37.265  32.467  32.083  1.00  0.00    -0.014 A 
BRANCH  56  57
ATOM     57  C   UNL A   1      38.525  31.749  32.034  1.00  0.00     0.031 A 
ATOM     58  C   UNL A   1      38.587  30.450  31.326  1.00  0.00     0.074 A 
ATOM     59  C   UNL A   1      39.654  32.378  32.440  1.00  0.00     0.049 A 
ATOM     60  N   UNL A   1      39.605  29.663  31.341  1.00  0.00    -0.248 NA
ATOM     61  C   UNL A   1      37.473  29.930  30.540  1.00  0.00     0.031 C 
ATOM     62  C   UNL A   1      41.027  32.014  32.100  1.00  0.00     0.029 A 
ATOM     63  N   UNL A   1      39.839  33.422  33.347  1.00  0.00    -0.354 N 
ATOM     64  C   UNL A   1      39.407  28.690  30.387  1.00  0.00     0.074 A 
ATOM     65  C   UNL A   1      38.036  28.860  29.968  1.00  0.00     0.031 C 
ATOM     66  C   UNL A   1      41.853  32.559  33.007  1.00  0.00     0.029 A 
ATOM     67  C   UNL A   1      41.008  33.101  34.052  1.00  0.00     0.049 A 
ATOM     68  H   UNL A   1      39.268  34.216  33.469  1.00  0.00     0.167 HD
ATOM     69  C   UNL A   1      40.478  27.948  29.985  1.00  0.00     0.034 A 
ATOM     70  C   UNL A   1      41.049  32.699  35.362  1.00  0.00     0.034 A 
ATOM     71  C   UNL A   1      41.653  28.245  30.820  1.00  0.00     0.049 A 
ATOM     72  C   UNL A   1      41.730  31.345  35.566  1.00  0.00     0.074 A 
ATOM     73  C   UNL A   1      42.758  29.066  30.660  1.00  0.00     0.029 A 
ATOM     74  N   UNL A   1      41.634  27.872  32.159  1.00  0.00    -0.354 N 
ATOM     75  N   UNL A   1      42.028  30.519  34.600  1.00  0.00    -0.248 NA
ATOM     76  C   UNL A   1      42.136  30.817  36.867  1.00  0.00     0.031 C 
ATOM     77  C   UNL A   1      43.363  29.243  31.936  1.00  0.00     0.029 A 
ATOM     78  C   UNL A   1      42.645  28.507  32.864  1.00  0.00     0.049 A 
ATOM     79  H   UNL A   1      40.991  27.240  32.553  1.00  0.00     0.167 HD
ATOM     80  C   UNL A   1      42.551  29.353  35.101  1.00  0.00     0.074 A 
ATOM     81  C   UNL A   1      42.665  29.625  36.524  1.00  0.00     0.031 C 
ATOM     82  C   UNL A   1      42.796  28.266  34.298  1.00  0.00     0.034 A 
BRANCH  69  83
ATOM     83  C   UNL A   1      40.574  27.150  28.692  1.00  0.00     0.023 A 
ATOM     84  C   UNL A   1      39.742  26.012  28.573  1.00  0.00     0.012 A 
ATOM     85  C   UNL A   1      41.457  27.375  27.612  1.00  0.00     0.148 A 
ATOM     86  C   UNL A   1      39.846  25.105  27.511  1.00  0.00     0.002 A 
ATOM     87  C   UNL A   1      41.604  26.443  26.578  1.00  0.00     0.091 A 
ATOM     88  F   UNL A   1      42.115  28.530  27.518  1.00  0.00    -0.205 F 
ATOM     89  C   UNL A   1      40.802  25.302  26.528  1.00  0.00     0.022 A 
BRANCH  87  90
ATOM     90  S   UNL A   1      42.866  26.606  25.300  1.00  0.00     0.127 S 
ATOM     91  O   UNL A   1      44.092  26.730  26.093  1.00  0.00    -0.237 OA
ATOM     92  O   UNL A   1      42.741  25.346  24.570  1.00  0.00    -0.237 OA
ATOM     93  O   UNL A   1      42.527  27.803  24.540  1.00  0.00    -0.744 OA
ENDBRANCH  87  90
ENDBRANCH  69  83
BRANCH  70  94
ATOM     94  C   UNL A   1      39.956  33.272  36.202  1.00  0.00     0.023 A 
ATOM     95  C   UNL A   1      38.643  33.158  35.683  1.00  0.00     0.012 A 
ATOM     96  C   UNL A   1      40.118  33.549  37.570  1.00  0.00     0.148 A 
ATOM     97  C   UNL A   1      37.534  33.137  36.527  1.00  0.00     0.002 A 
ATOM     98  C   UNL A   1      39.000  33.555  38.407  1.00  0.00     0.091 A 
ATOM     99  F   UNL A   1      41.355  33.747  38.045  1.00  0.00    -0.205 F 
ATOM    100  C   UNL A   1      37.717  33.297  37.895  1.00  0.00     0.022 A 
BRANCH  98 101
ATOM    101  S   UNL A   1      39.141  33.778  40.187  1.00  0.00     0.127 S 
ATOM    102  O   UNL A   1      37.738  33.859  40.584  1.00  0.00    -0.237 OA
ATOM    103  O   UNL A   1      39.826  32.555  40.605  1.00  0.00    -0.237 OA
ATOM    104  O   UNL A   1      39.932  34.989  40.352  1.00  0.00    -0.744 OA
ENDBRANCH  98 101
ENDBRANCH  70  94
BRANCH  82 105
ATOM    105  C   UNL A   1      43.167  26.853  34.749  1.00  0.00     0.023 A 
ATOM    106  C   UNL A   1      42.216  25.902  35.160  1.00  0.00     0.012 A 
ATOM    107  C   UNL A   1      44.508  26.381  34.639  1.00  0.00     0.148 A 
ATOM    108  C   UNL A   1      42.563  24.580  35.470  1.00  0.00     0.002 A 
ATOM    109  C   UNL A   1      44.828  25.039  34.833  1.00  0.00     0.091 A 
ATOM    110  F   UNL A   1      45.504  27.237  34.369  1.00  0.00    -0.205 F 
ATOM    111  C   UNL A   1      43.863  24.138  35.276  1.00  0.00     0.022 A 
BRANCH 109 112
ATOM    112  S   UNL A   1      46.443  24.396  34.361  1.00  0.00     0.127 S 
ATOM    113  O   UNL A   1      47.309  24.954  35.398  1.00  0.00    -0.237 OA
ATOM    114  O   UNL A   1      46.245  22.948  34.449  1.00  0.00    -0.237 OA
ATOM    115  O   UNL A   1      46.657  24.885  33.006  1.00  0.00    -0.744 OA
ENDBRANCH 109 112
ENDBRANCH  82 105
ENDBRANCH  56  57
ENDBRANCH  48  51
ENDBRANCH  46  47
ENDBRANCH  45  46
ENDBRANCH  44  45
ENDBRANCH   1  44
TORSDOF 22
ENDMDL
MODEL 2
REMARK VINA RESULT:     -13.9      1.696      2.070
REMARK SMILES Cc1ccccc1C(=O)Nc1cc(C(=O)NCCCCCCNC(=O)c2ccc(-c3c4nc(c(-c5cccc(S(=O)(=O)[O-])c5F)c5ccc([nH]5)c(-c5cccc(S(=O)(=O)[O-])c5F)c5nc(c(-c6cccc(S(=O)(=O)[O-])c6F)c6ccc3[nH]6)C=C5)C=C4)cc2)ccc1N1CC[NH+](CC(=O)Nc2ccc(F)cc2)CC1
REMARK SMILES IDX 19 1 18 2 17 3 16 4 14 5 15 6 13 8 11 9 12 10 91 11 90 12
REMARK SMILES IDX 89 13 10 14 8 15 9 16 7 18 1 19 2 20 3 21 4 22 6 23 5 24
REMARK SMILES IDX 92 25 93 26 108 27 94 28 107 29 95 30 96 32 97 33 98 34
REMARK SMILES IDX 99 35 100 37 101 38 106 39 102 40 105 41 103 42 104 43 20 44
REMARK SMILES IDX 21 45 22 46 23 47 24 48 25 50 26 51 27 52 88 53 28 54 87 55
REMARK SMILES IDX 29 56 30 57 31 58 81 59 32 60 86 61 80 62 82 63 33 64 85 65
REMARK SMILES IDX 79 66 78 67 34 69 66 70 46 71 65 72 47 73 50 74 64 75 83 76
REMARK SMILES IDX 48 77 49 78 63 80 84 81 51 82 35 83 36 84 44 85 37 86 39 87
REMARK SMILES IDX 45 88 38 89 40 90 41 91 42 92 43 93 67 94 68 95 76 96 69 97
REMARK SMILES IDX 71 98 77 99 70 100 72 101 73 102 74 103 75 104 52 105 53 106
REMARK SMILES IDX 61 107 54 108 56 109 62 110 55 111 57 112 58 113 59 114
REMARK SMILES IDX 60 115
REMARK H PARENT 16 7 10 17 95 31 99 36 23 49 82 68 50 79
REMARK Flexibility Score: inf
ROOT
ATOM      1  C   UNL A   1      34.547  33.684  27.672  1.00  0.00     0.002 C 
ENDROOT
BRANCH   1   2
ATOM      2  C   UNL A   1      35.067  32.333  28.173  1.00  0.00     0.021 C 
BRANCH   2   3
ATOM      3  C   UNL A   1      34.181  31.157  27.756  1.00  0.00     0.116 C 
BRANCH   3   4
ATOM      4  N   UNL A   1      32.942  31.613  27.154  1.00  0.00    -0.352 N 
ATOM      5  C   UNL A   1      31.888  30.955  26.569  1.00  0.00     0.251 C 
ATOM      6  O   UNL A   1      30.942  31.643  26.180  1.00  0.00    -0.269 OA
ATOM      7  H   UNL A   1      32.837  32.591  27.168  1.00  0.00     0.163 HD
BRANCH   5   8
ATOM      8  C   UNL A   1      31.793  29.470  26.453  1.00  0.00     0.042 A 
ATOM      9  C   UNL A   1      31.847  27.405  25.196  1.00  0.00     0.065 A 
ATOM     10  C   UNL A   1      31.681  28.788  25.253  1.00  0.00     0.042 A 
ATOM     11  C   UNL A   1      31.904  26.601  26.369  1.00  0.00     0.061 A 
ATOM     12  C   UNL A   1      31.891  27.302  27.583  1.00  0.00     0.029 A 
ATOM     13  C   UNL A   1      31.880  28.708  27.625  1.00  0.00     0.016 A 
BRANCH   9  14
ATOM     14  N   UNL A   1      31.942  26.826  23.923  1.00  0.00    -0.320 N 
ATOM     15  C   UNL A   1      31.282  27.176  22.754  1.00  0.00     0.255 C 
ATOM     16  O   UNL A   1      31.770  26.776  21.690  1.00  0.00    -0.269 OA
ATOM     17  H   UNL A   1      32.563  26.066  23.848  1.00  0.00     0.170 HD
BRANCH  15  18
ATOM     18  C   UNL A   1      30.037  28.002  22.654  1.00  0.00     0.043 A 
ATOM     19  C   UNL A   1      28.379  26.557  24.028  1.00  0.00     0.045 C 
ATOM     20  C   UNL A   1      28.756  27.737  23.182  1.00  0.00    -0.038 A 
ATOM     21  C   UNL A   1      27.712  28.665  22.943  1.00  0.00     0.004 A 
ATOM     22  C   UNL A   1      27.949  29.880  22.303  1.00  0.00     0.000 A 
ATOM     23  C   UNL A   1      30.259  29.260  22.053  1.00  0.00     0.014 A 
ATOM     24  C   UNL A   1      29.234  30.194  21.890  1.00  0.00     0.001 A 
ENDBRANCH  15  18
ENDBRANCH   9  14
BRANCH  11  25
ATOM     25  N   UNL A   1      32.020  25.213  26.340  1.00  0.00    -0.359 N 
ATOM     26  C   UNL A   1      33.324  24.500  26.256  1.00  0.00     0.178 C 
ATOM     27  C   UNL A   1      30.928  24.401  25.811  1.00  0.00     0.178 C 
ATOM     28  C   UNL A   1      33.216  22.962  26.603  1.00  0.00     0.284 C 
ATOM     29  C   UNL A   1      30.836  23.141  26.673  1.00  0.00     0.284 C 
ATOM     30  N   UNL A   1      31.943  22.243  26.364  1.00  0.00    -0.324 N 
ATOM     31  H   UNL A   1      31.965  21.452  27.006  1.00  0.00     0.348 HD
BRANCH  30  32
ATOM     32  C   UNL A   1      31.769  21.486  25.105  1.00  0.00     0.364 C 
BRANCH  32  33
ATOM     33  C   UNL A   1      33.002  21.203  24.248  1.00  0.00     0.279 C 
ATOM     34  O   UNL A   1      33.443  22.093  23.502  1.00  0.00    -0.268 OA
ATOM     35  N   UNL A   1      33.737  20.047  24.282  1.00  0.00    -0.321 N 
ATOM     36  H   UNL A   1      34.644  20.197  23.929  1.00  0.00     0.170 HD
BRANCH  35  37
ATOM     37  C   UNL A   1      33.566  18.702  24.682  1.00  0.00     0.041 A 
ATOM     38  C   UNL A   1      34.338  17.750  23.992  1.00  0.00     0.029 A 
ATOM     39  C   UNL A   1      32.631  18.225  25.594  1.00  0.00     0.029 A 
ATOM     40  C   UNL A   1      34.138  16.374  24.169  1.00  0.00     0.041 A 
ATOM     41  C   UNL A   1      32.378  16.849  25.730  1.00  0.00     0.041 A 
ATOM     42  C   UNL A   1      33.135  15.935  25.016  1.00  0.00     0.123 A 
ATOM     43  F   UNL A   1      32.906  14.621  25.150  1.00  0.00    -0.207 F 
ENDBRANCH  35  37
ENDBRANCH  32  33
ENDBRANCH  30  32
ENDBRANCH  11  25
ENDBRANCH   5   8
ENDBRANCH   3   4
ENDBRANCH   2   3
ENDBRANCH   1   2
BRANCH   1  44
ATOM     44  C   UNL A   1      34.898  34.895  28.555  1.00  0.00     0.002 C 
BRANCH  44  45
ATOM     45  C   UNL A   1      33.759  35.419  29.432  1.00  0.00     0.021 C 
BRANCH  45  46
ATOM     46  C   UNL A   1      33.630  34.678  30.753  1.00  0.00     0.116 C 
BRANCH  46  47
ATOM     47  N   UNL A   1      34.351  35.328  31.836  1.00  0.00    -0.352 N 
ATOM     48  C   UNL A   1      35.356  34.844  32.647  1.00  0.00     0.251 C 
ATOM     49  H   UNL A   1      34.079  36.257  32.019  1.00  0.00     0.163 HD
ATOM     50  O   UNL A   1      35.663  35.493  33.649  1.00  0.00    -0.269 OA
BRANCH  48  51
ATOM     51  C   UNL A   1      36.139  33.656  32.233  1.00  0.00     0.039 A 
ATOM     52  C   UNL A   1      36.455  32.709  33.218  1.00  0.00     0.014 A 
ATOM     53  C   UNL A   1      36.751  33.593  30.986  1.00  0.00     0.014 A 
ATOM     54  C   UNL A   1      37.561  31.879  33.048  1.00  0.00     0.010 A 
ATOM     55  C   UNL A   1      37.897  32.844  30.849  1.00  0.00     0.010 A 
ATOM     56  C   UNL A   1      38.340  32.044  31.908  1.00  0.00    -0.014 A 
BRANCH  56  57
ATOM     57  C   UNL A   1      39.654  31.465  31.705  1.00  0.00     0.031 A 
ATOM     58  C   UNL A   1      39.762  30.122  31.091  1.00  0.00     0.074 A 
ATOM     59  C   UNL A   1      40.748  32.246  31.874  1.00  0.00     0.049 A 
ATOM     60  N   UNL A   1      40.858  29.454  30.996  1.00  0.00    -0.248 NA
ATOM     61  C   UNL A   1      38.611  29.416  30.538  1.00  0.00     0.031 C 
ATOM     62  C   UNL A   1      42.085  32.003  31.340  1.00  0.00     0.029 A 
ATOM     63  N   UNL A   1      40.943  33.382  32.661  1.00  0.00    -0.354 N 
ATOM     64  C   UNL A   1      40.633  28.383  30.159  1.00  0.00     0.074 A 
ATOM     65  C   UNL A   1      39.203  28.366  29.961  1.00  0.00     0.031 C 
ATOM     66  C   UNL A   1      42.970  32.713  32.058  1.00  0.00     0.029 A 
ATOM     67  C   UNL A   1      42.238  33.254  33.186  1.00  0.00     0.049 A 
ATOM     68  H   UNL A   1      40.307  34.117  32.817  1.00  0.00     0.167 HD
ATOM     69  C   UNL A   1      41.711  27.728  29.642  1.00  0.00     0.034 A 
ATOM     70  C   UNL A   1      42.529  32.978  34.496  1.00  0.00     0.034 A 
ATOM     71  C   UNL A   1      42.956  28.224  30.249  1.00  0.00     0.049 A 
ATOM     72  C   UNL A   1      43.392  31.730  34.683  1.00  0.00     0.074 A 
ATOM     73  C   UNL A   1      43.916  29.140  29.851  1.00  0.00     0.029 A 
ATOM     74  N   UNL A   1      43.190  27.973  31.596  1.00  0.00    -0.354 N 
ATOM     75  N   UNL A   1      43.634  30.856  33.743  1.00  0.00    -0.248 NA
ATOM     76  C   UNL A   1      44.056  31.367  35.934  1.00  0.00     0.031 C 
ATOM     77  C   UNL A   1      44.685  29.497  30.994  1.00  0.00     0.029 A 
ATOM     78  C   UNL A   1      44.213  28.774  32.078  1.00  0.00     0.049 A 
ATOM     79  H   UNL A   1      42.696  27.314  32.135  1.00  0.00     0.167 HD
ATOM     80  C   UNL A   1      44.366  29.803  34.234  1.00  0.00     0.074 A 
ATOM     81  C   UNL A   1      44.665  30.213  35.596  1.00  0.00     0.031 C 
ATOM     82  C   UNL A   1      44.613  28.681  33.482  1.00  0.00     0.034 A 
BRANCH  69  83
ATOM     83  C   UNL A   1      41.701  26.831  28.411  1.00  0.00     0.023 A 
ATOM     84  C   UNL A   1      41.156  27.372  27.223  1.00  0.00     0.012 A 
ATOM     85  C   UNL A   1      42.114  25.481  28.333  1.00  0.00     0.148 A 
ATOM     86  C   UNL A   1      40.941  26.606  26.071  1.00  0.00     0.002 A 
ATOM     87  C   UNL A   1      41.851  24.697  27.204  1.00  0.00     0.091 A 
ATOM     88  F   UNL A   1      42.842  24.949  29.315  1.00  0.00    -0.205 F 
ATOM     89  C   UNL A   1      41.258  25.257  26.071  1.00  0.00     0.022 A 
BRANCH  87  90
ATOM     90  S   UNL A   1      42.182  22.925  27.157  1.00  0.00     0.127 S 
ATOM     91  O   UNL A   1      41.436  22.442  28.321  1.00  0.00    -0.237 OA
ATOM     92  O   UNL A   1      41.617  22.533  25.867  1.00  0.00    -0.237 OA
ATOM     93  O   UNL A   1      43.628  22.776  27.275  1.00  0.00    -0.744 OA
ENDBRANCH  87  90
ENDBRANCH  69  83
BRANCH  70  94
ATOM     94  C   UNL A   1      41.519  33.503  35.461  1.00  0.00     0.023 A 
ATOM     95  C   UNL A   1      41.345  34.910  35.481  1.00  0.00     0.012 A 
ATOM     96  C   UNL A   1      40.521  32.693  36.030  1.00  0.00     0.148 A 
ATOM     97  C   UNL A   1      40.139  35.480  35.887  1.00  0.00     0.002 A 
ATOM     98  C   UNL A   1      39.326  33.275  36.461  1.00  0.00     0.091 A 
ATOM     99  F   UNL A   1      40.724  31.370  36.094  1.00  0.00    -0.205 F 
ATOM    100  C   UNL A   1      39.116  34.659  36.339  1.00  0.00     0.022 A 
BRANCH  98 101
ATOM    101  S   UNL A   1      37.955  32.289  37.084  1.00  0.00     0.127 S 
ATOM    102  O   UNL A   1      38.385  32.024  38.453  1.00  0.00    -0.237 OA
ATOM    103  O   UNL A   1      36.824  33.209  36.963  1.00  0.00    -0.237 OA
ATOM    104  O   UNL A   1      37.885  31.140  36.193  1.00  0.00    -0.744 OA
ENDBRANCH  98 101
ENDBRANCH  70  94
BRANCH  82 105
ATOM    105  C   UNL A   1      45.218  27.363  33.966  1.00  0.00     0.023 A 
ATOM    106  C   UNL A   1      46.597  27.182  34.175  1.00  0.00     0.012 A 
ATOM    107  C   UNL A   1      44.382  26.281  34.370  1.00  0.00     0.148 A 
ATOM    108  C   UNL A   1      47.124  26.002  34.720  1.00  0.00     0.002 A 
ATOM    109  C   UNL A   1      44.899  25.161  35.018  1.00  0.00     0.091 A 
ATOM    110  F   UNL A   1      43.068  26.309  34.105  1.00  0.00    -0.205 F 
ATOM    111  C   UNL A   1      46.274  25.004  35.171  1.00  0.00     0.022 A 
BRANCH 109 112
ATOM    112  S   UNL A   1      43.809  23.973  35.821  1.00  0.00     0.127 S 
ATOM    113  O   UNL A   1      44.761  23.082  36.481  1.00  0.00    -0.237 OA
ATOM    114  O   UNL A   1      43.036  24.820  36.733  1.00  0.00    -0.237 OA
ATOM    115  O   UNL A   1      43.024  23.397  34.738  1.00  0.00    -0.744 OA
ENDBRANCH 109 112
ENDBRANCH  82 105
ENDBRANCH  56  57
ENDBRANCH  48  51
ENDBRANCH  46  47
ENDBRANCH  45  46
ENDBRANCH  44  45
ENDBRANCH   1  44
TORSDOF 22
ENDMDL
MODEL 3
REMARK VINA RESULT:     -13.3      2.354      3.143
REMARK SMILES Cc1ccccc1C(=O)Nc1cc(C(=O)NCCCCCCNC(=O)c2ccc(-c3c4nc(c(-c5cccc(S(=O)(=O)[O-])c5F)c5ccc([nH]5)c(-c5cccc(S(=O)(=O)[O-])c5F)c5nc(c(-c6cccc(S(=O)(=O)[O-])c6F)c6ccc3[nH]6)C=C5)C=C4)cc2)ccc1N1CC[NH+](CC(=O)Nc2ccc(F)cc2)CC1
REMARK SMILES IDX 19 1 18 2 17 3 16 4 14 5 15 6 13 8 11 9 12 10 91 11 90 12
REMARK SMILES IDX 89 13 10 14 8 15 9 16 7 18 1 19 2 20 3 21 4 22 6 23 5 24
REMARK SMILES IDX 92 25 93 26 108 27 94 28 107 29 95 30 96 32 97 33 98 34
REMARK SMILES IDX 99 35 100 37 101 38 106 39 102 40 105 41 103 42 104 43 20 44
REMARK SMILES IDX 21 45 22 46 23 47 24 48 25 50 26 51 27 52 88 53 28 54 87 55
REMARK SMILES IDX 29 56 30 57 31 58 81 59 32 60 86 61 80 62 82 63 33 64 85 65
REMARK SMILES IDX 79 66 78 67 34 69 66 70 46 71 65 72 47 73 50 74 64 75 83 76
REMARK SMILES IDX 48 77 49 78 63 80 84 81 51 82 35 83 36 84 44 85 37 86 39 87
REMARK SMILES IDX 45 88 38 89 40 90 41 91 42 92 43 93 67 94 68 95 76 96 69 97
REMARK SMILES IDX 71 98 77 99 70 100 72 101 73 102 74 103 75 104 52 105 53 106
REMARK SMILES IDX 61 107 54 108 56 109 62 110 55 111 57 112 58 113 59 114
REMARK SMILES IDX 60 115
REMARK H PARENT 16 7 10 17 95 31 99 36 23 49 82 68 50 79
REMARK Flexibility Score: inf
ROOT
ATOM      1  C   UNL A   1      34.926  33.207  27.742  1.00  0.00     0.002 C 
ENDROOT
BRANCH   1   2
ATOM      2  C   UNL A   1      35.431  31.786  28.010  1.00  0.00     0.021 C 
BRANCH   2   3
ATOM      3  C   UNL A   1      34.389  30.709  27.694  1.00  0.00     0.116 C 
BRANCH   3   4
ATOM      4  N   UNL A   1      33.155  31.293  27.204  1.00  0.00    -0.352 N 
ATOM      5  C   UNL A   1      32.033  30.757  26.621  1.00  0.00     0.251 C 
ATOM      6  O   UNL A   1      31.115  31.533  26.347  1.00  0.00    -0.269 OA
ATOM      7  H   UNL A   1      33.114  32.271  27.311  1.00  0.00     0.163 HD
BRANCH   5   8
ATOM      8  C   UNL A   1      31.836  29.297  26.377  1.00  0.00     0.042 A 
ATOM      9  C   UNL A   1      31.691  27.360  24.937  1.00  0.00     0.065 A 
ATOM     10  C   UNL A   1      31.618  28.739  25.128  1.00  0.00     0.042 A 
ATOM     11  C   UNL A   1      31.757  26.448  26.028  1.00  0.00     0.061 A 
ATOM     12  C   UNL A   1      31.853  27.031  27.299  1.00  0.00     0.029 A 
ATOM     13  C   UNL A   1      31.935  28.425  27.468  1.00  0.00     0.016 A 
BRANCH   9  14
ATOM     14  N   UNL A   1      31.683  26.898  23.613  1.00  0.00    -0.320 N 
ATOM     15  C   UNL A   1      30.944  27.359  22.534  1.00  0.00     0.255 C 
ATOM     16  O   UNL A   1      31.346  27.052  21.405  1.00  0.00    -0.269 OA
ATOM     17  H   UNL A   1      32.285  26.142  23.425  1.00  0.00     0.170 HD
BRANCH  15  18
ATOM     18  C   UNL A   1      29.709  28.202  22.602  1.00  0.00     0.043 A 
ATOM     19  C   UNL A   1      28.131  26.651  23.955  1.00  0.00     0.045 C 
ATOM     20  C   UNL A   1      28.465  27.901  23.196  1.00  0.00    -0.038 A 
ATOM     21  C   UNL A   1      27.422  28.857  23.121  1.00  0.00     0.004 A 
ATOM     22  C   UNL A   1      27.632  30.124  22.580  1.00  0.00     0.000 A 
ATOM     23  C   UNL A   1      29.907  29.509  22.106  1.00  0.00     0.014 A 
ATOM     24  C   UNL A   1      28.888  30.463  22.105  1.00  0.00     0.001 A 
ENDBRANCH  15  18
ENDBRANCH   9  14
BRANCH  11  25
ATOM     25  N   UNL A   1      31.782  25.064  25.867  1.00  0.00    -0.359 N 
ATOM     26  C   UNL A   1      30.964  24.128  26.684  1.00  0.00     0.178 C 
ATOM     27  C   UNL A   1      32.979  24.413  25.340  1.00  0.00     0.178 C 
ATOM     28  C   UNL A   1      30.892  22.671  26.077  1.00  0.00     0.284 C 
ATOM     29  C   UNL A   1      32.516  23.272  24.433  1.00  0.00     0.284 C 
ATOM     30  N   UNL A   1      32.006  22.169  25.239  1.00  0.00    -0.324 N 
ATOM     31  H   UNL A   1      31.588  21.447  24.653  1.00  0.00     0.348 HD
BRANCH  30  32
ATOM     32  C   UNL A   1      33.063  21.344  25.865  1.00  0.00     0.364 C 
BRANCH  32  33
ATOM     33  C   UNL A   1      33.991  20.536  24.959  1.00  0.00     0.279 C 
ATOM     34  O   UNL A   1      33.534  19.568  24.328  1.00  0.00    -0.268 OA
ATOM     35  N   UNL A   1      35.304  20.834  24.709  1.00  0.00    -0.321 N 
ATOM     36  H   UNL A   1      35.606  20.415  23.871  1.00  0.00     0.170 HD
BRANCH  35  37
ATOM     37  C   UNL A   1      36.349  21.573  25.310  1.00  0.00     0.041 A 
ATOM     38  C   UNL A   1      36.064  22.919  25.604  1.00  0.00     0.029 A 
ATOM     39  C   UNL A   1      37.652  21.136  25.522  1.00  0.00     0.029 A 
ATOM     40  C   UNL A   1      37.061  23.803  26.039  1.00  0.00     0.041 A 
ATOM     41  C   UNL A   1      38.672  22.030  25.894  1.00  0.00     0.041 A 
ATOM     42  C   UNL A   1      38.367  23.356  26.150  1.00  0.00     0.123 A 
ATOM     43  F   UNL A   1      39.333  24.210  26.515  1.00  0.00    -0.207 F 
ENDBRANCH  35  37
ENDBRANCH  32  33
ENDBRANCH  30  32
ENDBRANCH  11  25
ENDBRANCH   5   8
ENDBRANCH   3   4
ENDBRANCH   2   3
ENDBRANCH   1   2
BRANCH   1  44
ATOM     44  C   UNL A   1      35.389  34.273  28.751  1.00  0.00     0.002 C 
BRANCH  44  45
ATOM     45  C   UNL A   1      34.271  34.963  29.536  1.00  0.00     0.021 C 
BRANCH  45  46
ATOM     46  C   UNL A   1      34.065  34.377  30.924  1.00  0.00     0.116 C 
BRANCH  46  47
ATOM     47  N   UNL A   1      34.893  35.017  31.933  1.00  0.00    -0.352 N 
ATOM     48  C   UNL A   1      36.074  34.596  32.508  1.00  0.00     0.251 C 
ATOM     49  H   UNL A   1      34.558  35.885  32.258  1.00  0.00     0.163 HD
ATOM     50  O   UNL A   1      36.483  35.190  33.508  1.00  0.00    -0.269 OA
BRANCH  48  51
ATOM     51  C   UNL A   1      36.895  33.557  31.844  1.00  0.00     0.039 A 
ATOM     52  C   UNL A   1      36.945  32.288  32.438  1.00  0.00     0.014 A 
ATOM     53  C   UNL A   1      37.779  33.880  30.819  1.00  0.00     0.014 A 
ATOM     54  C   UNL A   1      38.035  31.454  32.195  1.00  0.00     0.010 A 
ATOM     55  C   UNL A   1      38.902  33.104  30.645  1.00  0.00     0.010 A 
ATOM     56  C   UNL A   1      39.061  31.930  31.388  1.00  0.00    -0.014 A 
BRANCH  56  57
ATOM     57  C   UNL A   1      40.369  31.316  31.253  1.00  0.00     0.031 A 
ATOM     58  C   UNL A   1      40.482  30.003  30.579  1.00  0.00     0.074 A 
ATOM     59  C   UNL A   1      41.470  32.049  31.545  1.00  0.00     0.049 A 
ATOM     60  N   UNL A   1      41.560  29.302  30.530  1.00  0.00    -0.248 NA
ATOM     61  C   UNL A   1      39.355  29.367  29.904  1.00  0.00     0.031 C 
ATOM     62  C   UNL A   1      42.837  31.786  31.101  1.00  0.00     0.029 A 
ATOM     63  N   UNL A   1      41.640  33.135  32.405  1.00  0.00    -0.354 N 
ATOM     64  C   UNL A   1      41.367  28.284  29.623  1.00  0.00     0.074 A 
ATOM     65  C   UNL A   1      39.957  28.327  29.317  1.00  0.00     0.031 C 
ATOM     66  C   UNL A   1      43.686  32.427  31.920  1.00  0.00     0.029 A 
ATOM     67  C   UNL A   1      42.886  32.935  33.017  1.00  0.00     0.049 A 
ATOM     68  H   UNL A   1      41.017  33.884  32.552  1.00  0.00     0.167 HD
ATOM     69  C   UNL A   1      42.460  27.618  29.153  1.00  0.00     0.034 A 
ATOM     70  C   UNL A   1      43.068  32.583  34.329  1.00  0.00     0.034 A 
ATOM     71  C   UNL A   1      43.670  28.039  29.878  1.00  0.00     0.049 A 
ATOM     72  C   UNL A   1      43.875  31.297  34.513  1.00  0.00     0.074 A 
ATOM     73  C   UNL A   1      44.686  28.940  29.602  1.00  0.00     0.029 A 
ATOM     74  N   UNL A   1      43.793  27.712  31.223  1.00  0.00    -0.354 N 
ATOM     75  N   UNL A   1      44.161  30.465  33.548  1.00  0.00    -0.248 NA
ATOM     76  C   UNL A   1      44.429  30.848  35.788  1.00  0.00     0.031 C 
ATOM     77  C   UNL A   1      45.376  29.211  30.817  1.00  0.00     0.029 A 
ATOM     78  C   UNL A   1      44.800  28.451  31.822  1.00  0.00     0.049 A 
ATOM     79  H   UNL A   1      43.239  27.044  31.688  1.00  0.00     0.167 HD
ATOM     80  C   UNL A   1      44.819  29.363  34.035  1.00  0.00     0.074 A 
ATOM     81  C   UNL A   1      45.026  29.693  35.436  1.00  0.00     0.031 C 
ATOM     82  C   UNL A   1      45.088  28.272  33.245  1.00  0.00     0.034 A 
BRANCH  69  83
ATOM     83  C   UNL A   1      42.517  26.786  27.879  1.00  0.00     0.023 A 
ATOM     84  C   UNL A   1      42.141  27.425  26.674  1.00  0.00     0.012 A 
ATOM     85  C   UNL A   1      42.838  25.415  27.767  1.00  0.00     0.148 A 
ATOM     86  C   UNL A   1      41.995  26.735  25.464  1.00  0.00     0.002 A 
ATOM     87  C   UNL A   1      42.640  24.709  26.575  1.00  0.00     0.091 A 
ATOM     88  F   UNL A   1      43.418  24.781  28.786  1.00  0.00    -0.205 F 
ATOM     89  C   UNL A   1      42.213  25.368  25.420  1.00  0.00     0.022 A 
BRANCH  87  90
ATOM     90  S   UNL A   1      42.847  22.922  26.461  1.00  0.00     0.127 S 
ATOM     91  O   UNL A   1      41.846  22.435  27.413  1.00  0.00    -0.237 OA
ATOM     92  O   UNL A   1      42.531  22.655  25.059  1.00  0.00    -0.237 OA
ATOM     93  O   UNL A   1      44.224  22.643  26.853  1.00  0.00    -0.744 OA
ENDBRANCH  87  90
ENDBRANCH  69  83
BRANCH  70  94
ATOM     94  C   UNL A   1      42.003  33.094  35.242  1.00  0.00     0.023 A 
ATOM     95  C   UNL A   1      41.906  34.502  35.363  1.00  0.00     0.012 A 
ATOM     96  C   UNL A   1      40.915  32.305  35.653  1.00  0.00     0.148 A 
ATOM     97  C   UNL A   1      40.701  35.113  35.708  1.00  0.00     0.002 A 
ATOM     98  C   UNL A   1      39.719  32.925  36.024  1.00  0.00     0.091 A 
ATOM     99  F   UNL A   1      41.038  30.971  35.624  1.00  0.00    -0.205 F 
ATOM    100  C   UNL A   1      39.597  34.324  36.000  1.00  0.00     0.022 A 
BRANCH  98 101
ATOM    101  S   UNL A   1      38.244  31.981  36.441  1.00  0.00     0.127 S 
ATOM    102  O   UNL A   1      38.293  30.910  35.449  1.00  0.00    -0.237 OA
ATOM    103  O   UNL A   1      38.518  31.557  37.814  1.00  0.00    -0.237 OA
ATOM    104  O   UNL A   1      37.146  32.928  36.319  1.00  0.00    -0.744 OA
ENDBRANCH  98 101
ENDBRANCH  70  94
BRANCH  82 105
ATOM    105  C   UNL A   1      45.613  26.911  33.702  1.00  0.00     0.023 A 
ATOM    106  C   UNL A   1      46.980  26.583  33.724  1.00  0.00     0.012 A 
ATOM    107  C   UNL A   1      44.733  25.944  34.270  1.00  0.00     0.148 A 
ATOM    108  C   UNL A   1      47.452  25.370  34.246  1.00  0.00     0.002 A 
ATOM    109  C   UNL A   1      45.216  24.794  34.892  1.00  0.00     0.091 A 
ATOM    110  F   UNL A   1      43.405  26.110  34.191  1.00  0.00    -0.205 F 
ATOM    111  C   UNL A   1      46.574  24.488  34.859  1.00  0.00     0.022 A 
BRANCH 109 112
ATOM    112  S   UNL A   1      44.133  23.762  35.895  1.00  0.00     0.127 S 
ATOM    113  O   UNL A   1      44.073  22.530  35.112  1.00  0.00    -0.237 OA
ATOM    114  O   UNL A   1      44.879  23.649  37.151  1.00  0.00    -0.237 OA
ATOM    115  O   UNL A   1      42.894  24.520  36.007  1.00  0.00    -0.744 OA
ENDBRANCH 109 112
ENDBRANCH  82 105
ENDBRANCH  56  57
ENDBRANCH  48  51
ENDBRANCH  46  47
ENDBRANCH  45  46
ENDBRANCH  44  45
ENDBRANCH   1  44
TORSDOF 22
ENDMDL
