MODEL 1
REMARK VINA RESULT:     -13.2      0.000      0.000
REMARK SMILES O=C(NCCCCCCNC(=O)c1ccc(-c2c3nc(c(-c4cccc(S(=O)(=O)[O-])c4F)c4ccc([nH]4)c(-c4cccc(S(=O)(=O)[O-])c4F)c4nc(c(-c5cccc(S(=O)(=O)[O-])c5F)c5ccc2[nH]5)C=C4)C=C3)cc1)c1ccc(NC(=O)[C@@H]2CC=CC[C@H]2C(=O)Nc2cccc([N+](=O)[O-])c2)cc1
REMARK SMILES IDX 5 1 4 2 3 3 1 4 2 5 76 7 77 8 102 9 78 10 101 11 79 12 80 13
REMARK SMILES IDX 81 14 82 16 83 17 84 18 88 19 85 20 87 21 86 22 89 23 90 24
REMARK SMILES IDX 91 25 92 27 93 28 100 29 94 30 96 31 95 32 97 33 98 34 99 35
REMARK SMILES IDX 6 36 7 37 8 38 9 39 10 40 11 41 12 43 13 44 14 45 75 46
REMARK SMILES IDX 15 47 74 48 16 49 17 50 18 51 68 52 19 53 73 54 67 55 69 56
REMARK SMILES IDX 20 57 72 58 66 59 65 60 21 62 53 63 33 64 52 65 34 66 37 67
REMARK SMILES IDX 51 68 70 69 35 70 36 71 50 73 71 74 38 75 22 76 23 77 31 78
REMARK SMILES IDX 24 79 26 80 32 81 25 82 27 83 28 84 29 85 30 86 54 87 55 88
REMARK SMILES IDX 63 89 56 90 58 91 64 92 57 93 59 94 60 95 61 96 62 97 39 98
REMARK SMILES IDX 40 99 48 100 41 101 43 102 49 103 42 104 44 105 45 106
REMARK SMILES IDX 46 107 47 108
REMARK H PARENT 3 6 80 15 91 26 10 42 69 61 37 72
REMARK Flexibility Score: inf
ROOT
ATOM      1  C   UNL A   1      33.235  28.515  26.336  1.00  0.00     0.021 C 
ENDROOT
BRANCH   1   2
ATOM      2  C   UNL A   1      33.274  29.131  24.948  1.00  0.00     0.116 C 
BRANCH   2   3
ATOM      3  N   UNL A   1      31.975  29.582  24.463  1.00  0.00    -0.352 N 
ATOM      4  O   UNL A   1      30.014  29.402  23.337  1.00  0.00    -0.269 OA
ATOM      5  C   UNL A   1      31.023  28.858  23.776  1.00  0.00     0.251 C 
ATOM      6  H   UNL A   1      31.748  30.522  24.649  1.00  0.00     0.163 HD
BRANCH   5   7
ATOM      7  C   UNL A   1      31.243  27.413  23.550  1.00  0.00     0.039 A 
ATOM      8  C   UNL A   1      31.868  26.985  22.386  1.00  0.00     0.016 A 
ATOM      9  C   UNL A   1      30.769  26.468  24.460  1.00  0.00     0.016 A 
ATOM     10  C   UNL A   1      31.858  25.641  22.050  1.00  0.00     0.027 A 
ATOM     11  C   UNL A   1      30.898  25.103  24.169  1.00  0.00     0.027 A 
ATOM     12  C   UNL A   1      31.458  24.677  22.954  1.00  0.00     0.041 A 
BRANCH  12  13
ATOM     13  N   UNL A   1      31.636  23.302  22.763  1.00  0.00    -0.326 N 
ATOM     14  C   UNL A   1      32.537  22.373  23.171  1.00  0.00     0.228 C 
ATOM     15  H   UNL A   1      30.935  22.914  22.192  1.00  0.00     0.169 HD
ATOM     16  O   UNL A   1      32.244  21.201  22.885  1.00  0.00    -0.274 OA
BRANCH  14  17
ATOM     17  C   UNL A   1      33.874  22.618  23.873  1.00  0.00     0.095 C 
ATOM     18  C   UNL A   1      34.931  23.464  23.140  1.00  0.00     0.041 C 
ATOM     19  C   UNL A   1      34.327  21.350  24.614  1.00  0.00     0.095 C 
ATOM     20  C   UNL A   1      36.356  23.032  23.340  1.00  0.00    -0.030 C 
ATOM     21  C   UNL A   1      35.798  21.303  25.057  1.00  0.00     0.041 C 
ATOM     22  C   UNL A   1      36.739  22.068  24.186  1.00  0.00    -0.030 C 
BRANCH  19  23
ATOM     23  C   UNL A   1      33.393  20.940  25.775  1.00  0.00     0.228 C 
ATOM     24  O   UNL A   1      33.012  21.817  26.563  1.00  0.00    -0.274 OA
ATOM     25  N   UNL A   1      32.854  19.688  25.932  1.00  0.00    -0.326 N 
ATOM     26  H   UNL A   1      32.137  19.633  26.603  1.00  0.00     0.169 HD
BRANCH  25  27
ATOM     27  C   UNL A   1      33.150  18.471  25.299  1.00  0.00     0.048 A 
ATOM     28  C   UNL A   1      33.965  18.481  24.167  1.00  0.00     0.026 A 
ATOM     29  C   UNL A   1      32.625  17.262  25.739  1.00  0.00     0.111 A 
ATOM     30  C   UNL A   1      34.397  17.275  23.600  1.00  0.00     0.009 A 
ATOM     31  C   UNL A   1      33.110  16.055  25.224  1.00  0.00     0.271 A 
ATOM     32  C   UNL A   1      34.005  16.055  24.155  1.00  0.00     0.086 A 
BRANCH  31  33
ATOM     33  N   UNL A   1      32.702  14.793  25.851  1.00  0.00     0.062 N 
ATOM     34  O   UNL A   1      31.859  14.839  26.758  1.00  0.00    -0.258 OA
ATOM     35  O   UNL A   1      33.217  13.746  25.430  1.00  0.00    -0.258 OA
ENDBRANCH  31  33
ENDBRANCH  25  27
ENDBRANCH  19  23
ENDBRANCH  14  17
ENDBRANCH  12  13
ENDBRANCH   5   7
ENDBRANCH   2   3
ENDBRANCH   1   2
BRANCH   1  36
ATOM     36  C   UNL A   1      32.740  29.444  27.440  1.00  0.00     0.002 C 
BRANCH  36  37
ATOM     37  C   UNL A   1      33.375  30.837  27.478  1.00  0.00     0.002 C 
BRANCH  37  38
ATOM     38  C   UNL A   1      32.408  32.026  27.436  1.00  0.00     0.021 C 
BRANCH  38  39
ATOM     39  C   UNL A   1      32.993  33.347  26.946  1.00  0.00     0.116 C 
BRANCH  39  40
ATOM     40  N   UNL A   1      32.620  34.477  27.779  1.00  0.00    -0.352 N 
ATOM     41  C   UNL A   1      33.105  34.859  29.004  1.00  0.00     0.251 C 
ATOM     42  H   UNL A   1      31.912  35.054  27.410  1.00  0.00     0.163 HD
ATOM     43  O   UNL A   1      32.574  35.789  29.605  1.00  0.00    -0.269 OA
BRANCH  41  44
ATOM     44  C   UNL A   1      34.245  34.140  29.615  1.00  0.00     0.039 A 
ATOM     45  C   UNL A   1      35.538  34.455  29.190  1.00  0.00     0.014 A 
ATOM     46  C   UNL A   1      34.048  33.152  30.584  1.00  0.00     0.014 A 
ATOM     47  C   UNL A   1      36.637  33.821  29.775  1.00  0.00     0.010 A 
ATOM     48  C   UNL A   1      35.146  32.564  31.209  1.00  0.00     0.010 A 
ATOM     49  C   UNL A   1      36.451  32.889  30.809  1.00  0.00    -0.014 A 
BRANCH  49  50
ATOM     50  C   UNL A   1      37.609  32.259  31.493  1.00  0.00     0.031 A 
ATOM     51  C   UNL A   1      38.356  31.129  30.839  1.00  0.00     0.074 A 
ATOM     52  C   UNL A   1      37.931  32.645  32.744  1.00  0.00     0.049 A 
ATOM     53  N   UNL A   1      39.343  30.413  31.310  1.00  0.00    -0.248 NA
ATOM     54  C   UNL A   1      37.921  30.737  29.489  1.00  0.00     0.031 C 
ATOM     55  C   UNL A   1      37.231  33.671  33.519  1.00  0.00     0.029 A 
ATOM     56  N   UNL A   1      38.910  32.196  33.595  1.00  0.00    -0.354 N 
ATOM     57  C   UNL A   1      39.629  29.468  30.332  1.00  0.00     0.074 A 
ATOM     58  C   UNL A   1      38.687  29.681  29.253  1.00  0.00     0.031 C 
ATOM     59  C   UNL A   1      37.794  33.764  34.734  1.00  0.00     0.029 A 
ATOM     60  C   UNL A   1      38.882  32.795  34.833  1.00  0.00     0.049 A 
ATOM     61  H   UNL A   1      39.569  31.509  33.344  1.00  0.00     0.167 HD
ATOM     62  C   UNL A   1      40.606  28.530  30.316  1.00  0.00     0.034 A 
ATOM     63  C   UNL A   1      39.640  32.585  35.926  1.00  0.00     0.034 A 
ATOM     64  C   UNL A   1      41.570  28.350  31.367  1.00  0.00     0.049 A 
ATOM     65  C   UNL A   1      40.758  31.581  35.860  1.00  0.00     0.074 A 
ATOM     66  C   UNL A   1      42.642  27.476  31.411  1.00  0.00     0.029 A 
ATOM     67  N   UNL A   1      41.583  29.058  32.558  1.00  0.00    -0.354 N 
ATOM     68  N   UNL A   1      41.109  30.802  34.865  1.00  0.00    -0.248 NA
ATOM     69  C   UNL A   1      41.612  31.454  37.050  1.00  0.00     0.031 C 
ATOM     70  C   UNL A   1      43.302  27.655  32.632  1.00  0.00     0.029 A 
ATOM     71  C   UNL A   1      42.645  28.646  33.343  1.00  0.00     0.049 A 
ATOM     72  H   UNL A   1      40.932  29.753  32.809  1.00  0.00     0.167 HD
ATOM     73  C   UNL A   1      42.237  30.116  35.296  1.00  0.00     0.074 A 
ATOM     74  C   UNL A   1      42.528  30.588  36.635  1.00  0.00     0.031 C 
ATOM     75  C   UNL A   1      42.957  29.166  34.650  1.00  0.00     0.034 A 
BRANCH  62  76
ATOM     76  C   UNL A   1      40.727  27.671  29.085  1.00  0.00     0.023 A 
ATOM     77  C   UNL A   1      39.918  26.522  28.967  1.00  0.00     0.012 A 
ATOM     78  C   UNL A   1      41.587  28.023  28.027  1.00  0.00     0.148 A 
ATOM     79  C   UNL A   1      39.984  25.720  27.830  1.00  0.00     0.002 A 
ATOM     80  C   UNL A   1      41.619  27.238  26.879  1.00  0.00     0.091 A 
ATOM     81  F   UNL A   1      42.365  29.105  28.166  1.00  0.00    -0.205 F 
ATOM     82  C   UNL A   1      40.826  26.083  26.783  1.00  0.00     0.022 A 
BRANCH  80  83
ATOM     83  S   UNL A   1      42.617  27.663  25.446  1.00  0.00     0.127 S 
ATOM     84  O   UNL A   1      42.507  26.448  24.639  1.00  0.00    -0.237 OA
ATOM     85  O   UNL A   1      41.907  28.821  24.904  1.00  0.00    -0.237 OA
ATOM     86  O   UNL A   1      43.948  27.956  25.961  1.00  0.00    -0.744 OA
ENDBRANCH  80  83
ENDBRANCH  62  76
BRANCH  63  87
ATOM     87  C   UNL A   1      39.407  33.396  37.154  1.00  0.00     0.023 A 
ATOM     88  C   UNL A   1      39.950  34.693  37.239  1.00  0.00     0.012 A 
ATOM     89  C   UNL A   1      38.619  32.910  38.214  1.00  0.00     0.148 A 
ATOM     90  C   UNL A   1      39.735  35.481  38.370  1.00  0.00     0.002 A 
ATOM     91  C   UNL A   1      38.364  33.720  39.315  1.00  0.00     0.091 A 
ATOM     92  F   UNL A   1      38.124  31.667  38.123  1.00  0.00    -0.205 F 
ATOM     93  C   UNL A   1      38.933  34.999  39.403  1.00  0.00     0.022 A 
BRANCH  91  94
ATOM     94  S   UNL A   1      37.233  33.221  40.619  1.00  0.00     0.127 S 
ATOM     95  O   UNL A   1      37.991  32.170  41.292  1.00  0.00    -0.237 OA
ATOM     96  O   UNL A   1      37.081  34.458  41.386  1.00  0.00    -0.237 OA
ATOM     97  O   UNL A   1      36.019  32.793  39.937  1.00  0.00    -0.744 OA
ENDBRANCH  91  94
ENDBRANCH  63  87
BRANCH  75  98
ATOM     98  C   UNL A   1      44.144  28.580  35.368  1.00  0.00     0.023 A 
ATOM     99  C   UNL A   1      45.433  29.082  35.102  1.00  0.00     0.012 A 
ATOM    100  C   UNL A   1      43.975  27.593  36.359  1.00  0.00     0.148 A 
ATOM    101  C   UNL A   1      46.540  28.592  35.793  1.00  0.00     0.002 A 
ATOM    102  C   UNL A   1      45.078  27.140  37.072  1.00  0.00     0.091 A 
ATOM    103  F   UNL A   1      42.743  27.112  36.581  1.00  0.00    -0.205 F 
ATOM    104  C   UNL A   1      46.362  27.631  36.785  1.00  0.00     0.022 A 
BRANCH 102 105
ATOM    105  S   UNL A   1      44.927  25.967  38.425  1.00  0.00     0.127 S 
ATOM    106  O   UNL A   1      44.249  24.847  37.776  1.00  0.00    -0.237 OA
ATOM    107  O   UNL A   1      46.324  25.713  38.778  1.00  0.00    -0.237 OA
ATOM    108  O   UNL A   1      44.162  26.651  39.460  1.00  0.00    -0.744 OA
ENDBRANCH 102 105
ENDBRANCH  75  98
ENDBRANCH  49  50
ENDBRANCH  41  44
ENDBRANCH  39  40
ENDBRANCH  38  39
ENDBRANCH  37  38
ENDBRANCH  36  37
ENDBRANCH   1  36
TORSDOF 21
ENDMDL
MODEL 2
REMARK VINA RESULT:     -12.9      5.986     12.129
REMARK SMILES O=C(NCCCCCCNC(=O)c1ccc(-c2c3nc(c(-c4cccc(S(=O)(=O)[O-])c4F)c4ccc([nH]4)c(-c4cccc(S(=O)(=O)[O-])c4F)c4nc(c(-c5cccc(S(=O)(=O)[O-])c5F)c5ccc2[nH]5)C=C4)C=C3)cc1)c1ccc(NC(=O)[C@@H]2CC=CC[C@H]2C(=O)Nc2cccc([N+](=O)[O-])c2)cc1
REMARK SMILES IDX 5 1 4 2 3 3 1 4 2 5 76 7 77 8 102 9 78 10 101 11 79 12 80 13
REMARK SMILES IDX 81 14 82 16 83 17 84 18 88 19 85 20 87 21 86 22 89 23 90 24
REMARK SMILES IDX 91 25 92 27 93 28 100 29 94 30 96 31 95 32 97 33 98 34 99 35
REMARK SMILES IDX 6 36 7 37 8 38 9 39 10 40 11 41 12 43 13 44 14 45 75 46
REMARK SMILES IDX 15 47 74 48 16 49 17 50 18 51 68 52 19 53 73 54 67 55 69 56
REMARK SMILES IDX 20 57 72 58 66 59 65 60 21 62 53 63 33 64 52 65 34 66 37 67
REMARK SMILES IDX 51 68 70 69 35 70 36 71 50 73 71 74 38 75 22 76 23 77 31 78
REMARK SMILES IDX 24 79 26 80 32 81 25 82 27 83 28 84 29 85 30 86 54 87 55 88
REMARK SMILES IDX 63 89 56 90 58 91 64 92 57 93 59 94 60 95 61 96 62 97 39 98
REMARK SMILES IDX 40 99 48 100 41 101 43 102 49 103 42 104 44 105 45 106
REMARK SMILES IDX 46 107 47 108
REMARK H PARENT 3 6 80 15 91 26 10 42 69 61 37 72
REMARK Flexibility Score: inf
ROOT
ATOM      1  C   UNL A   1      36.237  22.363  24.711  1.00  0.00     0.021 C 
ENDROOT
BRANCH   1   2
ATOM      2  C   UNL A   1      35.514  21.557  25.777  1.00  0.00     0.116 C 
BRANCH   2   3
ATOM      3  N   UNL A   1      35.021  20.266  25.310  1.00  0.00    -0.352 N 
ATOM      4  O   UNL A   1      33.467  18.804  24.540  1.00  0.00    -0.269 OA
ATOM      5  C   UNL A   1      33.778  19.963  24.796  1.00  0.00     0.251 C 
ATOM      6  H   UNL A   1      35.655  19.516  25.371  1.00  0.00     0.163 HD
BRANCH   5   7
ATOM      7  C   UNL A   1      32.806  21.057  24.575  1.00  0.00     0.039 A 
ATOM      8  C   UNL A   1      32.681  21.623  23.312  1.00  0.00     0.016 A 
ATOM      9  C   UNL A   1      32.060  21.574  25.635  1.00  0.00     0.016 A 
ATOM     10  C   UNL A   1      31.965  22.798  23.150  1.00  0.00     0.027 A 
ATOM     11  C   UNL A   1      31.226  22.679  25.417  1.00  0.00     0.027 A 
ATOM     12  C   UNL A   1      31.164  23.297  24.159  1.00  0.00     0.041 A 
BRANCH  12  13
ATOM     13  N   UNL A   1      30.248  24.341  23.987  1.00  0.00    -0.326 N 
ATOM     14  C   UNL A   1      30.260  25.684  24.176  1.00  0.00     0.228 C 
ATOM     15  H   UNL A   1      29.382  24.021  23.645  1.00  0.00     0.169 HD
ATOM     16  O   UNL A   1      29.254  26.279  23.753  1.00  0.00    -0.274 OA
BRANCH  14  17
ATOM     17  C   UNL A   1      31.325  26.515  24.893  1.00  0.00     0.095 C 
ATOM     18  C   UNL A   1      31.622  26.191  26.369  1.00  0.00     0.041 C 
ATOM     19  C   UNL A   1      31.230  27.989  24.464  1.00  0.00     0.095 C 
ATOM     20  C   UNL A   1      31.933  27.376  27.240  1.00  0.00    -0.030 C 
ATOM     21  C   UNL A   1      31.968  29.007  25.346  1.00  0.00     0.041 C 
ATOM     22  C   UNL A   1      32.079  28.626  26.786  1.00  0.00    -0.030 C 
BRANCH  19  23
ATOM     23  C   UNL A   1      31.550  28.224  22.971  1.00  0.00     0.228 C 
ATOM     24  O   UNL A   1      32.599  27.753  22.511  1.00  0.00    -0.274 OA
ATOM     25  N   UNL A   1      30.695  28.821  22.080  1.00  0.00    -0.326 N 
ATOM     26  H   UNL A   1      30.960  28.730  21.137  1.00  0.00     0.169 HD
BRANCH  25  27
ATOM     27  C   UNL A   1      29.508  29.540  22.281  1.00  0.00     0.048 A 
ATOM     28  C   UNL A   1      28.406  28.883  22.830  1.00  0.00     0.026 A 
ATOM     29  C   UNL A   1      29.380  30.875  21.916  1.00  0.00     0.111 A 
ATOM     30  C   UNL A   1      27.258  29.604  23.178  1.00  0.00     0.009 A 
ATOM     31  C   UNL A   1      28.266  31.614  22.327  1.00  0.00     0.271 A 
ATOM     32  C   UNL A   1      27.200  30.983  22.968  1.00  0.00     0.086 A 
BRANCH  31  33
ATOM     33  N   UNL A   1      28.252  33.066  22.119  1.00  0.00     0.062 N 
ATOM     34  O   UNL A   1      27.653  33.507  21.128  1.00  0.00    -0.258 OA
ATOM     35  O   UNL A   1      28.835  33.775  22.954  1.00  0.00    -0.258 OA
ENDBRANCH  31  33
ENDBRANCH  25  27
ENDBRANCH  19  23
ENDBRANCH  14  17
ENDBRANCH  12  13
ENDBRANCH   5   7
ENDBRANCH   2   3
ENDBRANCH   1   2
BRANCH   1  36
ATOM     36  C   UNL A   1      37.322  23.297  25.235  1.00  0.00     0.002 C 
BRANCH  36  37
ATOM     37  C   UNL A   1      38.564  22.620  25.822  1.00  0.00     0.002 C 
BRANCH  37  38
ATOM     38  C   UNL A   1      38.886  21.217  25.295  1.00  0.00     0.021 C 
BRANCH  38  39
ATOM     39  C   UNL A   1      39.022  20.122  26.349  1.00  0.00     0.116 C 
BRANCH  39  40
ATOM     40  N   UNL A   1      40.127  19.217  26.087  1.00  0.00    -0.352 N 
ATOM     41  C   UNL A   1      41.473  19.473  26.027  1.00  0.00     0.251 C 
ATOM     42  H   UNL A   1      39.872  18.278  25.929  1.00  0.00     0.163 HD
ATOM     43  O   UNL A   1      42.247  18.587  25.675  1.00  0.00    -0.269 OA
BRANCH  41  44
ATOM     44  C   UNL A   1      41.994  20.820  26.354  1.00  0.00     0.039 A 
ATOM     45  C   UNL A   1      42.270  21.701  25.305  1.00  0.00     0.014 A 
ATOM     46  C   UNL A   1      42.226  21.210  27.676  1.00  0.00     0.014 A 
ATOM     47  C   UNL A   1      42.725  22.993  25.583  1.00  0.00     0.010 A 
ATOM     48  C   UNL A   1      42.623  22.517  27.954  1.00  0.00     0.010 A 
ATOM     49  C   UNL A   1      42.880  23.420  26.912  1.00  0.00    -0.014 A 
BRANCH  49  50
ATOM     50  C   UNL A   1      43.293  24.811  27.228  1.00  0.00     0.031 A 
ATOM     51  C   UNL A   1      42.323  25.767  27.867  1.00  0.00     0.074 A 
ATOM     52  C   UNL A   1      44.516  25.240  26.859  1.00  0.00     0.049 A 
ATOM     53  N   UNL A   1      42.481  27.032  28.152  1.00  0.00    -0.248 NA
ATOM     54  C   UNL A   1      40.992  25.237  28.206  1.00  0.00     0.031 C 
ATOM     55  C   UNL A   1      45.518  24.435  26.158  1.00  0.00     0.029 A 
ATOM     56  N   UNL A   1      45.112  26.469  26.992  1.00  0.00    -0.354 N 
ATOM     57  C   UNL A   1      41.266  27.459  28.675  1.00  0.00     0.074 A 
ATOM     58  C   UNL A   1      40.369  26.324  28.637  1.00  0.00     0.031 C 
ATOM     59  C   UNL A   1      46.598  25.194  25.912  1.00  0.00     0.029 A 
ATOM     60  C   UNL A   1      46.361  26.542  26.420  1.00  0.00     0.049 A 
ATOM     61  H   UNL A   1      44.686  27.228  27.452  1.00  0.00     0.167 HD
ATOM     62  C   UNL A   1      40.936  28.676  29.173  1.00  0.00     0.034 A 
ATOM     63  C   UNL A   1      47.217  27.577  26.310  1.00  0.00     0.034 A 
ATOM     64  C   UNL A   1      41.842  29.789  29.254  1.00  0.00     0.049 A 
ATOM     65  C   UNL A   1      46.849  28.899  26.927  1.00  0.00     0.074 A 
ATOM     66  C   UNL A   1      41.623  31.037  29.809  1.00  0.00     0.029 A 
ATOM     67  N   UNL A   1      43.141  29.788  28.771  1.00  0.00    -0.354 N 
ATOM     68  N   UNL A   1      45.750  29.238  27.556  1.00  0.00    -0.248 NA
ATOM     69  C   UNL A   1      47.855  29.969  26.858  1.00  0.00     0.031 C 
ATOM     70  C   UNL A   1      42.792  31.793  29.658  1.00  0.00     0.029 A 
ATOM     71  C   UNL A   1      43.738  31.012  29.017  1.00  0.00     0.049 A 
ATOM     72  H   UNL A   1      43.575  29.028  28.320  1.00  0.00     0.167 HD
ATOM     73  C   UNL A   1      45.942  30.546  27.982  1.00  0.00     0.074 A 
ATOM     74  C   UNL A   1      47.273  30.932  27.561  1.00  0.00     0.031 C 
ATOM     75  C   UNL A   1      45.085  31.362  28.644  1.00  0.00     0.034 A 
BRANCH  62  76
ATOM     76  C   UNL A   1      39.551  28.842  29.741  1.00  0.00     0.023 A 
ATOM     77  C   UNL A   1      39.300  28.439  31.068  1.00  0.00     0.012 A 
ATOM     78  C   UNL A   1      38.519  29.443  28.995  1.00  0.00     0.148 A 
ATOM     79  C   UNL A   1      38.038  28.602  31.635  1.00  0.00     0.002 A 
ATOM     80  C   UNL A   1      37.273  29.639  29.579  1.00  0.00     0.091 A 
ATOM     81  F   UNL A   1      38.769  29.799  27.726  1.00  0.00    -0.205 F 
ATOM     82  C   UNL A   1      37.028  29.211  30.895  1.00  0.00     0.022 A 
BRANCH  80  83
ATOM     83  S   UNL A   1      35.929  30.479  28.733  1.00  0.00     0.127 S 
ATOM     84  O   UNL A   1      36.657  31.304  27.770  1.00  0.00    -0.237 OA
ATOM     85  O   UNL A   1      35.188  29.364  28.143  1.00  0.00    -0.237 OA
ATOM     86  O   UNL A   1      35.204  31.210  29.764  1.00  0.00    -0.744 OA
ENDBRANCH  80  83
ENDBRANCH  62  76
BRANCH  63  87
ATOM     87  C   UNL A   1      48.535  27.378  25.646  1.00  0.00     0.023 A 
ATOM     88  C   UNL A   1      49.643  26.975  26.416  1.00  0.00     0.012 A 
ATOM     89  C   UNL A   1      48.687  27.543  24.257  1.00  0.00     0.148 A 
ATOM     90  C   UNL A   1      50.886  26.766  25.818  1.00  0.00     0.002 A 
ATOM     91  C   UNL A   1      49.915  27.282  23.659  1.00  0.00     0.091 A 
ATOM     92  F   UNL A   1      47.625  27.943  23.542  1.00  0.00    -0.205 F 
ATOM     93  C   UNL A   1      51.020  26.908  24.439  1.00  0.00     0.022 A 
BRANCH  91  94
ATOM     94  S   UNL A   1      50.128  27.313  21.874  1.00  0.00     0.127 S 
ATOM     95  O   UNL A   1      51.525  26.916  21.729  1.00  0.00    -0.237 OA
ATOM     96  O   UNL A   1      49.154  26.314  21.430  1.00  0.00    -0.237 OA
ATOM     97  O   UNL A   1      49.807  28.675  21.469  1.00  0.00    -0.744 OA
ENDBRANCH  91  94
ENDBRANCH  63  87
BRANCH  75  98
ATOM     98  C   UNL A   1      45.560  32.752  28.976  1.00  0.00     0.023 A 
ATOM     99  C   UNL A   1      46.334  32.963  30.134  1.00  0.00     0.012 A 
ATOM    100  C   UNL A   1      45.308  33.830  28.104  1.00  0.00     0.148 A 
ATOM    101  C   UNL A   1      46.830  34.231  30.433  1.00  0.00     0.002 A 
ATOM    102  C   UNL A   1      45.841  35.082  28.388  1.00  0.00     0.091 A 
ATOM    103  F   UNL A   1      44.550  33.614  27.019  1.00  0.00    -0.205 F 
ATOM    104  C   UNL A   1      46.594  35.286  29.556  1.00  0.00     0.022 A 
BRANCH 102 105
ATOM    105  S   UNL A   1      45.659  36.476  27.269  1.00  0.00     0.127 S 
ATOM    106  O   UNL A   1      46.665  36.177  26.253  1.00  0.00    -0.237 OA
ATOM    107  O   UNL A   1      44.274  36.336  26.816  1.00  0.00    -0.237 OA
ATOM    108  O   UNL A   1      45.909  37.665  28.073  1.00  0.00    -0.744 OA
ENDBRANCH 102 105
ENDBRANCH  75  98
ENDBRANCH  49  50
ENDBRANCH  41  44
ENDBRANCH  39  40
ENDBRANCH  38  39
ENDBRANCH  37  38
ENDBRANCH  36  37
ENDBRANCH   1  36
TORSDOF 21
ENDMDL
MODEL 3
REMARK VINA RESULT:     -12.9      5.914     10.631
REMARK SMILES O=C(NCCCCCCNC(=O)c1ccc(-c2c3nc(c(-c4cccc(S(=O)(=O)[O-])c4F)c4ccc([nH]4)c(-c4cccc(S(=O)(=O)[O-])c4F)c4nc(c(-c5cccc(S(=O)(=O)[O-])c5F)c5ccc2[nH]5)C=C4)C=C3)cc1)c1ccc(NC(=O)[C@@H]2CC=CC[C@H]2C(=O)Nc2cccc([N+](=O)[O-])c2)cc1
REMARK SMILES IDX 5 1 4 2 3 3 1 4 2 5 76 7 77 8 102 9 78 10 101 11 79 12 80 13
REMARK SMILES IDX 81 14 82 16 83 17 84 18 88 19 85 20 87 21 86 22 89 23 90 24
REMARK SMILES IDX 91 25 92 27 93 28 100 29 94 30 96 31 95 32 97 33 98 34 99 35
REMARK SMILES IDX 6 36 7 37 8 38 9 39 10 40 11 41 12 43 13 44 14 45 75 46
REMARK SMILES IDX 15 47 74 48 16 49 17 50 18 51 68 52 19 53 73 54 67 55 69 56
REMARK SMILES IDX 20 57 72 58 66 59 65 60 21 62 53 63 33 64 52 65 34 66 37 67
REMARK SMILES IDX 51 68 70 69 35 70 36 71 50 73 71 74 38 75 22 76 23 77 31 78
REMARK SMILES IDX 24 79 26 80 32 81 25 82 27 83 28 84 29 85 30 86 54 87 55 88
REMARK SMILES IDX 63 89 56 90 58 91 64 92 57 93 59 94 60 95 61 96 62 97 39 98
REMARK SMILES IDX 40 99 48 100 41 101 43 102 49 103 42 104 44 105 45 106
REMARK SMILES IDX 46 107 47 108
REMARK H PARENT 3 6 80 15 91 26 10 42 69 61 37 72
REMARK Flexibility Score: inf
ROOT
ATOM      1  C   UNL A   1      36.195  21.562  24.429  1.00  0.00     0.021 C 
ENDROOT
BRANCH   1   2
ATOM      2  C   UNL A   1      35.061  21.464  25.436  1.00  0.00     0.116 C 
BRANCH   2   3
ATOM      3  N   UNL A   1      34.287  20.232  25.338  1.00  0.00    -0.352 N 
ATOM      4  O   UNL A   1      32.400  18.988  25.148  1.00  0.00    -0.269 OA
ATOM      5  C   UNL A   1      32.937  20.090  25.098  1.00  0.00     0.251 C 
ATOM      6  H   UNL A   1      34.792  19.396  25.458  1.00  0.00     0.163 HD
BRANCH   5   7
ATOM      7  C   UNL A   1      32.129  21.294  24.803  1.00  0.00     0.039 A 
ATOM      8  C   UNL A   1      32.127  21.823  23.518  1.00  0.00     0.016 A 
ATOM      9  C   UNL A   1      31.422  21.946  25.813  1.00  0.00     0.016 A 
ATOM     10  C   UNL A   1      31.581  23.076  23.288  1.00  0.00     0.027 A 
ATOM     11  C   UNL A   1      30.752  23.143  25.526  1.00  0.00     0.027 A 
ATOM     12  C   UNL A   1      30.819  23.716  24.247  1.00  0.00     0.041 A 
BRANCH  12  13
ATOM     13  N   UNL A   1      30.058  24.864  24.003  1.00  0.00    -0.326 N 
ATOM     14  C   UNL A   1      30.238  26.200  24.163  1.00  0.00     0.228 C 
ATOM     15  H   UNL A   1      29.176  24.651  23.623  1.00  0.00     0.169 HD
ATOM     16  O   UNL A   1      29.342  26.909  23.675  1.00  0.00    -0.274 OA
BRANCH  14  17
ATOM     17  C   UNL A   1      31.367  26.905  24.917  1.00  0.00     0.095 C 
ATOM     18  C   UNL A   1      31.611  26.511  26.385  1.00  0.00     0.041 C 
ATOM     19  C   UNL A   1      31.417  28.393  24.533  1.00  0.00     0.095 C 
ATOM     20  C   UNL A   1      32.020  27.634  27.295  1.00  0.00    -0.030 C 
ATOM     21  C   UNL A   1      32.235  29.311  25.453  1.00  0.00     0.041 C 
ATOM     22  C   UNL A   1      32.289  28.878  26.882  1.00  0.00    -0.030 C 
BRANCH  19  23
ATOM     23  C   UNL A   1      31.779  28.640  23.051  1.00  0.00     0.228 C 
ATOM     24  O   UNL A   1      32.780  28.078  22.586  1.00  0.00    -0.274 OA
ATOM     25  N   UNL A   1      31.001  29.351  22.171  1.00  0.00    -0.326 N 
ATOM     26  H   UNL A   1      31.267  29.262  21.228  1.00  0.00     0.169 HD
BRANCH  25  27
ATOM     27  C   UNL A   1      29.891  30.182  22.385  1.00  0.00     0.048 A 
ATOM     28  C   UNL A   1      29.470  30.420  23.693  1.00  0.00     0.026 A 
ATOM     29  C   UNL A   1      29.174  30.743  21.336  1.00  0.00     0.111 A 
ATOM     30  C   UNL A   1      28.461  31.357  23.948  1.00  0.00     0.009 A 
ATOM     31  C   UNL A   1      28.217  31.732  21.586  1.00  0.00     0.271 A 
ATOM     32  C   UNL A   1      27.860  32.050  22.896  1.00  0.00     0.086 A 
BRANCH  31  33
ATOM     33  N   UNL A   1      27.629  32.462  20.457  1.00  0.00     0.062 N 
ATOM     34  O   UNL A   1      27.365  31.827  19.428  1.00  0.00    -0.258 OA
ATOM     35  O   UNL A   1      27.419  33.676  20.602  1.00  0.00    -0.258 OA
ENDBRANCH  31  33
ENDBRANCH  25  27
ENDBRANCH  19  23
ENDBRANCH  14  17
ENDBRANCH  12  13
ENDBRANCH   5   7
ENDBRANCH   2   3
ENDBRANCH   1   2
BRANCH   1  36
ATOM     36  C   UNL A   1      37.263  22.599  24.760  1.00  0.00     0.002 C 
BRANCH  36  37
ATOM     37  C   UNL A   1      38.481  22.085  25.533  1.00  0.00     0.002 C 
BRANCH  37  38
ATOM     38  C   UNL A   1      38.842  20.610  25.328  1.00  0.00     0.021 C 
BRANCH  38  39
ATOM     39  C   UNL A   1      39.524  19.918  26.505  1.00  0.00     0.116 C 
BRANCH  39  40
ATOM     40  N   UNL A   1      40.806  19.332  26.153  1.00  0.00    -0.352 N 
ATOM     41  C   UNL A   1      42.040  19.922  26.055  1.00  0.00     0.251 C 
ATOM     42  H   UNL A   1      40.786  18.367  25.956  1.00  0.00     0.163 HD
ATOM     43  O   UNL A   1      42.992  19.275  25.628  1.00  0.00    -0.269 OA
BRANCH  41  44
ATOM     44  C   UNL A   1      42.223  21.342  26.432  1.00  0.00     0.039 A 
ATOM     45  C   UNL A   1      42.336  21.662  27.788  1.00  0.00     0.014 A 
ATOM     46  C   UNL A   1      42.267  22.353  25.468  1.00  0.00     0.014 A 
ATOM     47  C   UNL A   1      42.549  22.988  28.174  1.00  0.00     0.010 A 
ATOM     48  C   UNL A   1      42.538  23.666  25.851  1.00  0.00     0.010 A 
ATOM     49  C   UNL A   1      42.678  23.997  27.206  1.00  0.00    -0.014 A 
BRANCH  49  50
ATOM     50  C   UNL A   1      42.976  25.400  27.594  1.00  0.00     0.031 A 
ATOM     51  C   UNL A   1      44.390  25.911  27.575  1.00  0.00     0.074 A 
ATOM     52  C   UNL A   1      41.981  26.188  28.048  1.00  0.00     0.049 A 
ATOM     53  N   UNL A   1      44.849  27.078  27.944  1.00  0.00    -0.248 NA
ATOM     54  C   UNL A   1      45.429  24.979  27.104  1.00  0.00     0.031 C 
ATOM     55  C   UNL A   1      40.581  25.783  28.193  1.00  0.00     0.029 A 
ATOM     56  N   UNL A   1      42.002  27.483  28.503  1.00  0.00    -0.354 N 
ATOM     57  C   UNL A   1      46.228  27.014  27.779  1.00  0.00     0.074 A 
ATOM     58  C   UNL A   1      46.534  25.681  27.308  1.00  0.00     0.031 C 
ATOM     59  C   UNL A   1      39.881  26.804  28.713  1.00  0.00     0.029 A 
ATOM     60  C   UNL A   1      40.781  27.928  28.955  1.00  0.00     0.049 A 
ATOM     61  H   UNL A   1      42.813  28.040  28.507  1.00  0.00     0.167 HD
ATOM     62  C   UNL A   1      47.152  27.986  27.971  1.00  0.00     0.034 A 
ATOM     63  C   UNL A   1      40.426  29.104  29.507  1.00  0.00     0.034 A 
ATOM     64  C   UNL A   1      46.842  29.325  28.393  1.00  0.00     0.049 A 
ATOM     65  C   UNL A   1      41.460  30.187  29.650  1.00  0.00     0.074 A 
ATOM     66  C   UNL A   1      47.699  30.400  28.545  1.00  0.00     0.029 A 
ATOM     67  N   UNL A   1      45.574  29.774  28.729  1.00  0.00    -0.354 N 
ATOM     68  N   UNL A   1      42.734  30.156  29.343  1.00  0.00    -0.248 NA
ATOM     69  C   UNL A   1      41.001  31.482  30.176  1.00  0.00     0.031 C 
ATOM     70  C   UNL A   1      46.948  31.501  28.975  1.00  0.00     0.029 A 
ATOM     71  C   UNL A   1      45.624  31.111  29.083  1.00  0.00     0.049 A 
ATOM     72  H   UNL A   1      44.758  29.223  28.716  1.00  0.00     0.167 HD
ATOM     73  C   UNL A   1      43.223  31.429  29.610  1.00  0.00     0.074 A 
ATOM     74  C   UNL A   1      42.102  32.217  30.081  1.00  0.00     0.031 C 
ATOM     75  C   UNL A   1      44.490  31.898  29.494  1.00  0.00     0.034 A 
BRANCH  62  76
ATOM     76  C   UNL A   1      48.586  27.656  27.650  1.00  0.00     0.023 A 
ATOM     77  C   UNL A   1      49.404  27.103  28.656  1.00  0.00     0.012 A 
ATOM     78  C   UNL A   1      49.108  27.835  26.355  1.00  0.00     0.148 A 
ATOM     79  C   UNL A   1      50.728  26.761  28.387  1.00  0.00     0.002 A 
ATOM     80  C   UNL A   1      50.418  27.455  26.084  1.00  0.00     0.091 A 
ATOM     81  F   UNL A   1      48.323  28.384  25.417  1.00  0.00    -0.205 F 
ATOM     82  C   UNL A   1      51.231  26.927  27.100  1.00  0.00     0.022 A 
BRANCH  80  83
ATOM     83  S   UNL A   1      51.136  27.563  24.440  1.00  0.00     0.127 S 
ATOM     84  O   UNL A   1      51.247  29.010  24.261  1.00  0.00    -0.237 OA
ATOM     85  O   UNL A   1      52.413  26.870  24.612  1.00  0.00    -0.237 OA
ATOM     86  O   UNL A   1      50.198  26.890  23.551  1.00  0.00    -0.744 OA
ENDBRANCH  80  83
ENDBRANCH  62  76
BRANCH  63  87
ATOM     87  C   UNL A   1      39.008  29.338  29.900  1.00  0.00     0.023 A 
ATOM     88  C   UNL A   1      38.547  28.858  31.141  1.00  0.00     0.012 A 
ATOM     89  C   UNL A   1      38.130  30.065  29.075  1.00  0.00     0.148 A 
ATOM     90  C   UNL A   1      37.229  29.075  31.542  1.00  0.00     0.002 A 
ATOM     91  C   UNL A   1      36.833  30.324  29.503  1.00  0.00     0.091 A 
ATOM     92  F   UNL A   1      38.582  30.500  27.890  1.00  0.00    -0.205 F 
ATOM     93  C   UNL A   1      36.375  29.818  30.729  1.00  0.00     0.022 A 
BRANCH  91  94
ATOM     94  S   UNL A   1      35.720  31.386  28.573  1.00  0.00     0.127 S 
ATOM     95  O   UNL A   1      34.686  31.680  29.561  1.00  0.00    -0.237 OA
ATOM     96  O   UNL A   1      36.586  32.516  28.230  1.00  0.00    -0.237 OA
ATOM     97  O   UNL A   1      35.297  30.594  27.425  1.00  0.00    -0.744 OA
ENDBRANCH  91  94
ENDBRANCH  63  87
BRANCH  75  98
ATOM     98  C   UNL A   1      44.737  33.337  29.864  1.00  0.00     0.023 A 
ATOM     99  C   UNL A   1      45.154  33.656  31.171  1.00  0.00     0.012 A 
ATOM    100  C   UNL A   1      44.635  34.359  28.899  1.00  0.00     0.148 A 
ATOM    101  C   UNL A   1      45.440  34.975  31.520  1.00  0.00     0.002 A 
ATOM    102  C   UNL A   1      44.962  35.665  29.244  1.00  0.00     0.091 A 
ATOM    103  F   UNL A   1      44.215  34.038  27.667  1.00  0.00    -0.205 F 
ATOM    104  C   UNL A   1      45.356  35.976  30.556  1.00  0.00     0.022 A 
BRANCH 102 105
ATOM    105  S   UNL A   1      44.965  37.001  28.042  1.00  0.00     0.127 S 
ATOM    106  O   UNL A   1      43.540  37.144  27.752  1.00  0.00    -0.237 OA
ATOM    107  O   UNL A   1      45.546  38.107  28.804  1.00  0.00    -0.237 OA
ATOM    108  O   UNL A   1      45.790  36.536  26.935  1.00  0.00    -0.744 OA
ENDBRANCH 102 105
ENDBRANCH  75  98
ENDBRANCH  49  50
ENDBRANCH  41  44
ENDBRANCH  39  40
ENDBRANCH  38  39
ENDBRANCH  37  38
ENDBRANCH  36  37
ENDBRANCH   1  36
TORSDOF 21
ENDMDL
