MODEL 1
REMARK VINA RESULT:     -10.6      0.000      0.000
REMARK SMILES CC1C[NH+]([C@H]2COC[C@@H]2C(=O)NCCCCCCNC(=O)c2ccc(-c3c4nc(c(-c5cccc(S(=O)(=O)[O-])c5F)c5ccc([nH]5)c(-c5cccc(S(=O)(=O)[O-])c5F)c5nc(c(-c6cccc(S(=O)(=O)[O-])c6F)c6ccc3[nH]6)C=C5)C=C4)cc2)C1
REMARK SMILES IDX 16 1 15 2 14 3 13 4 12 5 10 6 11 7 9 9 5 10 6 11 7 12 8 13
REMARK SMILES IDX 4 14 1 15 2 16 3 17 85 18 17 20 18 21 19 22 20 23 21 25
REMARK SMILES IDX 22 26 23 27 84 28 24 29 83 30 25 31 26 32 27 33 77 34 28 35
REMARK SMILES IDX 82 36 76 37 78 38 29 39 81 40 75 41 74 42 30 44 62 45 42 46
REMARK SMILES IDX 61 47 43 48 46 49 60 50 79 51 44 52 45 53 59 55 80 56 47 57
REMARK SMILES IDX 31 58 32 59 40 60 33 61 35 62 41 63 34 64 36 65 37 66 38 67
REMARK SMILES IDX 39 68 63 69 64 70 72 71 65 72 67 73 73 74 66 75 68 76 69 77
REMARK SMILES IDX 70 78 71 79 48 80 49 81 57 82 50 83 52 84 58 85 51 86 53 87
REMARK SMILES IDX 54 88 55 89 56 90
REMARK H PARENT 12 8 4 19 19 24 78 43 46 54
REMARK Flexibility Score: inf
ROOT
ATOM      1  C   UNL A   1      32.846  29.199  24.381  1.00  0.00     0.002 C 
ENDROOT
BRANCH   1   2
ATOM      2  C   UNL A   1      31.350  28.878  24.428  1.00  0.00     0.002 C 
BRANCH   2   3
ATOM      3  C   UNL A   1      30.719  28.524  23.074  1.00  0.00     0.021 C 
BRANCH   3   4
ATOM      4  C   UNL A   1      30.734  27.029  22.749  1.00  0.00     0.116 C 
BRANCH   4   5
ATOM      5  N   UNL A   1      31.663  26.747  21.667  1.00  0.00    -0.356 N 
ATOM      6  C   UNL A   1      32.494  25.679  21.494  1.00  0.00     0.231 C 
ATOM      7  O   UNL A   1      33.250  25.691  20.524  1.00  0.00    -0.274 OA
ATOM      8  H   UNL A   1      31.696  27.425  20.954  1.00  0.00     0.163 HD
BRANCH   6   9
ATOM      9  C   UNL A   1      32.423  24.528  22.484  1.00  0.00     0.164 C 
ATOM     10  C   UNL A   1      33.203  24.835  23.757  1.00  0.00     0.225 C 
ATOM     11  C   UNL A   1      34.594  24.292  23.407  1.00  0.00     0.226 C 
ATOM     12  O   UNL A   1      34.423  23.197  22.500  1.00  0.00    -0.374 OA
ATOM     13  C   UNL A   1      33.100  23.276  21.945  1.00  0.00     0.180 C 
BRANCH  10  14
ATOM     14  N   UNL A   1      32.478  24.310  24.932  1.00  0.00    -0.329 N 
ATOM     15  C   UNL A   1      33.861  22.528  27.510  1.00  0.00     0.020 C 
ATOM     16  C   UNL A   1      32.788  23.245  26.717  1.00  0.00     0.096 C 
ATOM     17  C   UNL A   1      33.139  24.661  26.206  1.00  0.00     0.271 C 
ATOM     18  C   UNL A   1      32.674  22.874  25.219  1.00  0.00     0.271 C 
ATOM     19  H   UNL A   1      31.541  24.641  24.703  1.00  0.00     0.348 HD
ENDBRANCH  10  14
ENDBRANCH   6   9
ENDBRANCH   4   5
ENDBRANCH   3   4
ENDBRANCH   2   3
ENDBRANCH   1   2
BRANCH   1  20
ATOM     20  C   UNL A   1      33.747  28.174  25.074  1.00  0.00     0.021 C 
BRANCH  20  21
ATOM     21  C   UNL A   1      34.172  28.556  26.488  1.00  0.00     0.116 C 
BRANCH  21  22
ATOM     22  N   UNL A   1      33.955  29.968  26.761  1.00  0.00    -0.352 N 
ATOM     23  C   UNL A   1      34.648  30.803  27.602  1.00  0.00     0.251 C 
ATOM     24  H   UNL A   1      33.206  30.384  26.275  1.00  0.00     0.163 HD
ATOM     25  O   UNL A   1      34.205  31.921  27.860  1.00  0.00    -0.269 OA
BRANCH  23  26
ATOM     26  C   UNL A   1      35.916  30.347  28.208  1.00  0.00     0.039 A 
ATOM     27  C   UNL A   1      35.877  29.642  29.414  1.00  0.00     0.014 A 
ATOM     28  C   UNL A   1      37.141  30.611  27.589  1.00  0.00     0.014 A 
ATOM     29  C   UNL A   1      37.061  29.151  29.966  1.00  0.00     0.010 A 
ATOM     30  C   UNL A   1      38.311  30.055  28.100  1.00  0.00     0.010 A 
ATOM     31  C   UNL A   1      38.285  29.324  29.297  1.00  0.00    -0.014 A 
BRANCH  31  32
ATOM     32  C   UNL A   1      39.544  28.738  29.829  1.00  0.00     0.031 A 
ATOM     33  C   UNL A   1      40.234  29.367  31.011  1.00  0.00     0.074 A 
ATOM     34  C   UNL A   1      40.104  27.682  29.204  1.00  0.00     0.049 A 
ATOM     35  N   UNL A   1      41.367  29.037  31.575  1.00  0.00    -0.248 NA
ATOM     36  C   UNL A   1      39.580  30.535  31.625  1.00  0.00     0.031 C 
ATOM     37  C   UNL A   1      39.571  27.025  28.008  1.00  0.00     0.029 A 
ATOM     38  N   UNL A   1      41.261  26.992  29.471  1.00  0.00    -0.354 N 
ATOM     39  C   UNL A   1      41.573  29.965  32.588  1.00  0.00     0.074 A 
ATOM     40  C   UNL A   1      40.469  30.897  32.540  1.00  0.00     0.031 C 
ATOM     41  C   UNL A   1      40.394  26.027  27.649  1.00  0.00     0.029 A 
ATOM     42  C   UNL A   1      41.531  25.995  28.561  1.00  0.00     0.049 A 
ATOM     43  H   UNL A   1      41.841  27.191  30.240  1.00  0.00     0.167 HD
ATOM     44  C   UNL A   1      42.574  30.019  33.499  1.00  0.00     0.034 A 
ATOM     45  C   UNL A   1      42.584  25.160  28.466  1.00  0.00     0.034 A 
ATOM     46  C   UNL A   1      43.654  29.072  33.568  1.00  0.00     0.049 A 
ATOM     47  C   UNL A   1      43.676  25.236  29.500  1.00  0.00     0.074 A 
ATOM     48  C   UNL A   1      44.681  29.005  34.494  1.00  0.00     0.029 A 
ATOM     49  N   UNL A   1      43.853  28.030  32.677  1.00  0.00    -0.354 N 
ATOM     50  N   UNL A   1      43.777  26.033  30.537  1.00  0.00    -0.248 NA
ATOM     51  C   UNL A   1      44.782  24.276  29.374  1.00  0.00     0.031 C 
ATOM     52  C   UNL A   1      45.515  27.940  34.147  1.00  0.00     0.029 A 
ATOM     53  C   UNL A   1      44.987  27.319  33.026  1.00  0.00     0.049 A 
ATOM     54  H   UNL A   1      43.273  27.825  31.907  1.00  0.00     0.167 HD
ATOM     55  C   UNL A   1      44.929  25.640  31.208  1.00  0.00     0.074 A 
ATOM     56  C   UNL A   1      45.480  24.521  30.473  1.00  0.00     0.031 C 
ATOM     57  C   UNL A   1      45.490  26.168  32.324  1.00  0.00     0.034 A 
BRANCH  44  58
ATOM     58  C   UNL A   1      42.524  31.108  34.540  1.00  0.00     0.023 A 
ATOM     59  C   UNL A   1      41.919  30.848  35.786  1.00  0.00     0.012 A 
ATOM     60  C   UNL A   1      43.148  32.351  34.321  1.00  0.00     0.148 A 
ATOM     61  C   UNL A   1      41.913  31.816  36.790  1.00  0.00     0.002 A 
ATOM     62  C   UNL A   1      43.179  33.294  35.342  1.00  0.00     0.091 A 
ATOM     63  F   UNL A   1      43.705  32.585  33.124  1.00  0.00    -0.205 F 
ATOM     64  C   UNL A   1      42.553  33.032  36.572  1.00  0.00     0.022 A 
BRANCH  62  65
ATOM     65  S   UNL A   1      44.045  34.861  35.194  1.00  0.00     0.127 S 
ATOM     66  O   UNL A   1      45.415  34.418  34.935  1.00  0.00    -0.237 OA
ATOM     67  O   UNL A   1      43.375  35.473  34.048  1.00  0.00    -0.237 OA
ATOM     68  O   UNL A   1      43.849  35.553  36.461  1.00  0.00    -0.744 OA
ENDBRANCH  62  65
ENDBRANCH  44  58
BRANCH  45  69
ATOM     69  C   UNL A   1      42.648  24.144  27.375  1.00  0.00     0.023 A 
ATOM     70  C   UNL A   1      43.296  24.461  26.164  1.00  0.00     0.012 A 
ATOM     71  C   UNL A   1      42.057  22.874  27.522  1.00  0.00     0.148 A 
ATOM     72  C   UNL A   1      43.308  23.554  25.104  1.00  0.00     0.002 A 
ATOM     73  C   UNL A   1      42.127  21.952  26.484  1.00  0.00     0.091 A 
ATOM     74  F   UNL A   1      41.436  22.591  28.676  1.00  0.00    -0.205 F 
ATOM     75  C   UNL A   1      42.731  22.298  25.265  1.00  0.00     0.022 A 
BRANCH  73  76
ATOM     76  S   UNL A   1      41.523  20.270  26.654  1.00  0.00     0.127 S 
ATOM     77  O   UNL A   1      40.087  20.480  26.811  1.00  0.00    -0.237 OA
ATOM     78  O   UNL A   1      41.923  19.674  25.377  1.00  0.00    -0.237 OA
ATOM     79  O   UNL A   1      42.217  19.721  27.812  1.00  0.00    -0.744 OA
ENDBRANCH  73  76
ENDBRANCH  45  69
BRANCH  57  80
ATOM     80  C   UNL A   1      46.735  25.509  32.859  1.00  0.00     0.023 A 
ATOM     81  C   UNL A   1      48.005  25.951  32.441  1.00  0.00     0.012 A 
ATOM     82  C   UNL A   1      46.640  24.497  33.835  1.00  0.00     0.148 A 
ATOM     83  C   UNL A   1      49.162  25.368  32.957  1.00  0.00     0.002 A 
ATOM     84  C   UNL A   1      47.797  23.958  34.384  1.00  0.00     0.091 A 
ATOM     85  F   UNL A   1      45.422  24.079  34.208  1.00  0.00    -0.205 F 
ATOM     86  C   UNL A   1      49.059  24.382  33.936  1.00  0.00     0.022 A 
BRANCH  84  87
ATOM     87  S   UNL A   1      47.764  22.758  35.719  1.00  0.00     0.127 S 
ATOM     88  O   UNL A   1      49.189  22.558  35.975  1.00  0.00    -0.237 OA
ATOM     89  O   UNL A   1      47.052  23.485  36.770  1.00  0.00    -0.237 OA
ATOM     90  O   UNL A   1      47.055  21.596  35.199  1.00  0.00    -0.744 OA
ENDBRANCH  84  87
ENDBRANCH  57  80
ENDBRANCH  31  32
ENDBRANCH  23  26
ENDBRANCH  21  22
ENDBRANCH  20  21
ENDBRANCH   1  20
TORSDOF 17
ENDMDL
MODEL 2
REMARK VINA RESULT:     -10.6      2.006      2.432
REMARK SMILES CC1C[NH+]([C@H]2COC[C@@H]2C(=O)NCCCCCCNC(=O)c2ccc(-c3c4nc(c(-c5cccc(S(=O)(=O)[O-])c5F)c5ccc([nH]5)c(-c5cccc(S(=O)(=O)[O-])c5F)c5nc(c(-c6cccc(S(=O)(=O)[O-])c6F)c6ccc3[nH]6)C=C5)C=C4)cc2)C1
REMARK SMILES IDX 16 1 15 2 14 3 13 4 12 5 10 6 11 7 9 9 5 10 6 11 7 12 8 13
REMARK SMILES IDX 4 14 1 15 2 16 3 17 85 18 17 20 18 21 19 22 20 23 21 25
REMARK SMILES IDX 22 26 23 27 84 28 24 29 83 30 25 31 26 32 27 33 77 34 28 35
REMARK SMILES IDX 82 36 76 37 78 38 29 39 81 40 75 41 74 42 30 44 62 45 42 46
REMARK SMILES IDX 61 47 43 48 46 49 60 50 79 51 44 52 45 53 59 55 80 56 47 57
REMARK SMILES IDX 31 58 32 59 40 60 33 61 35 62 41 63 34 64 36 65 37 66 38 67
REMARK SMILES IDX 39 68 63 69 64 70 72 71 65 72 67 73 73 74 66 75 68 76 69 77
REMARK SMILES IDX 70 78 71 79 48 80 49 81 57 82 50 83 52 84 58 85 51 86 53 87
REMARK SMILES IDX 54 88 55 89 56 90
REMARK H PARENT 12 8 4 19 19 24 78 43 46 54
REMARK Flexibility Score: inf
ROOT
ATOM      1  C   UNL A   1      31.551  29.499  25.240  1.00  0.00     0.002 C 
ENDROOT
BRANCH   1   2
ATOM      2  C   UNL A   1      30.660  29.215  24.027  1.00  0.00     0.002 C 
BRANCH   2   3
ATOM      3  C   UNL A   1      31.389  28.629  22.810  1.00  0.00     0.021 C 
BRANCH   3   4
ATOM      4  C   UNL A   1      31.065  27.160  22.536  1.00  0.00     0.116 C 
BRANCH   4   5
ATOM      5  N   UNL A   1      31.873  26.650  21.440  1.00  0.00    -0.356 N 
ATOM      6  C   UNL A   1      32.601  25.499  21.362  1.00  0.00     0.231 C 
ATOM      7  O   UNL A   1      33.271  25.311  20.347  1.00  0.00    -0.274 OA
ATOM      8  H   UNL A   1      31.898  27.219  20.637  1.00  0.00     0.163 HD
BRANCH   6   9
ATOM      9  C   UNL A   1      32.525  24.505  22.509  1.00  0.00     0.164 C 
ATOM     10  C   UNL A   1      33.426  24.917  23.668  1.00  0.00     0.225 C 
ATOM     11  C   UNL A   1      34.739  24.216  23.304  1.00  0.00     0.226 C 
ATOM     12  O   UNL A   1      34.415  23.025  22.577  1.00  0.00    -0.374 OA
ATOM     13  C   UNL A   1      33.062  23.139  22.110  1.00  0.00     0.180 C 
BRANCH  10  14
ATOM     14  N   UNL A   1      32.761  24.622  24.953  1.00  0.00    -0.329 N 
ATOM     15  C   UNL A   1      29.710  25.814  25.953  1.00  0.00     0.020 C 
ATOM     16  C   UNL A   1      30.997  25.020  26.025  1.00  0.00     0.096 C 
ATOM     17  C   UNL A   1      31.361  24.183  24.776  1.00  0.00     0.271 C 
ATOM     18  C   UNL A   1      32.303  25.795  25.725  1.00  0.00     0.271 C 
ATOM     19  H   UNL A   1      33.468  24.011  25.363  1.00  0.00     0.348 HD
ENDBRANCH  10  14
ENDBRANCH   6   9
ENDBRANCH   4   5
ENDBRANCH   3   4
ENDBRANCH   2   3
ENDBRANCH   1   2
BRANCH   1  20
ATOM     20  C   UNL A   1      33.046  29.269  25.009  1.00  0.00     0.021 C 
BRANCH  20  21
ATOM     21  C   UNL A   1      33.903  29.359  26.267  1.00  0.00     0.116 C 
BRANCH  21  22
ATOM     22  N   UNL A   1      33.759  30.644  26.936  1.00  0.00    -0.352 N 
ATOM     23  C   UNL A   1      34.519  31.183  27.944  1.00  0.00     0.251 C 
ATOM     24  H   UNL A   1      33.014  31.205  26.621  1.00  0.00     0.163 HD
ATOM     25  O   UNL A   1      34.136  32.197  28.526  1.00  0.00    -0.269 OA
BRANCH  23  26
ATOM     26  C   UNL A   1      35.785  30.532  28.339  1.00  0.00     0.039 A 
ATOM     27  C   UNL A   1      36.938  30.779  27.588  1.00  0.00     0.014 A 
ATOM     28  C   UNL A   1      35.838  29.685  29.448  1.00  0.00     0.014 A 
ATOM     29  C   UNL A   1      38.155  30.222  27.986  1.00  0.00     0.010 A 
ATOM     30  C   UNL A   1      37.065  29.192  29.887  1.00  0.00     0.010 A 
ATOM     31  C   UNL A   1      38.235  29.450  29.158  1.00  0.00    -0.014 A 
BRANCH  31  32
ATOM     32  C   UNL A   1      39.536  28.917  29.641  1.00  0.00     0.031 A 
ATOM     33  C   UNL A   1      40.287  29.624  30.738  1.00  0.00     0.074 A 
ATOM     34  C   UNL A   1      40.077  27.836  29.041  1.00  0.00     0.049 A 
ATOM     35  N   UNL A   1      41.460  29.345  31.246  1.00  0.00    -0.248 NA
ATOM     36  C   UNL A   1      39.650  30.814  31.327  1.00  0.00     0.031 C 
ATOM     37  C   UNL A   1      39.483  27.102  27.921  1.00  0.00     0.029 A 
ATOM     38  N   UNL A   1      41.262  27.181  29.272  1.00  0.00    -0.354 N 
ATOM     39  C   UNL A   1      41.711  30.333  32.191  1.00  0.00     0.074 A 
ATOM     40  C   UNL A   1      40.588  31.242  32.161  1.00  0.00     0.031 C 
ATOM     41  C   UNL A   1      40.302  26.099  27.566  1.00  0.00     0.029 A 
ATOM     42  C   UNL A   1      41.495  26.138  28.404  1.00  0.00     0.049 A 
ATOM     43  H   UNL A   1      41.886  27.434  29.989  1.00  0.00     0.167 HD
ATOM     44  C   UNL A   1      42.766  30.456  33.031  1.00  0.00     0.034 A 
ATOM     45  C   UNL A   1      42.556  25.316  28.288  1.00  0.00     0.034 A 
ATOM     46  C   UNL A   1      43.867  29.532  33.083  1.00  0.00     0.049 A 
ATOM     47  C   UNL A   1      43.709  25.470  29.245  1.00  0.00     0.074 A 
ATOM     48  C   UNL A   1      44.951  29.535  33.944  1.00  0.00     0.029 A 
ATOM     49  N   UNL A   1      44.030  28.444  32.241  1.00  0.00    -0.354 N 
ATOM     50  N   UNL A   1      43.859  26.326  30.226  1.00  0.00    -0.248 NA
ATOM     51  C   UNL A   1      44.824  24.522  29.102  1.00  0.00     0.031 C 
ATOM     52  C   UNL A   1      45.783  28.466  33.604  1.00  0.00     0.029 A 
ATOM     53  C   UNL A   1      45.199  27.773  32.556  1.00  0.00     0.049 A 
ATOM     54  H   UNL A   1      43.407  28.186  31.523  1.00  0.00     0.167 HD
ATOM     55  C   UNL A   1      45.059  25.992  30.843  1.00  0.00     0.074 A 
ATOM     56  C   UNL A   1      45.585  24.842  30.138  1.00  0.00     0.031 C 
ATOM     57  C   UNL A   1      45.679  26.592  31.889  1.00  0.00     0.034 A 
BRANCH  44  58
ATOM     58  C   UNL A   1      42.761  31.602  34.010  1.00  0.00     0.023 A 
ATOM     59  C   UNL A   1      43.253  32.860  33.607  1.00  0.00     0.012 A 
ATOM     60  C   UNL A   1      42.192  31.460  35.290  1.00  0.00     0.148 A 
ATOM     61  C   UNL A   1      43.203  33.953  34.471  1.00  0.00     0.002 A 
ATOM     62  C   UNL A   1      42.103  32.565  36.129  1.00  0.00     0.091 A 
ATOM     63  F   UNL A   1      41.743  30.252  35.660  1.00  0.00    -0.205 F 
ATOM     64  C   UNL A   1      42.618  33.808  35.725  1.00  0.00     0.022 A 
BRANCH  62  65
ATOM     65  S   UNL A   1      41.297  32.508  37.733  1.00  0.00     0.127 S 
ATOM     66  O   UNL A   1      41.384  33.905  38.157  1.00  0.00    -0.237 OA
ATOM     67  O   UNL A   1      39.949  32.061  37.381  1.00  0.00    -0.237 OA
ATOM     68  O   UNL A   1      42.063  31.568  38.538  1.00  0.00    -0.744 OA
ENDBRANCH  62  65
ENDBRANCH  44  58
BRANCH  45  69
ATOM     69  C   UNL A   1      42.571  24.241  27.255  1.00  0.00     0.023 A 
ATOM     70  C   UNL A   1      43.408  24.369  26.127  1.00  0.00     0.012 A 
ATOM     71  C   UNL A   1      41.751  23.101  27.371  1.00  0.00     0.148 A 
ATOM     72  C   UNL A   1      43.387  23.411  25.113  1.00  0.00     0.002 A 
ATOM     73  C   UNL A   1      41.782  22.121  26.387  1.00  0.00     0.091 A 
ATOM     74  F   UNL A   1      40.954  22.999  28.444  1.00  0.00    -0.205 F 
ATOM     75  C   UNL A   1      42.582  22.285  25.245  1.00  0.00     0.022 A 
BRANCH  73  76
ATOM     76  S   UNL A   1      40.874  20.580  26.540  1.00  0.00     0.127 S 
ATOM     77  O   UNL A   1      41.022  20.285  27.963  1.00  0.00    -0.237 OA
ATOM     78  O   UNL A   1      39.526  20.980  26.131  1.00  0.00    -0.237 OA
ATOM     79  O   UNL A   1      41.524  19.650  25.627  1.00  0.00    -0.744 OA
ENDBRANCH  73  76
ENDBRANCH  45  69
BRANCH  57  80
ATOM     80  C   UNL A   1      46.968  25.986  32.380  1.00  0.00     0.023 A 
ATOM     81  C   UNL A   1      46.962  25.103  33.477  1.00  0.00     0.012 A 
ATOM     82  C   UNL A   1      48.177  26.240  31.702  1.00  0.00     0.148 A 
ATOM     83  C   UNL A   1      48.147  24.513  33.917  1.00  0.00     0.002 A 
ATOM     84  C   UNL A   1      49.343  25.606  32.112  1.00  0.00     0.091 A 
ATOM     85  F   UNL A   1      48.165  27.095  30.669  1.00  0.00    -0.205 F 
ATOM     86  C   UNL A   1      49.333  24.754  33.228  1.00  0.00     0.022 A 
BRANCH  84  87
ATOM     87  S   UNL A   1      50.897  25.777  31.227  1.00  0.00     0.127 S 
ATOM     88  O   UNL A   1      50.547  25.254  29.907  1.00  0.00    -0.237 OA
ATOM     89  O   UNL A   1      51.120  27.222  31.271  1.00  0.00    -0.237 OA
ATOM     90  O   UNL A   1      51.873  24.991  31.970  1.00  0.00    -0.744 OA
ENDBRANCH  84  87
ENDBRANCH  57  80
ENDBRANCH  31  32
ENDBRANCH  23  26
ENDBRANCH  21  22
ENDBRANCH  20  21
ENDBRANCH   1  20
TORSDOF 17
ENDMDL
MODEL 3
REMARK VINA RESULT:     -10.5      5.277      9.826
REMARK SMILES CC1C[NH+]([C@H]2COC[C@@H]2C(=O)NCCCCCCNC(=O)c2ccc(-c3c4nc(c(-c5cccc(S(=O)(=O)[O-])c5F)c5ccc([nH]5)c(-c5cccc(S(=O)(=O)[O-])c5F)c5nc(c(-c6cccc(S(=O)(=O)[O-])c6F)c6ccc3[nH]6)C=C5)C=C4)cc2)C1
REMARK SMILES IDX 16 1 15 2 14 3 13 4 12 5 10 6 11 7 9 9 5 10 6 11 7 12 8 13
REMARK SMILES IDX 4 14 1 15 2 16 3 17 85 18 17 20 18 21 19 22 20 23 21 25
REMARK SMILES IDX 22 26 23 27 84 28 24 29 83 30 25 31 26 32 27 33 77 34 28 35
REMARK SMILES IDX 82 36 76 37 78 38 29 39 81 40 75 41 74 42 30 44 62 45 42 46
REMARK SMILES IDX 61 47 43 48 46 49 60 50 79 51 44 52 45 53 59 55 80 56 47 57
REMARK SMILES IDX 31 58 32 59 40 60 33 61 35 62 41 63 34 64 36 65 37 66 38 67
REMARK SMILES IDX 39 68 63 69 64 70 72 71 65 72 67 73 73 74 66 75 68 76 69 77
REMARK SMILES IDX 70 78 71 79 48 80 49 81 57 82 50 83 52 84 58 85 51 86 53 87
REMARK SMILES IDX 54 88 55 89 56 90
REMARK H PARENT 12 8 4 19 19 24 78 43 46 54
REMARK Flexibility Score: inf
ROOT
ATOM      1  C   UNL A   1      35.862  23.118  23.506  1.00  0.00     0.002 C 
ENDROOT
BRANCH   1   2
ATOM      2  C   UNL A   1      34.355  22.969  23.279  1.00  0.00     0.002 C 
BRANCH   2   3
ATOM      3  C   UNL A   1      33.646  22.007  24.241  1.00  0.00     0.021 C 
BRANCH   3   4
ATOM      4  C   UNL A   1      32.120  22.056  24.163  1.00  0.00     0.116 C 
BRANCH   4   5
ATOM      5  N   UNL A   1      31.541  22.211  25.487  1.00  0.00    -0.356 N 
ATOM      6  C   UNL A   1      31.021  23.324  26.081  1.00  0.00     0.231 C 
ATOM      7  O   UNL A   1      30.649  23.230  27.250  1.00  0.00    -0.274 OA
ATOM      8  H   UNL A   1      31.519  21.394  26.034  1.00  0.00     0.163 HD
BRANCH   6   9
ATOM      9  C   UNL A   1      30.905  24.602  25.267  1.00  0.00     0.164 C 
ATOM     10  C   UNL A   1      32.215  25.382  25.259  1.00  0.00     0.225 C 
ATOM     11  C   UNL A   1      32.044  26.288  26.484  1.00  0.00     0.226 C 
ATOM     12  O   UNL A   1      30.647  26.554  26.643  1.00  0.00    -0.374 OA
ATOM     13  C   UNL A   1      29.914  25.578  25.885  1.00  0.00     0.180 C 
BRANCH  10  14
ATOM     14  N   UNL A   1      32.439  25.977  23.926  1.00  0.00    -0.329 N 
ATOM     15  C   UNL A   1      30.404  28.254  22.377  1.00  0.00     0.020 C 
ATOM     16  C   UNL A   1      31.603  27.351  22.573  1.00  0.00     0.096 C 
ATOM     17  C   UNL A   1      32.324  27.450  23.938  1.00  0.00     0.271 C 
ATOM     18  C   UNL A   1      31.305  25.889  22.983  1.00  0.00     0.271 C 
ATOM     19  H   UNL A   1      33.314  25.508  23.686  1.00  0.00     0.348 HD
ENDBRANCH  10  14
ENDBRANCH   6   9
ENDBRANCH   4   5
ENDBRANCH   3   4
ENDBRANCH   2   3
ENDBRANCH   1   2
BRANCH   1  20
ATOM     20  C   UNL A   1      36.576  21.841  23.953  1.00  0.00     0.021 C 
BRANCH  20  21
ATOM     21  C   UNL A   1      36.952  21.808  25.431  1.00  0.00     0.116 C 
BRANCH  21  22
ATOM     22  N   UNL A   1      37.956  20.794  25.717  1.00  0.00    -0.352 N 
ATOM     23  C   UNL A   1      39.256  20.956  26.126  1.00  0.00     0.251 C 
ATOM     24  H   UNL A   1      37.661  19.861  25.603  1.00  0.00     0.163 HD
ATOM     25  O   UNL A   1      40.022  19.993  26.132  1.00  0.00    -0.269 OA
BRANCH  23  26
ATOM     26  C   UNL A   1      39.736  22.291  26.540  1.00  0.00     0.039 A 
ATOM     27  C   UNL A   1      40.728  22.382  27.520  1.00  0.00     0.014 A 
ATOM     28  C   UNL A   1      39.212  23.450  25.962  1.00  0.00     0.014 A 
ATOM     29  C   UNL A   1      41.236  23.632  27.875  1.00  0.00     0.010 A 
ATOM     30  C   UNL A   1      39.772  24.689  26.262  1.00  0.00     0.010 A 
ATOM     31  C   UNL A   1      40.786  24.795  27.225  1.00  0.00    -0.014 A 
BRANCH  31  32
ATOM     32  C   UNL A   1      41.373  26.125  27.534  1.00  0.00     0.031 A 
ATOM     33  C   UNL A   1      42.791  26.441  27.136  1.00  0.00     0.074 A 
ATOM     34  C   UNL A   1      40.654  27.024  28.238  1.00  0.00     0.049 A 
ATOM     35  N   UNL A   1      43.493  27.519  27.373  1.00  0.00    -0.248 NA
ATOM     36  C   UNL A   1      43.526  25.401  26.396  1.00  0.00     0.031 C 
ATOM     37  C   UNL A   1      39.295  26.814  28.742  1.00  0.00     0.029 A 
ATOM     38  N   UNL A   1      40.975  28.287  28.673  1.00  0.00    -0.354 N 
ATOM     39  C   UNL A   1      44.752  27.280  26.836  1.00  0.00     0.074 A 
ATOM     40  C   UNL A   1      44.734  25.940  26.295  1.00  0.00     0.031 C 
ATOM     41  C   UNL A   1      38.899  27.907  29.412  1.00  0.00     0.029 A 
ATOM     42  C   UNL A   1      39.984  28.881  29.421  1.00  0.00     0.049 A 
ATOM     43  H   UNL A   1      41.833  28.724  28.471  1.00  0.00     0.167 HD
ATOM     44  C   UNL A   1      45.819  28.112  26.771  1.00  0.00     0.034 A 
ATOM     45  C   UNL A   1      39.959  30.071  30.052  1.00  0.00     0.034 A 
ATOM     46  C   UNL A   1      45.826  29.457  27.279  1.00  0.00     0.049 A 
ATOM     47  C   UNL A   1      41.157  30.979  29.951  1.00  0.00     0.074 A 
ATOM     48  C   UNL A   1      46.836  30.400  27.203  1.00  0.00     0.029 A 
ATOM     49  N   UNL A   1      44.777  30.051  27.962  1.00  0.00    -0.354 N 
ATOM     50  N   UNL A   1      42.286  30.787  29.315  1.00  0.00    -0.248 NA
ATOM     51  C   UNL A   1      41.063  32.283  30.624  1.00  0.00     0.031 C 
ATOM     52  C   UNL A   1      46.409  31.554  27.863  1.00  0.00     0.029 A 
ATOM     53  C   UNL A   1      45.118  31.344  28.318  1.00  0.00     0.049 A 
ATOM     54  H   UNL A   1      43.916  29.618  28.164  1.00  0.00     0.167 HD
ATOM     55  C   UNL A   1      43.016  31.960  29.474  1.00  0.00     0.074 A 
ATOM     56  C   UNL A   1      42.192  32.864  30.248  1.00  0.00     0.031 C 
ATOM     57  C   UNL A   1      44.264  32.256  29.033  1.00  0.00     0.034 A 
BRANCH  44  58
ATOM     58  C   UNL A   1      47.060  27.616  26.072  1.00  0.00     0.023 A 
ATOM     59  C   UNL A   1      47.985  26.825  26.782  1.00  0.00     0.012 A 
ATOM     60  C   UNL A   1      47.266  27.857  24.700  1.00  0.00     0.148 A 
ATOM     61  C   UNL A   1      49.110  26.302  26.145  1.00  0.00     0.002 A 
ATOM     62  C   UNL A   1      48.364  27.294  24.061  1.00  0.00     0.091 A 
ATOM     63  F   UNL A   1      46.382  28.624  24.046  1.00  0.00    -0.205 F 
ATOM     64  C   UNL A   1      49.292  26.526  24.784  1.00  0.00     0.022 A 
BRANCH  62  65
ATOM     65  S   UNL A   1      48.650  27.453  22.295  1.00  0.00     0.127 S 
ATOM     66  O   UNL A   1      49.961  28.102  22.266  1.00  0.00    -0.237 OA
ATOM     67  O   UNL A   1      48.652  26.057  21.859  1.00  0.00    -0.237 OA
ATOM     68  O   UNL A   1      47.551  28.256  21.777  1.00  0.00    -0.744 OA
ENDBRANCH  62  65
ENDBRANCH  44  58
BRANCH  45  69
ATOM     69  C   UNL A   1      38.747  30.502  30.806  1.00  0.00     0.023 A 
ATOM     70  C   UNL A   1      38.620  30.170  32.171  1.00  0.00     0.012 A 
ATOM     71  C   UNL A   1      37.712  31.223  30.179  1.00  0.00     0.148 A 
ATOM     72  C   UNL A   1      37.464  30.501  32.879  1.00  0.00     0.002 A 
ATOM     73  C   UNL A   1      36.591  31.603  30.907  1.00  0.00     0.091 A 
ATOM     74  F   UNL A   1      37.843  31.522  28.879  1.00  0.00    -0.205 F 
ATOM     75  C   UNL A   1      36.454  31.223  32.251  1.00  0.00     0.022 A 
BRANCH  73  76
ATOM     76  S   UNL A   1      35.303  32.643  30.212  1.00  0.00     0.127 S 
ATOM     77  O   UNL A   1      36.061  33.820  29.795  1.00  0.00    -0.237 OA
ATOM     78  O   UNL A   1      34.801  31.813  29.115  1.00  0.00    -0.237 OA
ATOM     79  O   UNL A   1      34.345  32.853  31.289  1.00  0.00    -0.744 OA
ENDBRANCH  73  76
ENDBRANCH  45  69
BRANCH  57  80
ATOM     80  C   UNL A   1      44.798  33.635  29.321  1.00  0.00     0.023 A 
ATOM     81  C   UNL A   1      45.453  33.900  30.540  1.00  0.00     0.012 A 
ATOM     82  C   UNL A   1      44.711  34.650  28.347  1.00  0.00     0.148 A 
ATOM     83  C   UNL A   1      45.979  35.165  30.800  1.00  0.00     0.002 A 
ATOM     84  C   UNL A   1      45.285  35.891  28.592  1.00  0.00     0.091 A 
ATOM     85  F   UNL A   1      44.070  34.383  27.200  1.00  0.00    -0.205 F 
ATOM     86  C   UNL A   1      45.906  36.156  29.824  1.00  0.00     0.022 A 
BRANCH  84  87
ATOM     87  S   UNL A   1      45.329  37.195  27.357  1.00  0.00     0.127 S 
ATOM     88  O   UNL A   1      43.906  37.416  27.107  1.00  0.00    -0.237 OA
ATOM     89  O   UNL A   1      45.997  38.279  28.077  1.00  0.00    -0.237 OA
ATOM     90  O   UNL A   1      46.084  36.659  26.232  1.00  0.00    -0.744 OA
ENDBRANCH  84  87
ENDBRANCH  57  80
ENDBRANCH  31  32
ENDBRANCH  23  26
ENDBRANCH  21  22
ENDBRANCH  20  21
ENDBRANCH   1  20
TORSDOF 17
ENDMDL
