MODEL 1
REMARK VINA RESULT:     -11.1      0.000      0.000
REMARK SMILES O=C(COc1cc(-c2ccccc2)nc(Nc2ccccc2Br)n1)NCCCCCCNC(=O)c1ccc(-c2c3nc(c(-c4cccc(S(=O)(=O)[O-])c4F)c4ccc([nH]4)c(-c4cccc(S(=O)(=O)[O-])c4F)c4nc(c(-c5cccc(S(=O)(=O)[O-])c5F)c5ccc2[nH]5)C=C4)C=C3)cc1
REMARK SMILES IDX 28 1 27 2 26 3 25 4 1 5 2 6 3 8 4 9 5 10 6 11 24 12 7 13
REMARK SMILES IDX 15 14 14 15 8 16 9 17 13 18 10 19 12 20 11 21 16 22 17 24
REMARK SMILES IDX 18 25 22 26 19 27 21 28 23 29 20 30 29 31 30 32 31 33 32 34
REMARK SMILES IDX 33 35 34 37 35 38 36 39 97 40 37 41 96 42 38 43 39 44 40 45
REMARK SMILES IDX 90 46 41 47 95 48 89 49 91 50 42 51 94 52 88 53 87 54 43 56
REMARK SMILES IDX 75 57 55 58 74 59 56 60 59 61 73 62 92 63 57 64 58 65 72 67
REMARK SMILES IDX 93 68 60 69 44 70 45 71 53 72 46 73 48 74 54 75 47 76 49 77
REMARK SMILES IDX 50 78 51 79 52 80 76 81 77 82 85 83 78 84 80 85 86 86 79 87
REMARK SMILES IDX 81 88 82 89 83 90 84 91 61 92 62 93 70 94 63 95 65 96 71 97
REMARK SMILES IDX 64 98 66 99 67 100 68 101 69 102
REMARK H PARENT 25 7 16 23 32 36 91 55 59 66
REMARK Flexibility Score: inf
ROOT
ATOM      1  C   UNL A   1      36.381  22.828  24.956  1.00  0.00     0.002 C 
ENDROOT
BRANCH   1   2
ATOM      2  C   UNL A   1      35.340  23.612  25.764  1.00  0.00     0.021 C 
BRANCH   2   3
ATOM      3  C   UNL A   1      34.592  24.670  24.963  1.00  0.00     0.116 C 
BRANCH   3   4
ATOM      4  N   UNL A   1      34.441  25.908  25.701  1.00  0.00    -0.353 N 
ATOM      5  O   UNL A   1      34.063  27.282  23.891  1.00  0.00    -0.271 OA
ATOM      6  C   UNL A   1      34.098  27.104  25.104  1.00  0.00     0.258 C 
ATOM      7  H   UNL A   1      34.591  25.896  26.674  1.00  0.00     0.163 HD
BRANCH   6   8
ATOM      8  C   UNL A   1      33.726  28.203  26.105  1.00  0.00     0.331 C 
BRANCH   8   9
ATOM      9  O   UNL A   1      32.443  28.028  26.708  1.00  0.00    -0.467 OA
BRANCH   9  10
ATOM     10  C   UNL A   1      31.450  27.822  25.781  1.00  0.00     0.219 A 
ATOM     11  C   UNL A   1      30.907  28.860  25.075  1.00  0.00     0.097 A 
ATOM     12  N   UNL A   1      31.169  26.542  25.522  1.00  0.00    -0.177 NA
ATOM     13  C   UNL A   1      30.022  28.530  24.078  1.00  0.00     0.080 A 
ATOM     14  C   UNL A   1      30.280  26.298  24.546  1.00  0.00     0.231 A 
ATOM     15  N   UNL A   1      29.694  27.253  23.804  1.00  0.00    -0.212 NA
BRANCH  13  16
ATOM     16  C   UNL A   1      29.407  29.591  23.267  1.00  0.00     0.000 A 
ATOM     17  C   UNL A   1      28.867  29.316  22.003  1.00  0.00     0.010 A 
ATOM     18  C   UNL A   1      29.257  30.892  23.785  1.00  0.00     0.010 A 
ATOM     19  C   UNL A   1      28.172  30.302  21.295  1.00  0.00     0.001 A 
ATOM     20  C   UNL A   1      28.567  31.877  23.077  1.00  0.00     0.001 A 
ATOM     21  C   UNL A   1      28.018  31.578  21.835  1.00  0.00     0.000 A 
ENDBRANCH  13  16
BRANCH  14  22
ATOM     22  N   UNL A   1      29.970  24.986  24.197  1.00  0.00    -0.323 N 
ATOM     23  H   UNL A   1      29.035  24.833  23.930  1.00  0.00     0.170 HD
BRANCH  22  24
ATOM     24  C   UNL A   1      30.792  23.854  24.170  1.00  0.00     0.055 A 
ATOM     25  C   UNL A   1      31.501  23.584  22.987  1.00  0.00     0.027 A 
ATOM     26  C   UNL A   1      31.000  23.001  25.271  1.00  0.00     0.041 A 
ATOM     27  C   UNL A   1      32.399  22.514  22.906  1.00  0.00     0.002 A 
ATOM     28  C   UNL A   1      31.897  21.928  25.187  1.00  0.00     0.018 A 
ATOM     29  Br  UNL A   1      29.992  23.140  26.881  1.00  0.00    -0.049 Br
ATOM     30  C   UNL A   1      32.600  21.689  24.008  1.00  0.00     0.001 A 
ENDBRANCH  22  24
ENDBRANCH  14  22
ENDBRANCH   9  10
ENDBRANCH   8   9
ENDBRANCH   6   8
ENDBRANCH   3   4
ENDBRANCH   2   3
ENDBRANCH   1   2
BRANCH   1  31
ATOM     31  C   UNL A   1      36.239  21.304  24.997  1.00  0.00     0.002 C 
BRANCH  31  32
ATOM     32  C   UNL A   1      37.530  20.517  24.766  1.00  0.00     0.021 C 
BRANCH  32  33
ATOM     33  C   UNL A   1      38.666  20.843  25.732  1.00  0.00     0.116 C 
BRANCH  33  34
ATOM     34  N   UNL A   1      39.603  19.740  25.883  1.00  0.00    -0.352 N 
ATOM     35  C   UNL A   1      40.955  19.777  26.124  1.00  0.00     0.251 C 
ATOM     36  H   UNL A   1      39.214  18.840  25.800  1.00  0.00     0.163 HD
ATOM     37  O   UNL A   1      41.619  18.744  26.059  1.00  0.00    -0.269 OA
BRANCH  35  38
ATOM     38  C   UNL A   1      41.613  21.063  26.438  1.00  0.00     0.039 A 
ATOM     39  C   UNL A   1      42.017  21.893  25.388  1.00  0.00     0.014 A 
ATOM     40  C   UNL A   1      41.826  21.457  27.763  1.00  0.00     0.014 A 
ATOM     41  C   UNL A   1      42.576  23.142  25.668  1.00  0.00     0.010 A 
ATOM     42  C   UNL A   1      42.308  22.734  28.037  1.00  0.00     0.010 A 
ATOM     43  C   UNL A   1      42.693  23.588  26.995  1.00  0.00    -0.014 A 
BRANCH  43  44
ATOM     44  C   UNL A   1      43.200  24.950  27.308  1.00  0.00     0.031 A 
ATOM     45  C   UNL A   1      42.296  25.974  27.941  1.00  0.00     0.074 A 
ATOM     46  C   UNL A   1      44.452  25.294  26.945  1.00  0.00     0.049 A 
ATOM     47  N   UNL A   1      42.547  27.222  28.239  1.00  0.00    -0.248 NA
ATOM     48  C   UNL A   1      40.922  25.547  28.255  1.00  0.00     0.031 C 
ATOM     49  C   UNL A   1      45.402  24.419  26.255  1.00  0.00     0.029 A 
ATOM     50  N   UNL A   1      45.132  26.479  27.081  1.00  0.00    -0.354 N 
ATOM     51  C   UNL A   1      41.358  27.739  28.741  1.00  0.00     0.074 A 
ATOM     52  C   UNL A   1      40.375  26.680  28.673  1.00  0.00     0.031 C 
ATOM     53  C   UNL A   1      46.541  25.094  26.033  1.00  0.00     0.029 A 
ATOM     54  C   UNL A   1      46.392  26.458  26.530  1.00  0.00     0.049 A 
ATOM     55  H   UNL A   1      44.753  27.270  27.528  1.00  0.00     0.167 HD
ATOM     56  C   UNL A   1      41.110  28.975  29.237  1.00  0.00     0.034 A 
ATOM     57  C   UNL A   1      47.321  27.429  26.425  1.00  0.00     0.034 A 
ATOM     58  C   UNL A   1      42.097  30.018  29.331  1.00  0.00     0.049 A 
ATOM     59  C   UNL A   1      47.033  28.785  27.008  1.00  0.00     0.074 A 
ATOM     60  C   UNL A   1      41.970  31.274  29.899  1.00  0.00     0.029 A 
ATOM     61  N   UNL A   1      43.387  29.935  28.831  1.00  0.00    -0.354 N 
ATOM     62  N   UNL A   1      45.954  29.206  27.622  1.00  0.00    -0.248 NA
ATOM     63  C   UNL A   1      48.102  29.789  26.919  1.00  0.00     0.031 C 
ATOM     64  C   UNL A   1      43.172  31.963  29.709  1.00  0.00     0.029 A 
ATOM     65  C   UNL A   1      44.063  31.122  29.063  1.00  0.00     0.049 A 
ATOM     66  H   UNL A   1      43.768  29.148  28.379  1.00  0.00     0.167 HD
ATOM     67  C   UNL A   1      46.227  30.509  28.025  1.00  0.00     0.074 A 
ATOM     68  C   UNL A   1      47.582  30.801  27.600  1.00  0.00     0.031 C 
ATOM     69  C   UNL A   1      45.426  31.386  28.678  1.00  0.00     0.034 A 
BRANCH  56  70
ATOM     70  C   UNL A   1      39.722  29.257  29.753  1.00  0.00     0.023 A 
ATOM     71  C   UNL A   1      39.396  28.952  31.091  1.00  0.00     0.012 A 
ATOM     72  C   UNL A   1      38.754  29.868  28.931  1.00  0.00     0.148 A 
ATOM     73  C   UNL A   1      38.120  29.208  31.590  1.00  0.00     0.002 A 
ATOM     74  C   UNL A   1      37.499  30.166  29.451  1.00  0.00     0.091 A 
ATOM     75  F   UNL A   1      39.072  30.135  27.657  1.00  0.00    -0.205 F 
ATOM     76  C   UNL A   1      37.176  29.825  30.773  1.00  0.00     0.022 A 
BRANCH  74  77
ATOM     77  S   UNL A   1      36.242  31.035  28.507  1.00  0.00     0.127 S 
ATOM     78  O   UNL A   1      35.093  30.961  29.409  1.00  0.00    -0.237 OA
ATOM     79  O   UNL A   1      36.826  32.370  28.373  1.00  0.00    -0.237 OA
ATOM     80  O   UNL A   1      36.101  30.305  27.255  1.00  0.00    -0.744 OA
ENDBRANCH  74  77
ENDBRANCH  56  70
BRANCH  57  81
ATOM     81  C   UNL A   1      48.635  27.133  25.787  1.00  0.00     0.023 A 
ATOM     82  C   UNL A   1      49.645  26.501  26.538  1.00  0.00     0.012 A 
ATOM     83  C   UNL A   1      48.879  27.445  24.435  1.00  0.00     0.148 A 
ATOM     84  C   UNL A   1      50.884  26.214  25.965  1.00  0.00     0.002 A 
ATOM     85  C   UNL A   1      50.093  27.103  23.854  1.00  0.00     0.091 A 
ATOM     86  F   UNL A   1      47.907  28.053  23.740  1.00  0.00    -0.205 F 
ATOM     87  C   UNL A   1      51.105  26.504  24.622  1.00  0.00     0.022 A 
BRANCH  85  88
ATOM     88  S   UNL A   1      50.418  27.317  22.100  1.00  0.00     0.127 S 
ATOM     89  O   UNL A   1      51.726  26.682  21.959  1.00  0.00    -0.237 OA
ATOM     90  O   UNL A   1      49.306  26.581  21.498  1.00  0.00    -0.237 OA
ATOM     91  O   UNL A   1      50.385  28.754  21.864  1.00  0.00    -0.744 OA
ENDBRANCH  85  88
ENDBRANCH  57  81
BRANCH  69  92
ATOM     92  C   UNL A   1      45.998  32.738  29.020  1.00  0.00     0.023 A 
ATOM     93  C   UNL A   1      46.828  32.890  30.149  1.00  0.00     0.012 A 
ATOM     94  C   UNL A   1      45.770  33.844  28.176  1.00  0.00     0.148 A 
ATOM     95  C   UNL A   1      47.392  34.129  30.451  1.00  0.00     0.002 A 
ATOM     96  C   UNL A   1      46.379  35.061  28.453  1.00  0.00     0.091 A 
ATOM     97  F   UNL A   1      44.964  33.683  27.117  1.00  0.00    -0.205 F 
ATOM     98  C   UNL A   1      47.179  35.210  29.598  1.00  0.00     0.022 A 
BRANCH  96  99
ATOM     99  S   UNL A   1      46.243  36.479  27.359  1.00  0.00     0.127 S 
ATOM    100  O   UNL A   1      47.502  37.176  27.619  1.00  0.00    -0.237 OA
ATOM    101  O   UNL A   1      46.156  35.846  26.043  1.00  0.00    -0.237 OA
ATOM    102  O   UNL A   1      45.040  37.191  27.769  1.00  0.00    -0.744 OA
ENDBRANCH  96  99
ENDBRANCH  69  92
ENDBRANCH  43  44
ENDBRANCH  35  38
ENDBRANCH  33  34
ENDBRANCH  32  33
ENDBRANCH  31  32
ENDBRANCH   1  31
TORSDOF 21
ENDMDL
MODEL 2
REMARK VINA RESULT:     -10.9      2.152      7.464
REMARK SMILES O=C(COc1cc(-c2ccccc2)nc(Nc2ccccc2Br)n1)NCCCCCCNC(=O)c1ccc(-c2c3nc(c(-c4cccc(S(=O)(=O)[O-])c4F)c4ccc([nH]4)c(-c4cccc(S(=O)(=O)[O-])c4F)c4nc(c(-c5cccc(S(=O)(=O)[O-])c5F)c5ccc2[nH]5)C=C4)C=C3)cc1
REMARK SMILES IDX 28 1 27 2 26 3 25 4 1 5 2 6 3 8 4 9 5 10 6 11 24 12 7 13
REMARK SMILES IDX 15 14 14 15 8 16 9 17 13 18 10 19 12 20 11 21 16 22 17 24
REMARK SMILES IDX 18 25 22 26 19 27 21 28 23 29 20 30 29 31 30 32 31 33 32 34
REMARK SMILES IDX 33 35 34 37 35 38 36 39 97 40 37 41 96 42 38 43 39 44 40 45
REMARK SMILES IDX 90 46 41 47 95 48 89 49 91 50 42 51 94 52 88 53 87 54 43 56
REMARK SMILES IDX 75 57 55 58 74 59 56 60 59 61 73 62 92 63 57 64 58 65 72 67
REMARK SMILES IDX 93 68 60 69 44 70 45 71 53 72 46 73 48 74 54 75 47 76 49 77
REMARK SMILES IDX 50 78 51 79 52 80 76 81 77 82 85 83 78 84 80 85 86 86 79 87
REMARK SMILES IDX 81 88 82 89 83 90 84 91 61 92 62 93 70 94 63 95 65 96 71 97
REMARK SMILES IDX 64 98 66 99 67 100 68 101 69 102
REMARK H PARENT 25 7 16 23 32 36 91 55 59 66
REMARK Flexibility Score: inf
ROOT
ATOM      1  C   UNL A   1      36.589  22.358  24.854  1.00  0.00     0.002 C 
ENDROOT
BRANCH   1   2
ATOM      2  C   UNL A   1      35.455  23.054  25.616  1.00  0.00     0.021 C 
BRANCH   2   3
ATOM      3  C   UNL A   1      34.691  24.087  24.799  1.00  0.00     0.116 C 
BRANCH   3   4
ATOM      4  N   UNL A   1      34.510  25.331  25.520  1.00  0.00    -0.353 N 
ATOM      5  O   UNL A   1      34.168  26.683  23.687  1.00  0.00    -0.271 OA
ATOM      6  C   UNL A   1      34.173  26.518  24.902  1.00  0.00     0.258 C 
ATOM      7  H   UNL A   1      34.635  25.329  26.496  1.00  0.00     0.163 HD
BRANCH   6   8
ATOM      8  C   UNL A   1      33.765  27.623  25.882  1.00  0.00     0.331 C 
BRANCH   8   9
ATOM      9  O   UNL A   1      32.480  27.429  26.473  1.00  0.00    -0.467 OA
BRANCH   9  10
ATOM     10  C   UNL A   1      31.509  27.150  25.542  1.00  0.00     0.219 A 
ATOM     11  C   UNL A   1      30.919  28.142  24.808  1.00  0.00     0.097 A 
ATOM     12  N   UNL A   1      31.299  25.851  25.309  1.00  0.00    -0.177 NA
ATOM     13  C   UNL A   1      30.063  27.744  23.810  1.00  0.00     0.080 A 
ATOM     14  C   UNL A   1      30.434  25.539  24.330  1.00  0.00     0.231 A 
ATOM     15  N   UNL A   1      29.807  26.445  23.562  1.00  0.00    -0.212 NA
BRANCH  13  16
ATOM     16  C   UNL A   1      29.402  28.752  22.970  1.00  0.00     0.000 A 
ATOM     17  C   UNL A   1      28.022  28.982  23.065  1.00  0.00     0.010 A 
ATOM     18  C   UNL A   1      30.157  29.582  22.119  1.00  0.00     0.010 A 
ATOM     19  C   UNL A   1      27.423  30.029  22.357  1.00  0.00     0.001 A 
ATOM     20  C   UNL A   1      29.559  30.624  21.408  1.00  0.00     0.001 A 
ATOM     21  C   UNL A   1      28.193  30.852  21.535  1.00  0.00     0.000 A 
ENDBRANCH  13  16
BRANCH  14  22
ATOM     22  N   UNL A   1      30.199  24.205  24.007  1.00  0.00    -0.323 N 
ATOM     23  H   UNL A   1      29.327  24.023  23.586  1.00  0.00     0.170 HD
BRANCH  22  24
ATOM     24  C   UNL A   1      31.017  23.086  24.193  1.00  0.00     0.055 A 
ATOM     25  C   UNL A   1      31.805  22.659  23.111  1.00  0.00     0.027 A 
ATOM     26  C   UNL A   1      31.146  22.394  25.414  1.00  0.00     0.041 A 
ATOM     27  C   UNL A   1      32.703  21.595  23.240  1.00  0.00     0.002 A 
ATOM     28  C   UNL A   1      32.044  21.326  25.540  1.00  0.00     0.018 A 
ATOM     29  Br  UNL A   1      30.030  22.747  26.916  1.00  0.00    -0.049 Br
ATOM     30  C   UNL A   1      32.825  20.931  24.456  1.00  0.00     0.001 A 
ENDBRANCH  22  24
ENDBRANCH  14  22
ENDBRANCH   9  10
ENDBRANCH   8   9
ENDBRANCH   6   8
ENDBRANCH   3   4
ENDBRANCH   2   3
ENDBRANCH   1   2
BRANCH   1  31
ATOM     31  C   UNL A   1      36.572  20.827  24.899  1.00  0.00     0.002 C 
BRANCH  31  32
ATOM     32  C   UNL A   1      37.941  20.159  25.034  1.00  0.00     0.021 C 
BRANCH  32  33
ATOM     33  C   UNL A   1      38.999  20.994  25.750  1.00  0.00     0.116 C 
BRANCH  33  34
ATOM     34  N   UNL A   1      40.143  20.201  26.174  1.00  0.00    -0.352 N 
ATOM     35  C   UNL A   1      41.338  20.618  26.706  1.00  0.00     0.251 C 
ATOM     36  H   UNL A   1      40.047  19.228  26.064  1.00  0.00     0.163 HD
ATOM     37  O   UNL A   1      42.258  19.816  26.856  1.00  0.00    -0.269 OA
BRANCH  35  38
ATOM     38  C   UNL A   1      41.525  22.038  27.078  1.00  0.00     0.039 A 
ATOM     39  C   UNL A   1      41.920  22.351  28.381  1.00  0.00     0.014 A 
ATOM     40  C   UNL A   1      41.321  23.058  26.143  1.00  0.00     0.014 A 
ATOM     41  C   UNL A   1      42.171  23.681  28.728  1.00  0.00     0.010 A 
ATOM     42  C   UNL A   1      41.648  24.372  26.469  1.00  0.00     0.010 A 
ATOM     43  C   UNL A   1      42.071  24.699  27.765  1.00  0.00    -0.014 A 
BRANCH  43  44
ATOM     44  C   UNL A   1      42.421  26.107  28.091  1.00  0.00     0.031 A 
ATOM     45  C   UNL A   1      43.840  26.591  27.954  1.00  0.00     0.074 A 
ATOM     46  C   UNL A   1      41.477  26.927  28.593  1.00  0.00     0.049 A 
ATOM     47  N   UNL A   1      44.340  27.765  28.240  1.00  0.00    -0.248 NA
ATOM     48  C   UNL A   1      44.831  25.622  27.458  1.00  0.00     0.031 C 
ATOM     49  C   UNL A   1      40.083  26.557  28.848  1.00  0.00     0.029 A 
ATOM     50  N   UNL A   1      41.553  28.235  29.006  1.00  0.00    -0.354 N 
ATOM     51  C   UNL A   1      45.704  27.667  27.992  1.00  0.00     0.074 A 
ATOM     52  C   UNL A   1      45.959  26.307  27.569  1.00  0.00     0.031 C 
ATOM     53  C   UNL A   1      39.435  27.612  29.367  1.00  0.00     0.029 A 
ATOM     54  C   UNL A   1      40.371  28.722  29.516  1.00  0.00     0.049 A 
ATOM     55  H   UNL A   1      42.374  28.773  28.943  1.00  0.00     0.167 HD
ATOM     56  C   UNL A   1      46.657  28.626  28.085  1.00  0.00     0.034 A 
ATOM     57  C   UNL A   1      40.076  29.921  30.055  1.00  0.00     0.034 A 
ATOM     58  C   UNL A   1      46.396  29.985  28.477  1.00  0.00     0.049 A 
ATOM     59  C   UNL A   1      41.143  30.978  30.121  1.00  0.00     0.074 A 
ATOM     60  C   UNL A   1      47.275  31.053  28.516  1.00  0.00     0.029 A 
ATOM     61  N   UNL A   1      45.170  30.462  28.916  1.00  0.00    -0.354 N 
ATOM     62  N   UNL A   1      42.393  30.913  29.733  1.00  0.00    -0.248 NA
ATOM     63  C   UNL A   1      40.752  32.287  30.663  1.00  0.00     0.031 C 
ATOM     64  C   UNL A   1      46.590  32.166  29.013  1.00  0.00     0.029 A 
ATOM     65  C   UNL A   1      45.272  31.804  29.242  1.00  0.00     0.049 A 
ATOM     66  H   UNL A   1      44.347  29.925  28.983  1.00  0.00     0.167 HD
ATOM     67  C   UNL A   1      42.928  32.178  29.949  1.00  0.00     0.074 A 
ATOM     68  C   UNL A   1      41.858  32.996  30.485  1.00  0.00     0.031 C 
ATOM     69  C   UNL A   1      44.190  32.620  29.731  1.00  0.00     0.034 A 
BRANCH  56  70
ATOM     70  C   UNL A   1      48.069  28.247  27.717  1.00  0.00     0.023 A 
ATOM     71  C   UNL A   1      48.501  28.366  26.380  1.00  0.00     0.012 A 
ATOM     72  C   UNL A   1      48.983  27.820  28.700  1.00  0.00     0.148 A 
ATOM     73  C   UNL A   1      49.804  28.027  26.019  1.00  0.00     0.002 A 
ATOM     74  C   UNL A   1      50.295  27.530  28.341  1.00  0.00     0.091 A 
ATOM     75  F   UNL A   1      48.553  27.693  29.963  1.00  0.00    -0.205 F 
ATOM     76  C   UNL A   1      50.703  27.619  27.001  1.00  0.00     0.022 A 
BRANCH  74  77
ATOM     77  S   UNL A   1      51.551  27.079  29.542  1.00  0.00     0.127 S 
ATOM     78  O   UNL A   1      51.549  28.246  30.424  1.00  0.00    -0.237 OA
ATOM     79  O   UNL A   1      50.989  25.866  30.136  1.00  0.00    -0.237 OA
ATOM     80  O   UNL A   1      52.778  26.873  28.785  1.00  0.00    -0.744 OA
ENDBRANCH  74  77
ENDBRANCH  56  70
BRANCH  57  81
ATOM     81  C   UNL A   1      38.689  30.201  30.524  1.00  0.00     0.023 A 
ATOM     82  C   UNL A   1      38.310  29.836  31.831  1.00  0.00     0.012 A 
ATOM     83  C   UNL A   1      37.755  30.854  29.696  1.00  0.00     0.148 A 
ATOM     84  C   UNL A   1      37.018  30.085  32.293  1.00  0.00     0.002 A 
ATOM     85  C   UNL A   1      36.489  31.153  30.183  1.00  0.00     0.091 A 
ATOM     86  F   UNL A   1      38.134  31.187  28.454  1.00  0.00    -0.205 F 
ATOM     87  C   UNL A   1      36.111  30.753  31.475  1.00  0.00     0.022 A 
BRANCH  85  88
ATOM     88  S   UNL A   1      35.301  32.126  29.250  1.00  0.00     0.127 S 
ATOM     89  O   UNL A   1      36.151  33.166  28.677  1.00  0.00    -0.237 OA
ATOM     90  O   UNL A   1      34.795  31.144  28.291  1.00  0.00    -0.237 OA
ATOM     91  O   UNL A   1      34.314  32.582  30.220  1.00  0.00    -0.744 OA
ENDBRANCH  85  88
ENDBRANCH  57  81
BRANCH  69  92
ATOM     92  C   UNL A   1      44.488  34.068  30.029  1.00  0.00     0.023 A 
ATOM     93  C   UNL A   1      44.972  34.444  31.298  1.00  0.00     0.012 A 
ATOM     94  C   UNL A   1      44.357  35.045  29.022  1.00  0.00     0.148 A 
ATOM     95  C   UNL A   1      45.287  35.775  31.570  1.00  0.00     0.002 A 
ATOM     96  C   UNL A   1      44.722  36.359  29.284  1.00  0.00     0.091 A 
ATOM     97  F   UNL A   1      43.878  34.670  27.827  1.00  0.00    -0.205 F 
ATOM     98  C   UNL A   1      45.174  36.729  30.561  1.00  0.00     0.022 A 
BRANCH  96  99
ATOM     99  S   UNL A   1      44.707  37.635  28.019  1.00  0.00     0.127 S 
ATOM    100  O   UNL A   1      45.651  37.095  27.041  1.00  0.00    -0.237 OA
ATOM    101  O   UNL A   1      43.309  37.626  27.589  1.00  0.00    -0.237 OA
ATOM    102  O   UNL A   1      45.129  38.862  28.680  1.00  0.00    -0.744 OA
ENDBRANCH  96  99
ENDBRANCH  69  92
ENDBRANCH  43  44
ENDBRANCH  35  38
ENDBRANCH  33  34
ENDBRANCH  32  33
ENDBRANCH  31  32
ENDBRANCH   1  31
TORSDOF 21
ENDMDL
MODEL 3
REMARK VINA RESULT:     -10.4      4.190      7.349
REMARK SMILES O=C(COc1cc(-c2ccccc2)nc(Nc2ccccc2Br)n1)NCCCCCCNC(=O)c1ccc(-c2c3nc(c(-c4cccc(S(=O)(=O)[O-])c4F)c4ccc([nH]4)c(-c4cccc(S(=O)(=O)[O-])c4F)c4nc(c(-c5cccc(S(=O)(=O)[O-])c5F)c5ccc2[nH]5)C=C4)C=C3)cc1
REMARK SMILES IDX 28 1 27 2 26 3 25 4 1 5 2 6 3 8 4 9 5 10 6 11 24 12 7 13
REMARK SMILES IDX 15 14 14 15 8 16 9 17 13 18 10 19 12 20 11 21 16 22 17 24
REMARK SMILES IDX 18 25 22 26 19 27 21 28 23 29 20 30 29 31 30 32 31 33 32 34
REMARK SMILES IDX 33 35 34 37 35 38 36 39 97 40 37 41 96 42 38 43 39 44 40 45
REMARK SMILES IDX 90 46 41 47 95 48 89 49 91 50 42 51 94 52 88 53 87 54 43 56
REMARK SMILES IDX 75 57 55 58 74 59 56 60 59 61 73 62 92 63 57 64 58 65 72 67
REMARK SMILES IDX 93 68 60 69 44 70 45 71 53 72 46 73 48 74 54 75 47 76 49 77
REMARK SMILES IDX 50 78 51 79 52 80 76 81 77 82 85 83 78 84 80 85 86 86 79 87
REMARK SMILES IDX 81 88 82 89 83 90 84 91 61 92 62 93 70 94 63 95 65 96 71 97
REMARK SMILES IDX 64 98 66 99 67 100 68 101 69 102
REMARK H PARENT 25 7 16 23 32 36 91 55 59 66
REMARK Flexibility Score: inf
ROOT
ATOM      1  C   UNL A   1      43.821  21.089  25.703  1.00  0.00     0.002 C 
ENDROOT
BRANCH   1   2
ATOM      2  C   UNL A   1      42.851  19.907  25.810  1.00  0.00     0.021 C 
BRANCH   2   3
ATOM      3  C   UNL A   1      41.746  20.092  26.842  1.00  0.00     0.116 C 
BRANCH   3   4
ATOM      4  N   UNL A   1      40.438  20.204  26.228  1.00  0.00    -0.353 N 
ATOM      5  O   UNL A   1      39.897  22.278  27.069  1.00  0.00    -0.271 OA
ATOM      6  C   UNL A   1      39.655  21.336  26.323  1.00  0.00     0.258 C 
ATOM      7  H   UNL A   1      40.091  19.435  25.720  1.00  0.00     0.163 HD
BRANCH   6   8
ATOM      8  C   UNL A   1      38.453  21.330  25.373  1.00  0.00     0.331 C 
BRANCH   8   9
ATOM      9  O   UNL A   1      37.493  22.351  25.645  1.00  0.00    -0.467 OA
BRANCH   9  10
ATOM     10  C   UNL A   1      36.214  21.973  25.315  1.00  0.00     0.219 A 
ATOM     11  C   UNL A   1      35.867  20.654  25.203  1.00  0.00     0.097 A 
ATOM     12  N   UNL A   1      35.322  22.966  25.262  1.00  0.00    -0.177 NA
ATOM     13  C   UNL A   1      34.535  20.383  25.006  1.00  0.00     0.080 A 
ATOM     14  C   UNL A   1      34.041  22.624  25.046  1.00  0.00     0.231 A 
ATOM     15  N   UNL A   1      33.610  21.358  24.921  1.00  0.00    -0.212 NA
BRANCH  13  16
ATOM     16  C   UNL A   1      34.084  18.989  24.888  1.00  0.00     0.000 A 
ATOM     17  C   UNL A   1      32.840  18.584  25.393  1.00  0.00     0.010 A 
ATOM     18  C   UNL A   1      34.851  18.046  24.176  1.00  0.00     0.010 A 
ATOM     19  C   UNL A   1      32.365  17.289  25.165  1.00  0.00     0.001 A 
ATOM     20  C   UNL A   1      34.378  16.751  23.952  1.00  0.00     0.001 A 
ATOM     21  C   UNL A   1      33.131  16.377  24.440  1.00  0.00     0.000 A 
ENDBRANCH  13  16
BRANCH  14  22
ATOM     22  N   UNL A   1      33.053  23.605  25.018  1.00  0.00    -0.323 N 
ATOM     23  H   UNL A   1      32.565  23.733  25.865  1.00  0.00     0.170 HD
BRANCH  22  24
ATOM     24  C   UNL A   1      32.651  24.434  23.966  1.00  0.00     0.055 A 
ATOM     25  C   UNL A   1      33.284  24.273  22.722  1.00  0.00     0.027 A 
ATOM     26  C   UNL A   1      31.612  25.381  24.057  1.00  0.00     0.041 A 
ATOM     27  C   UNL A   1      32.889  25.012  21.603  1.00  0.00     0.002 A 
ATOM     28  C   UNL A   1      31.219  26.123  22.936  1.00  0.00     0.018 A 
ATOM     29  Br  UNL A   1      30.774  25.829  25.708  1.00  0.00    -0.049 Br
ATOM     30  C   UNL A   1      31.852  25.934  21.709  1.00  0.00     0.001 A 
ENDBRANCH  22  24
ENDBRANCH  14  22
ENDBRANCH   9  10
ENDBRANCH   8   9
ENDBRANCH   6   8
ENDBRANCH   3   4
ENDBRANCH   2   3
ENDBRANCH   1   2
BRANCH   1  31
ATOM     31  C   UNL A   1      43.273  22.439  26.177  1.00  0.00     0.002 C 
BRANCH  31  32
ATOM     32  C   UNL A   1      43.168  23.520  25.099  1.00  0.00     0.021 C 
BRANCH  32  33
ATOM     33  C   UNL A   1      42.647  24.868  25.587  1.00  0.00     0.116 C 
BRANCH  33  34
ATOM     34  N   UNL A   1      41.213  24.856  25.834  1.00  0.00    -0.352 N 
ATOM     35  C   UNL A   1      40.457  25.711  26.598  1.00  0.00     0.251 C 
ATOM     36  H   UNL A   1      40.714  24.133  25.391  1.00  0.00     0.163 HD
ATOM     37  O   UNL A   1      39.277  25.451  26.826  1.00  0.00    -0.269 OA
BRANCH  35  38
ATOM     38  C   UNL A   1      41.070  26.931  27.167  1.00  0.00     0.039 A 
ATOM     39  C   UNL A   1      40.878  28.153  26.514  1.00  0.00     0.014 A 
ATOM     40  C   UNL A   1      41.824  26.875  28.342  1.00  0.00     0.014 A 
ATOM     41  C   UNL A   1      41.390  29.325  27.076  1.00  0.00     0.010 A 
ATOM     42  C   UNL A   1      42.264  28.054  28.940  1.00  0.00     0.010 A 
ATOM     43  C   UNL A   1      42.057  29.290  28.312  1.00  0.00    -0.014 A 
BRANCH  43  44
ATOM     44  C   UNL A   1      42.528  30.537  28.970  1.00  0.00     0.031 A 
ATOM     45  C   UNL A   1      41.737  31.155  30.091  1.00  0.00     0.074 A 
ATOM     46  C   UNL A   1      43.626  31.163  28.499  1.00  0.00     0.049 A 
ATOM     47  N   UNL A   1      41.965  32.263  30.747  1.00  0.00    -0.248 NA
ATOM     48  C   UNL A   1      40.515  30.449  30.513  1.00  0.00     0.031 C 
ATOM     49  C   UNL A   1      44.437  30.710  27.367  1.00  0.00     0.029 A 
ATOM     50  N   UNL A   1      44.234  32.329  28.897  1.00  0.00    -0.354 N 
ATOM     51  C   UNL A   1      40.902  32.407  31.632  1.00  0.00     0.074 A 
ATOM     52  C   UNL A   1      40.009  31.291  31.402  1.00  0.00     0.031 C 
ATOM     53  C   UNL A   1      45.437  31.583  27.165  1.00  0.00     0.029 A 
ATOM     54  C   UNL A   1      45.319  32.675  28.126  1.00  0.00     0.049 A 
ATOM     55  H   UNL A   1      43.921  32.866  29.660  1.00  0.00     0.167 HD
ATOM     56  C   UNL A   1      40.696  33.364  32.567  1.00  0.00     0.034 A 
ATOM     57  C   UNL A   1      46.124  33.755  28.177  1.00  0.00     0.034 A 
ATOM     58  C   UNL A   1      41.601  34.456  32.814  1.00  0.00     0.049 A 
ATOM     59  C   UNL A   1      45.892  34.791  29.243  1.00  0.00     0.074 A 
ATOM     60  C   UNL A   1      41.529  35.427  33.797  1.00  0.00     0.029 A 
ATOM     61  N   UNL A   1      42.732  34.733  32.062  1.00  0.00    -0.354 N 
ATOM     62  N   UNL A   1      44.970  34.825  30.173  1.00  0.00    -0.248 NA
ATOM     63  C   UNL A   1      46.834  35.918  29.291  1.00  0.00     0.031 C 
ATOM     64  C   UNL A   1      42.596  36.312  33.616  1.00  0.00     0.029 A 
ATOM     65  C   UNL A   1      43.359  35.868  32.548  1.00  0.00     0.049 A 
ATOM     66  H   UNL A   1      43.045  34.200  31.296  1.00  0.00     0.167 HD
ATOM     67  C   UNL A   1      45.241  35.954  30.940  1.00  0.00     0.074 A 
ATOM     68  C   UNL A   1      46.427  36.566  30.374  1.00  0.00     0.031 C 
ATOM     69  C   UNL A   1      44.565  36.443  32.007  1.00  0.00     0.034 A 
BRANCH  56  70
ATOM     70  C   UNL A   1      39.460  33.254  33.423  1.00  0.00     0.023 A 
ATOM     71  C   UNL A   1      38.231  33.754  32.947  1.00  0.00     0.012 A 
ATOM     72  C   UNL A   1      39.503  32.611  34.676  1.00  0.00     0.148 A 
ATOM     73  C   UNL A   1      37.075  33.658  33.720  1.00  0.00     0.002 A 
ATOM     74  C   UNL A   1      38.336  32.475  35.420  1.00  0.00     0.091 A 
ATOM     75  F   UNL A   1      40.682  32.158  35.124  1.00  0.00    -0.205 F 
ATOM     76  C   UNL A   1      37.126  33.009  34.950  1.00  0.00     0.022 A 
BRANCH  74  77
ATOM     77  S   UNL A   1      38.278  31.582  36.977  1.00  0.00     0.127 S 
ATOM     78  O   UNL A   1      36.998  32.029  37.525  1.00  0.00    -0.237 OA
ATOM     79  O   UNL A   1      38.298  30.188  36.534  1.00  0.00    -0.237 OA
ATOM     80  O   UNL A   1      39.456  31.999  37.724  1.00  0.00    -0.744 OA
ENDBRANCH  74  77
ENDBRANCH  56  70
BRANCH  57  81
ATOM     81  C   UNL A   1      47.259  33.881  27.220  1.00  0.00     0.023 A 
ATOM     82  C   UNL A   1      47.185  34.820  26.173  1.00  0.00     0.012 A 
ATOM     83  C   UNL A   1      48.421  33.097  27.358  1.00  0.00     0.148 A 
ATOM     84  C   UNL A   1      48.233  34.955  25.263  1.00  0.00     0.002 A 
ATOM     85  C   UNL A   1      49.486  33.278  26.484  1.00  0.00     0.091 A 
ATOM     86  F   UNL A   1      48.469  32.204  28.356  1.00  0.00    -0.205 F 
ATOM     87  C   UNL A   1      49.387  34.194  25.424  1.00  0.00     0.022 A 
BRANCH  85  88
ATOM     88  S   UNL A   1      51.060  32.439  26.693  1.00  0.00     0.127 S 
ATOM     89  O   UNL A   1      50.690  31.045  26.464  1.00  0.00    -0.237 OA
ATOM     90  O   UNL A   1      51.867  33.046  25.634  1.00  0.00    -0.237 OA
ATOM     91  O   UNL A   1      51.503  32.760  28.044  1.00  0.00    -0.744 OA
ENDBRANCH  85  88
ENDBRANCH  57  81
BRANCH  69  92
ATOM     92  C   UNL A   1      45.107  37.682  32.674  1.00  0.00     0.023 A 
ATOM     93  C   UNL A   1      46.099  37.573  33.669  1.00  0.00     0.012 A 
ATOM     94  C   UNL A   1      44.682  38.959  32.258  1.00  0.00     0.148 A 
ATOM     95  C   UNL A   1      46.634  38.715  34.263  1.00  0.00     0.002 A 
ATOM     96  C   UNL A   1      45.257  40.094  32.817  1.00  0.00     0.091 A 
ATOM     97  F   UNL A   1      43.724  39.041  31.323  1.00  0.00    -0.205 F 
ATOM     98  C   UNL A   1      46.223  39.974  33.829  1.00  0.00     0.022 A 
BRANCH  96  99
ATOM     99  S   UNL A   1      44.864  41.752  32.251  1.00  0.00     0.127 S 
ATOM    100  O   UNL A   1      45.291  41.699  30.853  1.00  0.00    -0.237 OA
ATOM    101  O   UNL A   1      43.416  41.810  32.445  1.00  0.00    -0.237 OA
ATOM    102  O   UNL A   1      45.624  42.659  33.101  1.00  0.00    -0.744 OA
ENDBRANCH  96  99
ENDBRANCH  69  92
ENDBRANCH  43  44
ENDBRANCH  35  38
ENDBRANCH  33  34
ENDBRANCH  32  33
ENDBRANCH  31  32
ENDBRANCH   1  31
TORSDOF 21
ENDMDL
