MODEL 1
REMARK VINA RESULT:     -10.4      0.000      0.000
REMARK SMILES CC[N@H+](CC(C)C)[C@@H]1CC[C@]([NH2+]C)(C(=O)NCCCCCCNC(=O)c2ccc(-c3c4nc(c(-c5cccc(S(=O)(=O)[O-])c5F)c5ccc([nH]5)c(-c5cccc(S(=O)(=O)[O-])c5F)c5nc(c(-c6cccc(S(=O)(=O)[O-])c6F)c6ccc3[nH]6)C=C5)C=C4)cc2)C1
REMARK SMILES IDX 19 1 18 2 17 3 16 4 14 5 15 6 11 8 8 9 9 10 89 11 10 12 3 13
REMARK SMILES IDX 2 15 1 16 4 17 5 18 6 19 7 20 12 21 13 22 20 25 21 26 22 27
REMARK SMILES IDX 23 28 24 29 25 31 26 32 27 33 88 34 28 35 87 36 29 37 30 38
REMARK SMILES IDX 31 39 81 40 32 41 86 42 80 43 82 44 33 45 85 46 79 47 78 48
REMARK SMILES IDX 34 50 66 51 46 52 65 53 47 54 50 55 64 56 83 57 48 58 49 59
REMARK SMILES IDX 63 61 84 62 51 63 35 64 36 65 44 66 37 67 39 68 45 69 38 70
REMARK SMILES IDX 40 71 41 72 42 73 43 74 67 75 68 76 76 77 69 78 71 79 77 80
REMARK SMILES IDX 70 81 72 82 73 83 74 84 75 85 52 86 53 87 61 88 54 89 56 90
REMARK SMILES IDX 62 91 55 92 57 93 58 94 59 95 60 96
REMARK H PARENT 16 7 3 14 12 23 12 24 23 30 82 49 50 60
REMARK Flexibility Score: inf
ROOT
ATOM      1  C   UNL A   1      32.962  28.140  24.908  1.00  0.00     0.002 C 
ENDROOT
BRANCH   1   2
ATOM      2  C   UNL A   1      33.481  27.341  26.111  1.00  0.00     0.021 C 
BRANCH   2   3
ATOM      3  C   UNL A   1      33.314  25.826  26.043  1.00  0.00     0.116 C 
BRANCH   3   4
ATOM      4  N   UNL A   1      34.224  25.162  25.139  1.00  0.00    -0.351 N 
ATOM      5  C   UNL A   1      34.018  24.406  24.031  1.00  0.00     0.281 C 
ATOM      6  O   UNL A   1      35.050  24.197  23.365  1.00  0.00    -0.268 OA
ATOM      7  H   UNL A   1      35.174  25.279  25.371  1.00  0.00     0.163 HD
BRANCH   5   8
ATOM      8  C   UNL A   1      32.651  23.714  23.585  1.00  0.00     0.181 C 
ATOM      9  C   UNL A   1      32.100  21.382  24.356  1.00  0.00     0.191 C 
ATOM     10  C   UNL A   1      32.526  21.353  22.872  1.00  0.00     0.072 C 
ATOM     11  C   UNL A   1      31.925  22.880  24.653  1.00  0.00     0.144 C 
ATOM     12  C   UNL A   1      32.873  22.765  22.403  1.00  0.00     0.085 C 
BRANCH   9  13
ATOM     13  N   UNL A   1      32.997  20.646  25.262  1.00  0.00    -0.332 N 
ATOM     14  H   UNL A   1      32.315  20.067  25.752  1.00  0.00     0.348 HD
BRANCH  13  15
ATOM     15  C   UNL A   1      33.688  21.463  26.296  1.00  0.00     0.258 C 
ATOM     16  C   UNL A   1      35.195  21.706  26.168  1.00  0.00     0.071 C 
ENDBRANCH  13  15
BRANCH  13  17
ATOM     17  C   UNL A   1      33.960  19.720  24.609  1.00  0.00     0.265 C 
BRANCH  17  18
ATOM     18  C   UNL A   1      33.318  18.313  24.480  1.00  0.00     0.038 C 
ATOM     19  C   UNL A   1      34.332  17.240  24.063  1.00  0.00     0.013 C 
ATOM     20  C   UNL A   1      32.627  17.846  25.757  1.00  0.00     0.013 C 
ENDBRANCH  17  18
ENDBRANCH  13  17
ENDBRANCH   9  13
BRANCH   8  21
ATOM     21  N   UNL A   1      31.724  24.872  23.356  1.00  0.00    -0.336 N 
ATOM     22  C   UNL A   1      30.305  24.683  23.546  1.00  0.00     0.331 C 
ATOM     23  H   UNL A   1      31.857  25.175  22.391  1.00  0.00     0.346 HD
ATOM     24  H   UNL A   1      31.981  25.539  24.082  1.00  0.00     0.346 HD
ENDBRANCH   8  21
ENDBRANCH   5   8
ENDBRANCH   3   4
ENDBRANCH   2   3
ENDBRANCH   1   2
BRANCH   1  25
ATOM     25  C   UNL A   1      31.528  28.673  24.987  1.00  0.00     0.002 C 
BRANCH  25  26
ATOM     26  C   UNL A   1      31.357  30.138  25.391  1.00  0.00     0.021 C 
BRANCH  26  27
ATOM     27  C   UNL A   1      32.236  30.634  26.533  1.00  0.00     0.116 C 
BRANCH  27  28
ATOM     28  N   UNL A   1      32.085  32.055  26.810  1.00  0.00    -0.352 N 
ATOM     29  C   UNL A   1      32.932  32.898  27.492  1.00  0.00     0.251 C 
ATOM     30  H   UNL A   1      31.263  32.470  26.462  1.00  0.00     0.163 HD
ATOM     31  O   UNL A   1      32.600  34.062  27.709  1.00  0.00    -0.269 OA
BRANCH  29  32
ATOM     32  C   UNL A   1      34.229  32.393  27.996  1.00  0.00     0.039 A 
ATOM     33  C   UNL A   1      35.328  33.258  28.025  1.00  0.00     0.014 A 
ATOM     34  C   UNL A   1      34.357  31.084  28.465  1.00  0.00     0.014 A 
ATOM     35  C   UNL A   1      36.530  32.836  28.600  1.00  0.00     0.010 A 
ATOM     36  C   UNL A   1      35.531  30.689  29.101  1.00  0.00     0.010 A 
ATOM     37  C   UNL A   1      36.628  31.562  29.182  1.00  0.00    -0.014 A 
BRANCH  37  38
ATOM     38  C   UNL A   1      37.849  31.124  29.908  1.00  0.00     0.031 A 
ATOM     39  C   UNL A   1      38.763  30.097  29.300  1.00  0.00     0.074 A 
ATOM     40  C   UNL A   1      38.062  31.549  31.170  1.00  0.00     0.049 A 
ATOM     41  N   UNL A   1      39.793  29.490  29.831  1.00  0.00    -0.248 NA
ATOM     42  C   UNL A   1      38.457  29.671  27.926  1.00  0.00     0.031 C 
ATOM     43  C   UNL A   1      37.202  32.479  31.904  1.00  0.00     0.029 A 
ATOM     44  N   UNL A   1      39.043  31.219  32.074  1.00  0.00    -0.354 N 
ATOM     45  C   UNL A   1      40.232  28.582  28.875  1.00  0.00     0.074 A 
ATOM     46  C   UNL A   1      39.336  28.695  27.745  1.00  0.00     0.031 C 
ATOM     47  C   UNL A   1      37.679  32.627  33.150  1.00  0.00     0.029 A 
ATOM     48  C   UNL A   1      38.858  31.782  33.314  1.00  0.00     0.049 A 
ATOM     49  H   UNL A   1      39.805  30.635  31.854  1.00  0.00     0.167 HD
ATOM     50  C   UNL A   1      41.300  27.748  28.920  1.00  0.00     0.034 A 
ATOM     51  C   UNL A   1      39.543  31.621  34.464  1.00  0.00     0.034 A 
ATOM     52  C   UNL A   1      42.211  27.666  30.029  1.00  0.00     0.049 A 
ATOM     53  C   UNL A   1      40.755  30.730  34.477  1.00  0.00     0.074 A 
ATOM     54  C   UNL A   1      43.373  26.923  30.136  1.00  0.00     0.029 A 
ATOM     55  N   UNL A   1      42.061  28.346  31.229  1.00  0.00    -0.354 N 
ATOM     56  N   UNL A   1      41.249  29.998  33.509  1.00  0.00    -0.248 NA
ATOM     57  C   UNL A   1      41.527  30.672  35.728  1.00  0.00     0.031 C 
ATOM     58  C   UNL A   1      43.914  27.136  31.409  1.00  0.00     0.029 A 
ATOM     59  C   UNL A   1      43.103  28.034  32.086  1.00  0.00     0.049 A 
ATOM     60  H   UNL A   1      41.321  28.959  31.442  1.00  0.00     0.167 HD
ATOM     61  C   UNL A   1      42.406  29.418  34.019  1.00  0.00     0.074 A 
ATOM     62  C   UNL A   1      42.548  29.900  35.378  1.00  0.00     0.031 C 
ATOM     63  C   UNL A   1      43.264  28.557  33.419  1.00  0.00     0.034 A 
BRANCH  50  64
ATOM     64  C   UNL A   1      41.562  26.894  27.707  1.00  0.00     0.023 A 
ATOM     65  C   UNL A   1      42.100  27.484  26.544  1.00  0.00     0.012 A 
ATOM     66  C   UNL A   1      41.308  25.508  27.721  1.00  0.00     0.148 A 
ATOM     67  C   UNL A   1      42.332  26.721  25.399  1.00  0.00     0.002 A 
ATOM     68  C   UNL A   1      41.586  24.746  26.592  1.00  0.00     0.091 A 
ATOM     69  F   UNL A   1      40.776  24.964  28.825  1.00  0.00    -0.205 F 
ATOM     70  C   UNL A   1      42.084  25.352  25.427  1.00  0.00     0.022 A 
BRANCH  68  71
ATOM     71  S   UNL A   1      41.375  22.962  26.559  1.00  0.00     0.127 S 
ATOM     72  O   UNL A   1      42.002  22.567  27.818  1.00  0.00    -0.237 OA
ATOM     73  O   UNL A   1      39.919  22.821  26.534  1.00  0.00    -0.237 OA
ATOM     74  O   UNL A   1      42.045  22.506  25.349  1.00  0.00    -0.744 OA
ENDBRANCH  68  71
ENDBRANCH  50  64
BRANCH  51  75
ATOM     75  C   UNL A   1      39.118  32.367  35.682  1.00  0.00     0.023 A 
ATOM     76  C   UNL A   1      38.264  31.748  36.613  1.00  0.00     0.012 A 
ATOM     77  C   UNL A   1      39.609  33.659  35.951  1.00  0.00     0.148 A 
ATOM     78  C   UNL A   1      37.887  32.411  37.782  1.00  0.00     0.002 A 
ATOM     79  C   UNL A   1      39.276  34.292  37.143  1.00  0.00     0.091 A 
ATOM     80  F   UNL A   1      40.414  34.234  35.046  1.00  0.00    -0.205 F 
ATOM     81  C   UNL A   1      38.402  33.676  38.052  1.00  0.00     0.022 A 
BRANCH  79  82
ATOM     82  S   UNL A   1      40.001  35.860  37.638  1.00  0.00     0.127 S 
ATOM     83  O   UNL A   1      39.649  36.722  36.514  1.00  0.00    -0.237 OA
ATOM     84  O   UNL A   1      39.284  36.142  38.882  1.00  0.00    -0.237 OA
ATOM     85  O   UNL A   1      41.424  35.600  37.813  1.00  0.00    -0.744 OA
ENDBRANCH  79  82
ENDBRANCH  51  75
BRANCH  63  86
ATOM     86  C   UNL A   1      44.462  28.096  34.208  1.00  0.00     0.023 A 
ATOM     87  C   UNL A   1      45.647  28.858  34.197  1.00  0.00     0.012 A 
ATOM     88  C   UNL A   1      44.382  26.954  35.030  1.00  0.00     0.148 A 
ATOM     89  C   UNL A   1      46.742  28.476  34.970  1.00  0.00     0.002 A 
ATOM     90  C   UNL A   1      45.460  26.606  35.834  1.00  0.00     0.091 A 
ATOM     91  F   UNL A   1      43.252  26.231  35.011  1.00  0.00    -0.205 F 
ATOM     92  C   UNL A   1      46.645  27.360  35.798  1.00  0.00     0.022 A 
BRANCH  90  93
ATOM     93  S   UNL A   1      45.391  25.242  37.000  1.00  0.00     0.127 S 
ATOM     94  O   UNL A   1      44.986  24.133  36.137  1.00  0.00    -0.237 OA
ATOM     95  O   UNL A   1      46.773  25.171  37.477  1.00  0.00    -0.237 OA
ATOM     96  O   UNL A   1      44.422  25.630  38.015  1.00  0.00    -0.744 OA
ENDBRANCH  90  93
ENDBRANCH  63  86
ENDBRANCH  37  38
ENDBRANCH  29  32
ENDBRANCH  27  28
ENDBRANCH  26  27
ENDBRANCH  25  26
ENDBRANCH   1  25
TORSDOF 21
ENDMDL
MODEL 2
REMARK VINA RESULT:     -10.4      2.197      7.959
REMARK SMILES CC[N@H+](CC(C)C)[C@@H]1CC[C@]([NH2+]C)(C(=O)NCCCCCCNC(=O)c2ccc(-c3c4nc(c(-c5cccc(S(=O)(=O)[O-])c5F)c5ccc([nH]5)c(-c5cccc(S(=O)(=O)[O-])c5F)c5nc(c(-c6cccc(S(=O)(=O)[O-])c6F)c6ccc3[nH]6)C=C5)C=C4)cc2)C1
REMARK SMILES IDX 19 1 18 2 17 3 16 4 14 5 15 6 11 8 8 9 9 10 89 11 10 12 3 13
REMARK SMILES IDX 2 15 1 16 4 17 5 18 6 19 7 20 12 21 13 22 20 25 21 26 22 27
REMARK SMILES IDX 23 28 24 29 25 31 26 32 27 33 88 34 28 35 87 36 29 37 30 38
REMARK SMILES IDX 31 39 81 40 32 41 86 42 80 43 82 44 33 45 85 46 79 47 78 48
REMARK SMILES IDX 34 50 66 51 46 52 65 53 47 54 50 55 64 56 83 57 48 58 49 59
REMARK SMILES IDX 63 61 84 62 51 63 35 64 36 65 44 66 37 67 39 68 45 69 38 70
REMARK SMILES IDX 40 71 41 72 42 73 43 74 67 75 68 76 76 77 69 78 71 79 77 80
REMARK SMILES IDX 70 81 72 82 73 83 74 84 75 85 52 86 53 87 61 88 54 89 56 90
REMARK SMILES IDX 62 91 55 92 57 93 58 94 59 95 60 96
REMARK H PARENT 16 7 3 14 12 23 12 24 23 30 82 49 50 60
REMARK Flexibility Score: inf
ROOT
ATOM      1  C   UNL A   1      33.365  30.088  26.288  1.00  0.00     0.002 C 
ENDROOT
BRANCH   1   2
ATOM      2  C   UNL A   1      34.034  28.910  27.009  1.00  0.00     0.021 C 
BRANCH   2   3
ATOM      3  C   UNL A   1      33.695  27.515  26.490  1.00  0.00     0.116 C 
BRANCH   3   4
ATOM      4  N   UNL A   1      33.871  27.346  25.066  1.00  0.00    -0.351 N 
ATOM      5  C   UNL A   1      33.071  26.819  24.106  1.00  0.00     0.281 C 
ATOM      6  O   UNL A   1      33.454  27.058  22.944  1.00  0.00    -0.268 OA
ATOM      7  H   UNL A   1      34.737  27.674  24.730  1.00  0.00     0.163 HD
BRANCH   5   8
ATOM      8  C   UNL A   1      31.799  25.882  24.327  1.00  0.00     0.181 C 
ATOM      9  C   UNL A   1      32.100  23.461  24.950  1.00  0.00     0.191 C 
ATOM     10  C   UNL A   1      31.684  23.570  23.467  1.00  0.00     0.072 C 
ATOM     11  C   UNL A   1      31.878  24.883  25.493  1.00  0.00     0.144 C 
ATOM     12  C   UNL A   1      31.512  25.039  23.082  1.00  0.00     0.085 C 
BRANCH   9  13
ATOM     13  N   UNL A   1      33.440  22.890  25.167  1.00  0.00    -0.332 N 
ATOM     14  H   UNL A   1      33.662  22.600  24.214  1.00  0.00     0.348 HD
BRANCH  13  15
ATOM     15  C   UNL A   1      33.495  21.668  26.013  1.00  0.00     0.258 C 
ATOM     16  C   UNL A   1      33.926  21.797  27.478  1.00  0.00     0.071 C 
ENDBRANCH  13  15
BRANCH  13  17
ATOM     17  C   UNL A   1      34.495  23.853  25.581  1.00  0.00     0.265 C 
BRANCH  17  18
ATOM     18  C   UNL A   1      35.665  23.808  24.563  1.00  0.00     0.038 C 
ATOM     19  C   UNL A   1      36.899  23.085  25.117  1.00  0.00     0.013 C 
ATOM     20  C   UNL A   1      35.285  23.157  23.236  1.00  0.00     0.013 C 
ENDBRANCH  17  18
ENDBRANCH  13  17
ENDBRANCH   9  13
BRANCH   8  21
ATOM     21  N   UNL A   1      30.724  26.837  24.758  1.00  0.00    -0.336 N 
ATOM     22  C   UNL A   1      30.427  27.981  23.929  1.00  0.00     0.331 C 
ATOM     23  H   UNL A   1      30.993  27.195  25.675  1.00  0.00     0.346 HD
ATOM     24  H   UNL A   1      29.871  26.279  24.719  1.00  0.00     0.346 HD
ENDBRANCH   8  21
ENDBRANCH   5   8
ENDBRANCH   3   4
ENDBRANCH   2   3
ENDBRANCH   1   2
BRANCH   1  25
ATOM     25  C   UNL A   1      31.971  30.503  26.768  1.00  0.00     0.002 C 
BRANCH  25  26
ATOM     26  C   UNL A   1      31.711  32.002  26.926  1.00  0.00     0.021 C 
BRANCH  26  27
ATOM     27  C   UNL A   1      32.914  32.862  27.297  1.00  0.00     0.116 C 
BRANCH  27  28
ATOM     28  N   UNL A   1      32.558  34.201  27.741  1.00  0.00    -0.352 N 
ATOM     29  C   UNL A   1      33.074  34.931  28.787  1.00  0.00     0.251 C 
ATOM     30  H   UNL A   1      31.849  34.646  27.221  1.00  0.00     0.163 HD
ATOM     31  O   UNL A   1      32.588  36.024  29.075  1.00  0.00    -0.269 OA
BRANCH  29  32
ATOM     32  C   UNL A   1      34.191  34.385  29.589  1.00  0.00     0.039 A 
ATOM     33  C   UNL A   1      33.902  33.682  30.763  1.00  0.00     0.014 A 
ATOM     34  C   UNL A   1      35.515  34.538  29.174  1.00  0.00     0.014 A 
ATOM     35  C   UNL A   1      34.933  33.063  31.475  1.00  0.00     0.010 A 
ATOM     36  C   UNL A   1      36.532  33.862  29.844  1.00  0.00     0.010 A 
ATOM     37  C   UNL A   1      36.252  33.113  30.997  1.00  0.00    -0.014 A 
BRANCH  37  38
ATOM     38  C   UNL A   1      37.355  32.367  31.660  1.00  0.00     0.031 A 
ATOM     39  C   UNL A   1      37.931  32.863  32.957  1.00  0.00     0.074 A 
ATOM     40  C   UNL A   1      37.925  31.321  31.029  1.00  0.00     0.049 A 
ATOM     41  N   UNL A   1      38.977  32.433  33.614  1.00  0.00    -0.248 NA
ATOM     42  C   UNL A   1      37.263  34.018  33.578  1.00  0.00     0.031 C 
ATOM     43  C   UNL A   1      37.515  30.795  29.726  1.00  0.00     0.029 A 
ATOM     44  N   UNL A   1      39.003  30.543  31.377  1.00  0.00    -0.354 N 
ATOM     45  C   UNL A   1      39.119  33.288  34.701  1.00  0.00     0.074 A 
ATOM     46  C   UNL A   1      38.071  34.280  34.596  1.00  0.00     0.031 C 
ATOM     47  C   UNL A   1      38.342  29.798  29.375  1.00  0.00     0.029 A 
ATOM     48  C   UNL A   1      39.358  29.633  30.409  1.00  0.00     0.049 A 
ATOM     49  H   UNL A   1      39.475  30.629  32.236  1.00  0.00     0.167 HD
ATOM     50  C   UNL A   1      40.022  33.238  35.711  1.00  0.00     0.034 A 
ATOM     51  C   UNL A   1      40.398  28.778  30.345  1.00  0.00     0.034 A 
ATOM     52  C   UNL A   1      41.037  32.227  35.834  1.00  0.00     0.049 A 
ATOM     53  C   UNL A   1      41.358  28.703  31.501  1.00  0.00     0.074 A 
ATOM     54  C   UNL A   1      41.940  32.035  36.864  1.00  0.00     0.029 A 
ATOM     55  N   UNL A   1      41.293  31.242  34.891  1.00  0.00    -0.354 N 
ATOM     56  N   UNL A   1      41.381  29.417  32.600  1.00  0.00    -0.248 NA
ATOM     57  C   UNL A   1      42.412  27.681  31.428  1.00  0.00     0.031 C 
ATOM     58  C   UNL A   1      42.755  30.945  36.534  1.00  0.00     0.029 A 
ATOM     59  C   UNL A   1      42.342  30.443  35.310  1.00  0.00     0.049 A 
ATOM     60  H   UNL A   1      40.799  31.129  34.046  1.00  0.00     0.167 HD
ATOM     61  C   UNL A   1      42.428  28.911  33.364  1.00  0.00     0.074 A 
ATOM     62  C   UNL A   1      43.003  27.817  32.609  1.00  0.00     0.031 C 
ATOM     63  C   UNL A   1      42.876  29.325  34.575  1.00  0.00     0.034 A 
BRANCH  50  64
ATOM     64  C   UNL A   1      39.913  34.285  36.790  1.00  0.00     0.023 A 
ATOM     65  C   UNL A   1      40.295  35.614  36.510  1.00  0.00     0.012 A 
ATOM     66  C   UNL A   1      39.408  33.967  38.066  1.00  0.00     0.148 A 
ATOM     67  C   UNL A   1      40.225  36.598  37.496  1.00  0.00     0.002 A 
ATOM     68  C   UNL A   1      39.298  34.963  39.030  1.00  0.00     0.091 A 
ATOM     69  F   UNL A   1      39.070  32.696  38.325  1.00  0.00    -0.205 F 
ATOM     70  C   UNL A   1      39.719  36.274  38.751  1.00  0.00     0.022 A 
BRANCH  68  71
ATOM     71  S   UNL A   1      38.582  34.661  40.649  1.00  0.00     0.127 S 
ATOM     72  O   UNL A   1      37.392  33.885  40.306  1.00  0.00    -0.237 OA
ATOM     73  O   UNL A   1      39.636  33.897  41.318  1.00  0.00    -0.237 OA
ATOM     74  O   UNL A   1      38.334  35.976  41.225  1.00  0.00    -0.744 OA
ENDBRANCH  68  71
ENDBRANCH  50  64
BRANCH  51  75
ATOM     75  C   UNL A   1      40.545  27.889  29.159  1.00  0.00     0.023 A 
ATOM     76  C   UNL A   1      39.700  26.773  29.019  1.00  0.00     0.012 A 
ATOM     77  C   UNL A   1      41.472  28.183  28.140  1.00  0.00     0.148 A 
ATOM     78  C   UNL A   1      39.789  25.950  27.895  1.00  0.00     0.002 A 
ATOM     79  C   UNL A   1      41.519  27.393  26.997  1.00  0.00     0.091 A 
ATOM     80  F   UNL A   1      42.275  29.245  28.298  1.00  0.00    -0.205 F 
ATOM     81  C   UNL A   1      40.689  26.266  26.880  1.00  0.00     0.022 A 
BRANCH  79  82
ATOM     82  S   UNL A   1      42.545  27.804  25.581  1.00  0.00     0.127 S 
ATOM     83  O   UNL A   1      43.872  27.878  26.184  1.00  0.00    -0.237 OA
ATOM     84  O   UNL A   1      42.327  26.650  24.708  1.00  0.00    -0.237 OA
ATOM     85  O   UNL A   1      42.017  29.058  25.060  1.00  0.00    -0.744 OA
ENDBRANCH  79  82
ENDBRANCH  51  75
BRANCH  63  86
ATOM     86  C   UNL A   1      44.029  28.574  35.189  1.00  0.00     0.023 A 
ATOM     87  C   UNL A   1      45.353  28.929  34.863  1.00  0.00     0.012 A 
ATOM     88  C   UNL A   1      43.799  27.574  36.156  1.00  0.00     0.148 A 
ATOM     89  C   UNL A   1      46.429  28.283  35.469  1.00  0.00     0.002 A 
ATOM     90  C   UNL A   1      44.877  26.969  36.791  1.00  0.00     0.091 A 
ATOM     91  F   UNL A   1      42.532  27.238  36.439  1.00  0.00    -0.205 F 
ATOM     92  C   UNL A   1      46.193  27.314  36.441  1.00  0.00     0.022 A 
BRANCH  90  93
ATOM     93  S   UNL A   1      44.666  25.781  38.122  1.00  0.00     0.127 S 
ATOM     94  O   UNL A   1      46.023  25.694  38.661  1.00  0.00    -0.237 OA
ATOM     95  O   UNL A   1      43.706  26.458  38.994  1.00  0.00    -0.237 OA
ATOM     96  O   UNL A   1      44.162  24.565  37.498  1.00  0.00    -0.744 OA
ENDBRANCH  90  93
ENDBRANCH  63  86
ENDBRANCH  37  38
ENDBRANCH  29  32
ENDBRANCH  27  28
ENDBRANCH  26  27
ENDBRANCH  25  26
ENDBRANCH   1  25
TORSDOF 21
ENDMDL
MODEL 3
REMARK VINA RESULT:     -10.0      2.123      2.782
REMARK SMILES CC[N@H+](CC(C)C)[C@@H]1CC[C@]([NH2+]C)(C(=O)NCCCCCCNC(=O)c2ccc(-c3c4nc(c(-c5cccc(S(=O)(=O)[O-])c5F)c5ccc([nH]5)c(-c5cccc(S(=O)(=O)[O-])c5F)c5nc(c(-c6cccc(S(=O)(=O)[O-])c6F)c6ccc3[nH]6)C=C5)C=C4)cc2)C1
REMARK SMILES IDX 19 1 18 2 17 3 16 4 14 5 15 6 11 8 8 9 9 10 89 11 10 12 3 13
REMARK SMILES IDX 2 15 1 16 4 17 5 18 6 19 7 20 12 21 13 22 20 25 21 26 22 27
REMARK SMILES IDX 23 28 24 29 25 31 26 32 27 33 88 34 28 35 87 36 29 37 30 38
REMARK SMILES IDX 31 39 81 40 32 41 86 42 80 43 82 44 33 45 85 46 79 47 78 48
REMARK SMILES IDX 34 50 66 51 46 52 65 53 47 54 50 55 64 56 83 57 48 58 49 59
REMARK SMILES IDX 63 61 84 62 51 63 35 64 36 65 44 66 37 67 39 68 45 69 38 70
REMARK SMILES IDX 40 71 41 72 42 73 43 74 67 75 68 76 76 77 69 78 71 79 77 80
REMARK SMILES IDX 70 81 72 82 73 83 74 84 75 85 52 86 53 87 61 88 54 89 56 90
REMARK SMILES IDX 62 91 55 92 57 93 58 94 59 95 60 96
REMARK H PARENT 16 7 3 14 12 23 12 24 23 30 82 49 50 60
REMARK Flexibility Score: inf
ROOT
ATOM      1  C   UNL A   1      31.855  29.201  26.374  1.00  0.00     0.002 C 
ENDROOT
BRANCH   1   2
ATOM      2  C   UNL A   1      31.822  28.068  25.339  1.00  0.00     0.021 C 
BRANCH   2   3
ATOM      3  C   UNL A   1      32.019  26.653  25.875  1.00  0.00     0.116 C 
BRANCH   3   4
ATOM      4  N   UNL A   1      31.114  25.672  25.323  1.00  0.00    -0.351 N 
ATOM      5  C   UNL A   1      31.268  24.735  24.354  1.00  0.00     0.281 C 
ATOM      6  O   UNL A   1      30.342  23.902  24.307  1.00  0.00    -0.268 OA
ATOM      7  H   UNL A   1      30.215  25.686  25.726  1.00  0.00     0.163 HD
BRANCH   5   8
ATOM      8  C   UNL A   1      32.426  24.672  23.258  1.00  0.00     0.181 C 
ATOM      9  C   UNL A   1      34.273  22.974  23.461  1.00  0.00     0.191 C 
ATOM     10  C   UNL A   1      34.804  24.371  23.850  1.00  0.00     0.072 C 
ATOM     11  C   UNL A   1      32.898  23.270  22.840  1.00  0.00     0.144 C 
ATOM     12  C   UNL A   1      33.682  25.403  23.739  1.00  0.00     0.085 C 
BRANCH   9  13
ATOM     13  N   UNL A   1      34.288  21.990  24.556  1.00  0.00    -0.332 N 
ATOM     14  H   UNL A   1      34.734  21.205  24.079  1.00  0.00     0.348 HD
BRANCH  13  15
ATOM     15  C   UNL A   1      32.957  21.512  25.017  1.00  0.00     0.258 C 
ATOM     16  C   UNL A   1      32.721  20.007  25.178  1.00  0.00     0.071 C 
ENDBRANCH  13  15
BRANCH  13  17
ATOM     17  C   UNL A   1      35.146  22.331  25.722  1.00  0.00     0.265 C 
BRANCH  17  18
ATOM     18  C   UNL A   1      36.485  21.553  25.624  1.00  0.00     0.038 C 
ATOM     19  C   UNL A   1      36.315  20.168  24.988  1.00  0.00     0.013 C 
ATOM     20  C   UNL A   1      37.564  22.305  24.850  1.00  0.00     0.013 C 
ENDBRANCH  17  18
ENDBRANCH  13  17
ENDBRANCH   9  13
BRANCH   8  21
ATOM     21  N   UNL A   1      31.770  25.203  22.016  1.00  0.00    -0.336 N 
ATOM     22  C   UNL A   1      31.380  26.593  21.968  1.00  0.00     0.331 C 
ATOM     23  H   UNL A   1      30.925  24.651  21.865  1.00  0.00     0.346 HD
ATOM     24  H   UNL A   1      32.496  25.129  21.305  1.00  0.00     0.346 HD
ENDBRANCH   8  21
ENDBRANCH   5   8
ENDBRANCH   3   4
ENDBRANCH   2   3
ENDBRANCH   1   2
BRANCH   1  25
ATOM     25  C   UNL A   1      31.567  30.619  25.871  1.00  0.00     0.002 C 
BRANCH  25  26
ATOM     26  C   UNL A   1      31.543  31.732  26.919  1.00  0.00     0.021 C 
BRANCH  26  27
ATOM     27  C   UNL A   1      32.771  32.633  26.980  1.00  0.00     0.116 C 
BRANCH  27  28
ATOM     28  N   UNL A   1      32.543  33.882  27.691  1.00  0.00    -0.352 N 
ATOM     29  C   UNL A   1      33.248  34.420  28.742  1.00  0.00     0.251 C 
ATOM     30  H   UNL A   1      31.778  34.417  27.375  1.00  0.00     0.163 HD
ATOM     31  O   UNL A   1      32.858  35.454  29.282  1.00  0.00    -0.269 OA
BRANCH  29  32
ATOM     32  C   UNL A   1      34.458  33.733  29.249  1.00  0.00     0.039 A 
ATOM     33  C   UNL A   1      35.717  34.204  28.860  1.00  0.00     0.014 A 
ATOM     34  C   UNL A   1      34.356  32.651  30.125  1.00  0.00     0.014 A 
ATOM     35  C   UNL A   1      36.870  33.642  29.413  1.00  0.00     0.010 A 
ATOM     36  C   UNL A   1      35.502  32.141  30.729  1.00  0.00     0.010 A 
ATOM     37  C   UNL A   1      36.771  32.634  30.385  1.00  0.00    -0.014 A 
BRANCH  37  38
ATOM     38  C   UNL A   1      37.969  32.097  31.084  1.00  0.00     0.031 A 
ATOM     39  C   UNL A   1      38.767  30.981  30.469  1.00  0.00     0.074 A 
ATOM     40  C   UNL A   1      38.259  32.522  32.330  1.00  0.00     0.049 A 
ATOM     41  N   UNL A   1      39.753  30.291  30.981  1.00  0.00    -0.248 NA
ATOM     42  C   UNL A   1      38.381  30.563  29.112  1.00  0.00     0.031 C 
ATOM     43  C   UNL A   1      37.510  33.538  33.072  1.00  0.00     0.029 A 
ATOM     44  N   UNL A   1      39.233  32.118  33.211  1.00  0.00    -0.354 N 
ATOM     45  C   UNL A   1      40.078  29.332  30.029  1.00  0.00     0.074 A 
ATOM     46  C   UNL A   1      39.161  29.508  28.924  1.00  0.00     0.031 C 
ATOM     47  C   UNL A   1      38.036  33.662  34.300  1.00  0.00     0.029 A 
ATOM     48  C   UNL A   1      39.138  32.715  34.446  1.00  0.00     0.049 A 
ATOM     49  H   UNL A   1      39.931  31.463  32.980  1.00  0.00     0.167 HD
ATOM     50  C   UNL A   1      41.066  28.404  30.059  1.00  0.00     0.034 A 
ATOM     51  C   UNL A   1      39.841  32.510  35.578  1.00  0.00     0.034 A 
ATOM     52  C   UNL A   1      42.000  28.257  31.143  1.00  0.00     0.049 A 
ATOM     53  C   UNL A   1      40.967  31.513  35.573  1.00  0.00     0.074 A 
ATOM     54  C   UNL A   1      43.092  27.412  31.229  1.00  0.00     0.029 A 
ATOM     55  N   UNL A   1      41.949  28.967  32.334  1.00  0.00    -0.354 N 
ATOM     56  N   UNL A   1      41.362  30.723  34.604  1.00  0.00    -0.248 NA
ATOM     57  C   UNL A   1      41.768  31.404  36.801  1.00  0.00     0.031 C 
ATOM     58  C   UNL A   1      43.689  27.596  32.482  1.00  0.00     0.029 A 
ATOM     59  C   UNL A   1      42.985  28.574  33.165  1.00  0.00     0.049 A 
ATOM     60  H   UNL A   1      41.275  29.649  32.556  1.00  0.00     0.167 HD
ATOM     61  C   UNL A   1      42.476  30.048  35.092  1.00  0.00     0.074 A 
ATOM     62  C   UNL A   1      42.703  30.536  36.436  1.00  0.00     0.031 C 
ATOM     63  C   UNL A   1      43.233  29.102  34.482  1.00  0.00     0.034 A 
BRANCH  50  64
ATOM     64  C   UNL A   1      41.212  27.510  28.855  1.00  0.00     0.023 A 
ATOM     65  C   UNL A   1      40.371  26.386  28.717  1.00  0.00     0.012 A 
ATOM     66  C   UNL A   1      42.156  27.791  27.847  1.00  0.00     0.148 A 
ATOM     67  C   UNL A   1      40.500  25.529  27.624  1.00  0.00     0.002 A 
ATOM     68  C   UNL A   1      42.246  26.959  26.737  1.00  0.00     0.091 A 
ATOM     69  F   UNL A   1      42.964  28.851  28.002  1.00  0.00    -0.205 F 
ATOM     70  C   UNL A   1      41.430  25.821  26.632  1.00  0.00     0.022 A 
BRANCH  68  71
ATOM     71  S   UNL A   1      43.358  27.298  25.368  1.00  0.00     0.127 S 
ATOM     72  O   UNL A   1      43.843  25.959  25.043  1.00  0.00    -0.237 OA
ATOM     73  O   UNL A   1      42.458  27.878  24.371  1.00  0.00    -0.237 OA
ATOM     74  O   UNL A   1      44.357  28.223  25.888  1.00  0.00    -0.744 OA
ENDBRANCH  68  71
ENDBRANCH  50  64
BRANCH  51  75
ATOM     75  C   UNL A   1      39.523  33.312  36.793  1.00  0.00     0.023 A 
ATOM     76  C   UNL A   1      39.923  34.659  36.860  1.00  0.00     0.012 A 
ATOM     77  C   UNL A   1      38.771  32.764  37.850  1.00  0.00     0.148 A 
ATOM     78  C   UNL A   1      39.600  35.443  37.969  1.00  0.00     0.002 A 
ATOM     79  C   UNL A   1      38.404  33.563  38.926  1.00  0.00     0.091 A 
ATOM     80  F   UNL A   1      38.408  31.476  37.771  1.00  0.00    -0.205 F 
ATOM     81  C   UNL A   1      38.831  34.899  38.995  1.00  0.00     0.022 A 
BRANCH  79  82
ATOM     82  S   UNL A   1      37.300  32.990  40.223  1.00  0.00     0.127 S 
ATOM     83  O   UNL A   1      37.998  31.803  40.707  1.00  0.00    -0.237 OA
ATOM     84  O   UNL A   1      37.302  34.127  41.144  1.00  0.00    -0.237 OA
ATOM     85  O   UNL A   1      36.019  32.747  39.573  1.00  0.00    -0.744 OA
ENDBRANCH  79  82
ENDBRANCH  51  75
BRANCH  63  86
ATOM     86  C   UNL A   1      44.408  28.546  35.245  1.00  0.00     0.023 A 
ATOM     87  C   UNL A   1      45.690  29.101  35.063  1.00  0.00     0.012 A 
ATOM     88  C   UNL A   1      44.223  27.532  36.206  1.00  0.00     0.148 A 
ATOM     89  C   UNL A   1      46.774  28.637  35.806  1.00  0.00     0.002 A 
ATOM     90  C   UNL A   1      45.298  27.108  36.977  1.00  0.00     0.091 A 
ATOM     91  F   UNL A   1      42.999  27.004  36.350  1.00  0.00    -0.205 F 
ATOM     92  C   UNL A   1      46.577  27.652  36.771  1.00  0.00     0.022 A 
BRANCH  90  93
ATOM     93  S   UNL A   1      45.118  25.914  38.307  1.00  0.00     0.127 S 
ATOM     94  O   UNL A   1      44.278  26.646  39.253  1.00  0.00    -0.237 OA
ATOM     95  O   UNL A   1      44.450  24.799  37.633  1.00  0.00    -0.237 OA
ATOM     96  O   UNL A   1      46.468  25.619  38.767  1.00  0.00    -0.744 OA
ENDBRANCH  90  93
ENDBRANCH  63  86
ENDBRANCH  37  38
ENDBRANCH  29  32
ENDBRANCH  27  28
ENDBRANCH  26  27
ENDBRANCH  25  26
ENDBRANCH   1  25
TORSDOF 21
ENDMDL
