MODEL 1
REMARK VINA RESULT:     -13.1      0.000      0.000
REMARK SMILES Cc1ccc2c(c1)c(-c1ccnc3c(C)cccc13)c(C)n2CC(=O)NCCCCCCNC(=O)c1ccc(-c2c3nc(c(-c4cccc(S(=O)(=O)[O-])c4F)c4ccc([nH]4)c(-c4cccc(S(=O)(=O)[O-])c4F)c4nc(c(-c5cccc(S(=O)(=O)[O-])c5F)c5ccc2[nH]5)C=C4)C=C3)cc1
REMARK SMILES IDX 30 1 29 2 28 3 27 4 26 5 24 6 25 7 23 9 22 10 1 11 2 12 3 13
REMARK SMILES IDX 7 14 4 15 6 16 5 17 8 18 20 19 21 20 9 21 10 22 19 23 11 24
REMARK SMILES IDX 13 25 18 26 12 27 14 28 17 29 15 30 16 31 31 32 32 33 33 34
REMARK SMILES IDX 34 35 35 37 36 38 37 39 98 40 38 41 97 42 39 43 40 44 41 45
REMARK SMILES IDX 91 46 42 47 96 48 90 49 92 50 43 51 95 52 89 53 88 54 44 56
REMARK SMILES IDX 76 57 56 58 75 59 57 60 60 61 74 62 93 63 58 64 59 65 73 67
REMARK SMILES IDX 94 68 61 69 45 70 46 71 54 72 47 73 49 74 55 75 48 76 50 77
REMARK SMILES IDX 51 78 52 79 53 80 77 81 78 82 86 83 79 84 81 85 87 86 80 87
REMARK SMILES IDX 82 88 83 89 84 90 85 91 62 92 63 93 71 94 64 95 66 96 72 97
REMARK SMILES IDX 65 98 67 99 68 100 69 101 70 102
REMARK H PARENT 26 8 33 36 92 55 60 66
REMARK Flexibility Score: inf
ROOT
ATOM      1  C   UNL A   1      35.487  21.150  25.390  1.00  0.00     0.002 C 
ENDROOT
BRANCH   1   2
ATOM      2  C   UNL A   1      34.527  20.077  24.864  1.00  0.00     0.002 C 
BRANCH   2   3
ATOM      3  C   UNL A   1      33.151  20.070  25.541  1.00  0.00     0.021 C 
BRANCH   3   4
ATOM      4  C   UNL A   1      32.164  21.057  24.924  1.00  0.00     0.116 C 
BRANCH   4   5
ATOM      5  N   UNL A   1      31.385  21.725  25.950  1.00  0.00    -0.355 N 
ATOM      6  C   UNL A   1      31.625  22.911  26.581  1.00  0.00     0.239 C 
ATOM      7  O   UNL A   1      30.855  23.253  27.482  1.00  0.00    -0.273 OA
ATOM      8  H   UNL A   1      30.567  21.256  26.231  1.00  0.00     0.163 HD
BRANCH   6   9
ATOM      9  C   UNL A   1      32.759  23.817  26.136  1.00  0.00     0.222 C 
BRANCH   9  10
ATOM     10  N   UNL A   1      32.346  24.900  25.247  1.00  0.00    -0.335 N 
ATOM     11  C   UNL A   1      32.686  25.628  19.648  1.00  0.00     0.044 C 
ATOM     12  C   UNL A   1      32.563  25.336  21.114  1.00  0.00    -0.050 A 
ATOM     13  C   UNL A   1      32.835  24.065  21.617  1.00  0.00     0.005 A 
ATOM     14  C   UNL A   1      32.166  26.354  21.994  1.00  0.00     0.014 A 
ATOM     15  C   UNL A   1      32.749  23.790  22.986  1.00  0.00     0.027 A 
ATOM     16  C   UNL A   1      32.083  26.106  23.382  1.00  0.00     0.008 A 
ATOM     17  C   UNL A   1      32.402  24.836  23.862  1.00  0.00     0.049 A 
ATOM     18  C   UNL A   1      31.729  26.908  24.506  1.00  0.00     0.011 A 
ATOM     19  C   UNL A   1      31.845  26.128  25.647  1.00  0.00     0.024 A 
ATOM     20  C   UNL A   1      31.561  26.487  27.069  1.00  0.00     0.065 C 
BRANCH  18  21
ATOM     21  C   UNL A   1      31.295  28.300  24.502  1.00  0.00    -0.005 A 
ATOM     22  C   UNL A   1      32.090  29.220  25.181  1.00  0.00     0.029 A 
ATOM     23  C   UNL A   1      30.083  28.718  23.895  1.00  0.00     0.008 A 
ATOM     24  C   UNL A   1      31.663  30.527  25.229  1.00  0.00     0.112 A 
ATOM     25  C   UNL A   1      29.733  30.084  24.006  1.00  0.00     0.074 A 
ATOM     26  C   UNL A   1      29.212  27.840  23.208  1.00  0.00     0.011 A 
ATOM     27  N   UNL A   1      30.522  30.964  24.660  1.00  0.00    -0.256 NA
ATOM     28  C   UNL A   1      28.530  30.517  23.428  1.00  0.00    -0.025 A 
ATOM     29  C   UNL A   1      28.023  28.283  22.642  1.00  0.00     0.001 A 
ATOM     30  C   UNL A   1      28.086  31.954  23.514  1.00  0.00     0.047 C 
ATOM     31  C   UNL A   1      27.681  29.620  22.754  1.00  0.00     0.005 A 
ENDBRANCH  18  21
ENDBRANCH   9  10
ENDBRANCH   6   9
ENDBRANCH   4   5
ENDBRANCH   3   4
ENDBRANCH   2   3
ENDBRANCH   1   2
BRANCH   1  32
ATOM     32  C   UNL A   1      35.769  22.294  24.410  1.00  0.00     0.021 C 
BRANCH  32  33
ATOM     33  C   UNL A   1      37.151  22.927  24.582  1.00  0.00     0.116 C 
BRANCH  33  34
ATOM     34  N   UNL A   1      38.162  22.001  25.048  1.00  0.00    -0.352 N 
ATOM     35  C   UNL A   1      39.108  22.037  26.035  1.00  0.00     0.251 C 
ATOM     36  H   UNL A   1      38.170  21.157  24.541  1.00  0.00     0.163 HD
ATOM     37  O   UNL A   1      39.747  20.997  26.213  1.00  0.00    -0.269 OA
BRANCH  35  38
ATOM     38  C   UNL A   1      39.458  23.249  26.821  1.00  0.00     0.039 A 
ATOM     39  C   UNL A   1      38.787  24.471  26.758  1.00  0.00     0.014 A 
ATOM     40  C   UNL A   1      40.602  23.148  27.636  1.00  0.00     0.014 A 
ATOM     41  C   UNL A   1      39.323  25.598  27.357  1.00  0.00     0.010 A 
ATOM     42  C   UNL A   1      41.121  24.265  28.275  1.00  0.00     0.010 A 
ATOM     43  C   UNL A   1      40.513  25.499  28.077  1.00  0.00    -0.014 A 
BRANCH  43  44
ATOM     44  C   UNL A   1      41.008  26.711  28.713  1.00  0.00     0.031 A 
ATOM     45  C   UNL A   1      42.384  27.094  28.288  1.00  0.00     0.074 A 
ATOM     46  C   UNL A   1      40.245  27.461  29.531  1.00  0.00     0.049 A 
ATOM     47  N   UNL A   1      43.452  27.182  29.014  1.00  0.00    -0.248 NA
ATOM     48  C   UNL A   1      42.625  27.248  26.843  1.00  0.00     0.031 C 
ATOM     49  C   UNL A   1      38.813  27.311  29.803  1.00  0.00     0.029 A 
ATOM     50  N   UNL A   1      40.561  28.614  30.186  1.00  0.00    -0.354 N 
ATOM     51  C   UNL A   1      44.445  27.639  28.149  1.00  0.00     0.074 A 
ATOM     52  C   UNL A   1      43.936  27.487  26.811  1.00  0.00     0.031 C 
ATOM     53  C   UNL A   1      38.339  28.464  30.328  1.00  0.00     0.029 A 
ATOM     54  C   UNL A   1      39.448  29.373  30.546  1.00  0.00     0.049 A 
ATOM     55  H   UNL A   1      41.486  28.885  30.386  1.00  0.00     0.167 HD
ATOM     56  C   UNL A   1      45.506  28.368  28.586  1.00  0.00     0.034 A 
ATOM     57  C   UNL A   1      39.450  30.685  30.894  1.00  0.00     0.034 A 
ATOM     58  C   UNL A   1      45.725  28.240  29.996  1.00  0.00     0.049 A 
ATOM     59  C   UNL A   1      40.837  31.014  31.303  1.00  0.00     0.074 A 
ATOM     60  C   UNL A   1      45.995  27.189  30.850  1.00  0.00     0.029 A 
ATOM     61  N   UNL A   1      45.299  29.275  30.788  1.00  0.00    -0.354 N 
ATOM     62  N   UNL A   1      41.423  30.517  32.356  1.00  0.00    -0.248 NA
ATOM     63  C   UNL A   1      41.719  31.599  30.308  1.00  0.00     0.031 C 
ATOM     64  C   UNL A   1      45.266  27.489  32.038  1.00  0.00     0.029 A 
ATOM     65  C   UNL A   1      44.642  28.725  31.856  1.00  0.00     0.049 A 
ATOM     66  H   UNL A   1      45.438  30.235  30.619  1.00  0.00     0.167 HD
ATOM     67  C   UNL A   1      42.738  30.327  31.957  1.00  0.00     0.074 A 
ATOM     68  C   UNL A   1      42.884  31.108  30.732  1.00  0.00     0.031 C 
ATOM     69  C   UNL A   1      43.496  29.329  32.495  1.00  0.00     0.034 A 
BRANCH  56  70
ATOM     70  C   UNL A   1      46.094  29.498  27.785  1.00  0.00     0.023 A 
ATOM     71  C   UNL A   1      47.492  29.582  27.648  1.00  0.00     0.012 A 
ATOM     72  C   UNL A   1      45.333  30.621  27.383  1.00  0.00     0.148 A 
ATOM     73  C   UNL A   1      48.101  30.727  27.120  1.00  0.00     0.002 A 
ATOM     74  C   UNL A   1      45.932  31.716  26.778  1.00  0.00     0.091 A 
ATOM     75  F   UNL A   1      44.038  30.694  27.712  1.00  0.00    -0.205 F 
ATOM     76  C   UNL A   1      47.321  31.785  26.663  1.00  0.00     0.022 A 
BRANCH  74  77
ATOM     77  S   UNL A   1      44.949  33.069  26.127  1.00  0.00     0.127 S 
ATOM     78  O   UNL A   1      44.493  33.714  27.360  1.00  0.00    -0.237 OA
ATOM     79  O   UNL A   1      45.949  33.825  25.369  1.00  0.00    -0.237 OA
ATOM     80  O   UNL A   1      43.928  32.444  25.309  1.00  0.00    -0.744 OA
ENDBRANCH  74  77
ENDBRANCH  56  70
BRANCH  57  81
ATOM     81  C   UNL A   1      38.456  31.757  30.613  1.00  0.00     0.023 A 
ATOM     82  C   UNL A   1      37.955  31.889  29.298  1.00  0.00     0.012 A 
ATOM     83  C   UNL A   1      37.774  32.438  31.645  1.00  0.00     0.148 A 
ATOM     84  C   UNL A   1      36.783  32.609  29.034  1.00  0.00     0.002 A 
ATOM     85  C   UNL A   1      36.617  33.167  31.375  1.00  0.00     0.091 A 
ATOM     86  F   UNL A   1      38.191  32.295  32.909  1.00  0.00    -0.205 F 
ATOM     87  C   UNL A   1      36.107  33.237  30.074  1.00  0.00     0.022 A 
BRANCH  85  88
ATOM     88  S   UNL A   1      35.696  34.006  32.673  1.00  0.00     0.127 S 
ATOM     89  O   UNL A   1      34.614  34.642  31.918  1.00  0.00    -0.237 OA
ATOM     90  O   UNL A   1      35.278  32.891  33.519  1.00  0.00    -0.237 OA
ATOM     91  O   UNL A   1      36.633  34.946  33.274  1.00  0.00    -0.744 OA
ENDBRANCH  85  88
ENDBRANCH  57  81
BRANCH  69  92
ATOM     92  C   UNL A   1      42.972  28.616  33.713  1.00  0.00     0.023 A 
ATOM     93  C   UNL A   1      41.906  27.695  33.644  1.00  0.00     0.012 A 
ATOM     94  C   UNL A   1      43.714  28.720  34.899  1.00  0.00     0.148 A 
ATOM     95  C   UNL A   1      41.587  26.894  34.745  1.00  0.00     0.002 A 
ATOM     96  C   UNL A   1      43.422  27.894  35.975  1.00  0.00     0.091 A 
ATOM     97  F   UNL A   1      44.732  29.595  34.931  1.00  0.00    -0.205 F 
ATOM     98  C   UNL A   1      42.357  26.981  35.905  1.00  0.00     0.022 A 
BRANCH  96  99
ATOM     99  S   UNL A   1      44.442  27.870  37.450  1.00  0.00     0.127 S 
ATOM    100  O   UNL A   1      45.773  27.624  36.898  1.00  0.00    -0.237 OA
ATOM    101  O   UNL A   1      44.241  29.217  37.985  1.00  0.00    -0.237 OA
ATOM    102  O   UNL A   1      43.914  26.805  38.294  1.00  0.00    -0.744 OA
ENDBRANCH  96  99
ENDBRANCH  69  92
ENDBRANCH  43  44
ENDBRANCH  35  38
ENDBRANCH  33  34
ENDBRANCH  32  33
ENDBRANCH   1  32
TORSDOF 18
ENDMDL
MODEL 2
REMARK VINA RESULT:     -12.5      2.251      2.753
REMARK SMILES Cc1ccc2c(c1)c(-c1ccnc3c(C)cccc13)c(C)n2CC(=O)NCCCCCCNC(=O)c1ccc(-c2c3nc(c(-c4cccc(S(=O)(=O)[O-])c4F)c4ccc([nH]4)c(-c4cccc(S(=O)(=O)[O-])c4F)c4nc(c(-c5cccc(S(=O)(=O)[O-])c5F)c5ccc2[nH]5)C=C4)C=C3)cc1
REMARK SMILES IDX 30 1 29 2 28 3 27 4 26 5 24 6 25 7 23 9 22 10 1 11 2 12 3 13
REMARK SMILES IDX 7 14 4 15 6 16 5 17 8 18 20 19 21 20 9 21 10 22 19 23 11 24
REMARK SMILES IDX 13 25 18 26 12 27 14 28 17 29 15 30 16 31 31 32 32 33 33 34
REMARK SMILES IDX 34 35 35 37 36 38 37 39 98 40 38 41 97 42 39 43 40 44 41 45
REMARK SMILES IDX 91 46 42 47 96 48 90 49 92 50 43 51 95 52 89 53 88 54 44 56
REMARK SMILES IDX 76 57 56 58 75 59 57 60 60 61 74 62 93 63 58 64 59 65 73 67
REMARK SMILES IDX 94 68 61 69 45 70 46 71 54 72 47 73 49 74 55 75 48 76 50 77
REMARK SMILES IDX 51 78 52 79 53 80 77 81 78 82 86 83 79 84 81 85 87 86 80 87
REMARK SMILES IDX 82 88 83 89 84 90 85 91 62 92 63 93 71 94 64 95 66 96 72 97
REMARK SMILES IDX 65 98 67 99 68 100 69 101 70 102
REMARK H PARENT 26 8 33 36 92 55 60 66
REMARK Flexibility Score: inf
ROOT
ATOM      1  C   UNL A   1      36.671  21.378  25.583  1.00  0.00     0.002 C 
ENDROOT
BRANCH   1   2
ATOM      2  C   UNL A   1      35.268  21.702  25.060  1.00  0.00     0.002 C 
BRANCH   2   3
ATOM      3  C   UNL A   1      34.128  21.080  25.875  1.00  0.00     0.021 C 
BRANCH   3   4
ATOM      4  C   UNL A   1      32.759  21.225  25.216  1.00  0.00     0.116 C 
BRANCH   4   5
ATOM      5  N   UNL A   1      31.805  21.834  26.125  1.00  0.00    -0.355 N 
ATOM      6  C   UNL A   1      31.837  23.067  26.710  1.00  0.00     0.239 C 
ATOM      7  O   UNL A   1      30.944  23.348  27.513  1.00  0.00    -0.273 OA
ATOM      8  H   UNL A   1      31.025  21.280  26.352  1.00  0.00     0.163 HD
BRANCH   6   9
ATOM      9  C   UNL A   1      32.894  24.086  26.326  1.00  0.00     0.222 C 
BRANCH   9  10
ATOM     10  N   UNL A   1      32.425  25.114  25.400  1.00  0.00    -0.335 N 
ATOM     11  C   UNL A   1      32.666  25.621  19.770  1.00  0.00     0.044 C 
ATOM     12  C   UNL A   1      32.574  25.385  21.249  1.00  0.00    -0.050 A 
ATOM     13  C   UNL A   1      32.904  24.148  21.800  1.00  0.00     0.005 A 
ATOM     14  C   UNL A   1      32.146  26.422  22.092  1.00  0.00     0.014 A 
ATOM     15  C   UNL A   1      32.847  23.928  23.181  1.00  0.00     0.027 A 
ATOM     16  C   UNL A   1      32.090  26.229  23.490  1.00  0.00     0.008 A 
ATOM     17  C   UNL A   1      32.467  24.994  24.017  1.00  0.00     0.049 A 
ATOM     18  C   UNL A   1      31.717  27.062  24.585  1.00  0.00     0.011 A 
ATOM     19  C   UNL A   1      31.879  26.336  25.755  1.00  0.00     0.024 A 
ATOM     20  C   UNL A   1      31.598  26.742  27.165  1.00  0.00     0.065 C 
BRANCH  18  21
ATOM     21  C   UNL A   1      31.226  28.434  24.530  1.00  0.00    -0.005 A 
ATOM     22  C   UNL A   1      31.984  29.412  25.168  1.00  0.00     0.029 A 
ATOM     23  C   UNL A   1      29.995  28.778  23.913  1.00  0.00     0.008 A 
ATOM     24  C   UNL A   1      31.504  30.700  25.168  1.00  0.00     0.112 A 
ATOM     25  C   UNL A   1      29.589  30.131  23.974  1.00  0.00     0.074 A 
ATOM     26  C   UNL A   1      29.158  27.839  23.265  1.00  0.00     0.011 A 
ATOM     27  N   UNL A   1      30.343  31.068  24.589  1.00  0.00    -0.256 NA
ATOM     28  C   UNL A   1      28.367  30.492  23.385  1.00  0.00    -0.025 A 
ATOM     29  C   UNL A   1      27.950  28.210  22.689  1.00  0.00     0.001 A 
ATOM     30  C   UNL A   1      27.864  31.911  23.419  1.00  0.00     0.047 C 
ATOM     31  C   UNL A   1      27.554  29.535  22.751  1.00  0.00     0.005 A 
ENDBRANCH  18  21
ENDBRANCH   9  10
ENDBRANCH   6   9
ENDBRANCH   4   5
ENDBRANCH   3   4
ENDBRANCH   2   3
ENDBRANCH   1   2
BRANCH   1  32
ATOM     32  C   UNL A   1      37.743  22.415  25.229  1.00  0.00     0.021 C 
BRANCH  32  33
ATOM     33  C   UNL A   1      38.612  22.835  26.416  1.00  0.00     0.116 C 
BRANCH  33  34
ATOM     34  N   UNL A   1      39.995  22.424  26.299  1.00  0.00    -0.352 N 
ATOM     35  C   UNL A   1      41.188  22.960  26.699  1.00  0.00     0.251 C 
ATOM     36  H   UNL A   1      40.101  21.567  25.826  1.00  0.00     0.163 HD
ATOM     37  O   UNL A   1      42.188  22.264  26.509  1.00  0.00    -0.269 OA
BRANCH  35  38
ATOM     38  C   UNL A   1      41.351  24.331  27.252  1.00  0.00     0.039 A 
ATOM     39  C   UNL A   1      42.202  24.678  28.302  1.00  0.00     0.014 A 
ATOM     40  C   UNL A   1      40.522  25.324  26.697  1.00  0.00     0.014 A 
ATOM     41  C   UNL A   1      42.117  25.930  28.888  1.00  0.00     0.010 A 
ATOM     42  C   UNL A   1      40.464  26.594  27.253  1.00  0.00     0.010 A 
ATOM     43  C   UNL A   1      41.216  26.868  28.389  1.00  0.00    -0.014 A 
BRANCH  43  44
ATOM     44  C   UNL A   1      41.198  28.178  29.025  1.00  0.00     0.031 A 
ATOM     45  C   UNL A   1      42.222  29.120  28.491  1.00  0.00     0.074 A 
ATOM     46  C   UNL A   1      40.271  28.524  29.939  1.00  0.00     0.049 A 
ATOM     47  N   UNL A   1      43.213  29.667  29.119  1.00  0.00    -0.248 NA
ATOM     48  C   UNL A   1      42.226  29.357  27.037  1.00  0.00     0.031 C 
ATOM     49  C   UNL A   1      39.081  27.766  30.335  1.00  0.00     0.029 A 
ATOM     50  N   UNL A   1      40.120  29.701  30.608  1.00  0.00    -0.354 N 
ATOM     51  C   UNL A   1      43.817  30.507  28.185  1.00  0.00     0.074 A 
ATOM     52  C   UNL A   1      43.293  30.143  26.895  1.00  0.00     0.031 C 
ATOM     53  C   UNL A   1      38.210  28.599  30.947  1.00  0.00     0.029 A 
ATOM     54  C   UNL A   1      38.830  29.901  31.099  1.00  0.00     0.049 A 
ATOM     55  H   UNL A   1      40.851  30.349  30.733  1.00  0.00     0.167 HD
ATOM     56  C   UNL A   1      44.494  31.628  28.553  1.00  0.00     0.034 A 
ATOM     57  C   UNL A   1      38.298  31.085  31.498  1.00  0.00     0.034 A 
ATOM     58  C   UNL A   1      44.888  31.613  29.930  1.00  0.00     0.049 A 
ATOM     59  C   UNL A   1      39.438  31.986  31.791  1.00  0.00     0.074 A 
ATOM     60  C   UNL A   1      45.670  30.788  30.713  1.00  0.00     0.029 A 
ATOM     61  N   UNL A   1      44.136  32.363  30.798  1.00  0.00    -0.354 N 
ATOM     62  N   UNL A   1      40.283  31.798  32.764  1.00  0.00    -0.248 NA
ATOM     63  C   UNL A   1      39.874  32.894  30.743  1.00  0.00     0.031 C 
ATOM     64  C   UNL A   1      45.006  30.745  31.974  1.00  0.00     0.029 A 
ATOM     65  C   UNL A   1      43.894  31.585  31.899  1.00  0.00     0.049 A 
ATOM     66  H   UNL A   1      43.827  33.287  30.657  1.00  0.00     0.167 HD
ATOM     67  C   UNL A   1      41.503  32.199  32.239  1.00  0.00     0.074 A 
ATOM     68  C   UNL A   1      41.173  32.960  31.038  1.00  0.00     0.031 C 
ATOM     69  C   UNL A   1      42.669  31.633  32.665  1.00  0.00     0.034 A 
BRANCH  56  70
ATOM     70  C   UNL A   1      44.451  32.897  27.747  1.00  0.00     0.023 A 
ATOM     71  C   UNL A   1      45.503  33.176  26.854  1.00  0.00     0.012 A 
ATOM     72  C   UNL A   1      43.544  33.946  28.029  1.00  0.00     0.148 A 
ATOM     73  C   UNL A   1      45.634  34.437  26.259  1.00  0.00     0.002 A 
ATOM     74  C   UNL A   1      43.625  35.164  27.370  1.00  0.00     0.091 A 
ATOM     75  F   UNL A   1      42.679  33.817  29.042  1.00  0.00    -0.205 F 
ATOM     76  C   UNL A   1      44.683  35.424  26.499  1.00  0.00     0.022 A 
BRANCH  74  77
ATOM     77  S   UNL A   1      42.382  36.434  27.614  1.00  0.00     0.127 S 
ATOM     78  O   UNL A   1      42.761  36.962  28.926  1.00  0.00    -0.237 OA
ATOM     79  O   UNL A   1      42.649  37.332  26.487  1.00  0.00    -0.237 OA
ATOM     80  O   UNL A   1      41.107  35.746  27.538  1.00  0.00    -0.744 OA
ENDBRANCH  74  77
ENDBRANCH  56  70
BRANCH  57  81
ATOM     81  C   UNL A   1      36.915  31.616  31.352  1.00  0.00     0.023 A 
ATOM     82  C   UNL A   1      36.302  32.226  32.470  1.00  0.00     0.012 A 
ATOM     83  C   UNL A   1      36.314  31.810  30.089  1.00  0.00     0.148 A 
ATOM     84  C   UNL A   1      35.181  33.053  32.325  1.00  0.00     0.002 A 
ATOM     85  C   UNL A   1      35.188  32.620  29.952  1.00  0.00     0.091 A 
ATOM     86  F   UNL A   1      36.895  31.288  29.002  1.00  0.00    -0.205 F 
ATOM     87  C   UNL A   1      34.632  33.261  31.065  1.00  0.00     0.022 A 
BRANCH  85  88
ATOM     88  S   UNL A   1      34.426  32.927  28.351  1.00  0.00     0.127 S 
ATOM     89  O   UNL A   1      35.545  33.471  27.579  1.00  0.00    -0.237 OA
ATOM     90  O   UNL A   1      34.002  31.588  27.954  1.00  0.00    -0.237 OA
ATOM     91  O   UNL A   1      33.358  33.886  28.603  1.00  0.00    -0.744 OA
ENDBRANCH  85  88
ENDBRANCH  57  81
BRANCH  69  92
ATOM     92  C   UNL A   1      42.631  30.767  33.896  1.00  0.00     0.023 A 
ATOM     93  C   UNL A   1      42.678  31.308  35.198  1.00  0.00     0.012 A 
ATOM     94  C   UNL A   1      42.325  29.409  33.728  1.00  0.00     0.148 A 
ATOM     95  C   UNL A   1      42.425  30.502  36.312  1.00  0.00     0.002 A 
ATOM     96  C   UNL A   1      42.033  28.621  34.833  1.00  0.00     0.091 A 
ATOM     97  F   UNL A   1      42.274  28.924  32.477  1.00  0.00    -0.205 F 
ATOM     98  C   UNL A   1      42.086  29.162  36.128  1.00  0.00     0.022 A 
BRANCH  96  99
ATOM     99  S   UNL A   1      41.475  26.925  34.662  1.00  0.00     0.127 S 
ATOM    100  O   UNL A   1      42.648  26.274  34.083  1.00  0.00    -0.237 OA
ATOM    101  O   UNL A   1      41.190  26.554  36.049  1.00  0.00    -0.237 OA
ATOM    102  O   UNL A   1      40.300  26.967  33.800  1.00  0.00    -0.744 OA
ENDBRANCH  96  99
ENDBRANCH  69  92
ENDBRANCH  43  44
ENDBRANCH  35  38
ENDBRANCH  33  34
ENDBRANCH  32  33
ENDBRANCH   1  32
TORSDOF 18
ENDMDL
MODEL 3
REMARK VINA RESULT:     -12.4      3.024      9.147
REMARK SMILES Cc1ccc2c(c1)c(-c1ccnc3c(C)cccc13)c(C)n2CC(=O)NCCCCCCNC(=O)c1ccc(-c2c3nc(c(-c4cccc(S(=O)(=O)[O-])c4F)c4ccc([nH]4)c(-c4cccc(S(=O)(=O)[O-])c4F)c4nc(c(-c5cccc(S(=O)(=O)[O-])c5F)c5ccc2[nH]5)C=C4)C=C3)cc1
REMARK SMILES IDX 30 1 29 2 28 3 27 4 26 5 24 6 25 7 23 9 22 10 1 11 2 12 3 13
REMARK SMILES IDX 7 14 4 15 6 16 5 17 8 18 20 19 21 20 9 21 10 22 19 23 11 24
REMARK SMILES IDX 13 25 18 26 12 27 14 28 17 29 15 30 16 31 31 32 32 33 33 34
REMARK SMILES IDX 34 35 35 37 36 38 37 39 98 40 38 41 97 42 39 43 40 44 41 45
REMARK SMILES IDX 91 46 42 47 96 48 90 49 92 50 43 51 95 52 89 53 88 54 44 56
REMARK SMILES IDX 76 57 56 58 75 59 57 60 60 61 74 62 93 63 58 64 59 65 73 67
REMARK SMILES IDX 94 68 61 69 45 70 46 71 54 72 47 73 49 74 55 75 48 76 50 77
REMARK SMILES IDX 51 78 52 79 53 80 77 81 78 82 86 83 79 84 81 85 87 86 80 87
REMARK SMILES IDX 82 88 83 89 84 90 85 91 62 92 63 93 71 94 64 95 66 96 72 97
REMARK SMILES IDX 65 98 67 99 68 100 69 101 70 102
REMARK H PARENT 26 8 33 36 92 55 60 66
REMARK Flexibility Score: inf
ROOT
ATOM      1  C   UNL A   1      32.954  29.421  25.166  1.00  0.00     0.002 C 
ENDROOT
BRANCH   1   2
ATOM      2  C   UNL A   1      31.681  29.250  24.330  1.00  0.00     0.002 C 
BRANCH   2   3
ATOM      3  C   UNL A   1      31.928  28.815  22.881  1.00  0.00     0.021 C 
BRANCH   3   4
ATOM      4  C   UNL A   1      30.989  27.709  22.408  1.00  0.00     0.116 C 
BRANCH   4   5
ATOM      5  N   UNL A   1      31.646  26.843  21.447  1.00  0.00    -0.355 N 
ATOM      6  C   UNL A   1      32.785  26.105  21.588  1.00  0.00     0.239 C 
ATOM      7  O   UNL A   1      33.202  25.491  20.603  1.00  0.00    -0.273 OA
ATOM      8  H   UNL A   1      31.208  26.778  20.569  1.00  0.00     0.163 HD
BRANCH   6   9
ATOM      9  C   UNL A   1      33.475  25.984  22.935  1.00  0.00     0.222 C 
BRANCH   9  10
ATOM     10  N   UNL A   1      33.299  24.686  23.582  1.00  0.00    -0.335 N 
ATOM     11  C   UNL A   1      29.612  22.763  27.417  1.00  0.00     0.044 C 
ATOM     12  C   UNL A   1      30.509  23.319  26.350  1.00  0.00    -0.050 A 
ATOM     13  C   UNL A   1      30.241  24.553  25.760  1.00  0.00     0.005 A 
ATOM     14  C   UNL A   1      31.632  22.587  25.937  1.00  0.00     0.014 A 
ATOM     15  C   UNL A   1      31.086  25.090  24.783  1.00  0.00     0.027 A 
ATOM     16  C   UNL A   1      32.507  23.113  24.961  1.00  0.00     0.008 A 
ATOM     17  C   UNL A   1      32.238  24.369  24.418  1.00  0.00     0.049 A 
ATOM     18  C   UNL A   1      33.703  22.635  24.350  1.00  0.00     0.011 A 
ATOM     19  C   UNL A   1      34.149  23.599  23.459  1.00  0.00     0.024 A 
ATOM     20  C   UNL A   1      35.336  23.570  22.552  1.00  0.00     0.065 C 
BRANCH  18  21
ATOM     21  C   UNL A   1      34.365  21.355  24.576  1.00  0.00    -0.005 A 
ATOM     22  C   UNL A   1      35.648  21.384  25.116  1.00  0.00     0.029 A 
ATOM     23  C   UNL A   1      33.775  20.118  24.210  1.00  0.00     0.008 A 
ATOM     24  C   UNL A   1      36.303  20.187  25.285  1.00  0.00     0.112 A 
ATOM     25  C   UNL A   1      34.535  18.944  24.421  1.00  0.00     0.074 A 
ATOM     26  C   UNL A   1      32.486  20.007  23.637  1.00  0.00     0.011 A 
ATOM     27  N   UNL A   1      35.775  18.991  24.956  1.00  0.00    -0.256 NA
ATOM     28  C   UNL A   1      33.979  17.709  24.051  1.00  0.00    -0.025 A 
ATOM     29  C   UNL A   1      31.950  18.779  23.273  1.00  0.00     0.001 A 
ATOM     30  C   UNL A   1      34.732  16.417  24.235  1.00  0.00     0.047 C 
ATOM     31  C   UNL A   1      32.696  17.631  23.478  1.00  0.00     0.005 A 
ENDBRANCH  18  21
ENDBRANCH   9  10
ENDBRANCH   6   9
ENDBRANCH   4   5
ENDBRANCH   3   4
ENDBRANCH   2   3
ENDBRANCH   1   2
BRANCH   1  32
ATOM     32  C   UNL A   1      33.277  28.242  26.092  1.00  0.00     0.021 C 
BRANCH  32  33
ATOM     33  C   UNL A   1      33.266  28.603  27.578  1.00  0.00     0.116 C 
BRANCH  33  34
ATOM     34  N   UNL A   1      33.617  29.983  27.845  1.00  0.00    -0.352 N 
ATOM     35  C   UNL A   1      34.781  30.630  28.155  1.00  0.00     0.251 C 
ATOM     36  H   UNL A   1      32.844  30.590  27.790  1.00  0.00     0.163 HD
ATOM     37  O   UNL A   1      34.719  31.860  28.217  1.00  0.00    -0.269 OA
BRANCH  35  38
ATOM     38  C   UNL A   1      36.057  29.948  28.497  1.00  0.00     0.039 A 
ATOM     39  C   UNL A   1      36.396  29.462  29.761  1.00  0.00     0.014 A 
ATOM     40  C   UNL A   1      37.007  29.857  27.462  1.00  0.00     0.014 A 
ATOM     41  C   UNL A   1      37.689  29.046  30.029  1.00  0.00     0.010 A 
ATOM     42  C   UNL A   1      38.293  29.401  27.714  1.00  0.00     0.010 A 
ATOM     43  C   UNL A   1      38.644  29.059  29.015  1.00  0.00    -0.014 A 
BRANCH  43  44
ATOM     44  C   UNL A   1      39.977  28.578  29.349  1.00  0.00     0.031 A 
ATOM     45  C   UNL A   1      40.365  28.819  30.768  1.00  0.00     0.074 A 
ATOM     46  C   UNL A   1      40.737  27.891  28.475  1.00  0.00     0.049 A 
ATOM     47  N   UNL A   1      41.337  29.545  31.220  1.00  0.00    -0.248 NA
ATOM     48  C   UNL A   1      39.459  28.310  31.811  1.00  0.00     0.031 C 
ATOM     49  C   UNL A   1      40.345  27.384  27.157  1.00  0.00     0.029 A 
ATOM     50  N   UNL A   1      41.987  27.373  28.642  1.00  0.00    -0.354 N 
ATOM     51  C   UNL A   1      41.302  29.379  32.604  1.00  0.00     0.074 A 
ATOM     52  C   UNL A   1      40.036  28.770  32.920  1.00  0.00     0.031 C 
ATOM     53  C   UNL A   1      41.216  26.422  26.777  1.00  0.00     0.029 A 
ATOM     54  C   UNL A   1      42.285  26.341  27.753  1.00  0.00     0.049 A 
ATOM     55  H   UNL A   1      42.617  27.696  29.326  1.00  0.00     0.167 HD
ATOM     56  C   UNL A   1      42.417  29.493  33.374  1.00  0.00     0.034 A 
ATOM     57  C   UNL A   1      43.283  25.430  27.887  1.00  0.00     0.034 A 
ATOM     58  C   UNL A   1      43.475  30.203  32.719  1.00  0.00     0.049 A 
ATOM     59  C   UNL A   1      44.267  26.014  28.830  1.00  0.00     0.074 A 
ATOM     60  C   UNL A   1      43.618  31.468  32.187  1.00  0.00     0.029 A 
ATOM     61  N   UNL A   1      44.496  29.451  32.197  1.00  0.00    -0.354 N 
ATOM     62  N   UNL A   1      44.983  27.073  28.573  1.00  0.00    -0.248 NA
ATOM     63  C   UNL A   1      44.168  25.645  30.232  1.00  0.00     0.031 C 
ATOM     64  C   UNL A   1      44.414  31.284  31.018  1.00  0.00     0.029 A 
ATOM     65  C   UNL A   1      44.750  29.931  30.940  1.00  0.00     0.049 A 
ATOM     66  H   UNL A   1      44.959  28.705  32.641  1.00  0.00     0.167 HD
ATOM     67  C   UNL A   1      45.047  27.744  29.785  1.00  0.00     0.074 A 
ATOM     68  C   UNL A   1      44.624  26.770  30.786  1.00  0.00     0.031 C 
ATOM     69  C   UNL A   1      45.158  29.103  29.829  1.00  0.00     0.034 A 
BRANCH  56  70
ATOM     70  C   UNL A   1      42.663  28.616  34.572  1.00  0.00     0.023 A 
ATOM     71  C   UNL A   1      43.017  29.215  35.795  1.00  0.00     0.012 A 
ATOM     72  C   UNL A   1      42.811  27.212  34.468  1.00  0.00     0.148 A 
ATOM     73  C   UNL A   1      43.483  28.447  36.870  1.00  0.00     0.002 A 
ATOM     74  C   UNL A   1      43.187  26.447  35.562  1.00  0.00     0.091 A 
ATOM     75  F   UNL A   1      42.724  26.626  33.269  1.00  0.00    -0.205 F 
ATOM     76  C   UNL A   1      43.546  27.061  36.762  1.00  0.00     0.022 A 
BRANCH  74  77
ATOM     77  S   UNL A   1      43.221  24.655  35.471  1.00  0.00     0.127 S 
ATOM     78  O   UNL A   1      43.995  24.319  36.668  1.00  0.00    -0.237 OA
ATOM     79  O   UNL A   1      41.795  24.326  35.546  1.00  0.00    -0.237 OA
ATOM     80  O   UNL A   1      43.838  24.346  34.196  1.00  0.00    -0.744 OA
ENDBRANCH  74  77
ENDBRANCH  56  70
BRANCH  57  81
ATOM     81  C   UNL A   1      43.322  23.985  27.532  1.00  0.00     0.023 A 
ATOM     82  C   UNL A   1      42.287  23.144  28.001  1.00  0.00     0.012 A 
ATOM     83  C   UNL A   1      44.161  23.485  26.513  1.00  0.00     0.148 A 
ATOM     84  C   UNL A   1      42.054  21.887  27.429  1.00  0.00     0.002 A 
ATOM     85  C   UNL A   1      43.935  22.226  25.958  1.00  0.00     0.091 A 
ATOM     86  F   UNL A   1      45.119  24.272  26.010  1.00  0.00    -0.205 F 
ATOM     87  C   UNL A   1      42.870  21.433  26.399  1.00  0.00     0.022 A 
BRANCH  85  88
ATOM     88  S   UNL A   1      44.955  21.577  24.625  1.00  0.00     0.127 S 
ATOM     89  O   UNL A   1      44.475  22.342  23.472  1.00  0.00    -0.237 OA
ATOM     90  O   UNL A   1      46.300  21.927  25.073  1.00  0.00    -0.237 OA
ATOM     91  O   UNL A   1      44.655  20.153  24.559  1.00  0.00    -0.744 OA
ENDBRANCH  85  88
ENDBRANCH  57  81
BRANCH  69  92
ATOM     92  C   UNL A   1      45.479  29.831  28.551  1.00  0.00     0.023 A 
ATOM     93  C   UNL A   1      44.475  30.272  27.663  1.00  0.00     0.012 A 
ATOM     94  C   UNL A   1      46.801  30.262  28.361  1.00  0.00     0.148 A 
ATOM     95  C   UNL A   1      44.790  31.128  26.603  1.00  0.00     0.002 A 
ATOM     96  C   UNL A   1      47.103  31.144  27.333  1.00  0.00     0.091 A 
ATOM     97  F   UNL A   1      47.733  29.836  29.228  1.00  0.00    -0.205 F 
ATOM     98  C   UNL A   1      46.101  31.577  26.448  1.00  0.00     0.022 A 
BRANCH  96  99
ATOM     99  S   UNL A   1      48.740  31.853  27.147  1.00  0.00     0.127 S 
ATOM    100  O   UNL A   1      49.533  30.691  26.753  1.00  0.00    -0.237 OA
ATOM    101  O   UNL A   1      48.529  32.839  26.087  1.00  0.00    -0.237 OA
ATOM    102  O   UNL A   1      49.083  32.429  28.441  1.00  0.00    -0.744 OA
ENDBRANCH  96  99
ENDBRANCH  69  92
ENDBRANCH  43  44
ENDBRANCH  35  38
ENDBRANCH  33  34
ENDBRANCH  32  33
ENDBRANCH   1  32
TORSDOF 18
ENDMDL
