MODEL 1
REMARK VINA RESULT:     -10.5      0.000      0.000
REMARK SMILES CCC(C)(C)NC(=O)[C@@H](C)Oc1ccc(C)nc1C(=O)NCCCCCCNC(=O)c1ccc(-c2c3nc(c(-c4cccc(S(=O)(=O)[O-])c4F)c4ccc([nH]4)c(-c4cccc(S(=O)(=O)[O-])c4F)c4nc(c(-c5cccc(S(=O)(=O)[O-])c5F)c5ccc2[nH]5)C=C4)C=C3)cc1
REMARK SMILES IDX 23 1 22 2 21 3 19 4 20 5 18 7 12 8 13 9 14 10 17 11 15 12
REMARK SMILES IDX 16 13 11 14 9 15 10 16 7 17 6 18 8 20 3 21 4 22 5 23 2 24
REMARK SMILES IDX 1 25 24 26 25 27 26 28 27 29 28 30 29 31 30 33 31 34 32 35
REMARK SMILES IDX 93 36 33 37 92 38 34 39 35 40 36 41 86 42 37 43 91 44 85 45
REMARK SMILES IDX 87 46 38 47 90 48 84 49 83 50 39 52 71 53 51 54 70 55 52 56
REMARK SMILES IDX 55 57 69 58 88 59 53 60 54 61 68 63 89 64 56 65 40 66 41 67
REMARK SMILES IDX 49 68 42 69 44 70 50 71 43 72 45 73 46 74 47 75 48 76 72 77
REMARK SMILES IDX 73 78 81 79 74 80 76 81 82 82 75 83 77 84 78 85 79 86 80 87
REMARK SMILES IDX 57 88 58 89 66 90 59 91 61 92 67 93 60 94 62 95 63 96 64 97
REMARK SMILES IDX 65 98
REMARK H PARENT 21 6 6 19 28 32 87 51 55 62
REMARK Flexibility Score: inf
ROOT
ATOM      1  C   UNL A   1      33.901  27.942  22.297  1.00  0.00     0.021 C 
ENDROOT
BRANCH   1   2
ATOM      2  C   UNL A   1      32.887  27.240  21.395  1.00  0.00     0.116 C 
BRANCH   2   3
ATOM      3  N   UNL A   1      33.071  25.812  21.495  1.00  0.00    -0.351 N 
ATOM      4  C   UNL A   1      33.249  24.938  22.537  1.00  0.00     0.273 C 
ATOM      5  O   UNL A   1      33.518  23.782  22.179  1.00  0.00    -0.267 OA
ATOM      6  H   UNL A   1      33.067  25.364  20.619  1.00  0.00     0.163 HD
BRANCH   4   7
ATOM      7  C   UNL A   1      33.050  25.221  24.010  1.00  0.00     0.170 A 
ATOM      8  C   UNL A   1      34.011  25.381  25.014  1.00  0.00     0.151 A 
ATOM      9  C   UNL A   1      33.571  25.949  26.212  1.00  0.00     0.051 A 
ATOM     10  C   UNL A   1      32.204  26.015  26.497  1.00  0.00     0.027 A 
ATOM     11  N   UNL A   1      31.713  25.243  24.311  1.00  0.00    -0.244 NA
ATOM     12  C   UNL A   1      31.318  25.518  25.564  1.00  0.00     0.038 A 
ATOM     13  C   UNL A   1      29.908  25.157  25.913  1.00  0.00     0.067 C 
BRANCH   8  14
ATOM     14  O   UNL A   1      35.248  24.828  24.853  1.00  0.00    -0.478 OA
BRANCH  14  15
ATOM     15  C   UNL A   1      35.612  23.588  25.446  1.00  0.00     0.259 C 
ATOM     16  C   UNL A   1      37.073  23.663  25.948  1.00  0.00     0.064 C 
BRANCH  15  17
ATOM     17  C   UNL A   1      35.517  22.193  24.792  1.00  0.00     0.261 C 
ATOM     18  N   UNL A   1      34.355  21.723  24.259  1.00  0.00    -0.348 N 
ATOM     19  H   UNL A   1      34.352  21.701  23.274  1.00  0.00     0.164 HD
ATOM     20  O   UNL A   1      36.544  21.548  24.550  1.00  0.00    -0.271 OA
BRANCH  18  21
ATOM     21  C   UNL A   1      33.098  21.238  24.868  1.00  0.00     0.034 C 
ATOM     22  C   UNL A   1      33.408  19.873  25.535  1.00  0.00     0.034 C 
ATOM     23  C   UNL A   1      32.156  20.940  23.677  1.00  0.00     0.034 C 
BRANCH  21  24
ATOM     24  C   UNL A   1      32.299  22.111  25.885  1.00  0.00     0.024 C 
ATOM     25  C   UNL A   1      32.784  22.353  27.304  1.00  0.00     0.006 C 
ENDBRANCH  21  24
ENDBRANCH  18  21
ENDBRANCH  15  17
ENDBRANCH  14  15
ENDBRANCH   8  14
ENDBRANCH   4   7
ENDBRANCH   2   3
ENDBRANCH   1   2
BRANCH   1  26
ATOM     26  C   UNL A   1      33.313  29.053  23.167  1.00  0.00     0.002 C 
BRANCH  26  27
ATOM     27  C   UNL A   1      31.862  28.786  23.585  1.00  0.00     0.002 C 
BRANCH  27  28
ATOM     28  C   UNL A   1      31.502  29.218  25.014  1.00  0.00     0.021 C 
BRANCH  28  29
ATOM     29  C   UNL A   1      32.680  29.742  25.834  1.00  0.00     0.116 C 
BRANCH  29  30
ATOM     30  N   UNL A   1      32.546  31.168  26.090  1.00  0.00    -0.352 N 
ATOM     31  C   UNL A   1      33.123  31.934  27.070  1.00  0.00     0.251 C 
ATOM     32  H   UNL A   1      31.956  31.654  25.469  1.00  0.00     0.163 HD
ATOM     33  O   UNL A   1      32.646  33.030  27.351  1.00  0.00    -0.269 OA
BRANCH  31  34
ATOM     34  C   UNL A   1      34.325  31.444  27.778  1.00  0.00     0.039 A 
ATOM     35  C   UNL A   1      35.388  32.322  28.006  1.00  0.00     0.014 A 
ATOM     36  C   UNL A   1      34.421  30.106  28.170  1.00  0.00     0.014 A 
ATOM     37  C   UNL A   1      36.530  31.865  28.668  1.00  0.00     0.010 A 
ATOM     38  C   UNL A   1      35.528  29.673  28.894  1.00  0.00     0.010 A 
ATOM     39  C   UNL A   1      36.599  30.543  29.139  1.00  0.00    -0.014 A 
BRANCH  39  40
ATOM     40  C   UNL A   1      37.780  30.054  29.895  1.00  0.00     0.031 A 
ATOM     41  C   UNL A   1      38.053  30.557  31.287  1.00  0.00     0.074 A 
ATOM     42  C   UNL A   1      38.654  29.223  29.292  1.00  0.00     0.049 A 
ATOM     43  N   UNL A   1      39.062  30.291  32.076  1.00  0.00    -0.248 NA
ATOM     44  C   UNL A   1      37.082  31.504  31.858  1.00  0.00     0.031 C 
ATOM     45  C   UNL A   1      38.539  28.729  27.919  1.00  0.00     0.029 A 
ATOM     46  N   UNL A   1      39.825  28.671  29.747  1.00  0.00    -0.354 N 
ATOM     47  C   UNL A   1      38.867  31.061  33.217  1.00  0.00     0.074 A 
ATOM     48  C   UNL A   1      37.661  31.831  33.004  1.00  0.00     0.031 C 
ATOM     49  C   UNL A   1      39.594  27.946  27.643  1.00  0.00     0.029 A 
ATOM     50  C   UNL A   1      40.475  27.907  28.805  1.00  0.00     0.049 A 
ATOM     51  H   UNL A   1      40.168  28.809  30.658  1.00  0.00     0.167 HD
ATOM     52  C   UNL A   1      39.608  31.103  34.350  1.00  0.00     0.034 A 
ATOM     53  C   UNL A   1      41.654  27.258  28.867  1.00  0.00     0.034 A 
ATOM     54  C   UNL A   1      40.784  30.305  34.570  1.00  0.00     0.049 A 
ATOM     55  C   UNL A   1      42.439  27.293  30.151  1.00  0.00     0.074 A 
ATOM     56  C   UNL A   1      41.555  30.207  35.716  1.00  0.00     0.029 A 
ATOM     57  N   UNL A   1      41.367  29.476  33.624  1.00  0.00    -0.354 N 
ATOM     58  N   UNL A   1      42.153  27.901  31.276  1.00  0.00    -0.248 NA
ATOM     59  C   UNL A   1      43.690  26.521  30.186  1.00  0.00     0.031 C 
ATOM     60  C   UNL A   1      42.621  29.341  35.451  1.00  0.00     0.029 A 
ATOM     61  C   UNL A   1      42.494  28.873  34.154  1.00  0.00     0.049 A 
ATOM     62  H   UNL A   1      41.029  29.337  32.710  1.00  0.00     0.167 HD
ATOM     63  C   UNL A   1      43.167  27.558  32.163  1.00  0.00     0.074 A 
ATOM     64  C   UNL A   1      44.062  26.669  31.450  1.00  0.00     0.031 C 
ATOM     65  C   UNL A   1      43.348  27.951  33.448  1.00  0.00     0.034 A 
BRANCH  52  66
ATOM     66  C   UNL A   1      39.142  32.008  35.462  1.00  0.00     0.023 A 
ATOM     67  C   UNL A   1      38.201  31.533  36.399  1.00  0.00     0.012 A 
ATOM     68  C   UNL A   1      39.680  33.301  35.618  1.00  0.00     0.148 A 
ATOM     69  C   UNL A   1      37.775  32.342  37.452  1.00  0.00     0.002 A 
ATOM     70  C   UNL A   1      39.284  34.084  36.697  1.00  0.00     0.091 A 
ATOM     71  F   UNL A   1      40.558  33.743  34.707  1.00  0.00    -0.205 F 
ATOM     72  C   UNL A   1      38.324  33.611  37.606  1.00  0.00     0.022 A 
BRANCH  70  73
ATOM     73  S   UNL A   1      39.991  35.702  37.032  1.00  0.00     0.127 S 
ATOM     74  O   UNL A   1      41.411  35.379  37.172  1.00  0.00    -0.237 OA
ATOM     75  O   UNL A   1      39.652  36.442  35.817  1.00  0.00    -0.237 OA
ATOM     76  O   UNL A   1      39.339  36.184  38.240  1.00  0.00    -0.744 OA
ENDBRANCH  70  73
ENDBRANCH  52  66
BRANCH  53  77
ATOM     77  C   UNL A   1      42.132  26.467  27.698  1.00  0.00     0.023 A 
ATOM     78  C   UNL A   1      42.991  27.069  26.758  1.00  0.00     0.012 A 
ATOM     79  C   UNL A   1      41.763  25.118  27.526  1.00  0.00     0.148 A 
ATOM     80  C   UNL A   1      43.446  26.354  25.650  1.00  0.00     0.002 A 
ATOM     81  C   UNL A   1      42.265  24.396  26.450  1.00  0.00     0.091 A 
ATOM     82  F   UNL A   1      40.938  24.565  28.427  1.00  0.00    -0.205 F 
ATOM     83  C   UNL A   1      43.092  25.016  25.501  1.00  0.00     0.022 A 
BRANCH  81  84
ATOM     84  S   UNL A   1      41.972  22.635  26.251  1.00  0.00     0.127 S 
ATOM     85  O   UNL A   1      42.664  22.356  24.997  1.00  0.00    -0.237 OA
ATOM     86  O   UNL A   1      42.611  22.084  27.446  1.00  0.00    -0.237 OA
ATOM     87  O   UNL A   1      40.521  22.479  26.223  1.00  0.00    -0.744 OA
ENDBRANCH  81  84
ENDBRANCH  53  77
BRANCH  65  88
ATOM     88  C   UNL A   1      44.539  27.397  34.187  1.00  0.00     0.023 A 
ATOM     89  C   UNL A   1      45.750  28.115  34.209  1.00  0.00     0.012 A 
ATOM     90  C   UNL A   1      44.430  26.198  34.920  1.00  0.00     0.148 A 
ATOM     91  C   UNL A   1      46.847  27.631  34.921  1.00  0.00     0.002 A 
ATOM     92  C   UNL A   1      45.511  25.749  35.670  1.00  0.00     0.091 A 
ATOM     93  F   UNL A   1      43.274  25.521  34.873  1.00  0.00    -0.205 F 
ATOM     94  C   UNL A   1      46.723  26.457  35.660  1.00  0.00     0.022 A 
BRANCH  92  95
ATOM     95  S   UNL A   1      45.413  24.303  36.731  1.00  0.00     0.127 S 
ATOM     96  O   UNL A   1      46.814  24.111  37.102  1.00  0.00    -0.237 OA
ATOM     97  O   UNL A   1      44.552  24.773  37.817  1.00  0.00    -0.237 OA
ATOM     98  O   UNL A   1      44.833  23.245  35.915  1.00  0.00    -0.744 OA
ENDBRANCH  92  95
ENDBRANCH  65  88
ENDBRANCH  39  40
ENDBRANCH  31  34
ENDBRANCH  29  30
ENDBRANCH  28  29
ENDBRANCH  27  28
ENDBRANCH  26  27
ENDBRANCH   1  26
TORSDOF 21
ENDMDL
MODEL 2
REMARK VINA RESULT:     -10.2      5.320     10.466
REMARK SMILES CCC(C)(C)NC(=O)[C@@H](C)Oc1ccc(C)nc1C(=O)NCCCCCCNC(=O)c1ccc(-c2c3nc(c(-c4cccc(S(=O)(=O)[O-])c4F)c4ccc([nH]4)c(-c4cccc(S(=O)(=O)[O-])c4F)c4nc(c(-c5cccc(S(=O)(=O)[O-])c5F)c5ccc2[nH]5)C=C4)C=C3)cc1
REMARK SMILES IDX 23 1 22 2 21 3 19 4 20 5 18 7 12 8 13 9 14 10 17 11 15 12
REMARK SMILES IDX 16 13 11 14 9 15 10 16 7 17 6 18 8 20 3 21 4 22 5 23 2 24
REMARK SMILES IDX 1 25 24 26 25 27 26 28 27 29 28 30 29 31 30 33 31 34 32 35
REMARK SMILES IDX 93 36 33 37 92 38 34 39 35 40 36 41 86 42 37 43 91 44 85 45
REMARK SMILES IDX 87 46 38 47 90 48 84 49 83 50 39 52 71 53 51 54 70 55 52 56
REMARK SMILES IDX 55 57 69 58 88 59 53 60 54 61 68 63 89 64 56 65 40 66 41 67
REMARK SMILES IDX 49 68 42 69 44 70 50 71 43 72 45 73 46 74 47 75 48 76 72 77
REMARK SMILES IDX 73 78 81 79 74 80 76 81 82 82 75 83 77 84 78 85 79 86 80 87
REMARK SMILES IDX 57 88 58 89 66 90 59 91 61 92 67 93 60 94 62 95 63 96 64 97
REMARK SMILES IDX 65 98
REMARK H PARENT 21 6 6 19 28 32 87 51 55 62
REMARK Flexibility Score: inf
ROOT
ATOM      1  C   UNL A   1      38.022  23.609  26.290  1.00  0.00     0.021 C 
ENDROOT
BRANCH   1   2
ATOM      2  C   UNL A   1      36.600  23.440  25.756  1.00  0.00     0.116 C 
BRANCH   2   3
ATOM      3  N   UNL A   1      35.746  22.970  26.821  1.00  0.00    -0.351 N 
ATOM      4  C   UNL A   1      34.457  22.508  26.885  1.00  0.00     0.273 C 
ATOM      5  O   UNL A   1      34.044  22.336  28.040  1.00  0.00    -0.267 OA
ATOM      6  H   UNL A   1      36.190  22.982  27.699  1.00  0.00     0.163 HD
BRANCH   4   7
ATOM      7  C   UNL A   1      33.572  22.108  25.724  1.00  0.00     0.170 A 
ATOM      8  C   UNL A   1      32.571  22.846  25.084  1.00  0.00     0.151 A 
ATOM      9  C   UNL A   1      32.136  22.364  23.847  1.00  0.00     0.051 A 
ATOM     10  C   UNL A   1      32.432  21.052  23.462  1.00  0.00     0.027 A 
ATOM     11  N   UNL A   1      33.820  20.808  25.367  1.00  0.00    -0.244 NA
ATOM     12  C   UNL A   1      33.165  20.268  24.327  1.00  0.00     0.038 A 
ATOM     13  C   UNL A   1      33.188  18.774  24.228  1.00  0.00     0.067 C 
BRANCH   8  14
ATOM     14  O   UNL A   1      31.956  23.864  25.753  1.00  0.00    -0.478 OA
BRANCH  14  15
ATOM     15  C   UNL A   1      32.012  25.213  25.307  1.00  0.00     0.259 C 
ATOM     16  C   UNL A   1      33.351  25.849  25.750  1.00  0.00     0.064 C 
BRANCH  15  17
ATOM     17  C   UNL A   1      30.969  26.316  25.582  1.00  0.00     0.261 C 
ATOM     18  N   UNL A   1      30.192  26.839  24.592  1.00  0.00    -0.348 N 
ATOM     19  H   UNL A   1      29.252  26.551  24.633  1.00  0.00     0.164 HD
ATOM     20  O   UNL A   1      30.666  26.610  26.744  1.00  0.00    -0.271 OA
BRANCH  18  21
ATOM     21  C   UNL A   1      30.485  27.755  23.468  1.00  0.00     0.034 C 
ATOM     22  C   UNL A   1      31.183  26.918  22.365  1.00  0.00     0.034 C 
ATOM     23  C   UNL A   1      31.549  28.739  24.011  1.00  0.00     0.034 C 
BRANCH  21  24
ATOM     24  C   UNL A   1      29.361  28.607  22.801  1.00  0.00     0.024 C 
ATOM     25  C   UNL A   1      29.651  29.912  22.079  1.00  0.00     0.006 C 
ENDBRANCH  21  24
ENDBRANCH  18  21
ENDBRANCH  15  17
ENDBRANCH  14  15
ENDBRANCH   8  14
ENDBRANCH   4   7
ENDBRANCH   2   3
ENDBRANCH   1   2
BRANCH   1  26
ATOM     26  C   UNL A   1      38.899  22.364  26.162  1.00  0.00     0.002 C 
BRANCH  26  27
ATOM     27  C   UNL A   1      38.300  21.298  25.236  1.00  0.00     0.002 C 
BRANCH  27  28
ATOM     28  C   UNL A   1      39.001  19.933  25.270  1.00  0.00     0.021 C 
BRANCH  28  29
ATOM     29  C   UNL A   1      39.875  19.698  26.500  1.00  0.00     0.116 C 
BRANCH  29  30
ATOM     30  N   UNL A   1      41.158  19.122  26.127  1.00  0.00    -0.352 N 
ATOM     31  C   UNL A   1      42.324  19.753  25.774  1.00  0.00     0.251 C 
ATOM     32  H   UNL A   1      41.195  18.138  26.128  1.00  0.00     0.163 HD
ATOM     33  O   UNL A   1      43.195  19.135  25.167  1.00  0.00    -0.269 OA
BRANCH  31  34
ATOM     34  C   UNL A   1      42.537  21.170  26.137  1.00  0.00     0.039 A 
ATOM     35  C   UNL A   1      42.662  21.520  27.484  1.00  0.00     0.014 A 
ATOM     36  C   UNL A   1      42.561  22.158  25.149  1.00  0.00     0.014 A 
ATOM     37  C   UNL A   1      42.856  22.857  27.835  1.00  0.00     0.010 A 
ATOM     38  C   UNL A   1      42.828  23.480  25.495  1.00  0.00     0.010 A 
ATOM     39  C   UNL A   1      42.965  23.846  26.842  1.00  0.00    -0.014 A 
BRANCH  39  40
ATOM     40  C   UNL A   1      43.227  25.265  27.191  1.00  0.00     0.031 A 
ATOM     41  C   UNL A   1      44.614  25.836  27.057  1.00  0.00     0.074 A 
ATOM     42  C   UNL A   1      42.234  26.013  27.712  1.00  0.00     0.049 A 
ATOM     43  N   UNL A   1      45.045  27.031  27.368  1.00  0.00    -0.248 NA
ATOM     44  C   UNL A   1      45.657  24.941  26.531  1.00  0.00     0.031 C 
ATOM     45  C   UNL A   1      40.869  25.547  27.964  1.00  0.00     0.029 A 
ATOM     46  N   UNL A   1      42.228  27.313  28.151  1.00  0.00    -0.354 N 
ATOM     47  C   UNL A   1      46.411  27.021  27.110  1.00  0.00     0.074 A 
ATOM     48  C   UNL A   1      46.744  25.691  26.650  1.00  0.00     0.031 C 
ATOM     49  C   UNL A   1      40.157  26.545  28.509  1.00  0.00     0.029 A 
ATOM     50  C   UNL A   1      41.019  27.710  28.675  1.00  0.00     0.049 A 
ATOM     51  H   UNL A   1      43.012  27.905  28.096  1.00  0.00     0.167 HD
ATOM     52  C   UNL A   1      47.304  28.034  27.221  1.00  0.00     0.034 A 
ATOM     53  C   UNL A   1      40.652  28.878  29.237  1.00  0.00     0.034 A 
ATOM     54  C   UNL A   1      46.959  29.366  27.643  1.00  0.00     0.049 A 
ATOM     55  C   UNL A   1      41.653  29.998  29.314  1.00  0.00     0.074 A 
ATOM     56  C   UNL A   1      47.769  30.486  27.702  1.00  0.00     0.029 A 
ATOM     57  N   UNL A   1      45.705  29.755  28.087  1.00  0.00    -0.354 N 
ATOM     58  N   UNL A   1      42.902  30.017  28.916  1.00  0.00    -0.248 NA
ATOM     59  C   UNL A   1      41.186  31.270  29.884  1.00  0.00     0.031 C 
ATOM     60  C   UNL A   1      47.012  31.546  28.211  1.00  0.00     0.029 A 
ATOM     61  C   UNL A   1      45.721  31.095  28.435  1.00  0.00     0.049 A 
ATOM     62  H   UNL A   1      44.918  29.167  28.146  1.00  0.00     0.167 HD
ATOM     63  C   UNL A   1      43.358  31.309  29.152  1.00  0.00     0.074 A 
ATOM     64  C   UNL A   1      42.243  32.049  29.708  1.00  0.00     0.031 C 
ATOM     65  C   UNL A   1      44.591  31.832  28.940  1.00  0.00     0.034 A 
BRANCH  52  66
ATOM     66  C   UNL A   1      48.734  27.757  26.834  1.00  0.00     0.023 A 
ATOM     67  C   UNL A   1      49.661  27.367  27.823  1.00  0.00     0.012 A 
ATOM     68  C   UNL A   1      49.147  27.820  25.489  1.00  0.00     0.148 A 
ATOM     69  C   UNL A   1      50.983  27.080  27.486  1.00  0.00     0.002 A 
ATOM     70  C   UNL A   1      50.455  27.487  25.155  1.00  0.00     0.091 A 
ATOM     71  F   UNL A   1      48.259  28.211  24.564  1.00  0.00    -0.205 F 
ATOM     72  C   UNL A   1      51.376  27.129  26.153  1.00  0.00     0.022 A 
BRANCH  70  73
ATOM     73  S   UNL A   1      51.041  27.440  23.456  1.00  0.00     0.127 S 
ATOM     74  O   UNL A   1      51.118  28.865  23.133  1.00  0.00    -0.237 OA
ATOM     75  O   UNL A   1      52.336  26.776  23.597  1.00  0.00    -0.237 OA
ATOM     76  O   UNL A   1      50.047  26.685  22.708  1.00  0.00    -0.744 OA
ENDBRANCH  70  73
ENDBRANCH  52  66
BRANCH  53  77
ATOM     77  C   UNL A   1      39.252  29.068  29.713  1.00  0.00     0.023 A 
ATOM     78  C   UNL A   1      38.920  28.732  31.040  1.00  0.00     0.012 A 
ATOM     79  C   UNL A   1      38.258  29.602  28.870  1.00  0.00     0.148 A 
ATOM     80  C   UNL A   1      37.615  28.891  31.509  1.00  0.00     0.002 A 
ATOM     81  C   UNL A   1      36.974  29.811  29.361  1.00  0.00     0.091 A 
ATOM     82  F   UNL A   1      38.592  29.908  27.609  1.00  0.00    -0.205 F 
ATOM     83  C   UNL A   1      36.646  29.439  30.674  1.00  0.00     0.022 A 
BRANCH  81  84
ATOM     84  S   UNL A   1      35.698  30.633  28.402  1.00  0.00     0.127 S 
ATOM     85  O   UNL A   1      35.144  29.526  27.629  1.00  0.00    -0.237 OA
ATOM     86  O   UNL A   1      34.821  31.155  29.450  1.00  0.00    -0.237 OA
ATOM     87  O   UNL A   1      36.387  31.662  27.630  1.00  0.00    -0.744 OA
ENDBRANCH  81  84
ENDBRANCH  53  77
BRANCH  65  88
ATOM     88  C   UNL A   1      44.798  33.287  29.271  1.00  0.00     0.023 A 
ATOM     89  C   UNL A   1      45.240  33.660  30.556  1.00  0.00     0.012 A 
ATOM     90  C   UNL A   1      44.625  34.277  28.284  1.00  0.00     0.148 A 
ATOM     91  C   UNL A   1      45.472  35.000  30.864  1.00  0.00     0.002 A 
ATOM     92  C   UNL A   1      44.910  35.605  28.582  1.00  0.00     0.091 A 
ATOM     93  F   UNL A   1      44.189  33.904  27.072  1.00  0.00    -0.205 F 
ATOM     94  C   UNL A   1      45.319  35.969  29.874  1.00  0.00     0.022 A 
BRANCH  92  95
ATOM     95  S   UNL A   1      44.838  36.907  27.346  1.00  0.00     0.127 S 
ATOM     96  O   UNL A   1      45.803  36.432  26.357  1.00  0.00    -0.237 OA
ATOM     97  O   UNL A   1      43.441  36.847  26.914  1.00  0.00    -0.237 OA
ATOM     98  O   UNL A   1      45.205  38.136  28.036  1.00  0.00    -0.744 OA
ENDBRANCH  92  95
ENDBRANCH  65  88
ENDBRANCH  39  40
ENDBRANCH  31  34
ENDBRANCH  29  30
ENDBRANCH  28  29
ENDBRANCH  27  28
ENDBRANCH  26  27
ENDBRANCH   1  26
TORSDOF 21
ENDMDL
MODEL 3
REMARK VINA RESULT:     -10.2      5.204      9.950
REMARK SMILES CCC(C)(C)NC(=O)[C@@H](C)Oc1ccc(C)nc1C(=O)NCCCCCCNC(=O)c1ccc(-c2c3nc(c(-c4cccc(S(=O)(=O)[O-])c4F)c4ccc([nH]4)c(-c4cccc(S(=O)(=O)[O-])c4F)c4nc(c(-c5cccc(S(=O)(=O)[O-])c5F)c5ccc2[nH]5)C=C4)C=C3)cc1
REMARK SMILES IDX 23 1 22 2 21 3 19 4 20 5 18 7 12 8 13 9 14 10 17 11 15 12
REMARK SMILES IDX 16 13 11 14 9 15 10 16 7 17 6 18 8 20 3 21 4 22 5 23 2 24
REMARK SMILES IDX 1 25 24 26 25 27 26 28 27 29 28 30 29 31 30 33 31 34 32 35
REMARK SMILES IDX 93 36 33 37 92 38 34 39 35 40 36 41 86 42 37 43 91 44 85 45
REMARK SMILES IDX 87 46 38 47 90 48 84 49 83 50 39 52 71 53 51 54 70 55 52 56
REMARK SMILES IDX 55 57 69 58 88 59 53 60 54 61 68 63 89 64 56 65 40 66 41 67
REMARK SMILES IDX 49 68 42 69 44 70 50 71 43 72 45 73 46 74 47 75 48 76 72 77
REMARK SMILES IDX 73 78 81 79 74 80 76 81 82 82 75 83 77 84 78 85 79 86 80 87
REMARK SMILES IDX 57 88 58 89 66 90 59 91 61 92 67 93 60 94 62 95 63 96 64 97
REMARK SMILES IDX 65 98
REMARK H PARENT 21 6 6 19 28 32 87 51 55 62
REMARK Flexibility Score: inf
ROOT
ATOM      1  C   UNL A   1      38.017  23.721  25.953  1.00  0.00     0.021 C 
ENDROOT
BRANCH   1   2
ATOM      2  C   UNL A   1      36.820  23.665  25.004  1.00  0.00     0.116 C 
BRANCH   2   3
ATOM      3  N   UNL A   1      35.620  24.000  25.734  1.00  0.00    -0.351 N 
ATOM      4  C   UNL A   1      34.430  24.595  25.404  1.00  0.00     0.273 C 
ATOM      5  O   UNL A   1      33.701  24.831  26.378  1.00  0.00    -0.267 OA
ATOM      6  H   UNL A   1      35.667  23.744  26.683  1.00  0.00     0.163 HD
BRANCH   4   7
ATOM      7  C   UNL A   1      33.905  24.875  24.012  1.00  0.00     0.170 A 
ATOM      8  C   UNL A   1      33.507  23.971  23.022  1.00  0.00     0.151 A 
ATOM      9  C   UNL A   1      32.767  24.496  21.960  1.00  0.00     0.051 A 
ATOM     10  C   UNL A   1      32.743  25.876  21.737  1.00  0.00     0.027 A 
ATOM     11  N   UNL A   1      33.919  26.223  23.764  1.00  0.00    -0.244 NA
ATOM     12  C   UNL A   1      33.454  26.688  22.594  1.00  0.00     0.038 A 
ATOM     13  C   UNL A   1      33.842  28.088  22.233  1.00  0.00     0.067 C 
BRANCH   8  14
ATOM     14  O   UNL A   1      33.996  22.697  23.041  1.00  0.00    -0.478 OA
BRANCH  14  15
ATOM     15  C   UNL A   1      33.301  21.623  23.662  1.00  0.00     0.259 C 
ATOM     16  C   UNL A   1      31.973  22.143  24.261  1.00  0.00     0.064 C 
BRANCH  15  17
ATOM     17  C   UNL A   1      33.852  20.677  24.750  1.00  0.00     0.261 C 
ATOM     18  N   UNL A   1      34.181  19.382  24.483  1.00  0.00    -0.348 N 
ATOM     19  H   UNL A   1      35.151  19.216  24.466  1.00  0.00     0.164 HD
ATOM     20  O   UNL A   1      34.204  21.128  25.846  1.00  0.00    -0.271 OA
BRANCH  18  21
ATOM     21  C   UNL A   1      33.366  18.178  24.214  1.00  0.00     0.034 C 
ATOM     22  C   UNL A   1      34.321  17.096  23.648  1.00  0.00     0.034 C 
ATOM     23  C   UNL A   1      32.420  18.577  23.055  1.00  0.00     0.034 C 
BRANCH  21  24
ATOM     24  C   UNL A   1      32.489  17.525  25.327  1.00  0.00     0.024 C 
ATOM     25  C   UNL A   1      32.692  16.091  25.784  1.00  0.00     0.006 C 
ENDBRANCH  21  24
ENDBRANCH  18  21
ENDBRANCH  15  17
ENDBRANCH  14  15
ENDBRANCH   8  14
ENDBRANCH   4   7
ENDBRANCH   2   3
ENDBRANCH   1   2
BRANCH   1  26
ATOM     26  C   UNL A   1      38.753  22.393  26.123  1.00  0.00     0.002 C 
BRANCH  26  27
ATOM     27  C   UNL A   1      38.212  21.284  25.213  1.00  0.00     0.002 C 
BRANCH  27  28
ATOM     28  C   UNL A   1      38.945  19.939  25.312  1.00  0.00     0.021 C 
BRANCH  28  29
ATOM     29  C   UNL A   1      39.874  19.810  26.517  1.00  0.00     0.116 C 
BRANCH  29  30
ATOM     30  N   UNL A   1      41.163  19.259  26.127  1.00  0.00    -0.352 N 
ATOM     31  C   UNL A   1      42.328  19.910  25.813  1.00  0.00     0.251 C 
ATOM     32  H   UNL A   1      41.205  18.276  26.082  1.00  0.00     0.163 HD
ATOM     33  O   UNL A   1      43.206  19.325  25.184  1.00  0.00    -0.269 OA
BRANCH  31  34
ATOM     34  C   UNL A   1      42.531  21.310  26.243  1.00  0.00     0.039 A 
ATOM     35  C   UNL A   1      42.679  21.592  27.604  1.00  0.00     0.014 A 
ATOM     36  C   UNL A   1      42.524  22.347  25.307  1.00  0.00     0.014 A 
ATOM     37  C   UNL A   1      42.864  22.913  28.019  1.00  0.00     0.010 A 
ATOM     38  C   UNL A   1      42.783  23.652  25.715  1.00  0.00     0.010 A 
ATOM     39  C   UNL A   1      42.942  23.951  27.076  1.00  0.00    -0.014 A 
BRANCH  39  40
ATOM     40  C   UNL A   1      43.195  25.354  27.491  1.00  0.00     0.031 A 
ATOM     41  C   UNL A   1      44.598  25.899  27.513  1.00  0.00     0.074 A 
ATOM     42  C   UNL A   1      42.169  26.108  27.934  1.00  0.00     0.049 A 
ATOM     43  N   UNL A   1      45.019  27.075  27.901  1.00  0.00    -0.248 NA
ATOM     44  C   UNL A   1      45.672  24.997  27.065  1.00  0.00     0.031 C 
ATOM     45  C   UNL A   1      40.777  25.665  28.035  1.00  0.00     0.029 A 
ATOM     46  N   UNL A   1      42.143  27.395  28.409  1.00  0.00    -0.354 N 
ATOM     47  C   UNL A   1      46.403  27.043  27.779  1.00  0.00     0.074 A 
ATOM     48  C   UNL A   1      46.755  25.719  27.314  1.00  0.00     0.031 C 
ATOM     49  C   UNL A   1      40.033  26.663  28.537  1.00  0.00     0.029 A 
ATOM     50  C   UNL A   1      40.896  27.803  28.823  1.00  0.00     0.049 A 
ATOM     51  H   UNL A   1      42.939  27.971  28.450  1.00  0.00     0.167 HD
ATOM     52  C   UNL A   1      47.299  28.033  28.008  1.00  0.00     0.034 A 
ATOM     53  C   UNL A   1      40.496  28.963  29.381  1.00  0.00     0.034 A 
ATOM     54  C   UNL A   1      46.939  29.359  28.434  1.00  0.00     0.049 A 
ATOM     55  C   UNL A   1      41.506  30.059  29.590  1.00  0.00     0.074 A 
ATOM     56  C   UNL A   1      47.760  30.459  28.607  1.00  0.00     0.029 A 
ATOM     57  N   UNL A   1      45.654  29.763  28.763  1.00  0.00    -0.354 N 
ATOM     58  N   UNL A   1      42.788  30.062  29.318  1.00  0.00    -0.248 NA
ATOM     59  C   UNL A   1      41.007  31.324  30.149  1.00  0.00     0.031 C 
ATOM     60  C   UNL A   1      46.975  31.521  29.070  1.00  0.00     0.029 A 
ATOM     61  C   UNL A   1      45.661  31.092  29.151  1.00  0.00     0.049 A 
ATOM     62  H   UNL A   1      44.855  29.190  28.726  1.00  0.00     0.167 HD
ATOM     63  C   UNL A   1      43.242  31.336  29.637  1.00  0.00     0.074 A 
ATOM     64  C   UNL A   1      42.092  32.085  30.101  1.00  0.00     0.031 C 
ATOM     65  C   UNL A   1      44.499  31.839  29.563  1.00  0.00     0.034 A 
BRANCH  52  66
ATOM     66  C   UNL A   1      48.755  27.737  27.756  1.00  0.00     0.023 A 
ATOM     67  C   UNL A   1      49.544  27.190  28.790  1.00  0.00     0.012 A 
ATOM     68  C   UNL A   1      49.327  27.937  26.485  1.00  0.00     0.148 A 
ATOM     69  C   UNL A   1      50.887  26.883  28.574  1.00  0.00     0.002 A 
ATOM     70  C   UNL A   1      50.654  27.584  26.264  1.00  0.00     0.091 A 
ATOM     71  F   UNL A   1      48.569  28.475  25.519  1.00  0.00    -0.205 F 
ATOM     72  C   UNL A   1      51.437  27.069  27.310  1.00  0.00     0.022 A 
BRANCH  70  73
ATOM     73  S   UNL A   1      51.436  27.709  24.651  1.00  0.00     0.127 S 
ATOM     74  O   UNL A   1      50.639  26.769  23.864  1.00  0.00    -0.237 OA
ATOM     75  O   UNL A   1      51.224  29.117  24.316  1.00  0.00    -0.237 OA
ATOM     76  O   UNL A   1      52.828  27.333  24.848  1.00  0.00    -0.744 OA
ENDBRANCH  70  73
ENDBRANCH  52  66
BRANCH  53  77
ATOM     77  C   UNL A   1      39.060  29.169  29.722  1.00  0.00     0.023 A 
ATOM     78  C   UNL A   1      38.602  28.854  31.016  1.00  0.00     0.012 A 
ATOM     79  C   UNL A   1      38.153  29.699  28.783  1.00  0.00     0.148 A 
ATOM     80  C   UNL A   1      37.261  29.028  31.358  1.00  0.00     0.002 A 
ATOM     81  C   UNL A   1      36.831  29.924  29.148  1.00  0.00     0.091 A 
ATOM     82  F   UNL A   1      38.606  29.985  27.554  1.00  0.00    -0.205 F 
ATOM     83  C   UNL A   1      36.379  29.573  30.429  1.00  0.00     0.022 A 
BRANCH  81  84
ATOM     84  S   UNL A   1      35.657  30.742  28.064  1.00  0.00     0.127 S 
ATOM     85  O   UNL A   1      34.527  30.965  28.959  1.00  0.00    -0.237 OA
ATOM     86  O   UNL A   1      36.389  31.949  27.680  1.00  0.00    -0.237 OA
ATOM     87  O   UNL A   1      35.421  29.810  26.965  1.00  0.00    -0.744 OA
ENDBRANCH  81  84
ENDBRANCH  53  77
BRANCH  65  88
ATOM     88  C   UNL A   1      44.700  33.279  29.958  1.00  0.00     0.023 A 
ATOM     89  C   UNL A   1      45.097  33.601  31.270  1.00  0.00     0.012 A 
ATOM     90  C   UNL A   1      44.566  34.307  29.003  1.00  0.00     0.148 A 
ATOM     91  C   UNL A   1      45.322  34.927  31.637  1.00  0.00     0.002 A 
ATOM     92  C   UNL A   1      44.844  35.621  29.362  1.00  0.00     0.091 A 
ATOM     93  F   UNL A   1      44.171  33.982  27.763  1.00  0.00    -0.205 F 
ATOM     94  C   UNL A   1      45.208  35.934  30.681  1.00  0.00     0.022 A 
BRANCH  92  95
ATOM     95  S   UNL A   1      44.820  36.969  28.175  1.00  0.00     0.127 S 
ATOM     96  O   UNL A   1      45.189  38.109  29.012  1.00  0.00    -0.237 OA
ATOM     97  O   UNL A   1      45.848  36.557  27.218  1.00  0.00    -0.237 OA
ATOM     98  O   UNL A   1      43.468  37.004  27.633  1.00  0.00    -0.744 OA
ENDBRANCH  92  95
ENDBRANCH  65  88
ENDBRANCH  39  40
ENDBRANCH  31  34
ENDBRANCH  29  30
ENDBRANCH  28  29
ENDBRANCH  27  28
ENDBRANCH  26  27
ENDBRANCH   1  26
TORSDOF 21
ENDMDL
