MODEL 1
REMARK VINA RESULT:     -11.4      0.000      0.000
REMARK SMILES C=Cc1cncc(-c2ccc([C@@H](C)C(=O)NCCCCCCNC(=O)c3ccc(-c4c5nc(c(-c6cccc(S(=O)(=O)[O-])c6F)c6ccc([nH]6)c(-c6cccc(S(=O)(=O)[O-])c6F)c6nc(c(-c7cccc(S(=O)(=O)[O-])c7F)c7ccc4[nH]7)C=C6)C=C5)cc3)cc2)c1
REMARK SMILES IDX 19 1 18 2 17 3 16 4 14 5 15 6 12 8 13 9 11 10 8 11 9 12
REMARK SMILES IDX 90 13 10 14 89 15 7 16 3 17 4 18 91 19 5 20 6 21 2 22 1 23
REMARK SMILES IDX 20 24 21 25 22 26 23 27 24 28 25 30 26 31 27 32 88 33 28 34
REMARK SMILES IDX 87 35 29 36 30 37 31 38 81 39 32 40 86 41 80 42 82 43 33 44
REMARK SMILES IDX 85 45 79 46 78 47 34 49 66 50 46 51 65 52 47 53 50 54 64 55
REMARK SMILES IDX 83 56 48 57 49 58 63 60 84 61 51 62 35 63 36 64 44 65 37 66
REMARK SMILES IDX 39 67 45 68 38 69 40 70 41 71 42 72 43 73 67 74 68 75 76 76
REMARK SMILES IDX 69 77 71 78 77 79 70 80 72 81 73 82 74 83 75 84 52 85 53 86
REMARK SMILES IDX 61 87 54 88 56 89 62 90 55 91 57 92 58 93 59 94 60 95
REMARK H PARENT 16 7 23 29 82 48 50 59
REMARK Flexibility Score: inf
ROOT
ATOM      1  C   UNL A   1      33.352  27.215  26.382  1.00  0.00     0.002 C 
ENDROOT
BRANCH   1   2
ATOM      2  C   UNL A   1      33.861  26.603  25.073  1.00  0.00     0.021 C 
BRANCH   2   3
ATOM      3  C   UNL A   1      34.352  25.162  25.215  1.00  0.00     0.116 C 
BRANCH   3   4
ATOM      4  N   UNL A   1      34.651  24.567  23.928  1.00  0.00    -0.356 N 
ATOM      5  C   UNL A   1      33.891  23.809  23.090  1.00  0.00     0.227 C 
ATOM      6  O   UNL A   1      34.458  23.363  22.085  1.00  0.00    -0.274 OA
ATOM      7  H   UNL A   1      35.564  24.742  23.602  1.00  0.00     0.163 HD
BRANCH   5   8
ATOM      8  C   UNL A   1      32.402  23.514  23.326  1.00  0.00     0.105 C 
ATOM      9  C   UNL A   1      31.903  22.254  22.618  1.00  0.00     0.023 C 
BRANCH   8  10
ATOM     10  C   UNL A   1      31.517  24.746  23.220  1.00  0.00    -0.036 A 
ATOM     11  C   UNL A   1      29.890  27.097  23.216  1.00  0.00    -0.017 A 
ATOM     12  C   UNL A   1      31.020  26.982  22.392  1.00  0.00     0.009 A 
ATOM     13  C   UNL A   1      29.566  25.988  24.013  1.00  0.00     0.009 A 
ATOM     14  C   UNL A   1      31.800  25.819  22.372  1.00  0.00     0.005 A 
ATOM     15  C   UNL A   1      30.374  24.842  24.029  1.00  0.00     0.005 A 
BRANCH  11  16
ATOM     16  C   UNL A   1      29.094  28.341  23.244  1.00  0.00     0.001 A 
ATOM     17  C   UNL A   1      28.911  30.778  23.288  1.00  0.00    -0.007 A 
ATOM     18  C   UNL A   1      27.532  30.619  23.217  1.00  0.00     0.119 A 
ATOM     19  C   UNL A   1      29.690  29.612  23.311  1.00  0.00     0.020 A 
ATOM     20  N   UNL A   1      26.907  29.423  23.166  1.00  0.00    -0.263 NA
ATOM     21  C   UNL A   1      27.697  28.326  23.178  1.00  0.00     0.119 A 
BRANCH  17  22
ATOM     22  C   UNL A   1      29.487  32.124  23.388  1.00  0.00     0.002 C 
ATOM     23  C   UNL A   1      28.849  33.245  23.028  1.00  0.00     0.009 C 
ENDBRANCH  17  22
ENDBRANCH  11  16
ENDBRANCH   8  10
ENDBRANCH   5   8
ENDBRANCH   3   4
ENDBRANCH   2   3
ENDBRANCH   1   2
BRANCH   1  24
ATOM     24  C   UNL A   1      31.889  27.678  26.359  1.00  0.00     0.002 C 
BRANCH  24  25
ATOM     25  C   UNL A   1      31.673  29.175  26.107  1.00  0.00     0.021 C 
BRANCH  25  26
ATOM     26  C   UNL A   1      32.954  29.991  25.955  1.00  0.00     0.116 C 
BRANCH  26  27
ATOM     27  N   UNL A   1      32.737  31.394  26.269  1.00  0.00    -0.352 N 
ATOM     28  C   UNL A   1      33.305  32.174  27.243  1.00  0.00     0.251 C 
ATOM     29  H   UNL A   1      32.083  31.853  25.695  1.00  0.00     0.163 HD
ATOM     30  O   UNL A   1      32.814  33.271  27.499  1.00  0.00    -0.269 OA
BRANCH  28  31
ATOM     31  C   UNL A   1      34.501  31.711  27.981  1.00  0.00     0.039 A 
ATOM     32  C   UNL A   1      35.623  32.543  28.034  1.00  0.00     0.014 A 
ATOM     33  C   UNL A   1      34.550  30.438  28.559  1.00  0.00     0.014 A 
ATOM     34  C   UNL A   1      36.783  32.107  28.679  1.00  0.00     0.010 A 
ATOM     35  C   UNL A   1      35.681  30.034  29.264  1.00  0.00     0.010 A 
ATOM     36  C   UNL A   1      36.821  30.850  29.306  1.00  0.00    -0.014 A 
BRANCH  36  37
ATOM     37  C   UNL A   1      38.057  30.368  29.972  1.00  0.00     0.031 A 
ATOM     38  C   UNL A   1      38.419  30.858  31.350  1.00  0.00     0.074 A 
ATOM     39  C   UNL A   1      38.884  29.529  29.317  1.00  0.00     0.049 A 
ATOM     40  N   UNL A   1      39.449  30.545  32.092  1.00  0.00    -0.248 NA
ATOM     41  C   UNL A   1      37.520  31.848  31.965  1.00  0.00     0.031 C 
ATOM     42  C   UNL A   1      38.692  29.051  27.945  1.00  0.00     0.029 A 
ATOM     43  N   UNL A   1      40.061  28.943  29.710  1.00  0.00    -0.354 N 
ATOM     44  C   UNL A   1      39.343  31.322  33.240  1.00  0.00     0.074 A 
ATOM     45  C   UNL A   1      38.168  32.150  33.081  1.00  0.00     0.031 C 
ATOM     46  C   UNL A   1      39.709  28.239  27.617  1.00  0.00     0.029 A 
ATOM     47  C   UNL A   1      40.632  28.149  28.744  1.00  0.00     0.049 A 
ATOM     48  H   UNL A   1      40.459  29.080  30.600  1.00  0.00     0.167 HD
ATOM     49  C   UNL A   1      40.127  31.321  34.345  1.00  0.00     0.034 A 
ATOM     50  C   UNL A   1      41.767  27.423  28.769  1.00  0.00     0.034 A 
ATOM     51  C   UNL A   1      41.263  30.458  34.523  1.00  0.00     0.049 A 
ATOM     52  C   UNL A   1      42.579  27.381  30.035  1.00  0.00     0.074 A 
ATOM     53  C   UNL A   1      42.073  30.316  35.636  1.00  0.00     0.029 A 
ATOM     54  N   UNL A   1      41.750  29.586  33.561  1.00  0.00    -0.354 N 
ATOM     55  N   UNL A   1      42.366  27.996  31.174  1.00  0.00    -0.248 NA
ATOM     56  C   UNL A   1      43.761  26.506  30.037  1.00  0.00     0.031 C 
ATOM     57  C   UNL A   1      43.058  29.367  35.341  1.00  0.00     0.029 A 
ATOM     58  C   UNL A   1      42.848  28.903  34.053  1.00  0.00     0.049 A 
ATOM     59  H   UNL A   1      41.371  29.472  32.660  1.00  0.00     0.167 HD
ATOM     60  C   UNL A   1      43.360  27.554  32.038  1.00  0.00     0.074 A 
ATOM     61  C   UNL A   1      44.162  26.601  31.297  1.00  0.00     0.031 C 
ATOM     62  C   UNL A   1      43.599  27.915  33.323  1.00  0.00     0.034 A 
BRANCH  49  63
ATOM     63  C   UNL A   1      39.743  32.242  35.476  1.00  0.00     0.023 A 
ATOM     64  C   UNL A   1      38.918  31.757  36.513  1.00  0.00     0.012 A 
ATOM     65  C   UNL A   1      40.233  33.560  35.545  1.00  0.00     0.148 A 
ATOM     66  C   UNL A   1      38.555  32.580  37.579  1.00  0.00     0.002 A 
ATOM     67  C   UNL A   1      39.904  34.361  36.634  1.00  0.00     0.091 A 
ATOM     68  F   UNL A   1      40.999  34.011  34.542  1.00  0.00    -0.205 F 
ATOM     69  C   UNL A   1      39.055  33.877  37.644  1.00  0.00     0.022 A 
BRANCH  67  70
ATOM     70  S   UNL A   1      40.561  36.018  36.853  1.00  0.00     0.127 S 
ATOM     71  O   UNL A   1      39.856  36.757  35.806  1.00  0.00    -0.237 OA
ATOM     72  O   UNL A   1      40.137  36.340  38.216  1.00  0.00    -0.237 OA
ATOM     73  O   UNL A   1      42.002  35.904  36.678  1.00  0.00    -0.744 OA
ENDBRANCH  67  70
ENDBRANCH  49  63
BRANCH  50  74
ATOM     74  C   UNL A   1      42.147  26.600  27.586  1.00  0.00     0.023 A 
ATOM     75  C   UNL A   1      42.880  27.193  26.539  1.00  0.00     0.012 A 
ATOM     76  C   UNL A   1      41.817  25.234  27.503  1.00  0.00     0.148 A 
ATOM     77  C   UNL A   1      43.247  26.451  25.417  1.00  0.00     0.002 A 
ATOM     78  C   UNL A   1      42.233  24.486  26.407  1.00  0.00     0.091 A 
ATOM     79  F   UNL A   1      41.110  24.689  28.504  1.00  0.00    -0.205 F 
ATOM     80  C   UNL A   1      42.933  25.096  25.355  1.00  0.00     0.022 A 
BRANCH  78  81
ATOM     81  S   UNL A   1      41.988  22.709  26.307  1.00  0.00     0.127 S 
ATOM     82  O   UNL A   1      40.532  22.608  26.261  1.00  0.00    -0.237 OA
ATOM     83  O   UNL A   1      42.670  22.379  25.055  1.00  0.00    -0.237 OA
ATOM     84  O   UNL A   1      42.626  22.158  27.497  1.00  0.00    -0.744 OA
ENDBRANCH  78  81
ENDBRANCH  50  74
BRANCH  62  85
ATOM     85  C   UNL A   1      44.753  27.250  34.030  1.00  0.00     0.023 A 
ATOM     86  C   UNL A   1      46.023  27.858  34.024  1.00  0.00     0.012 A 
ATOM     87  C   UNL A   1      44.561  26.054  34.750  1.00  0.00     0.148 A 
ATOM     88  C   UNL A   1      47.096  27.265  34.691  1.00  0.00     0.002 A 
ATOM     89  C   UNL A   1      45.622  25.496  35.453  1.00  0.00     0.091 A 
ATOM     90  F   UNL A   1      43.350  25.477  34.727  1.00  0.00    -0.205 F 
ATOM     91  C   UNL A   1      46.893  26.092  35.414  1.00  0.00     0.022 A 
BRANCH  89  92
ATOM     92  S   UNL A   1      45.420  24.040  36.487  1.00  0.00     0.127 S 
ATOM     93  O   UNL A   1      44.769  24.601  37.670  1.00  0.00    -0.237 OA
ATOM     94  O   UNL A   1      44.560  23.188  35.665  1.00  0.00    -0.237 OA
ATOM     95  O   UNL A   1      46.763  23.514  36.695  1.00  0.00    -0.744 OA
ENDBRANCH  89  92
ENDBRANCH  62  85
ENDBRANCH  36  37
ENDBRANCH  28  31
ENDBRANCH  26  27
ENDBRANCH  25  26
ENDBRANCH  24  25
ENDBRANCH   1  24
TORSDOF 19
ENDMDL
MODEL 2
REMARK VINA RESULT:     -11.2      1.962      2.605
REMARK SMILES C=Cc1cncc(-c2ccc([C@@H](C)C(=O)NCCCCCCNC(=O)c3ccc(-c4c5nc(c(-c6cccc(S(=O)(=O)[O-])c6F)c6ccc([nH]6)c(-c6cccc(S(=O)(=O)[O-])c6F)c6nc(c(-c7cccc(S(=O)(=O)[O-])c7F)c7ccc4[nH]7)C=C6)C=C5)cc3)cc2)c1
REMARK SMILES IDX 19 1 18 2 17 3 16 4 14 5 15 6 12 8 13 9 11 10 8 11 9 12
REMARK SMILES IDX 90 13 10 14 89 15 7 16 3 17 4 18 91 19 5 20 6 21 2 22 1 23
REMARK SMILES IDX 20 24 21 25 22 26 23 27 24 28 25 30 26 31 27 32 88 33 28 34
REMARK SMILES IDX 87 35 29 36 30 37 31 38 81 39 32 40 86 41 80 42 82 43 33 44
REMARK SMILES IDX 85 45 79 46 78 47 34 49 66 50 46 51 65 52 47 53 50 54 64 55
REMARK SMILES IDX 83 56 48 57 49 58 63 60 84 61 51 62 35 63 36 64 44 65 37 66
REMARK SMILES IDX 39 67 45 68 38 69 40 70 41 71 42 72 43 73 67 74 68 75 76 76
REMARK SMILES IDX 69 77 71 78 77 79 70 80 72 81 73 82 74 83 75 84 52 85 53 86
REMARK SMILES IDX 61 87 54 88 56 89 62 90 55 91 57 92 58 93 59 94 60 95
REMARK H PARENT 16 7 23 29 82 48 50 59
REMARK Flexibility Score: inf
ROOT
ATOM      1  C   UNL A   1      31.828  25.549  26.583  1.00  0.00     0.002 C 
ENDROOT
BRANCH   1   2
ATOM      2  C   UNL A   1      32.141  24.063  26.790  1.00  0.00     0.021 C 
BRANCH   2   3
ATOM      3  C   UNL A   1      33.555  23.665  26.362  1.00  0.00     0.116 C 
BRANCH   3   4
ATOM      4  N   UNL A   1      33.585  22.343  25.770  1.00  0.00    -0.356 N 
ATOM      5  C   UNL A   1      33.731  21.942  24.477  1.00  0.00     0.227 C 
ATOM      6  O   UNL A   1      33.625  20.727  24.263  1.00  0.00    -0.274 OA
ATOM      7  H   UNL A   1      33.482  21.607  26.415  1.00  0.00     0.163 HD
BRANCH   5   8
ATOM      8  C   UNL A   1      34.032  22.903  23.316  1.00  0.00     0.105 C 
ATOM      9  C   UNL A   1      35.496  23.335  23.237  1.00  0.00     0.023 C 
BRANCH   8  10
ATOM     10  C   UNL A   1      32.992  24.001  23.156  1.00  0.00    -0.036 A 
ATOM     11  C   UNL A   1      30.973  26.022  23.041  1.00  0.00    -0.017 A 
ATOM     12  C   UNL A   1      32.336  26.335  22.929  1.00  0.00     0.009 A 
ATOM     13  C   UNL A   1      30.640  24.665  23.170  1.00  0.00     0.009 A 
ATOM     14  C   UNL A   1      33.323  25.343  22.955  1.00  0.00     0.005 A 
ATOM     15  C   UNL A   1      31.630  23.676  23.244  1.00  0.00     0.005 A 
BRANCH  11  16
ATOM     16  C   UNL A   1      29.947  27.084  23.038  1.00  0.00     0.001 A 
ATOM     17  C   UNL A   1      29.163  29.318  22.430  1.00  0.00    -0.007 A 
ATOM     18  C   UNL A   1      27.945  28.987  23.011  1.00  0.00     0.119 A 
ATOM     19  C   UNL A   1      30.172  28.345  22.461  1.00  0.00     0.020 A 
ATOM     20  N   UNL A   1      27.678  27.798  23.593  1.00  0.00    -0.263 NA
ATOM     21  C   UNL A   1      28.677  26.885  23.589  1.00  0.00     0.119 A 
BRANCH  17  22
ATOM     22  C   UNL A   1      29.363  30.657  21.866  1.00  0.00     0.002 C 
ATOM     23  C   UNL A   1      28.752  31.762  22.311  1.00  0.00     0.009 C 
ENDBRANCH  17  22
ENDBRANCH  11  16
ENDBRANCH   8  10
ENDBRANCH   5   8
ENDBRANCH   3   4
ENDBRANCH   2   3
ENDBRANCH   1   2
BRANCH   1  24
ATOM     24  C   UNL A   1      33.054  26.461  26.457  1.00  0.00     0.002 C 
BRANCH  24  25
ATOM     25  C   UNL A   1      32.797  27.953  26.697  1.00  0.00     0.021 C 
BRANCH  25  26
ATOM     26  C   UNL A   1      33.726  28.896  25.935  1.00  0.00     0.116 C 
BRANCH  26  27
ATOM     27  N   UNL A   1      33.622  30.261  26.422  1.00  0.00    -0.352 N 
ATOM     28  C   UNL A   1      34.360  30.911  27.378  1.00  0.00     0.251 C 
ATOM     29  H   UNL A   1      32.916  30.802  26.001  1.00  0.00     0.163 HD
ATOM     30  O   UNL A   1      33.963  31.988  27.816  1.00  0.00    -0.269 OA
BRANCH  28  31
ATOM     31  C   UNL A   1      35.626  30.331  27.880  1.00  0.00     0.039 A 
ATOM     32  C   UNL A   1      35.630  29.705  29.130  1.00  0.00     0.014 A 
ATOM     33  C   UNL A   1      36.819  30.462  27.163  1.00  0.00     0.014 A 
ATOM     34  C   UNL A   1      36.822  29.197  29.650  1.00  0.00     0.010 A 
ATOM     35  C   UNL A   1      37.993  29.889  27.650  1.00  0.00     0.010 A 
ATOM     36  C   UNL A   1      38.014  29.278  28.912  1.00  0.00    -0.014 A 
BRANCH  36  37
ATOM     37  C   UNL A   1      39.291  28.764  29.467  1.00  0.00     0.031 A 
ATOM     38  C   UNL A   1      39.911  29.417  30.676  1.00  0.00     0.074 A 
ATOM     39  C   UNL A   1      39.923  27.744  28.856  1.00  0.00     0.049 A 
ATOM     40  N   UNL A   1      41.014  29.106  31.307  1.00  0.00    -0.248 NA
ATOM     41  C   UNL A   1      39.216  30.589  31.234  1.00  0.00     0.031 C 
ATOM     42  C   UNL A   1      39.472  27.084  27.628  1.00  0.00     0.029 A 
ATOM     43  N   UNL A   1      41.089  27.093  29.172  1.00  0.00    -0.354 N 
ATOM     44  C   UNL A   1      41.163  30.058  32.308  1.00  0.00     0.074 A 
ATOM     45  C   UNL A   1      40.058  30.982  32.177  1.00  0.00     0.031 C 
ATOM     46  C   UNL A   1      40.345  26.117  27.302  1.00  0.00     0.029 A 
ATOM     47  C   UNL A   1      41.424  26.096  28.286  1.00  0.00     0.049 A 
ATOM     48  H   UNL A   1      41.635  27.319  29.959  1.00  0.00     0.167 HD
ATOM     49  C   UNL A   1      42.109  30.138  33.274  1.00  0.00     0.034 A 
ATOM     50  C   UNL A   1      42.477  25.256  28.273  1.00  0.00     0.034 A 
ATOM     51  C   UNL A   1      43.176  29.187  33.434  1.00  0.00     0.049 A 
ATOM     52  C   UNL A   1      43.473  25.317  29.399  1.00  0.00     0.074 A 
ATOM     53  C   UNL A   1      44.136  29.127  34.429  1.00  0.00     0.029 A 
ATOM     54  N   UNL A   1      43.422  28.125  32.576  1.00  0.00    -0.354 N 
ATOM     55  N   UNL A   1      43.501  26.122  30.434  1.00  0.00    -0.248 NA
ATOM     56  C   UNL A   1      44.555  24.322  29.384  1.00  0.00     0.031 C 
ATOM     57  C   UNL A   1      44.970  28.035  34.164  1.00  0.00     0.029 A 
ATOM     58  C   UNL A   1      44.517  27.404  33.017  1.00  0.00     0.049 A 
ATOM     59  H   UNL A   1      42.895  27.917  31.771  1.00  0.00     0.167 HD
ATOM     60  C   UNL A   1      44.576  25.707  31.211  1.00  0.00     0.074 A 
ATOM     61  C   UNL A   1      45.159  24.564  30.538  1.00  0.00     0.031 C 
ATOM     62  C   UNL A   1      45.049  26.233  32.368  1.00  0.00     0.034 A 
BRANCH  49  63
ATOM     63  C   UNL A   1      41.996  31.262  34.274  1.00  0.00     0.023 A 
ATOM     64  C   UNL A   1      42.890  32.351  34.195  1.00  0.00     0.012 A 
ATOM     65  C   UNL A   1      40.984  31.270  35.253  1.00  0.00     0.148 A 
ATOM     66  C   UNL A   1      42.804  33.410  35.098  1.00  0.00     0.002 A 
ATOM     67  C   UNL A   1      40.876  32.352  36.121  1.00  0.00     0.091 A 
ATOM     68  F   UNL A   1      40.156  30.219  35.327  1.00  0.00    -0.205 F 
ATOM     69  C   UNL A   1      41.793  33.415  36.053  1.00  0.00     0.022 A 
BRANCH  67  70
ATOM     70  S   UNL A   1      39.559  32.493  37.335  1.00  0.00     0.127 S 
ATOM     71  O   UNL A   1      40.302  32.395  38.591  1.00  0.00    -0.237 OA
ATOM     72  O   UNL A   1      39.018  33.822  37.049  1.00  0.00    -0.237 OA
ATOM     73  O   UNL A   1      38.644  31.394  37.062  1.00  0.00    -0.744 OA
ENDBRANCH  67  70
ENDBRANCH  49  63
BRANCH  50  74
ATOM     74  C   UNL A   1      42.587  24.220  27.207  1.00  0.00     0.023 A 
ATOM     75  C   UNL A   1      43.366  24.487  26.064  1.00  0.00     0.012 A 
ATOM     76  C   UNL A   1      41.956  22.968  27.329  1.00  0.00     0.148 A 
ATOM     77  C   UNL A   1      43.484  23.540  25.046  1.00  0.00     0.002 A 
ATOM     78  C   UNL A   1      42.123  22.008  26.337  1.00  0.00     0.091 A 
ATOM     79  F   UNL A   1      41.210  22.736  28.419  1.00  0.00    -0.205 F 
ATOM     80  C   UNL A   1      42.873  22.298  25.187  1.00  0.00     0.022 A 
BRANCH  78  81
ATOM     81  S   UNL A   1      41.481  20.338  26.497  1.00  0.00     0.127 S 
ATOM     82  O   UNL A   1      41.970  19.953  27.818  1.00  0.00    -0.237 OA
ATOM     83  O   UNL A   1      40.037  20.559  26.414  1.00  0.00    -0.237 OA
ATOM     84  O   UNL A   1      42.037  19.596  25.372  1.00  0.00    -0.744 OA
ENDBRANCH  78  81
ENDBRANCH  50  74
BRANCH  62  85
ATOM     85  C   UNL A   1      46.234  25.557  33.008  1.00  0.00     0.023 A 
ATOM     86  C   UNL A   1      47.539  25.974  32.683  1.00  0.00     0.012 A 
ATOM     87  C   UNL A   1      46.051  24.549  33.975  1.00  0.00     0.148 A 
ATOM     88  C   UNL A   1      48.646  25.372  33.282  1.00  0.00     0.002 A 
ATOM     89  C   UNL A   1      47.156  23.988  34.603  1.00  0.00     0.091 A 
ATOM     90  F   UNL A   1      44.802  24.148  34.257  1.00  0.00    -0.205 F 
ATOM     91  C   UNL A   1      48.454  24.388  34.249  1.00  0.00     0.022 A 
BRANCH  89  92
ATOM     92  S   UNL A   1      46.991  22.785  35.928  1.00  0.00     0.127 S 
ATOM     93  O   UNL A   1      46.032  23.443  36.813  1.00  0.00    -0.237 OA
ATOM     94  O   UNL A   1      46.467  21.613  35.225  1.00  0.00    -0.237 OA
ATOM     95  O   UNL A   1      48.332  22.608  36.470  1.00  0.00    -0.744 OA
ENDBRANCH  89  92
ENDBRANCH  62  85
ENDBRANCH  36  37
ENDBRANCH  28  31
ENDBRANCH  26  27
ENDBRANCH  25  26
ENDBRANCH  24  25
ENDBRANCH   1  24
TORSDOF 19
ENDMDL
MODEL 3
REMARK VINA RESULT:     -11.1      4.661      9.954
REMARK SMILES C=Cc1cncc(-c2ccc([C@@H](C)C(=O)NCCCCCCNC(=O)c3ccc(-c4c5nc(c(-c6cccc(S(=O)(=O)[O-])c6F)c6ccc([nH]6)c(-c6cccc(S(=O)(=O)[O-])c6F)c6nc(c(-c7cccc(S(=O)(=O)[O-])c7F)c7ccc4[nH]7)C=C6)C=C5)cc3)cc2)c1
REMARK SMILES IDX 19 1 18 2 17 3 16 4 14 5 15 6 12 8 13 9 11 10 8 11 9 12
REMARK SMILES IDX 90 13 10 14 89 15 7 16 3 17 4 18 91 19 5 20 6 21 2 22 1 23
REMARK SMILES IDX 20 24 21 25 22 26 23 27 24 28 25 30 26 31 27 32 88 33 28 34
REMARK SMILES IDX 87 35 29 36 30 37 31 38 81 39 32 40 86 41 80 42 82 43 33 44
REMARK SMILES IDX 85 45 79 46 78 47 34 49 66 50 46 51 65 52 47 53 50 54 64 55
REMARK SMILES IDX 83 56 48 57 49 58 63 60 84 61 51 62 35 63 36 64 44 65 37 66
REMARK SMILES IDX 39 67 45 68 38 69 40 70 41 71 42 72 43 73 67 74 68 75 76 76
REMARK SMILES IDX 69 77 71 78 77 79 70 80 72 81 73 82 74 83 75 84 52 85 53 86
REMARK SMILES IDX 61 87 54 88 56 89 62 90 55 91 57 92 58 93 59 94 60 95
REMARK H PARENT 16 7 23 29 82 48 50 59
REMARK Flexibility Score: inf
ROOT
ATOM      1  C   UNL A   1      34.082  25.702  25.538  1.00  0.00     0.002 C 
ENDROOT
BRANCH   1   2
ATOM      2  C   UNL A   1      32.742  26.159  26.125  1.00  0.00     0.021 C 
BRANCH   2   3
ATOM      3  C   UNL A   1      32.185  27.428  25.478  1.00  0.00     0.116 C 
BRANCH   3   4
ATOM      4  N   UNL A   1      32.948  27.815  24.308  1.00  0.00    -0.356 N 
ATOM      5  C   UNL A   1      32.806  27.486  22.995  1.00  0.00     0.227 C 
ATOM      6  O   UNL A   1      33.679  27.907  22.225  1.00  0.00    -0.274 OA
ATOM      7  H   UNL A   1      33.700  28.421  24.497  1.00  0.00     0.163 HD
BRANCH   5   8
ATOM      8  C   UNL A   1      31.633  26.659  22.447  1.00  0.00     0.105 C 
ATOM      9  C   UNL A   1      30.268  27.324  22.633  1.00  0.00     0.023 C 
BRANCH   8  10
ATOM     10  C   UNL A   1      31.719  25.182  22.797  1.00  0.00    -0.036 A 
ATOM     11  C   UNL A   1      32.064  22.441  23.534  1.00  0.00    -0.017 A 
ATOM     12  C   UNL A   1      31.016  23.216  24.051  1.00  0.00     0.009 A 
ATOM     13  C   UNL A   1      32.914  23.058  22.603  1.00  0.00     0.009 A 
ATOM     14  C   UNL A   1      30.829  24.550  23.668  1.00  0.00     0.005 A 
ATOM     15  C   UNL A   1      32.756  24.406  22.255  1.00  0.00     0.005 A 
BRANCH  11  16
ATOM     16  C   UNL A   1      32.263  21.044  23.970  1.00  0.00     0.001 A 
ATOM     17  C   UNL A   1      32.763  18.696  23.508  1.00  0.00    -0.007 A 
ATOM     18  C   UNL A   1      32.694  18.471  24.878  1.00  0.00     0.119 A 
ATOM     19  C   UNL A   1      32.532  20.005  23.062  1.00  0.00     0.020 A 
ATOM     20  N   UNL A   1      32.425  19.427  25.793  1.00  0.00    -0.263 NA
ATOM     21  C   UNL A   1      32.220  20.678  25.319  1.00  0.00     0.119 A 
BRANCH  17  22
ATOM     22  C   UNL A   1      33.017  17.576  22.596  1.00  0.00     0.002 C 
ATOM     23  C   UNL A   1      33.959  16.644  22.790  1.00  0.00     0.009 C 
ENDBRANCH  17  22
ENDBRANCH  11  16
ENDBRANCH   8  10
ENDBRANCH   5   8
ENDBRANCH   3   4
ENDBRANCH   2   3
ENDBRANCH   1   2
BRANCH   1  24
ATOM     24  C   UNL A   1      34.314  24.186  25.549  1.00  0.00     0.002 C 
BRANCH  24  25
ATOM     25  C   UNL A   1      35.567  23.714  26.296  1.00  0.00     0.021 C 
BRANCH  25  26
ATOM     26  C   UNL A   1      36.841  23.680  25.455  1.00  0.00     0.116 C 
BRANCH  26  27
ATOM     27  N   UNL A   1      37.761  22.654  25.916  1.00  0.00    -0.352 N 
ATOM     28  C   UNL A   1      39.015  22.776  26.458  1.00  0.00     0.251 C 
ATOM     29  H   UNL A   1      37.434  21.730  25.827  1.00  0.00     0.163 HD
ATOM     30  O   UNL A   1      39.726  21.780  26.562  1.00  0.00    -0.269 OA
BRANCH  28  31
ATOM     31  C   UNL A   1      39.514  24.091  26.919  1.00  0.00     0.039 A 
ATOM     32  C   UNL A   1      39.319  24.453  28.255  1.00  0.00     0.014 A 
ATOM     33  C   UNL A   1      40.106  24.995  26.031  1.00  0.00     0.014 A 
ATOM     34  C   UNL A   1      39.733  25.710  28.702  1.00  0.00     0.010 A 
ATOM     35  C   UNL A   1      40.584  26.219  26.495  1.00  0.00     0.010 A 
ATOM     36  C   UNL A   1      40.376  26.603  27.828  1.00  0.00    -0.014 A 
BRANCH  36  37
ATOM     37  C   UNL A   1      40.796  27.950  28.288  1.00  0.00     0.031 A 
ATOM     38  C   UNL A   1      42.253  28.331  28.292  1.00  0.00     0.074 A 
ATOM     39  C   UNL A   1      39.873  28.815  28.752  1.00  0.00     0.049 A 
ATOM     40  N   UNL A   1      42.810  29.460  28.650  1.00  0.00    -0.248 NA
ATOM     41  C   UNL A   1      43.216  27.302  27.864  1.00  0.00     0.031 C 
ATOM     42  C   UNL A   1      38.441  28.535  28.883  1.00  0.00     0.029 A 
ATOM     43  N   UNL A   1      40.003  30.100  29.218  1.00  0.00    -0.354 N 
ATOM     44  C   UNL A   1      44.181  29.266  28.524  1.00  0.00     0.074 A 
ATOM     45  C   UNL A   1      44.375  27.899  28.094  1.00  0.00     0.031 C 
ATOM     46  C   UNL A   1      37.825  29.617  29.383  1.00  0.00     0.029 A 
ATOM     47  C   UNL A   1      38.816  30.663  29.624  1.00  0.00     0.049 A 
ATOM     48  H   UNL A   1      40.865  30.573  29.257  1.00  0.00     0.167 HD
ATOM     49  C   UNL A   1      45.187  30.153  28.711  1.00  0.00     0.034 A 
ATOM     50  C   UNL A   1      38.555  31.886  30.125  1.00  0.00     0.034 A 
ATOM     51  C   UNL A   1      44.987  31.528  29.086  1.00  0.00     0.049 A 
ATOM     52  C   UNL A   1      39.681  32.877  30.252  1.00  0.00     0.074 A 
ATOM     53  C   UNL A   1      45.930  32.532  29.217  1.00  0.00     0.029 A 
ATOM     54  N   UNL A   1      43.757  32.092  29.387  1.00  0.00    -0.354 N 
ATOM     55  N   UNL A   1      40.951  32.725  29.965  1.00  0.00    -0.248 NA
ATOM     56  C   UNL A   1      39.329  34.225  30.723  1.00  0.00     0.031 C 
ATOM     57  C   UNL A   1      45.270  33.701  29.612  1.00  0.00     0.029 A 
ATOM     58  C   UNL A   1      43.915  33.430  29.704  1.00  0.00     0.049 A 
ATOM     59  H   UNL A   1      42.898  31.611  29.378  1.00  0.00     0.167 HD
ATOM     60  C   UNL A   1      41.542  33.964  30.183  1.00  0.00     0.074 A 
ATOM     61  C   UNL A   1      40.485  34.862  30.603  1.00  0.00     0.031 C 
ATOM     62  C   UNL A   1      42.844  34.324  30.062  1.00  0.00     0.034 A 
BRANCH  49  63
ATOM     63  C   UNL A   1      46.595  29.681  28.450  1.00  0.00     0.023 A 
ATOM     64  C   UNL A   1      47.171  29.890  27.179  1.00  0.00     0.012 A 
ATOM     65  C   UNL A   1      47.365  29.079  29.464  1.00  0.00     0.148 A 
ATOM     66  C   UNL A   1      48.475  29.474  26.910  1.00  0.00     0.002 A 
ATOM     67  C   UNL A   1      48.680  28.709  29.202  1.00  0.00     0.091 A 
ATOM     68  F   UNL A   1      46.796  28.869  30.660  1.00  0.00    -0.205 F 
ATOM     69  C   UNL A   1      49.231  28.893  27.923  1.00  0.00     0.022 A 
BRANCH  67  70
ATOM     70  S   UNL A   1      49.764  28.026  30.461  1.00  0.00     0.127 S 
ATOM     71  O   UNL A   1      49.596  28.987  31.551  1.00  0.00    -0.237 OA
ATOM     72  O   UNL A   1      49.163  26.715  30.707  1.00  0.00    -0.237 OA
ATOM     73  O   UNL A   1      51.092  27.981  29.865  1.00  0.00    -0.744 OA
ENDBRANCH  67  70
ENDBRANCH  49  63
BRANCH  50  74
ATOM     74  C   UNL A   1      37.153  32.271  30.453  1.00  0.00     0.023 A 
ATOM     75  C   UNL A   1      36.664  32.055  31.756  1.00  0.00     0.012 A 
ATOM     76  C   UNL A   1      36.314  32.874  29.497  1.00  0.00     0.148 A 
ATOM     77  C   UNL A   1      35.355  32.399  32.092  1.00  0.00     0.002 A 
ATOM     78  C   UNL A   1      35.029  33.266  29.854  1.00  0.00     0.091 A 
ATOM     79  F   UNL A   1      36.793  33.062  28.259  1.00  0.00    -0.205 F 
ATOM     80  C   UNL A   1      34.541  33.014  31.145  1.00  0.00     0.022 A 
BRANCH  78  81
ATOM     81  S   UNL A   1      33.959  34.182  28.739  1.00  0.00     0.127 S 
ATOM     82  O   UNL A   1      33.551  33.146  27.794  1.00  0.00    -0.237 OA
ATOM     83  O   UNL A   1      32.904  34.645  29.641  1.00  0.00    -0.237 OA
ATOM     84  O   UNL A   1      34.787  35.250  28.191  1.00  0.00    -0.744 OA
ENDBRANCH  78  81
ENDBRANCH  50  74
BRANCH  62  85
ATOM     85  C   UNL A   1      43.199  35.760  30.349  1.00  0.00     0.023 A 
ATOM     86  C   UNL A   1      43.705  36.118  31.614  1.00  0.00     0.012 A 
ATOM     87  C   UNL A   1      43.087  36.743  29.346  1.00  0.00     0.148 A 
ATOM     88  C   UNL A   1      44.058  37.440  31.889  1.00  0.00     0.002 A 
ATOM     89  C   UNL A   1      43.486  38.047  29.611  1.00  0.00     0.091 A 
ATOM     90  F   UNL A   1      42.583  36.389  28.154  1.00  0.00    -0.205 F 
ATOM     91  C   UNL A   1      43.959  38.401  30.885  1.00  0.00     0.022 A 
BRANCH  89  92
ATOM     92  S   UNL A   1      43.482  39.322  28.345  1.00  0.00     0.127 S 
ATOM     93  O   UNL A   1      42.103  39.262  27.864  1.00  0.00    -0.237 OA
ATOM     94  O   UNL A   1      43.809  40.526  29.111  1.00  0.00    -0.237 OA
ATOM     95  O   UNL A   1      44.504  38.928  27.384  1.00  0.00    -0.744 OA
ENDBRANCH  89  92
ENDBRANCH  62  85
ENDBRANCH  36  37
ENDBRANCH  28  31
ENDBRANCH  26  27
ENDBRANCH  25  26
ENDBRANCH  24  25
ENDBRANCH   1  24
TORSDOF 19
ENDMDL
