MODEL 1
REMARK VINA RESULT:     -11.9      0.000      0.000
REMARK SMILES Cc1cc2c(c(C)c1Br)C=C(C(=O)NCCCCCCNC(=O)c1ccc(-c3c4nc(c(-c5cccc(S(=O)(=O)[O-])c5F)c5ccc([nH]5)c(-c5cccc(S(=O)(=O)[O-])c5F)c5nc(c(-c6cccc(S(=O)(=O)[O-])c6F)c6ccc3[nH]6)C=C5)C=C4)cc1)[C@@H](C(F)(F)F)O2
REMARK SMILES IDX 18 1 17 2 16 3 15 4 14 5 12 6 13 7 11 9 1 10 2 11 3 12 8 13
REMARK SMILES IDX 4 14 6 15 9 16 5 17 92 18 7 19 10 20 87 21 88 22 89 23 90 24
REMARK SMILES IDX 91 25 19 26 20 27 21 28 22 29 23 31 24 32 25 33 86 34 26 35
REMARK SMILES IDX 85 36 27 37 28 38 29 39 79 40 30 41 84 42 78 43 80 44 31 45
REMARK SMILES IDX 83 46 77 47 76 48 32 50 64 51 44 52 63 53 45 54 48 55 62 56
REMARK SMILES IDX 81 57 46 58 47 59 61 61 82 62 49 63 33 64 34 65 42 66 35 67
REMARK SMILES IDX 37 68 43 69 36 70 38 71 39 72 40 73 41 74 65 75 66 76 74 77
REMARK SMILES IDX 67 78 69 79 75 80 68 81 70 82 71 83 72 84 73 85 50 86 51 87
REMARK SMILES IDX 59 88 52 89 54 90 60 91 53 92 55 93 56 94 57 95 58 96
REMARK H PARENT 14 8 21 30 80 49 48 60
REMARK Flexibility Score: inf
ROOT
ATOM      1  C   UNL A   1      31.813  30.396  25.912  1.00  0.00     0.002 C 
ENDROOT
BRANCH   1   2
ATOM      2  C   UNL A   1      33.254  29.866  25.920  1.00  0.00     0.002 C 
BRANCH   2   3
ATOM      3  C   UNL A   1      33.451  28.538  26.657  1.00  0.00     0.021 C 
BRANCH   3   4
ATOM      4  C   UNL A   1      33.230  27.312  25.777  1.00  0.00     0.116 C 
BRANCH   4   5
ATOM      5  N   UNL A   1      32.021  26.598  26.150  1.00  0.00    -0.352 N 
ATOM      6  C   UNL A   1      31.609  25.310  26.202  1.00  0.00     0.251 C 
ATOM      7  O   UNL A   1      30.455  25.145  26.612  1.00  0.00    -0.270 OA
ATOM      8  H   UNL A   1      31.312  27.215  26.442  1.00  0.00     0.163 HD
BRANCH   6   9
ATOM      9  C   UNL A   1      32.431  24.124  25.813  1.00  0.00     0.067 C 
ATOM     10  C   UNL A   1      36.973  19.587  24.741  1.00  0.00     0.046 C 
ATOM     11  C   UNL A   1      36.205  20.819  25.137  1.00  0.00    -0.033 A 
ATOM     12  C   UNL A   1      34.820  20.803  24.962  1.00  0.00     0.051 A 
ATOM     13  C   UNL A   1      36.812  21.987  25.646  1.00  0.00     0.024 A 
ATOM     14  C   UNL A   1      34.051  21.914  25.287  1.00  0.00     0.128 A 
ATOM     15  C   UNL A   1      36.035  23.123  25.998  1.00  0.00    -0.026 A 
ATOM     16  Br  UNL A   1      38.715  21.999  25.848  1.00  0.00    -0.050 Br
ATOM     17  C   UNL A   1      34.631  23.070  25.813  1.00  0.00     0.021 A 
ATOM     18  O   UNL A   1      32.712  21.758  25.091  1.00  0.00    -0.475 OA
ATOM     19  C   UNL A   1      36.650  24.385  26.558  1.00  0.00     0.046 C 
ATOM     20  C   UNL A   1      33.726  24.166  26.180  1.00  0.00     0.026 C 
ATOM     21  C   UNL A   1      31.909  22.960  25.026  1.00  0.00     0.314 C 
BRANCH  21  22
ATOM     22  C   UNL A   1      31.633  23.311  23.553  1.00  0.00     0.429 C 
ATOM     23  F   UNL A   1      32.269  24.455  23.208  1.00  0.00    -0.167 F 
ATOM     24  F   UNL A   1      32.072  22.354  22.701  1.00  0.00    -0.167 F 
ATOM     25  F   UNL A   1      30.314  23.480  23.304  1.00  0.00    -0.167 F 
ENDBRANCH  21  22
ENDBRANCH   6   9
ENDBRANCH   4   5
ENDBRANCH   3   4
ENDBRANCH   2   3
ENDBRANCH   1   2
BRANCH   1  26
ATOM     26  C   UNL A   1      31.585  31.681  26.716  1.00  0.00     0.021 C 
BRANCH  26  27
ATOM     27  C   UNL A   1      32.858  32.330  27.243  1.00  0.00     0.116 C 
BRANCH  27  28
ATOM     28  N   UNL A   1      32.658  33.736  27.553  1.00  0.00    -0.352 N 
ATOM     29  C   UNL A   1      33.218  34.485  28.555  1.00  0.00     0.251 C 
ATOM     30  H   UNL A   1      32.033  34.216  26.963  1.00  0.00     0.163 HD
ATOM     31  O   UNL A   1      32.774  35.601  28.813  1.00  0.00    -0.269 OA
BRANCH  29  32
ATOM     32  C   UNL A   1      34.350  33.936  29.326  1.00  0.00     0.039 A 
ATOM     33  C   UNL A   1      34.092  33.068  30.388  1.00  0.00     0.014 A 
ATOM     34  C   UNL A   1      35.665  34.283  28.996  1.00  0.00     0.014 A 
ATOM     35  C   UNL A   1      35.159  32.510  31.094  1.00  0.00     0.010 A 
ATOM     36  C   UNL A   1      36.726  33.669  29.653  1.00  0.00     0.010 A 
ATOM     37  C   UNL A   1      36.483  32.790  30.718  1.00  0.00    -0.014 A 
BRANCH  37  38
ATOM     38  C   UNL A   1      37.627  32.184  31.443  1.00  0.00     0.031 A 
ATOM     39  C   UNL A   1      38.387  31.042  30.827  1.00  0.00     0.074 A 
ATOM     40  C   UNL A   1      37.946  32.628  32.674  1.00  0.00     0.049 A 
ATOM     41  N   UNL A   1      39.402  30.375  31.311  1.00  0.00    -0.248 NA
ATOM     42  C   UNL A   1      37.938  30.572  29.505  1.00  0.00     0.031 C 
ATOM     43  C   UNL A   1      37.239  33.685  33.399  1.00  0.00     0.029 A 
ATOM     44  N   UNL A   1      38.937  32.238  33.540  1.00  0.00    -0.354 N 
ATOM     45  C   UNL A   1      39.698  29.400  30.367  1.00  0.00     0.074 A 
ATOM     46  C   UNL A   1      38.727  29.527  29.305  1.00  0.00     0.031 C 
ATOM     47  C   UNL A   1      37.831  33.873  34.590  1.00  0.00     0.029 A 
ATOM     48  C   UNL A   1      38.940  32.933  34.727  1.00  0.00     0.049 A 
ATOM     49  H   UNL A   1      39.585  31.527  33.331  1.00  0.00     0.167 HD
ATOM     50  C   UNL A   1      40.714  28.505  30.365  1.00  0.00     0.034 A 
ATOM     51  C   UNL A   1      39.747  32.828  35.800  1.00  0.00     0.034 A 
ATOM     52  C   UNL A   1      41.702  28.412  31.404  1.00  0.00     0.049 A 
ATOM     53  C   UNL A   1      40.876  31.833  35.768  1.00  0.00     0.074 A 
ATOM     54  C   UNL A   1      42.810  27.585  31.463  1.00  0.00     0.029 A 
ATOM     55  N   UNL A   1      41.702  29.167  32.567  1.00  0.00    -0.354 N 
ATOM     56  N   UNL A   1      41.228  31.017  34.803  1.00  0.00    -0.248 NA
ATOM     57  C   UNL A   1      41.739  31.763  36.956  1.00  0.00     0.031 C 
ATOM     58  C   UNL A   1      43.467  27.824  32.673  1.00  0.00     0.029 A 
ATOM     59  C   UNL A   1      42.784  28.818  33.356  1.00  0.00     0.049 A 
ATOM     60  H   UNL A   1      41.032  29.850  32.797  1.00  0.00     0.167 HD
ATOM     61  C   UNL A   1      42.367  30.359  35.254  1.00  0.00     0.074 A 
ATOM     62  C   UNL A   1      42.661  30.890  36.570  1.00  0.00     0.031 C 
ATOM     63  C   UNL A   1      43.093  29.390  34.643  1.00  0.00     0.034 A 
BRANCH  50  64
ATOM     64  C   UNL A   1      40.855  27.600  29.168  1.00  0.00     0.023 A 
ATOM     65  C   UNL A   1      40.037  26.455  29.071  1.00  0.00     0.012 A 
ATOM     66  C   UNL A   1      41.724  27.922  28.108  1.00  0.00     0.148 A 
ATOM     67  C   UNL A   1      40.102  25.628  27.950  1.00  0.00     0.002 A 
ATOM     68  C   UNL A   1      41.747  27.119  26.972  1.00  0.00     0.091 A 
ATOM     69  F   UNL A   1      42.506  29.003  28.227  1.00  0.00    -0.205 F 
ATOM     70  C   UNL A   1      40.946  25.967  26.897  1.00  0.00     0.022 A 
BRANCH  68  71
ATOM     71  S   UNL A   1      42.735  27.512  25.523  1.00  0.00     0.127 S 
ATOM     72  O   UNL A   1      42.523  26.328  24.693  1.00  0.00    -0.237 OA
ATOM     73  O   UNL A   1      42.085  28.727  25.031  1.00  0.00    -0.237 OA
ATOM     74  O   UNL A   1      44.097  27.699  26.003  1.00  0.00    -0.744 OA
ENDBRANCH  68  71
ENDBRANCH  50  64
BRANCH  51  75
ATOM     75  C   UNL A   1      39.565  33.753  36.956  1.00  0.00     0.023 A 
ATOM     76  C   UNL A   1      39.943  35.103  36.821  1.00  0.00     0.012 A 
ATOM     77  C   UNL A   1      38.972  33.322  38.159  1.00  0.00     0.148 A 
ATOM     78  C   UNL A   1      39.752  36.004  37.869  1.00  0.00     0.002 A 
ATOM     79  C   UNL A   1      38.733  34.238  39.179  1.00  0.00     0.091 A 
ATOM     80  F   UNL A   1      38.631  32.032  38.272  1.00  0.00    -0.205 F 
ATOM     81  C   UNL A   1      39.137  35.576  39.043  1.00  0.00     0.022 A 
BRANCH  79  82
ATOM     82  S   UNL A   1      37.820  33.811  40.667  1.00  0.00     0.127 S 
ATOM     83  O   UNL A   1      38.763  32.931  41.353  1.00  0.00    -0.237 OA
ATOM     84  O   UNL A   1      37.634  35.122  41.290  1.00  0.00    -0.237 OA
ATOM     85  O   UNL A   1      36.590  33.181  40.208  1.00  0.00    -0.744 OA
ENDBRANCH  79  82
ENDBRANCH  51  75
BRANCH  63  86
ATOM     86  C   UNL A   1      44.287  28.832  35.371  1.00  0.00     0.023 A 
ATOM     87  C   UNL A   1      45.548  29.438  35.204  1.00  0.00     0.012 A 
ATOM     88  C   UNL A   1      44.138  27.795  36.315  1.00  0.00     0.148 A 
ATOM     89  C   UNL A   1      46.646  29.009  35.950  1.00  0.00     0.002 A 
ATOM     90  C   UNL A   1      45.223  27.408  37.091  1.00  0.00     0.091 A 
ATOM     91  F   UNL A   1      42.932  27.223  36.448  1.00  0.00    -0.205 F 
ATOM     92  C   UNL A   1      46.479  28.006  36.902  1.00  0.00     0.022 A 
BRANCH  90  93
ATOM     93  S   UNL A   1      45.084  26.205  38.418  1.00  0.00     0.127 S 
ATOM     94  O   UNL A   1      46.452  26.171  38.933  1.00  0.00    -0.237 OA
ATOM     95  O   UNL A   1      44.113  26.839  39.310  1.00  0.00    -0.237 OA
ATOM     96  O   UNL A   1      44.622  24.971  37.797  1.00  0.00    -0.744 OA
ENDBRANCH  90  93
ENDBRANCH  63  86
ENDBRANCH  37  38
ENDBRANCH  29  32
ENDBRANCH  27  28
ENDBRANCH  26  27
ENDBRANCH   1  26
TORSDOF 17
ENDMDL
MODEL 2
REMARK VINA RESULT:     -11.8      2.034      8.041
REMARK SMILES Cc1cc2c(c(C)c1Br)C=C(C(=O)NCCCCCCNC(=O)c1ccc(-c3c4nc(c(-c5cccc(S(=O)(=O)[O-])c5F)c5ccc([nH]5)c(-c5cccc(S(=O)(=O)[O-])c5F)c5nc(c(-c6cccc(S(=O)(=O)[O-])c6F)c6ccc3[nH]6)C=C5)C=C4)cc1)[C@@H](C(F)(F)F)O2
REMARK SMILES IDX 18 1 17 2 16 3 15 4 14 5 12 6 13 7 11 9 1 10 2 11 3 12 8 13
REMARK SMILES IDX 4 14 6 15 9 16 5 17 92 18 7 19 10 20 87 21 88 22 89 23 90 24
REMARK SMILES IDX 91 25 19 26 20 27 21 28 22 29 23 31 24 32 25 33 86 34 26 35
REMARK SMILES IDX 85 36 27 37 28 38 29 39 79 40 30 41 84 42 78 43 80 44 31 45
REMARK SMILES IDX 83 46 77 47 76 48 32 50 64 51 44 52 63 53 45 54 48 55 62 56
REMARK SMILES IDX 81 57 46 58 47 59 61 61 82 62 49 63 33 64 34 65 42 66 35 67
REMARK SMILES IDX 37 68 43 69 36 70 38 71 39 72 40 73 41 74 65 75 66 76 74 77
REMARK SMILES IDX 67 78 69 79 75 80 68 81 70 82 71 83 72 84 73 85 50 86 51 87
REMARK SMILES IDX 59 88 52 89 54 90 60 91 53 92 55 93 56 94 57 95 58 96
REMARK H PARENT 14 8 21 30 80 49 48 60
REMARK Flexibility Score: inf
ROOT
ATOM      1  C   UNL A   1      35.621  32.754  27.949  1.00  0.00     0.002 C 
ENDROOT
BRANCH   1   2
ATOM      2  C   UNL A   1      35.003  31.515  28.610  1.00  0.00     0.002 C 
BRANCH   2   3
ATOM      3  C   UNL A   1      34.883  30.287  27.702  1.00  0.00     0.021 C 
BRANCH   3   4
ATOM      4  C   UNL A   1      33.589  30.246  26.897  1.00  0.00     0.116 C 
BRANCH   4   5
ATOM      5  N   UNL A   1      32.563  29.471  27.572  1.00  0.00    -0.352 N 
ATOM      6  C   UNL A   1      31.844  28.351  27.323  1.00  0.00     0.251 C 
ATOM      7  O   UNL A   1      31.056  28.025  28.217  1.00  0.00    -0.270 OA
ATOM      8  H   UNL A   1      32.327  29.864  28.443  1.00  0.00     0.163 HD
BRANCH   6   9
ATOM      9  C   UNL A   1      31.944  27.519  26.086  1.00  0.00     0.067 C 
ATOM     10  C   UNL A   1      33.326  23.279  21.345  1.00  0.00     0.046 C 
ATOM     11  C   UNL A   1      33.293  24.100  22.606  1.00  0.00    -0.033 A 
ATOM     12  C   UNL A   1      32.228  24.987  22.774  1.00  0.00     0.051 A 
ATOM     13  C   UNL A   1      34.290  24.039  23.604  1.00  0.00     0.024 A 
ATOM     14  C   UNL A   1      32.146  25.791  23.904  1.00  0.00     0.128 A 
ATOM     15  C   UNL A   1      34.209  24.842  24.771  1.00  0.00    -0.026 A 
ATOM     16  Br  UNL A   1      35.758  22.839  23.337  1.00  0.00    -0.050 Br
ATOM     17  C   UNL A   1      33.111  25.728  24.912  1.00  0.00     0.021 A 
ATOM     18  O   UNL A   1      31.047  26.592  23.956  1.00  0.00    -0.475 OA
ATOM     19  C   UNL A   1      35.251  24.792  25.865  1.00  0.00     0.046 C 
ATOM     20  C   UNL A   1      32.903  26.573  26.093  1.00  0.00     0.026 C 
ATOM     21  C   UNL A   1      31.087  27.713  24.870  1.00  0.00     0.314 C 
BRANCH  21  22
ATOM     22  C   UNL A   1      31.435  28.995  24.093  1.00  0.00     0.429 C 
ATOM     23  F   UNL A   1      30.936  30.084  24.723  1.00  0.00    -0.167 F 
ATOM     24  F   UNL A   1      32.771  29.190  23.985  1.00  0.00    -0.167 F 
ATOM     25  F   UNL A   1      30.940  28.983  22.835  1.00  0.00    -0.167 F 
ENDBRANCH  21  22
ENDBRANCH   6   9
ENDBRANCH   4   5
ENDBRANCH   3   4
ENDBRANCH   2   3
ENDBRANCH   1   2
BRANCH   1  26
ATOM     26  C   UNL A   1      34.743  34.010  27.965  1.00  0.00     0.021 C 
BRANCH  26  27
ATOM     27  C   UNL A   1      33.329  33.784  28.484  1.00  0.00     0.116 C 
BRANCH  27  28
ATOM     28  N   UNL A   1      32.929  34.817  29.427  1.00  0.00    -0.352 N 
ATOM     29  C   UNL A   1      33.372  35.034  30.706  1.00  0.00     0.251 C 
ATOM     30  H   UNL A   1      32.245  35.446  29.102  1.00  0.00     0.163 HD
ATOM     31  O   UNL A   1      32.772  35.813  31.442  1.00  0.00    -0.269 OA
BRANCH  29  32
ATOM     32  C   UNL A   1      34.567  34.319  31.191  1.00  0.00     0.039 A 
ATOM     33  C   UNL A   1      34.408  33.098  31.850  1.00  0.00     0.014 A 
ATOM     34  C   UNL A   1      35.843  34.858  30.995  1.00  0.00     0.014 A 
ATOM     35  C   UNL A   1      35.536  32.393  32.274  1.00  0.00     0.010 A 
ATOM     36  C   UNL A   1      36.966  34.120  31.352  1.00  0.00     0.010 A 
ATOM     37  C   UNL A   1      36.823  32.889  32.009  1.00  0.00    -0.014 A 
BRANCH  37  38
ATOM     38  C   UNL A   1      38.031  32.139  32.430  1.00  0.00     0.031 A 
ATOM     39  C   UNL A   1      38.707  32.471  33.733  1.00  0.00     0.074 A 
ATOM     40  C   UNL A   1      38.548  31.197  31.617  1.00  0.00     0.049 A 
ATOM     41  N   UNL A   1      39.777  31.938  34.262  1.00  0.00    -0.248 NA
ATOM     42  C   UNL A   1      38.118  33.555  34.536  1.00  0.00     0.031 C 
ATOM     43  C   UNL A   1      38.018  30.836  30.301  1.00  0.00     0.029 A 
ATOM     44  N   UNL A   1      39.642  30.382  31.769  1.00  0.00    -0.354 N 
ATOM     45  C   UNL A   1      39.999  32.632  35.445  1.00  0.00     0.074 A 
ATOM     46  C   UNL A   1      38.984  33.657  35.533  1.00  0.00     0.031 C 
ATOM     47  C   UNL A   1      38.774  29.858  29.776  1.00  0.00     0.029 A 
ATOM     48  C   UNL A   1      39.858  29.542  30.702  1.00  0.00     0.049 A 
ATOM     49  H   UNL A   1      40.217  30.397  32.568  1.00  0.00     0.167 HD
ATOM     50  C   UNL A   1      40.939  32.409  36.393  1.00  0.00     0.034 A 
ATOM     51  C   UNL A   1      40.818  28.619  30.495  1.00  0.00     0.034 A 
ATOM     52  C   UNL A   1      41.919  31.361  36.319  1.00  0.00     0.049 A 
ATOM     53  C   UNL A   1      41.845  28.383  31.570  1.00  0.00     0.074 A 
ATOM     54  C   UNL A   1      42.871  31.009  37.259  1.00  0.00     0.029 A 
ATOM     55  N   UNL A   1      42.075  30.496  35.246  1.00  0.00    -0.354 N 
ATOM     56  N   UNL A   1      41.952  28.952  32.747  1.00  0.00    -0.248 NA
ATOM     57  C   UNL A   1      42.865  27.357  31.305  1.00  0.00     0.031 C 
ATOM     58  C   UNL A   1      43.619  29.947  36.743  1.00  0.00     0.029 A 
ATOM     59  C   UNL A   1      43.116  29.620  35.494  1.00  0.00     0.049 A 
ATOM     60  H   UNL A   1      41.527  30.506  34.428  1.00  0.00     0.167 HD
ATOM     61  C   UNL A   1      43.029  28.336  33.374  1.00  0.00     0.074 A 
ATOM     62  C   UNL A   1      43.527  27.331  32.456  1.00  0.00     0.031 C 
ATOM     63  C   UNL A   1      43.569  28.591  34.591  1.00  0.00     0.034 A 
BRANCH  50  64
ATOM     64  C   UNL A   1      40.911  33.269  37.630  1.00  0.00     0.023 A 
ATOM     65  C   UNL A   1      41.802  34.358  37.733  1.00  0.00     0.012 A 
ATOM     66  C   UNL A   1      39.957  33.059  38.644  1.00  0.00     0.148 A 
ATOM     67  C   UNL A   1      41.763  35.207  38.838  1.00  0.00     0.002 A 
ATOM     68  C   UNL A   1      39.893  33.939  39.719  1.00  0.00     0.091 A 
ATOM     69  F   UNL A   1      39.131  32.009  38.538  1.00  0.00    -0.205 F 
ATOM     70  C   UNL A   1      40.801  35.005  39.823  1.00  0.00     0.022 A 
BRANCH  68  71
ATOM     71  S   UNL A   1      38.637  33.821  41.000  1.00  0.00     0.127 S 
ATOM     72  O   UNL A   1      37.413  33.742  40.206  1.00  0.00    -0.237 OA
ATOM     73  O   UNL A   1      39.007  32.576  41.676  1.00  0.00    -0.237 OA
ATOM     74  O   UNL A   1      38.776  35.021  41.812  1.00  0.00    -0.744 OA
ENDBRANCH  68  71
ENDBRANCH  50  64
BRANCH  51  75
ATOM     75  C   UNL A   1      40.795  27.793  29.253  1.00  0.00     0.023 A 
ATOM     76  C   UNL A   1      39.820  26.786  29.117  1.00  0.00     0.012 A 
ATOM     77  C   UNL A   1      41.687  28.034  28.190  1.00  0.00     0.148 A 
ATOM     78  C   UNL A   1      39.746  26.019  27.954  1.00  0.00     0.002 A 
ATOM     79  C   UNL A   1      41.571  27.304  27.011  1.00  0.00     0.091 A 
ATOM     80  F   UNL A   1      42.614  28.989  28.343  1.00  0.00    -0.205 F 
ATOM     81  C   UNL A   1      40.612  26.285  26.897  1.00  0.00     0.022 A 
BRANCH  79  82
ATOM     82  S   UNL A   1      42.547  27.671  25.548  1.00  0.00     0.127 S 
ATOM     83  O   UNL A   1      42.291  26.498  24.716  1.00  0.00    -0.237 OA
ATOM     84  O   UNL A   1      41.925  28.909  25.076  1.00  0.00    -0.237 OA
ATOM     85  O   UNL A   1      43.917  27.826  26.015  1.00  0.00    -0.744 OA
ENDBRANCH  79  82
ENDBRANCH  51  75
BRANCH  63  86
ATOM     86  C   UNL A   1      44.759  27.775  35.025  1.00  0.00     0.023 A 
ATOM     87  C   UNL A   1      46.058  28.281  34.826  1.00  0.00     0.012 A 
ATOM     88  C   UNL A   1      44.587  26.573  35.742  1.00  0.00     0.148 A 
ATOM     89  C   UNL A   1      47.169  27.596  35.316  1.00  0.00     0.002 A 
ATOM     90  C   UNL A   1      45.694  25.922  36.272  1.00  0.00     0.091 A 
ATOM     91  F   UNL A   1      43.342  26.101  35.908  1.00  0.00    -0.205 F 
ATOM     92  C   UNL A   1      46.986  26.427  36.050  1.00  0.00     0.022 A 
BRANCH  90  93
ATOM     93  S   UNL A   1      45.554  24.473  37.324  1.00  0.00     0.127 S 
ATOM     94  O   UNL A   1      44.979  23.492  36.404  1.00  0.00    -0.237 OA
ATOM     95  O   UNL A   1      46.947  24.222  37.691  1.00  0.00    -0.237 OA
ATOM     96  O   UNL A   1      44.695  24.862  38.434  1.00  0.00    -0.744 OA
ENDBRANCH  90  93
ENDBRANCH  63  86
ENDBRANCH  37  38
ENDBRANCH  29  32
ENDBRANCH  27  28
ENDBRANCH  26  27
ENDBRANCH   1  26
TORSDOF 17
ENDMDL
MODEL 3
REMARK VINA RESULT:     -11.8      1.092      7.764
REMARK SMILES Cc1cc2c(c(C)c1Br)C=C(C(=O)NCCCCCCNC(=O)c1ccc(-c3c4nc(c(-c5cccc(S(=O)(=O)[O-])c5F)c5ccc([nH]5)c(-c5cccc(S(=O)(=O)[O-])c5F)c5nc(c(-c6cccc(S(=O)(=O)[O-])c6F)c6ccc3[nH]6)C=C5)C=C4)cc1)[C@@H](C(F)(F)F)O2
REMARK SMILES IDX 18 1 17 2 16 3 15 4 14 5 12 6 13 7 11 9 1 10 2 11 3 12 8 13
REMARK SMILES IDX 4 14 6 15 9 16 5 17 92 18 7 19 10 20 87 21 88 22 89 23 90 24
REMARK SMILES IDX 91 25 19 26 20 27 21 28 22 29 23 31 24 32 25 33 86 34 26 35
REMARK SMILES IDX 85 36 27 37 28 38 29 39 79 40 30 41 84 42 78 43 80 44 31 45
REMARK SMILES IDX 83 46 77 47 76 48 32 50 64 51 44 52 63 53 45 54 48 55 62 56
REMARK SMILES IDX 81 57 46 58 47 59 61 61 82 62 49 63 33 64 34 65 42 66 35 67
REMARK SMILES IDX 37 68 43 69 36 70 38 71 39 72 40 73 41 74 65 75 66 76 74 77
REMARK SMILES IDX 67 78 69 79 75 80 68 81 70 82 71 83 72 84 73 85 50 86 51 87
REMARK SMILES IDX 59 88 52 89 54 90 60 91 53 92 55 93 56 94 57 95 58 96
REMARK H PARENT 14 8 21 30 80 49 48 60
REMARK Flexibility Score: inf
ROOT
ATOM      1  C   UNL A   1      31.251  31.098  26.571  1.00  0.00     0.002 C 
ENDROOT
BRANCH   1   2
ATOM      2  C   UNL A   1      32.494  30.267  26.918  1.00  0.00     0.002 C 
BRANCH   2   3
ATOM      3  C   UNL A   1      32.220  28.797  27.246  1.00  0.00     0.021 C 
BRANCH   3   4
ATOM      4  C   UNL A   1      33.353  27.859  26.844  1.00  0.00     0.116 C 
BRANCH   4   5
ATOM      5  N   UNL A   1      33.623  27.926  25.418  1.00  0.00    -0.352 N 
ATOM      6  C   UNL A   1      33.689  27.058  24.382  1.00  0.00     0.251 C 
ATOM      7  O   UNL A   1      33.945  27.569  23.286  1.00  0.00    -0.270 OA
ATOM      8  H   UNL A   1      33.806  28.848  25.128  1.00  0.00     0.163 HD
BRANCH   6   9
ATOM      9  C   UNL A   1      33.479  25.582  24.477  1.00  0.00     0.067 C 
ATOM     10  C   UNL A   1      33.856  19.110  25.061  1.00  0.00     0.046 C 
ATOM     11  C   UNL A   1      34.135  20.585  24.945  1.00  0.00    -0.033 A 
ATOM     12  C   UNL A   1      33.041  21.453  24.948  1.00  0.00     0.051 A 
ATOM     13  C   UNL A   1      35.431  21.125  24.807  1.00  0.00     0.024 A 
ATOM     14  C   UNL A   1      33.224  22.824  24.823  1.00  0.00     0.128 A 
ATOM     15  C   UNL A   1      35.633  22.526  24.696  1.00  0.00    -0.026 A 
ATOM     16  Br  UNL A   1      36.913  19.914  24.773  1.00  0.00    -0.050 Br
ATOM     17  C   UNL A   1      34.501  23.379  24.709  1.00  0.00     0.021 A 
ATOM     18  O   UNL A   1      32.079  23.559  24.865  1.00  0.00    -0.475 OA
ATOM     19  C   UNL A   1      37.007  23.140  24.561  1.00  0.00     0.046 C 
ATOM     20  C   UNL A   1      34.592  24.842  24.643  1.00  0.00     0.026 C 
ATOM     21  C   UNL A   1      32.142  24.913  24.357  1.00  0.00     0.314 C 
BRANCH  21  22
ATOM     22  C   UNL A   1      31.584  24.947  22.923  1.00  0.00     0.429 C 
ATOM     23  F   UNL A   1      30.642  23.988  22.756  1.00  0.00    -0.167 F 
ATOM     24  F   UNL A   1      30.990  26.127  22.626  1.00  0.00    -0.167 F 
ATOM     25  F   UNL A   1      32.546  24.748  21.993  1.00  0.00    -0.167 F 
ENDBRANCH  21  22
ENDBRANCH   6   9
ENDBRANCH   4   5
ENDBRANCH   3   4
ENDBRANCH   2   3
ENDBRANCH   1   2
BRANCH   1  26
ATOM     26  C   UNL A   1      31.429  32.616  26.674  1.00  0.00     0.021 C 
BRANCH  26  27
ATOM     27  C   UNL A   1      32.726  33.054  27.341  1.00  0.00     0.116 C 
BRANCH  27  28
ATOM     28  N   UNL A   1      32.617  34.388  27.909  1.00  0.00    -0.352 N 
ATOM     29  C   UNL A   1      33.282  34.925  28.981  1.00  0.00     0.251 C 
ATOM     30  H   UNL A   1      31.975  34.987  27.464  1.00  0.00     0.163 HD
ATOM     31  O   UNL A   1      32.912  35.992  29.465  1.00  0.00    -0.269 OA
BRANCH  29  32
ATOM     32  C   UNL A   1      34.439  34.209  29.551  1.00  0.00     0.039 A 
ATOM     33  C   UNL A   1      35.713  34.460  29.038  1.00  0.00     0.014 A 
ATOM     34  C   UNL A   1      34.261  33.289  30.590  1.00  0.00     0.014 A 
ATOM     35  C   UNL A   1      36.818  33.819  29.601  1.00  0.00     0.010 A 
ATOM     36  C   UNL A   1      35.369  32.709  31.196  1.00  0.00     0.010 A 
ATOM     37  C   UNL A   1      36.657  32.956  30.697  1.00  0.00    -0.014 A 
BRANCH  37  38
ATOM     38  C   UNL A   1      37.825  32.288  31.322  1.00  0.00     0.031 A 
ATOM     39  C   UNL A   1      38.365  32.790  32.633  1.00  0.00     0.074 A 
ATOM     40  C   UNL A   1      38.428  31.266  30.684  1.00  0.00     0.049 A 
ATOM     41  N   UNL A   1      39.383  32.348  33.325  1.00  0.00    -0.248 NA
ATOM     42  C   UNL A   1      37.690  33.951  33.237  1.00  0.00     0.031 C 
ATOM     43  C   UNL A   1      38.032  30.737  29.378  1.00  0.00     0.029 A 
ATOM     44  N   UNL A   1      39.508  30.499  31.040  1.00  0.00    -0.354 N 
ATOM     45  C   UNL A   1      39.481  33.185  34.429  1.00  0.00     0.074 A 
ATOM     46  C   UNL A   1      38.453  34.192  34.292  1.00  0.00     0.031 C 
ATOM     47  C   UNL A   1      38.846  29.718  29.052  1.00  0.00     0.029 A 
ATOM     48  C   UNL A   1      39.837  29.541  30.110  1.00  0.00     0.049 A 
ATOM     49  H   UNL A   1      40.003  30.623  31.883  1.00  0.00     0.167 HD
ATOM     50  C   UNL A   1      40.325  33.099  35.484  1.00  0.00     0.034 A 
ATOM     51  C   UNL A   1      40.821  28.620  30.112  1.00  0.00     0.034 A 
ATOM     52  C   UNL A   1      41.317  32.070  35.634  1.00  0.00     0.049 A 
ATOM     53  C   UNL A   1      41.739  28.538  31.302  1.00  0.00     0.074 A 
ATOM     54  C   UNL A   1      42.175  31.855  36.698  1.00  0.00     0.029 A 
ATOM     55  N   UNL A   1      41.587  31.086  34.695  1.00  0.00    -0.354 N 
ATOM     56  N   UNL A   1      41.725  29.248  32.404  1.00  0.00    -0.248 NA
ATOM     57  C   UNL A   1      42.789  27.510  31.265  1.00  0.00     0.031 C 
ATOM     58  C   UNL A   1      42.981  30.756  36.391  1.00  0.00     0.029 A 
ATOM     59  C   UNL A   1      42.606  30.268  35.149  1.00  0.00     0.049 A 
ATOM     60  H   UNL A   1      41.122  30.985  33.834  1.00  0.00     0.167 HD
ATOM     61  C   UNL A   1      42.741  28.735  33.204  1.00  0.00     0.074 A 
ATOM     62  C   UNL A   1      43.336  27.638  32.468  1.00  0.00     0.031 C 
ATOM     63  C   UNL A   1      43.156  29.147  34.427  1.00  0.00     0.034 A 
BRANCH  50  64
ATOM     64  C   UNL A   1      40.168  34.102  36.597  1.00  0.00     0.023 A 
ATOM     65  C   UNL A   1      40.488  35.454  36.357  1.00  0.00     0.012 A 
ATOM     66  C   UNL A   1      39.627  33.730  37.844  1.00  0.00     0.148 A 
ATOM     67  C   UNL A   1      40.299  36.416  37.348  1.00  0.00     0.002 A 
ATOM     68  C   UNL A   1      39.397  34.704  38.809  1.00  0.00     0.091 A 
ATOM     69  F   UNL A   1      39.347  32.438  38.059  1.00  0.00    -0.205 F 
ATOM     70  C   UNL A   1      39.742  36.044  38.567  1.00  0.00     0.022 A 
BRANCH  68  71
ATOM     71  S   UNL A   1      38.605  34.346  40.382  1.00  0.00     0.127 S 
ATOM     72  O   UNL A   1      38.346  35.690  40.895  1.00  0.00    -0.237 OA
ATOM     73  O   UNL A   1      37.411  33.611  39.963  1.00  0.00    -0.237 OA
ATOM     74  O   UNL A   1      39.566  33.563  41.148  1.00  0.00    -0.744 OA
ENDBRANCH  68  71
ENDBRANCH  50  64
BRANCH  51  75
ATOM     75  C   UNL A   1      40.928  27.650  28.984  1.00  0.00     0.023 A 
ATOM     76  C   UNL A   1      40.054  26.546  28.944  1.00  0.00     0.012 A 
ATOM     77  C   UNL A   1      41.842  27.840  27.930  1.00  0.00     0.148 A 
ATOM     78  C   UNL A   1      40.101  25.638  27.885  1.00  0.00     0.002 A 
ATOM     79  C   UNL A   1      41.845  26.964  26.850  1.00  0.00     0.091 A 
ATOM     80  F   UNL A   1      42.673  28.890  27.993  1.00  0.00    -0.205 F 
ATOM     81  C   UNL A   1      40.987  25.853  26.833  1.00  0.00     0.022 A 
BRANCH  79  82
ATOM     82  S   UNL A   1      42.849  27.239  25.385  1.00  0.00     0.127 S 
ATOM     83  O   UNL A   1      42.644  25.996  24.645  1.00  0.00    -0.237 OA
ATOM     84  O   UNL A   1      42.210  28.418  24.801  1.00  0.00    -0.237 OA
ATOM     85  O   UNL A   1      44.203  27.466  25.872  1.00  0.00    -0.744 OA
ENDBRANCH  79  82
ENDBRANCH  51  75
BRANCH  63  86
ATOM     86  C   UNL A   1      44.304  28.415  35.070  1.00  0.00     0.023 A 
ATOM     87  C   UNL A   1      45.627  28.798  34.771  1.00  0.00     0.012 A 
ATOM     88  C   UNL A   1      44.074  27.441  36.063  1.00  0.00     0.148 A 
ATOM     89  C   UNL A   1      46.703  28.210  35.435  1.00  0.00     0.002 A 
ATOM     90  C   UNL A   1      45.147  26.897  36.757  1.00  0.00     0.091 A 
ATOM     91  F   UNL A   1      42.808  27.081  36.323  1.00  0.00    -0.205 F 
ATOM     92  C   UNL A   1      46.462  27.272  36.435  1.00  0.00     0.022 A 
BRANCH  90  93
ATOM     93  S   UNL A   1      44.936  25.767  38.137  1.00  0.00     0.127 S 
ATOM     94  O   UNL A   1      46.276  25.758  38.722  1.00  0.00    -0.237 OA
ATOM     95  O   UNL A   1      43.924  26.449  38.943  1.00  0.00    -0.237 OA
ATOM     96  O   UNL A   1      44.501  24.502  37.560  1.00  0.00    -0.744 OA
ENDBRANCH  90  93
ENDBRANCH  63  86
ENDBRANCH  37  38
ENDBRANCH  29  32
ENDBRANCH  27  28
ENDBRANCH  26  27
ENDBRANCH   1  26
TORSDOF 17
ENDMDL
