MODEL 1
REMARK VINA RESULT:     -11.3      0.000      0.000
REMARK SMILES CC1(C)C(C(=O)N2CCOC[C@H]2C(=O)NCCCCCCNC(=O)c2ccc(-c3c4nc(c(-c5cccc(S(=O)(=O)[O-])c5F)c5ccc([nH]5)c(-c5cccc(S(=O)(=O)[O-])c5F)c5nc(c(-c6cccc(S(=O)(=O)[O-])c6F)c6ccc3[nH]6)C=C5)C=C4)cc2)C1(C)C
REMARK SMILES IDX 19 1 18 2 17 3 16 4 15 5 13 6 14 7 12 9 7 10 8 11 9 12 11 13
REMARK SMILES IDX 10 14 5 15 6 16 4 17 1 18 2 19 3 20 88 21 89 22 90 23 20 24
REMARK SMILES IDX 21 25 22 26 23 27 24 29 25 30 26 31 87 32 27 33 86 34 28 35
REMARK SMILES IDX 29 36 30 37 80 38 31 39 85 40 79 41 81 42 32 43 84 44 78 45
REMARK SMILES IDX 77 46 33 48 65 49 45 50 64 51 46 52 49 53 63 54 82 55 47 56
REMARK SMILES IDX 48 57 62 59 83 60 50 61 34 62 35 63 43 64 36 65 38 66 44 67
REMARK SMILES IDX 37 68 39 69 40 70 41 71 42 72 66 73 67 74 75 75 68 76 70 77
REMARK SMILES IDX 76 78 69 79 71 80 72 81 73 82 74 83 51 84 52 85 60 86 53 87
REMARK SMILES IDX 55 88 61 89 54 90 56 91 57 92 58 93 59 94
REMARK H PARENT 15 8 22 28 81 47 49 58
REMARK Flexibility Score: inf
ROOT
ATOM      1  C   UNL A   1      31.819  29.510  25.186  1.00  0.00     0.002 C 
ENDROOT
BRANCH   1   2
ATOM      2  C   UNL A   1      30.736  29.113  24.178  1.00  0.00     0.002 C 
BRANCH   2   3
ATOM      3  C   UNL A   1      31.256  28.741  22.789  1.00  0.00     0.021 C 
BRANCH   3   4
ATOM      4  C   UNL A   1      30.809  27.352  22.324  1.00  0.00     0.116 C 
BRANCH   4   5
ATOM      5  N   UNL A   1      31.812  26.700  21.498  1.00  0.00    -0.354 N 
ATOM      6  C   UNL A   1      32.410  25.482  21.489  1.00  0.00     0.245 C 
ATOM      7  O   UNL A   1      33.186  25.307  20.536  1.00  0.00    -0.273 OA
ATOM      8  H   UNL A   1      32.135  27.282  20.773  1.00  0.00     0.163 HD
BRANCH   6   9
ATOM      9  C   UNL A   1      32.253  24.370  22.561  1.00  0.00     0.200 C 
ATOM     10  N   UNL A   1      33.240  24.373  23.660  1.00  0.00    -0.326 N 
ATOM     11  C   UNL A   1      32.908  25.281  24.731  1.00  0.00     0.149 C 
ATOM     12  C   UNL A   1      31.489  25.011  25.258  1.00  0.00     0.181 C 
ATOM     13  C   UNL A   1      30.844  24.141  23.118  1.00  0.00     0.195 C 
ATOM     14  O   UNL A   1      30.504  25.000  24.214  1.00  0.00    -0.377 OA
BRANCH  10  15
ATOM     15  C   UNL A   1      34.288  23.465  23.604  1.00  0.00     0.227 C 
ATOM     16  O   UNL A   1      35.339  23.768  23.057  1.00  0.00    -0.275 OA
BRANCH  15  17
ATOM     17  C   UNL A   1      34.237  22.062  24.135  1.00  0.00     0.091 C 
ATOM     18  C   UNL A   1      34.480  19.580  24.799  1.00  0.00     0.012 C 
ATOM     19  C   UNL A   1      35.067  20.993  24.843  1.00  0.00    -0.017 C 
ATOM     20  C   UNL A   1      36.571  20.892  24.849  1.00  0.00     0.012 C 
ATOM     21  C   UNL A   1      34.338  22.029  25.691  1.00  0.00    -0.017 C 
ATOM     22  C   UNL A   1      33.104  21.651  26.476  1.00  0.00     0.012 C 
ATOM     23  C   UNL A   1      35.106  23.129  26.400  1.00  0.00     0.012 C 
ENDBRANCH  15  17
ENDBRANCH  10  15
ENDBRANCH   6   9
ENDBRANCH   4   5
ENDBRANCH   3   4
ENDBRANCH   2   3
ENDBRANCH   1   2
BRANCH   1  24
ATOM     24  C   UNL A   1      32.972  28.515  25.353  1.00  0.00     0.021 C 
BRANCH  24  25
ATOM     25  C   UNL A   1      34.174  29.031  26.143  1.00  0.00     0.116 C 
BRANCH  25  26
ATOM     26  N   UNL A   1      33.888  30.288  26.819  1.00  0.00    -0.352 N 
ATOM     27  C   UNL A   1      34.526  30.896  27.867  1.00  0.00     0.251 C 
ATOM     28  H   UNL A   1      33.112  30.779  26.466  1.00  0.00     0.163 HD
ATOM     29  O   UNL A   1      33.990  31.849  28.428  1.00  0.00    -0.269 OA
BRANCH  27  30
ATOM     30  C   UNL A   1      35.847  30.418  28.330  1.00  0.00     0.039 A 
ATOM     31  C   UNL A   1      35.912  29.640  29.489  1.00  0.00     0.014 A 
ATOM     32  C   UNL A   1      37.022  30.778  27.663  1.00  0.00     0.014 A 
ATOM     33  C   UNL A   1      37.149  29.189  29.955  1.00  0.00     0.010 A 
ATOM     34  C   UNL A   1      38.248  30.273  28.091  1.00  0.00     0.010 A 
ATOM     35  C   UNL A   1      38.326  29.484  29.247  1.00  0.00    -0.014 A 
BRANCH  35  36
ATOM     36  C   UNL A   1      39.639  28.961  29.705  1.00  0.00     0.031 A 
ATOM     37  C   UNL A   1      40.391  29.642  30.816  1.00  0.00     0.074 A 
ATOM     38  C   UNL A   1      40.187  27.908  29.067  1.00  0.00     0.049 A 
ATOM     39  N   UNL A   1      41.546  29.327  31.342  1.00  0.00    -0.248 NA
ATOM     40  C   UNL A   1      39.780  30.850  31.396  1.00  0.00     0.031 C 
ATOM     41  C   UNL A   1      39.601  27.220  27.915  1.00  0.00     0.029 A 
ATOM     42  N   UNL A   1      41.369  27.246  29.284  1.00  0.00    -0.354 N 
ATOM     43  C   UNL A   1      41.816  30.308  32.288  1.00  0.00     0.074 A 
ATOM     44  C   UNL A   1      40.719  31.251  32.241  1.00  0.00     0.031 C 
ATOM     45  C   UNL A   1      40.421  26.229  27.531  1.00  0.00     0.029 A 
ATOM     46  C   UNL A   1      41.597  26.221  28.395  1.00  0.00     0.049 A 
ATOM     47  H   UNL A   1      41.995  27.482  30.006  1.00  0.00     0.167 HD
ATOM     48  C   UNL A   1      42.863  30.400  33.142  1.00  0.00     0.034 A 
ATOM     49  C   UNL A   1      42.634  25.366  28.291  1.00  0.00     0.034 A 
ATOM     50  C   UNL A   1      43.926  29.433  33.221  1.00  0.00     0.049 A 
ATOM     51  C   UNL A   1      43.749  25.448  29.297  1.00  0.00     0.074 A 
ATOM     52  C   UNL A   1      44.980  29.382  34.116  1.00  0.00     0.029 A 
ATOM     53  N   UNL A   1      44.074  28.350  32.369  1.00  0.00    -0.354 N 
ATOM     54  N   UNL A   1      43.896  26.278  30.300  1.00  0.00    -0.248 NA
ATOM     55  C   UNL A   1      44.820  24.447  29.182  1.00  0.00     0.031 C 
ATOM     56  C   UNL A   1      45.773  28.275  33.795  1.00  0.00     0.029 A 
ATOM     57  C   UNL A   1      45.204  27.627  32.711  1.00  0.00     0.049 A 
ATOM     58  H   UNL A   1      43.464  28.127  31.629  1.00  0.00     0.167 HD
ATOM     59  C   UNL A   1      45.057  25.884  30.954  1.00  0.00     0.074 A 
ATOM     60  C   UNL A   1      45.559  24.722  30.249  1.00  0.00     0.031 C 
ATOM     61  C   UNL A   1      45.665  26.444  32.029  1.00  0.00     0.034 A 
BRANCH  48  62
ATOM     62  C   UNL A   1      42.879  31.555  34.110  1.00  0.00     0.023 A 
ATOM     63  C   UNL A   1      43.419  32.792  33.702  1.00  0.00     0.012 A 
ATOM     64  C   UNL A   1      42.310  31.441  35.394  1.00  0.00     0.148 A 
ATOM     65  C   UNL A   1      43.425  33.887  34.565  1.00  0.00     0.002 A 
ATOM     66  C   UNL A   1      42.281  32.548  36.234  1.00  0.00     0.091 A 
ATOM     67  F   UNL A   1      41.821  30.251  35.774  1.00  0.00    -0.205 F 
ATOM     68  C   UNL A   1      42.847  33.767  35.826  1.00  0.00     0.022 A 
BRANCH  66  69
ATOM     69  S   UNL A   1      41.494  32.517  37.849  1.00  0.00     0.127 S 
ATOM     70  O   UNL A   1      40.132  32.110  37.506  1.00  0.00    -0.237 OA
ATOM     71  O   UNL A   1      42.275  31.500  38.555  1.00  0.00    -0.237 OA
ATOM     72  O   UNL A   1      41.630  33.863  38.386  1.00  0.00    -0.744 OA
ENDBRANCH  66  69
ENDBRANCH  48  62
BRANCH  49  73
ATOM     73  C   UNL A   1      42.617  24.306  27.244  1.00  0.00     0.023 A 
ATOM     74  C   UNL A   1      43.245  24.549  26.007  1.00  0.00     0.012 A 
ATOM     75  C   UNL A   1      42.025  23.051  27.480  1.00  0.00     0.148 A 
ATOM     76  C   UNL A   1      43.256  23.571  25.013  1.00  0.00     0.002 A 
ATOM     77  C   UNL A   1      42.089  22.062  26.506  1.00  0.00     0.091 A 
ATOM     78  F   UNL A   1      41.422  22.845  28.660  1.00  0.00    -0.205 F 
ATOM     79  C   UNL A   1      42.689  22.325  25.265  1.00  0.00     0.022 A 
BRANCH  77  80
ATOM     80  S   UNL A   1      41.506  20.388  26.800  1.00  0.00     0.127 S 
ATOM     81  O   UNL A   1      42.487  19.894  27.762  1.00  0.00    -0.237 OA
ATOM     82  O   UNL A   1      40.168  20.623  27.347  1.00  0.00    -0.237 OA
ATOM     83  O   UNL A   1      41.511  19.739  25.496  1.00  0.00    -0.744 OA
ENDBRANCH  77  80
ENDBRANCH  49  73
BRANCH  61  84
ATOM     84  C   UNL A   1      46.934  25.800  32.523  1.00  0.00     0.023 A 
ATOM     85  C   UNL A   1      48.170  26.173  31.958  1.00  0.00     0.012 A 
ATOM     86  C   UNL A   1      46.910  24.871  33.582  1.00  0.00     0.148 A 
ATOM     87  C   UNL A   1      49.359  25.606  32.416  1.00  0.00     0.002 A 
ATOM     88  C   UNL A   1      48.103  24.346  34.065  1.00  0.00     0.091 A 
ATOM     89  F   UNL A   1      45.723  24.512  34.093  1.00  0.00    -0.205 F 
ATOM     90  C   UNL A   1      49.327  24.702  33.475  1.00  0.00     0.022 A 
BRANCH  88  91
ATOM     91  S   UNL A   1      48.158  23.247  35.485  1.00  0.00     0.127 S 
ATOM     92  O   UNL A   1      47.437  22.078  34.987  1.00  0.00    -0.237 OA
ATOM     93  O   UNL A   1      49.596  23.044  35.669  1.00  0.00    -0.237 OA
ATOM     94  O   UNL A   1      47.511  23.971  36.571  1.00  0.00    -0.744 OA
ENDBRANCH  88  91
ENDBRANCH  61  84
ENDBRANCH  35  36
ENDBRANCH  27  30
ENDBRANCH  25  26
ENDBRANCH  24  25
ENDBRANCH   1  24
TORSDOF 18
ENDMDL
MODEL 2
REMARK VINA RESULT:     -11.2      5.191      8.645
REMARK SMILES CC1(C)C(C(=O)N2CCOC[C@H]2C(=O)NCCCCCCNC(=O)c2ccc(-c3c4nc(c(-c5cccc(S(=O)(=O)[O-])c5F)c5ccc([nH]5)c(-c5cccc(S(=O)(=O)[O-])c5F)c5nc(c(-c6cccc(S(=O)(=O)[O-])c6F)c6ccc3[nH]6)C=C5)C=C4)cc2)C1(C)C
REMARK SMILES IDX 19 1 18 2 17 3 16 4 15 5 13 6 14 7 12 9 7 10 8 11 9 12 11 13
REMARK SMILES IDX 10 14 5 15 6 16 4 17 1 18 2 19 3 20 88 21 89 22 90 23 20 24
REMARK SMILES IDX 21 25 22 26 23 27 24 29 25 30 26 31 87 32 27 33 86 34 28 35
REMARK SMILES IDX 29 36 30 37 80 38 31 39 85 40 79 41 81 42 32 43 84 44 78 45
REMARK SMILES IDX 77 46 33 48 65 49 45 50 64 51 46 52 49 53 63 54 82 55 47 56
REMARK SMILES IDX 48 57 62 59 83 60 50 61 34 62 35 63 43 64 36 65 38 66 44 67
REMARK SMILES IDX 37 68 39 69 40 70 41 71 42 72 66 73 67 74 75 75 68 76 70 77
REMARK SMILES IDX 76 78 69 79 71 80 72 81 73 82 74 83 51 84 52 85 60 86 53 87
REMARK SMILES IDX 55 88 61 89 54 90 56 91 57 92 58 93 59 94
REMARK H PARENT 15 8 22 28 81 47 49 58
REMARK Flexibility Score: inf
ROOT
ATOM      1  C   UNL A   1      36.031  20.431  24.867  1.00  0.00     0.002 C 
ENDROOT
BRANCH   1   2
ATOM      2  C   UNL A   1      35.927  21.604  25.848  1.00  0.00     0.002 C 
BRANCH   2   3
ATOM      3  C   UNL A   1      34.722  21.550  26.787  1.00  0.00     0.021 C 
BRANCH   3   4
ATOM      4  C   UNL A   1      33.392  21.329  26.059  1.00  0.00     0.116 C 
BRANCH   4   5
ATOM      5  N   UNL A   1      32.281  21.972  26.738  1.00  0.00    -0.354 N 
ATOM      6  C   UNL A   1      31.507  23.062  26.503  1.00  0.00     0.245 C 
ATOM      7  O   UNL A   1      30.593  23.220  27.327  1.00  0.00    -0.273 OA
ATOM      8  H   UNL A   1      32.029  21.506  27.568  1.00  0.00     0.163 HD
BRANCH   6   9
ATOM      9  C   UNL A   1      31.708  24.108  25.374  1.00  0.00     0.200 C 
ATOM     10  N   UNL A   1      32.577  25.259  25.691  1.00  0.00    -0.326 N 
ATOM     11  C   UNL A   1      33.984  24.986  25.519  1.00  0.00     0.149 C 
ATOM     12  C   UNL A   1      34.267  24.446  24.108  1.00  0.00     0.181 C 
ATOM     13  C   UNL A   1      32.040  23.565  23.980  1.00  0.00     0.195 C 
ATOM     14  O   UNL A   1      33.438  23.326  23.765  1.00  0.00    -0.377 OA
BRANCH  10  15
ATOM     15  C   UNL A   1      31.976  26.469  26.010  1.00  0.00     0.227 C 
ATOM     16  O   UNL A   1      31.785  26.776  27.178  1.00  0.00    -0.275 OA
BRANCH  15  17
ATOM     17  C   UNL A   1      31.468  27.465  25.008  1.00  0.00     0.091 C 
ATOM     18  C   UNL A   1      30.393  29.348  23.609  1.00  0.00     0.012 C 
ATOM     19  C   UNL A   1      31.392  28.959  24.702  1.00  0.00    -0.017 C 
ATOM     20  C   UNL A   1      31.469  30.079  25.708  1.00  0.00     0.012 C 
ATOM     21  C   UNL A   1      32.636  28.191  24.272  1.00  0.00    -0.017 C 
ATOM     22  C   UNL A   1      32.875  27.863  22.817  1.00  0.00     0.012 C 
ATOM     23  C   UNL A   1      33.955  28.382  25.000  1.00  0.00     0.012 C 
ENDBRANCH  15  17
ENDBRANCH  10  15
ENDBRANCH   6   9
ENDBRANCH   4   5
ENDBRANCH   3   4
ENDBRANCH   2   3
ENDBRANCH   1   2
BRANCH   1  24
ATOM     24  C   UNL A   1      37.291  19.568  24.989  1.00  0.00     0.021 C 
BRANCH  24  25
ATOM     25  C   UNL A   1      38.559  20.315  25.398  1.00  0.00     0.116 C 
BRANCH  25  26
ATOM     26  N   UNL A   1      39.554  19.428  25.983  1.00  0.00    -0.352 N 
ATOM     27  C   UNL A   1      40.803  19.699  26.476  1.00  0.00     0.251 C 
ATOM     28  H   UNL A   1      39.286  18.482  26.034  1.00  0.00     0.163 HD
ATOM     29  O   UNL A   1      41.567  18.769  26.724  1.00  0.00    -0.269 OA
BRANCH  27  30
ATOM     30  C   UNL A   1      41.240  21.092  26.708  1.00  0.00     0.039 A 
ATOM     31  C   UNL A   1      41.874  21.406  27.914  1.00  0.00     0.014 A 
ATOM     32  C   UNL A   1      40.977  22.099  25.774  1.00  0.00     0.014 A 
ATOM     33  C   UNL A   1      42.282  22.719  28.163  1.00  0.00     0.010 A 
ATOM     34  C   UNL A   1      41.443  23.393  25.996  1.00  0.00     0.010 A 
ATOM     35  C   UNL A   1      42.089  23.719  27.197  1.00  0.00    -0.014 A 
BRANCH  35  36
ATOM     36  C   UNL A   1      42.570  25.105  27.431  1.00  0.00     0.031 A 
ATOM     37  C   UNL A   1      41.677  26.128  28.081  1.00  0.00     0.074 A 
ATOM     38  C   UNL A   1      43.793  25.461  26.992  1.00  0.00     0.049 A 
ATOM     39  N   UNL A   1      41.928  27.380  28.361  1.00  0.00    -0.248 NA
ATOM     40  C   UNL A   1      40.316  25.696  28.439  1.00  0.00     0.031 C 
ATOM     41  C   UNL A   1      44.716  24.588  26.265  1.00  0.00     0.029 A 
ATOM     42  N   UNL A   1      44.462  26.656  27.075  1.00  0.00    -0.354 N 
ATOM     43  C   UNL A   1      40.754  27.894  28.897  1.00  0.00     0.074 A 
ATOM     44  C   UNL A   1      39.777  26.828  28.872  1.00  0.00     0.031 C 
ATOM     45  C   UNL A   1      45.833  25.273  25.974  1.00  0.00     0.029 A 
ATOM     46  C   UNL A   1      45.701  26.636  26.478  1.00  0.00     0.049 A 
ATOM     47  H   UNL A   1      44.091  27.452  27.520  1.00  0.00     0.167 HD
ATOM     48  C   UNL A   1      40.519  29.132  29.397  1.00  0.00     0.034 A 
ATOM     49  C   UNL A   1      46.629  27.606  26.354  1.00  0.00     0.034 A 
ATOM     50  C   UNL A   1      41.508  30.174  29.466  1.00  0.00     0.049 A 
ATOM     51  C   UNL A   1      46.368  28.948  26.979  1.00  0.00     0.074 A 
ATOM     52  C   UNL A   1      41.400  31.428  30.042  1.00  0.00     0.029 A 
ATOM     53  N   UNL A   1      42.787  30.087  28.940  1.00  0.00    -0.354 N 
ATOM     54  N   UNL A   1      45.315  29.359  27.641  1.00  0.00    -0.248 NA
ATOM     55  C   UNL A   1      47.442  29.947  26.878  1.00  0.00     0.031 C 
ATOM     56  C   UNL A   1      42.609  32.104  29.849  1.00  0.00     0.029 A 
ATOM     57  C   UNL A   1      43.477  31.265  29.169  1.00  0.00     0.049 A 
ATOM     58  H   UNL A   1      43.152  29.302  28.471  1.00  0.00     0.167 HD
ATOM     59  C   UNL A   1      45.607  30.651  28.061  1.00  0.00     0.074 A 
ATOM     60  C   UNL A   1      46.951  30.944  27.602  1.00  0.00     0.031 C 
ATOM     61  C   UNL A   1      44.830  31.525  28.747  1.00  0.00     0.034 A 
BRANCH  48  62
ATOM     62  C   UNL A   1      39.153  29.407  29.970  1.00  0.00     0.023 A 
ATOM     63  C   UNL A   1      38.889  29.082  31.316  1.00  0.00     0.012 A 
ATOM     64  C   UNL A   1      38.152  30.037  29.204  1.00  0.00     0.148 A 
ATOM     65  C   UNL A   1      37.642  29.346  31.883  1.00  0.00     0.002 A 
ATOM     66  C   UNL A   1      36.926  30.337  29.787  1.00  0.00     0.091 A 
ATOM     67  F   UNL A   1      38.412  30.319  27.919  1.00  0.00    -0.205 F 
ATOM     68  C   UNL A   1      36.666  29.983  31.121  1.00  0.00     0.022 A 
BRANCH  66  69
ATOM     69  S   UNL A   1      35.629  31.222  28.913  1.00  0.00     0.127 S 
ATOM     70  O   UNL A   1      36.402  32.204  28.154  1.00  0.00    -0.237 OA
ATOM     71  O   UNL A   1      35.025  30.163  28.103  1.00  0.00    -0.237 OA
ATOM     72  O   UNL A   1      34.756  31.770  29.941  1.00  0.00    -0.744 OA
ENDBRANCH  66  69
ENDBRANCH  48  62
BRANCH  49  73
ATOM     73  C   UNL A   1      47.925  27.308  25.682  1.00  0.00     0.023 A 
ATOM     74  C   UNL A   1      48.967  26.720  26.423  1.00  0.00     0.012 A 
ATOM     75  C   UNL A   1      48.115  27.564  24.310  1.00  0.00     0.148 A 
ATOM     76  C   UNL A   1      50.188  26.419  25.818  1.00  0.00     0.002 A 
ATOM     77  C   UNL A   1      49.314  27.210  23.701  1.00  0.00     0.091 A 
ATOM     78  F   UNL A   1      47.115  28.135  23.625  1.00  0.00    -0.205 F 
ATOM     79  C   UNL A   1      50.358  26.653  24.456  1.00  0.00     0.022 A 
BRANCH  77  80
ATOM     80  S   UNL A   1      49.565  27.350  21.927  1.00  0.00     0.127 S 
ATOM     81  O   UNL A   1      49.242  28.754  21.689  1.00  0.00    -0.237 OA
ATOM     82  O   UNL A   1      50.983  27.011  21.792  1.00  0.00    -0.237 OA
ATOM     83  O   UNL A   1      48.660  26.379  21.328  1.00  0.00    -0.744 OA
ENDBRANCH  77  80
ENDBRANCH  49  73
BRANCH  61  84
ATOM     84  C   UNL A   1      45.415  32.878  29.060  1.00  0.00     0.023 A 
ATOM     85  C   UNL A   1      46.182  33.050  30.230  1.00  0.00     0.012 A 
ATOM     86  C   UNL A   1      45.254  33.959  28.172  1.00  0.00     0.148 A 
ATOM     87  C   UNL A   1      46.752  34.287  30.527  1.00  0.00     0.002 A 
ATOM     88  C   UNL A   1      45.864  35.176  28.452  1.00  0.00     0.091 A 
ATOM     89  F   UNL A   1      44.503  33.782  27.076  1.00  0.00    -0.205 F 
ATOM     90  C   UNL A   1      46.603  35.346  29.634  1.00  0.00     0.022 A 
BRANCH  88  91
ATOM     91  S   UNL A   1      45.799  36.562  27.312  1.00  0.00     0.127 S 
ATOM     92  O   UNL A   1      46.608  37.561  28.007  1.00  0.00    -0.237 OA
ATOM     93  O   UNL A   1      46.419  36.007  26.107  1.00  0.00    -0.237 OA
ATOM     94  O   UNL A   1      44.387  36.887  27.163  1.00  0.00    -0.744 OA
ENDBRANCH  88  91
ENDBRANCH  61  84
ENDBRANCH  35  36
ENDBRANCH  27  30
ENDBRANCH  25  26
ENDBRANCH  24  25
ENDBRANCH   1  24
TORSDOF 18
ENDMDL
MODEL 3
REMARK VINA RESULT:     -11.1      5.621      8.639
REMARK SMILES CC1(C)C(C(=O)N2CCOC[C@H]2C(=O)NCCCCCCNC(=O)c2ccc(-c3c4nc(c(-c5cccc(S(=O)(=O)[O-])c5F)c5ccc([nH]5)c(-c5cccc(S(=O)(=O)[O-])c5F)c5nc(c(-c6cccc(S(=O)(=O)[O-])c6F)c6ccc3[nH]6)C=C5)C=C4)cc2)C1(C)C
REMARK SMILES IDX 19 1 18 2 17 3 16 4 15 5 13 6 14 7 12 9 7 10 8 11 9 12 11 13
REMARK SMILES IDX 10 14 5 15 6 16 4 17 1 18 2 19 3 20 88 21 89 22 90 23 20 24
REMARK SMILES IDX 21 25 22 26 23 27 24 29 25 30 26 31 87 32 27 33 86 34 28 35
REMARK SMILES IDX 29 36 30 37 80 38 31 39 85 40 79 41 81 42 32 43 84 44 78 45
REMARK SMILES IDX 77 46 33 48 65 49 45 50 64 51 46 52 49 53 63 54 82 55 47 56
REMARK SMILES IDX 48 57 62 59 83 60 50 61 34 62 35 63 43 64 36 65 38 66 44 67
REMARK SMILES IDX 37 68 39 69 40 70 41 71 42 72 66 73 67 74 75 75 68 76 70 77
REMARK SMILES IDX 76 78 69 79 71 80 72 81 73 82 74 83 51 84 52 85 60 86 53 87
REMARK SMILES IDX 55 88 61 89 54 90 56 91 57 92 58 93 59 94
REMARK H PARENT 15 8 22 28 81 47 49 58
REMARK Flexibility Score: inf
ROOT
ATOM      1  C   UNL A   1      37.304  20.407  24.626  1.00  0.00     0.002 C 
ENDROOT
BRANCH   1   2
ATOM      2  C   UNL A   1      37.751  21.873  24.637  1.00  0.00     0.002 C 
BRANCH   2   3
ATOM      3  C   UNL A   1      36.614  22.891  24.545  1.00  0.00     0.021 C 
BRANCH   3   4
ATOM      4  C   UNL A   1      36.442  23.727  25.816  1.00  0.00     0.116 C 
BRANCH   4   5
ATOM      5  N   UNL A   1      35.612  23.059  26.805  1.00  0.00    -0.354 N 
ATOM      6  C   UNL A   1      34.278  22.938  27.020  1.00  0.00     0.245 C 
ATOM      7  O   UNL A   1      33.984  22.195  27.970  1.00  0.00    -0.273 OA
ATOM      8  H   UNL A   1      36.146  22.581  27.480  1.00  0.00     0.163 HD
BRANCH   6   9
ATOM      9  C   UNL A   1      33.149  23.669  26.245  1.00  0.00     0.200 C 
ATOM     10  N   UNL A   1      32.619  22.981  25.050  1.00  0.00    -0.326 N 
ATOM     11  C   UNL A   1      31.607  21.998  25.351  1.00  0.00     0.149 C 
ATOM     12  C   UNL A   1      30.473  22.618  26.184  1.00  0.00     0.181 C 
ATOM     13  C   UNL A   1      31.996  24.241  27.078  1.00  0.00     0.195 C 
ATOM     14  O   UNL A   1      30.953  23.297  27.354  1.00  0.00    -0.377 OA
BRANCH  10  15
ATOM     15  C   UNL A   1      33.056  23.403  23.802  1.00  0.00     0.227 C 
ATOM     16  O   UNL A   1      33.390  22.587  22.955  1.00  0.00    -0.275 OA
BRANCH  15  17
ATOM     17  C   UNL A   1      33.209  24.838  23.386  1.00  0.00     0.091 C 
ATOM     18  C   UNL A   1      33.651  27.149  22.327  1.00  0.00     0.012 C 
ATOM     19  C   UNL A   1      32.879  25.828  22.272  1.00  0.00    -0.017 C 
ATOM     20  C   UNL A   1      32.605  25.488  20.830  1.00  0.00     0.012 C 
ATOM     21  C   UNL A   1      31.838  25.580  23.358  1.00  0.00    -0.017 C 
ATOM     22  C   UNL A   1      31.568  26.620  24.419  1.00  0.00     0.012 C 
ATOM     23  C   UNL A   1      30.579  24.786  23.057  1.00  0.00     0.012 C 
ENDBRANCH  15  17
ENDBRANCH  10  15
ENDBRANCH   6   9
ENDBRANCH   4   5
ENDBRANCH   3   4
ENDBRANCH   2   3
ENDBRANCH   1   2
BRANCH   1  24
ATOM     24  C   UNL A   1      38.316  19.396  25.176  1.00  0.00     0.021 C 
BRANCH  24  25
ATOM     25  C   UNL A   1      39.500  19.998  25.931  1.00  0.00     0.116 C 
BRANCH  25  26
ATOM     26  N   UNL A   1      40.621  19.076  26.019  1.00  0.00    -0.352 N 
ATOM     27  C   UNL A   1      41.967  19.320  26.108  1.00  0.00     0.251 C 
ATOM     28  H   UNL A   1      40.374  18.123  26.014  1.00  0.00     0.163 HD
ATOM     29  O   UNL A   1      42.759  18.394  25.951  1.00  0.00    -0.269 OA
BRANCH  27  30
ATOM     30  C   UNL A   1      42.471  20.682  26.387  1.00  0.00     0.039 A 
ATOM     31  C   UNL A   1      42.810  21.506  25.311  1.00  0.00     0.014 A 
ATOM     32  C   UNL A   1      42.665  21.128  27.698  1.00  0.00     0.014 A 
ATOM     33  C   UNL A   1      43.303  22.792  25.548  1.00  0.00     0.010 A 
ATOM     34  C   UNL A   1      43.095  22.433  27.932  1.00  0.00     0.010 A 
ATOM     35  C   UNL A   1      43.430  23.274  26.861  1.00  0.00    -0.014 A 
BRANCH  35  36
ATOM     36  C   UNL A   1      43.900  24.658  27.121  1.00  0.00     0.031 A 
ATOM     37  C   UNL A   1      42.955  25.704  27.649  1.00  0.00     0.074 A 
ATOM     38  C   UNL A   1      45.169  24.992  26.812  1.00  0.00     0.049 A 
ATOM     39  N   UNL A   1      43.191  26.958  27.931  1.00  0.00    -0.248 NA
ATOM     40  C   UNL A   1      41.557  25.295  27.864  1.00  0.00     0.031 C 
ATOM     41  C   UNL A   1      46.154  24.094  26.207  1.00  0.00     0.029 A 
ATOM     42  N   UNL A   1      45.840  26.181  26.945  1.00  0.00    -0.354 N 
ATOM     43  C   UNL A   1      41.972  27.497  28.326  1.00  0.00     0.074 A 
ATOM     44  C   UNL A   1      40.989  26.441  28.214  1.00  0.00     0.031 C 
ATOM     45  C   UNL A   1      47.305  24.761  26.028  1.00  0.00     0.029 A 
ATOM     46  C   UNL A   1      47.136  26.135  26.488  1.00  0.00     0.049 A 
ATOM     47  H   UNL A   1      45.433  26.990  27.331  1.00  0.00     0.167 HD
ATOM     48  C   UNL A   1      41.699  28.747  28.773  1.00  0.00     0.034 A 
ATOM     49  C   UNL A   1      48.085  27.092  26.448  1.00  0.00     0.034 A 
ATOM     50  C   UNL A   1      42.689  29.779  28.931  1.00  0.00     0.049 A 
ATOM     51  C   UNL A   1      47.775  28.449  27.015  1.00  0.00     0.074 A 
ATOM     52  C   UNL A   1      42.535  31.046  29.467  1.00  0.00     0.029 A 
ATOM     53  N   UNL A   1      44.017  29.667  28.549  1.00  0.00    -0.354 N 
ATOM     54  N   UNL A   1      46.661  28.886  27.550  1.00  0.00    -0.248 NA
ATOM     55  C   UNL A   1      48.867  29.434  27.013  1.00  0.00     0.031 C 
ATOM     56  C   UNL A   1      43.767  31.704  29.395  1.00  0.00     0.029 A 
ATOM     57  C   UNL A   1      44.693  30.842  28.831  1.00  0.00     0.049 A 
ATOM     58  H   UNL A   1      44.420  28.869  28.138  1.00  0.00     0.167 HD
ATOM     59  C   UNL A   1      46.923  30.183  27.975  1.00  0.00     0.074 A 
ATOM     60  C   UNL A   1      48.313  30.451  27.661  1.00  0.00     0.031 C 
ATOM     61  C   UNL A   1      46.087  31.078  28.555  1.00  0.00     0.034 A 
BRANCH  48  62
ATOM     62  C   UNL A   1      40.283  29.049  29.187  1.00  0.00     0.023 A 
ATOM     63  C   UNL A   1      39.320  29.339  28.198  1.00  0.00     0.012 A 
ATOM     64  C   UNL A   1      39.887  28.988  30.537  1.00  0.00     0.148 A 
ATOM     65  C   UNL A   1      37.995  29.599  28.548  1.00  0.00     0.002 A 
ATOM     66  C   UNL A   1      38.556  29.206  30.875  1.00  0.00     0.091 A 
ATOM     67  F   UNL A   1      40.820  28.733  31.467  1.00  0.00    -0.205 F 
ATOM     68  C   UNL A   1      37.612  29.521  29.884  1.00  0.00     0.022 A 
BRANCH  66  69
ATOM     69  S   UNL A   1      37.947  29.057  32.559  1.00  0.00     0.127 S 
ATOM     70  O   UNL A   1      38.076  27.619  32.794  1.00  0.00    -0.237 OA
ATOM     71  O   UNL A   1      38.896  29.884  33.306  1.00  0.00    -0.237 OA
ATOM     72  O   UNL A   1      36.584  29.568  32.539  1.00  0.00    -0.744 OA
ENDBRANCH  66  69
ENDBRANCH  48  62
BRANCH  49  73
ATOM     73  C   UNL A   1      49.443  26.767  25.928  1.00  0.00     0.023 A 
ATOM     74  C   UNL A   1      50.329  26.023  26.730  1.00  0.00     0.012 A 
ATOM     75  C   UNL A   1      49.844  27.150  24.634  1.00  0.00     0.148 A 
ATOM     76  C   UNL A   1      51.602  25.693  26.266  1.00  0.00     0.002 A 
ATOM     77  C   UNL A   1      51.093  26.771  24.156  1.00  0.00     0.091 A 
ATOM     78  F   UNL A   1      48.991  27.868  23.891  1.00  0.00    -0.205 F 
ATOM     79  C   UNL A   1      51.980  26.056  24.976  1.00  0.00     0.022 A 
BRANCH  77  80
ATOM     80  S   UNL A   1      51.604  27.078  22.461  1.00  0.00     0.127 S 
ATOM     81  O   UNL A   1      51.908  28.506  22.494  1.00  0.00    -0.237 OA
ATOM     82  O   UNL A   1      52.770  26.202  22.331  1.00  0.00    -0.237 OA
ATOM     83  O   UNL A   1      50.470  26.687  21.635  1.00  0.00    -0.744 OA
ENDBRANCH  77  80
ENDBRANCH  49  73
BRANCH  61  84
ATOM     84  C   UNL A   1      46.652  32.431  28.905  1.00  0.00     0.023 A 
ATOM     85  C   UNL A   1      47.265  32.626  30.159  1.00  0.00     0.012 A 
ATOM     86  C   UNL A   1      46.628  33.488  27.975  1.00  0.00     0.148 A 
ATOM     87  C   UNL A   1      47.814  33.862  30.494  1.00  0.00     0.002 A 
ATOM     88  C   UNL A   1      47.220  34.703  28.298  1.00  0.00     0.091 A 
ATOM     89  F   UNL A   1      46.022  33.290  26.795  1.00  0.00    -0.205 F 
ATOM     90  C   UNL A   1      47.802  34.897  29.561  1.00  0.00     0.022 A 
BRANCH  88  91
ATOM     91  S   UNL A   1      47.329  36.056  27.122  1.00  0.00     0.127 S 
ATOM     92  O   UNL A   1      46.031  35.980  26.456  1.00  0.00    -0.237 OA
ATOM     93  O   UNL A   1      47.500  37.219  27.994  1.00  0.00    -0.237 OA
ATOM     94  O   UNL A   1      48.485  35.760  26.284  1.00  0.00    -0.744 OA
ENDBRANCH  88  91
ENDBRANCH  61  84
ENDBRANCH  35  36
ENDBRANCH  27  30
ENDBRANCH  25  26
ENDBRANCH  24  25
ENDBRANCH   1  24
TORSDOF 18
ENDMDL
