MODEL 1
REMARK VINA RESULT:     -11.6      0.000      0.000
REMARK SMILES CCc1cc(/C=C/C(=O)NCCCCCCNC(=O)c2ccc(-c3c4nc(c(-c5cccc(S(=O)(=O)[O-])c5F)c5ccc([nH]5)c(-c5cccc(S(=O)(=O)[O-])c5F)c5nc(c(-c6cccc(S(=O)(=O)[O-])c6F)c6ccc3[nH]6)C=C5)C=C4)cc2)cc(C(=O)c2ccccc2)c1
REMARK SMILES IDX 13 1 12 2 11 3 10 4 8 5 9 6 7 8 6 9 5 10 3 11 4 12 93 13
REMARK SMILES IDX 84 14 83 15 2 16 1 17 85 18 86 19 87 20 88 21 92 22 89 23
REMARK SMILES IDX 91 24 90 25 14 26 15 27 16 28 17 29 18 30 19 32 20 33 21 34
REMARK SMILES IDX 82 35 22 36 81 37 23 38 24 39 25 40 75 41 26 42 80 43 74 44
REMARK SMILES IDX 76 45 27 46 79 47 73 48 72 49 28 51 60 52 40 53 59 54 41 55
REMARK SMILES IDX 44 56 58 57 77 58 42 59 43 60 57 62 78 63 45 64 29 65 30 66
REMARK SMILES IDX 38 67 31 68 33 69 39 70 32 71 34 72 35 73 36 74 37 75 61 76
REMARK SMILES IDX 62 77 70 78 63 79 65 80 71 81 64 82 66 83 67 84 68 85 69 86
REMARK SMILES IDX 46 87 47 88 55 89 48 90 50 91 56 92 49 93 51 94 52 95 53 96
REMARK SMILES IDX 54 97
REMARK H PARENT 10 7 17 31 76 50 44 61
REMARK Flexibility Score: inf
ROOT
ATOM      1  C   UNL A   1      34.085  22.995  23.475  1.00  0.00     0.002 C 
ENDROOT
BRANCH   1   2
ATOM      2  C   UNL A   1      33.167  21.839  23.899  1.00  0.00     0.021 C 
BRANCH   2   3
ATOM      3  C   UNL A   1      31.726  22.277  24.175  1.00  0.00     0.116 C 
BRANCH   3   4
ATOM      4  N   UNL A   1      31.456  22.250  25.601  1.00  0.00    -0.353 N 
ATOM      5  C   UNL A   1      31.140  23.228  26.484  1.00  0.00     0.243 C 
ATOM      6  O   UNL A   1      30.915  22.920  27.656  1.00  0.00    -0.270 OA
ATOM      7  H   UNL A   1      31.514  21.352  26.003  1.00  0.00     0.163 HD
BRANCH   5   8
ATOM      8  C   UNL A   1      30.980  24.648  26.088  1.00  0.00     0.072 C 
ATOM      9  C   UNL A   1      31.892  25.623  26.210  1.00  0.00     0.014 C 
BRANCH   9  10
ATOM     10  C   UNL A   1      31.679  27.033  25.852  1.00  0.00    -0.024 A 
ATOM     11  C   UNL A   1      32.119  29.423  26.157  1.00  0.00    -0.047 A 
ATOM     12  C   UNL A   1      32.234  28.090  26.588  1.00  0.00     0.011 A 
ATOM     13  C   UNL A   1      31.442  29.683  24.959  1.00  0.00     0.016 A 
ATOM     14  C   UNL A   1      30.899  28.638  24.197  1.00  0.00     0.023 A 
ATOM     15  C   UNL A   1      31.004  27.322  24.661  1.00  0.00     0.020 A 
BRANCH  11  16
ATOM     16  C   UNL A   1      32.837  30.507  26.930  1.00  0.00     0.032 C 
ATOM     17  C   UNL A   1      34.159  30.110  27.576  1.00  0.00     0.009 C 
ENDBRANCH  11  16
BRANCH  14  18
ATOM     18  C   UNL A   1      30.222  28.873  22.889  1.00  0.00     0.193 C 
ATOM     19  O   UNL A   1      30.266  28.021  22.008  1.00  0.00    -0.289 OA
BRANCH  18  20
ATOM     20  C   UNL A   1      29.472  30.121  22.635  1.00  0.00     0.022 A 
ATOM     21  C   UNL A   1      29.228  30.496  21.313  1.00  0.00     0.012 A 
ATOM     22  C   UNL A   1      28.996  30.901  23.695  1.00  0.00     0.012 A 
ATOM     23  C   UNL A   1      28.451  31.623  21.050  1.00  0.00     0.001 A 
ATOM     24  C   UNL A   1      28.217  32.026  23.426  1.00  0.00     0.001 A 
ATOM     25  C   UNL A   1      27.936  32.379  22.105  1.00  0.00     0.000 A 
ENDBRANCH  18  20
ENDBRANCH  14  18
ENDBRANCH   9  10
ENDBRANCH   5   8
ENDBRANCH   3   4
ENDBRANCH   2   3
ENDBRANCH   1   2
BRANCH   1  26
ATOM     26  C   UNL A   1      34.794  23.711  24.632  1.00  0.00     0.002 C 
BRANCH  26  27
ATOM     27  C   UNL A   1      36.310  23.505  24.682  1.00  0.00     0.021 C 
BRANCH  27  28
ATOM     28  C   UNL A   1      36.889  23.471  26.093  1.00  0.00     0.116 C 
BRANCH  28  29
ATOM     29  N   UNL A   1      37.973  22.505  26.199  1.00  0.00    -0.352 N 
ATOM     30  C   UNL A   1      39.313  22.725  26.395  1.00  0.00     0.251 C 
ATOM     31  H   UNL A   1      37.707  21.560  26.117  1.00  0.00     0.163 HD
ATOM     32  O   UNL A   1      40.120  21.822  26.198  1.00  0.00    -0.269 OA
BRANCH  30  33
ATOM     33  C   UNL A   1      39.776  24.053  26.846  1.00  0.00     0.039 A 
ATOM     34  C   UNL A   1      40.132  25.010  25.893  1.00  0.00     0.014 A 
ATOM     35  C   UNL A   1      39.878  24.344  28.209  1.00  0.00     0.014 A 
ATOM     36  C   UNL A   1      40.549  26.276  26.308  1.00  0.00     0.010 A 
ATOM     37  C   UNL A   1      40.222  25.628  28.620  1.00  0.00     0.010 A 
ATOM     38  C   UNL A   1      40.574  26.602  27.675  1.00  0.00    -0.014 A 
BRANCH  38  39
ATOM     39  C   UNL A   1      40.969  27.956  28.138  1.00  0.00     0.031 A 
ATOM     40  C   UNL A   1      42.424  28.327  28.235  1.00  0.00     0.074 A 
ATOM     41  C   UNL A   1      40.021  28.817  28.555  1.00  0.00     0.049 A 
ATOM     42  N   UNL A   1      42.966  29.432  28.676  1.00  0.00    -0.248 NA
ATOM     43  C   UNL A   1      43.402  27.312  27.804  1.00  0.00     0.031 C 
ATOM     44  C   UNL A   1      38.583  28.544  28.582  1.00  0.00     0.029 A 
ATOM     45  N   UNL A   1      40.127  30.087  29.065  1.00  0.00    -0.354 N 
ATOM     46  C   UNL A   1      44.340  29.233  28.613  1.00  0.00     0.074 A 
ATOM     47  C   UNL A   1      44.550  27.890  28.122  1.00  0.00     0.031 C 
ATOM     48  C   UNL A   1      37.941  29.612  29.081  1.00  0.00     0.029 A 
ATOM     49  C   UNL A   1      38.921  30.633  29.438  1.00  0.00     0.049 A 
ATOM     50  H   UNL A   1      40.984  30.562  29.155  1.00  0.00     0.167 HD
ATOM     51  C   UNL A   1      45.337  30.101  28.910  1.00  0.00     0.034 A 
ATOM     52  C   UNL A   1      38.638  31.818  30.014  1.00  0.00     0.034 A 
ATOM     53  C   UNL A   1      45.120  31.450  29.359  1.00  0.00     0.049 A 
ATOM     54  C   UNL A   1      39.763  32.777  30.300  1.00  0.00     0.074 A 
ATOM     55  C   UNL A   1      46.059  32.437  29.599  1.00  0.00     0.029 A 
ATOM     56  N   UNL A   1      43.879  31.998  29.645  1.00  0.00    -0.354 N 
ATOM     57  N   UNL A   1      41.047  32.632  30.081  1.00  0.00    -0.248 NA
ATOM     58  C   UNL A   1      39.395  34.076  30.879  1.00  0.00     0.031 C 
ATOM     59  C   UNL A   1      45.388  33.575  30.058  1.00  0.00     0.029 A 
ATOM     60  C   UNL A   1      44.028  33.307  30.072  1.00  0.00     0.049 A 
ATOM     61  H   UNL A   1      43.020  31.527  29.558  1.00  0.00     0.167 HD
ATOM     62  C   UNL A   1      41.637  33.831  30.462  1.00  0.00     0.074 A 
ATOM     63  C   UNL A   1      40.565  34.700  30.903  1.00  0.00     0.031 C 
ATOM     64  C   UNL A   1      42.947  34.177  30.460  1.00  0.00     0.034 A 
BRANCH  51  65
ATOM     65  C   UNL A   1      46.756  29.632  28.711  1.00  0.00     0.023 A 
ATOM     66  C   UNL A   1      47.398  29.857  27.476  1.00  0.00     0.012 A 
ATOM     67  C   UNL A   1      47.473  29.024  29.761  1.00  0.00     0.148 A 
ATOM     68  C   UNL A   1      48.716  29.452  27.274  1.00  0.00     0.002 A 
ATOM     69  C   UNL A   1      48.803  28.665  29.567  1.00  0.00     0.091 A 
ATOM     70  F   UNL A   1      46.842  28.800  30.922  1.00  0.00    -0.205 F 
ATOM     71  C   UNL A   1      49.421  28.867  28.322  1.00  0.00     0.022 A 
BRANCH  69  72
ATOM     72  S   UNL A   1      49.823  27.978  30.876  1.00  0.00     0.127 S 
ATOM     73  O   UNL A   1      48.954  26.930  31.409  1.00  0.00    -0.237 OA
ATOM     74  O   UNL A   1      50.985  27.488  30.136  1.00  0.00    -0.237 OA
ATOM     75  O   UNL A   1      50.103  29.079  31.787  1.00  0.00    -0.744 OA
ENDBRANCH  69  72
ENDBRANCH  51  65
BRANCH  52  76
ATOM     76  C   UNL A   1      37.223  32.190  30.298  1.00  0.00     0.023 A 
ATOM     77  C   UNL A   1      36.651  31.839  31.536  1.00  0.00     0.012 A 
ATOM     78  C   UNL A   1      36.450  32.908  29.364  1.00  0.00     0.148 A 
ATOM     79  C   UNL A   1      35.327  32.164  31.827  1.00  0.00     0.002 A 
ATOM     80  C   UNL A   1      35.148  33.277  29.682  1.00  0.00     0.091 A 
ATOM     81  F   UNL A   1      37.008  33.224  28.188  1.00  0.00    -0.205 F 
ATOM     82  C   UNL A   1      34.578  32.891  30.905  1.00  0.00     0.022 A 
BRANCH  80  83
ATOM     83  S   UNL A   1      34.153  34.323  28.613  1.00  0.00     0.127 S 
ATOM     84  O   UNL A   1      32.916  34.445  29.380  1.00  0.00    -0.237 OA
ATOM     85  O   UNL A   1      34.960  35.543  28.549  1.00  0.00    -0.237 OA
ATOM     86  O   UNL A   1      34.048  33.607  27.350  1.00  0.00    -0.744 OA
ENDBRANCH  80  83
ENDBRANCH  52  76
BRANCH  64  87
ATOM     87  C   UNL A   1      43.303  35.569  30.913  1.00  0.00     0.023 A 
ATOM     88  C   UNL A   1      43.613  35.810  32.267  1.00  0.00     0.012 A 
ATOM     89  C   UNL A   1      43.402  36.624  29.984  1.00  0.00     0.148 A 
ATOM     90  C   UNL A   1      43.982  37.084  32.694  1.00  0.00     0.002 A 
ATOM     91  C   UNL A   1      43.821  37.879  30.409  1.00  0.00     0.091 A 
ATOM     92  F   UNL A   1      43.087  36.379  28.704  1.00  0.00    -0.205 F 
ATOM     93  C   UNL A   1      44.097  38.114  31.764  1.00  0.00     0.022 A 
BRANCH  91  94
ATOM     94  S   UNL A   1      44.094  39.240  29.268  1.00  0.00     0.127 S 
ATOM     95  O   UNL A   1      44.654  38.548  28.108  1.00  0.00    -0.237 OA
ATOM     96  O   UNL A   1      42.739  39.757  29.073  1.00  0.00    -0.237 OA
ATOM     97  O   UNL A   1      45.000  40.158  29.945  1.00  0.00    -0.744 OA
ENDBRANCH  91  94
ENDBRANCH  64  87
ENDBRANCH  38  39
ENDBRANCH  30  33
ENDBRANCH  28  29
ENDBRANCH  27  28
ENDBRANCH  26  27
ENDBRANCH   1  26
TORSDOF 20
ENDMDL
MODEL 2
REMARK VINA RESULT:     -11.2      3.322      8.130
REMARK SMILES CCc1cc(/C=C/C(=O)NCCCCCCNC(=O)c2ccc(-c3c4nc(c(-c5cccc(S(=O)(=O)[O-])c5F)c5ccc([nH]5)c(-c5cccc(S(=O)(=O)[O-])c5F)c5nc(c(-c6cccc(S(=O)(=O)[O-])c6F)c6ccc3[nH]6)C=C5)C=C4)cc2)cc(C(=O)c2ccccc2)c1
REMARK SMILES IDX 13 1 12 2 11 3 10 4 8 5 9 6 7 8 6 9 5 10 3 11 4 12 93 13
REMARK SMILES IDX 84 14 83 15 2 16 1 17 85 18 86 19 87 20 88 21 92 22 89 23
REMARK SMILES IDX 91 24 90 25 14 26 15 27 16 28 17 29 18 30 19 32 20 33 21 34
REMARK SMILES IDX 82 35 22 36 81 37 23 38 24 39 25 40 75 41 26 42 80 43 74 44
REMARK SMILES IDX 76 45 27 46 79 47 73 48 72 49 28 51 60 52 40 53 59 54 41 55
REMARK SMILES IDX 44 56 58 57 77 58 42 59 43 60 57 62 78 63 45 64 29 65 30 66
REMARK SMILES IDX 38 67 31 68 33 69 39 70 32 71 34 72 35 73 36 74 37 75 61 76
REMARK SMILES IDX 62 77 70 78 63 79 65 80 71 81 64 82 66 83 67 84 68 85 69 86
REMARK SMILES IDX 46 87 47 88 55 89 48 90 50 91 56 92 49 93 51 94 52 95 53 96
REMARK SMILES IDX 54 97
REMARK H PARENT 10 7 17 31 76 50 44 61
REMARK Flexibility Score: inf
ROOT
ATOM      1  C   UNL A   1      35.473  20.988  24.908  1.00  0.00     0.002 C 
ENDROOT
BRANCH   1   2
ATOM      2  C   UNL A   1      34.011  20.791  25.337  1.00  0.00     0.021 C 
BRANCH   2   3
ATOM      3  C   UNL A   1      33.072  21.882  24.816  1.00  0.00     0.116 C 
BRANCH   3   4
ATOM      4  N   UNL A   1      33.388  22.200  23.435  1.00  0.00    -0.353 N 
ATOM      5  C   UNL A   1      33.281  23.347  22.720  1.00  0.00     0.243 C 
ATOM      6  O   UNL A   1      33.669  23.356  21.551  1.00  0.00    -0.270 OA
ATOM      7  H   UNL A   1      33.747  21.441  22.921  1.00  0.00     0.163 HD
BRANCH   5   8
ATOM      8  C   UNL A   1      32.783  24.616  23.306  1.00  0.00     0.072 C 
ATOM      9  C   UNL A   1      31.783  25.376  22.840  1.00  0.00     0.014 C 
BRANCH   9  10
ATOM     10  C   UNL A   1      31.351  26.657  23.419  1.00  0.00    -0.024 A 
ATOM     11  C   UNL A   1      31.806  28.734  24.636  1.00  0.00    -0.047 A 
ATOM     12  C   UNL A   1      32.200  27.458  24.197  1.00  0.00     0.011 A 
ATOM     13  C   UNL A   1      30.538  29.205  24.270  1.00  0.00     0.016 A 
ATOM     14  C   UNL A   1      29.684  28.429  23.474  1.00  0.00     0.023 A 
ATOM     15  C   UNL A   1      30.089  27.151  23.072  1.00  0.00     0.020 A 
BRANCH  11  16
ATOM     16  C   UNL A   1      32.806  29.597  25.372  1.00  0.00     0.032 C 
ATOM     17  C   UNL A   1      32.254  30.446  26.510  1.00  0.00     0.009 C 
ENDBRANCH  11  16
BRANCH  14  18
ATOM     18  C   UNL A   1      28.351  28.922  23.019  1.00  0.00     0.193 C 
ATOM     19  O   UNL A   1      27.359  28.209  23.125  1.00  0.00    -0.289 OA
BRANCH  18  20
ATOM     20  C   UNL A   1      28.196  30.277  22.451  1.00  0.00     0.022 A 
ATOM     21  C   UNL A   1      28.182  31.369  23.321  1.00  0.00     0.012 A 
ATOM     22  C   UNL A   1      28.088  30.467  21.068  1.00  0.00     0.012 A 
ATOM     23  C   UNL A   1      28.122  32.661  22.801  1.00  0.00     0.001 A 
ATOM     24  C   UNL A   1      28.030  31.763  20.555  1.00  0.00     0.001 A 
ATOM     25  C   UNL A   1      28.059  32.857  21.421  1.00  0.00     0.000 A 
ENDBRANCH  18  20
ENDBRANCH  14  18
ENDBRANCH   9  10
ENDBRANCH   5   8
ENDBRANCH   3   4
ENDBRANCH   2   3
ENDBRANCH   1   2
BRANCH   1  26
ATOM     26  C   UNL A   1      36.345  19.730  24.998  1.00  0.00     0.002 C 
BRANCH  26  27
ATOM     27  C   UNL A   1      37.809  19.933  24.598  1.00  0.00     0.021 C 
BRANCH  27  28
ATOM     28  C   UNL A   1      38.719  20.347  25.750  1.00  0.00     0.116 C 
BRANCH  28  29
ATOM     29  N   UNL A   1      39.758  19.354  25.988  1.00  0.00    -0.352 N 
ATOM     30  C   UNL A   1      41.106  19.536  26.165  1.00  0.00     0.251 C 
ATOM     31  H   UNL A   1      39.449  18.420  26.027  1.00  0.00     0.163 HD
ATOM     32  O   UNL A   1      41.871  18.580  26.094  1.00  0.00    -0.269 OA
BRANCH  30  33
ATOM     33  C   UNL A   1      41.629  20.889  26.444  1.00  0.00     0.039 A 
ATOM     34  C   UNL A   1      41.926  21.738  25.376  1.00  0.00     0.014 A 
ATOM     35  C   UNL A   1      41.845  21.309  27.759  1.00  0.00     0.014 A 
ATOM     36  C   UNL A   1      42.399  23.027  25.629  1.00  0.00     0.010 A 
ATOM     37  C   UNL A   1      42.245  22.617  28.012  1.00  0.00     0.010 A 
ATOM     38  C   UNL A   1      42.539  23.485  26.950  1.00  0.00    -0.014 A 
BRANCH  38  39
ATOM     39  C   UNL A   1      42.996  24.866  27.244  1.00  0.00     0.031 A 
ATOM     40  C   UNL A   1      42.074  25.837  27.933  1.00  0.00     0.074 A 
ATOM     41  C   UNL A   1      44.205  25.271  26.812  1.00  0.00     0.049 A 
ATOM     42  N   UNL A   1      42.267  27.098  28.216  1.00  0.00    -0.248 NA
ATOM     43  C   UNL A   1      40.749  25.330  28.332  1.00  0.00     0.031 C 
ATOM     44  C   UNL A   1      45.157  24.446  26.065  1.00  0.00     0.029 A 
ATOM     45  N   UNL A   1      44.830  26.489  26.911  1.00  0.00    -0.354 N 
ATOM     46  C   UNL A   1      41.083  27.545  28.789  1.00  0.00     0.074 A 
ATOM     47  C   UNL A   1      40.164  26.429  28.784  1.00  0.00     0.031 C 
ATOM     48  C   UNL A   1      46.243  25.179  25.775  1.00  0.00     0.029 A 
ATOM     49  C   UNL A   1      46.055  26.533  26.286  1.00  0.00     0.049 A 
ATOM     50  H   UNL A   1      44.440  27.258  27.385  1.00  0.00     0.167 HD
ATOM     51  C   UNL A   1      40.795  28.766  29.300  1.00  0.00     0.034 A 
ATOM     52  C   UNL A   1      46.922  27.553  26.131  1.00  0.00     0.034 A 
ATOM     53  C   UNL A   1      41.728  29.860  29.339  1.00  0.00     0.049 A 
ATOM     54  C   UNL A   1      46.591  28.889  26.740  1.00  0.00     0.074 A 
ATOM     55  C   UNL A   1      41.567  31.107  29.916  1.00  0.00     0.029 A 
ATOM     56  N   UNL A   1      42.993  29.842  28.771  1.00  0.00    -0.354 N 
ATOM     57  N   UNL A   1      45.531  29.246  27.422  1.00  0.00    -0.248 NA
ATOM     58  C   UNL A   1      47.594  29.953  26.589  1.00  0.00     0.031 C 
ATOM     59  C   UNL A   1      42.724  31.853  29.672  1.00  0.00     0.029 A 
ATOM     60  C   UNL A   1      43.619  31.060  28.971  1.00  0.00     0.049 A 
ATOM     61  H   UNL A   1      43.387  29.075  28.295  1.00  0.00     0.167 HD
ATOM     62  C   UNL A   1      45.752  30.562  27.810  1.00  0.00     0.074 A 
ATOM     63  C   UNL A   1      47.060  30.930  27.308  1.00  0.00     0.031 C 
ATOM     64  C   UNL A   1      44.942  31.395  28.509  1.00  0.00     0.034 A 
BRANCH  51  65
ATOM     65  C   UNL A   1      39.429  28.969  29.903  1.00  0.00     0.023 A 
ATOM     66  C   UNL A   1      39.165  28.499  31.206  1.00  0.00     0.012 A 
ATOM     67  C   UNL A   1      38.426  29.675  29.208  1.00  0.00     0.148 A 
ATOM     68  C   UNL A   1      37.916  28.692  31.793  1.00  0.00     0.002 A 
ATOM     69  C   UNL A   1      37.198  29.905  29.819  1.00  0.00     0.091 A 
ATOM     70  F   UNL A   1      38.687  30.099  27.964  1.00  0.00    -0.205 F 
ATOM     71  C   UNL A   1      36.938  29.404  31.106  1.00  0.00     0.022 A 
BRANCH  69  72
ATOM     72  S   UNL A   1      35.900  30.880  29.052  1.00  0.00     0.127 S 
ATOM     73  O   UNL A   1      36.671  31.929  28.387  1.00  0.00    -0.237 OA
ATOM     74  O   UNL A   1      35.282  29.912  28.146  1.00  0.00    -0.237 OA
ATOM     75  O   UNL A   1      35.041  31.331  30.137  1.00  0.00    -0.744 OA
ENDBRANCH  69  72
ENDBRANCH  51  65
BRANCH  52  76
ATOM     76  C   UNL A   1      48.214  27.331  25.424  1.00  0.00     0.023 A 
ATOM     77  C   UNL A   1      49.350  26.946  26.163  1.00  0.00     0.012 A 
ATOM     78  C   UNL A   1      48.320  27.474  24.026  1.00  0.00     0.148 A 
ATOM     79  C   UNL A   1      50.576  26.741  25.530  1.00  0.00     0.002 A 
ATOM     80  C   UNL A   1      49.531  27.214  23.395  1.00  0.00     0.091 A 
ATOM     81  F   UNL A   1      47.232  27.851  23.342  1.00  0.00    -0.205 F 
ATOM     82  C   UNL A   1      50.664  26.866  24.145  1.00  0.00     0.022 A 
BRANCH  80  83
ATOM     83  S   UNL A   1      49.709  27.223  21.607  1.00  0.00     0.127 S 
ATOM     84  O   UNL A   1      49.537  28.640  21.296  1.00  0.00    -0.237 OA
ATOM     85  O   UNL A   1      51.071  26.715  21.437  1.00  0.00    -0.237 OA
ATOM     86  O   UNL A   1      48.671  26.333  21.105  1.00  0.00    -0.744 OA
ENDBRANCH  80  83
ENDBRANCH  52  76
BRANCH  64  87
ATOM     87  C   UNL A   1      45.454  32.780  28.808  1.00  0.00     0.023 A 
ATOM     88  C   UNL A   1      46.408  32.971  29.828  1.00  0.00     0.012 A 
ATOM     89  C   UNL A   1      45.044  33.881  28.030  1.00  0.00     0.148 A 
ATOM     90  C   UNL A   1      46.920  34.241  30.090  1.00  0.00     0.002 A 
ATOM     91  C   UNL A   1      45.598  35.134  28.263  1.00  0.00     0.091 A 
ATOM     92  F   UNL A   1      44.122  33.682  27.076  1.00  0.00    -0.205 F 
ATOM     93  C   UNL A   1      46.525  35.318  29.301  1.00  0.00     0.022 A 
BRANCH  91  94
ATOM     94  S   UNL A   1      45.224  36.558  27.235  1.00  0.00     0.127 S 
ATOM     95  O   UNL A   1      45.036  37.607  28.236  1.00  0.00    -0.237 OA
ATOM     96  O   UNL A   1      46.441  36.690  26.434  1.00  0.00    -0.237 OA
ATOM     97  O   UNL A   1      44.034  36.203  26.473  1.00  0.00    -0.744 OA
ENDBRANCH  91  94
ENDBRANCH  64  87
ENDBRANCH  38  39
ENDBRANCH  30  33
ENDBRANCH  28  29
ENDBRANCH  27  28
ENDBRANCH  26  27
ENDBRANCH   1  26
TORSDOF 20
ENDMDL
MODEL 3
REMARK VINA RESULT:     -10.8      3.613      4.728
REMARK SMILES CCc1cc(/C=C/C(=O)NCCCCCCNC(=O)c2ccc(-c3c4nc(c(-c5cccc(S(=O)(=O)[O-])c5F)c5ccc([nH]5)c(-c5cccc(S(=O)(=O)[O-])c5F)c5nc(c(-c6cccc(S(=O)(=O)[O-])c6F)c6ccc3[nH]6)C=C5)C=C4)cc2)cc(C(=O)c2ccccc2)c1
REMARK SMILES IDX 13 1 12 2 11 3 10 4 8 5 9 6 7 8 6 9 5 10 3 11 4 12 93 13
REMARK SMILES IDX 84 14 83 15 2 16 1 17 85 18 86 19 87 20 88 21 92 22 89 23
REMARK SMILES IDX 91 24 90 25 14 26 15 27 16 28 17 29 18 30 19 32 20 33 21 34
REMARK SMILES IDX 82 35 22 36 81 37 23 38 24 39 25 40 75 41 26 42 80 43 74 44
REMARK SMILES IDX 76 45 27 46 79 47 73 48 72 49 28 51 60 52 40 53 59 54 41 55
REMARK SMILES IDX 44 56 58 57 77 58 42 59 43 60 57 62 78 63 45 64 29 65 30 66
REMARK SMILES IDX 38 67 31 68 33 69 39 70 32 71 34 72 35 73 36 74 37 75 61 76
REMARK SMILES IDX 62 77 70 78 63 79 65 80 71 81 64 82 66 83 67 84 68 85 69 86
REMARK SMILES IDX 46 87 47 88 55 89 48 90 50 91 56 92 49 93 51 94 52 95 53 96
REMARK SMILES IDX 54 97
REMARK H PARENT 10 7 17 31 76 50 44 61
REMARK Flexibility Score: inf
ROOT
ATOM      1  C   UNL A   1      36.803  21.320  24.977  1.00  0.00     0.002 C 
ENDROOT
BRANCH   1   2
ATOM      2  C   UNL A   1      35.320  20.931  25.077  1.00  0.00     0.021 C 
BRANCH   2   3
ATOM      3  C   UNL A   1      34.367  22.106  24.841  1.00  0.00     0.116 C 
BRANCH   3   4
ATOM      4  N   UNL A   1      34.111  22.269  23.421  1.00  0.00    -0.353 N 
ATOM      5  C   UNL A   1      33.516  23.260  22.714  1.00  0.00     0.243 C 
ATOM      6  O   UNL A   1      33.466  23.166  21.487  1.00  0.00    -0.270 OA
ATOM      7  H   UNL A   1      34.427  21.518  22.869  1.00  0.00     0.163 HD
BRANCH   5   8
ATOM      8  C   UNL A   1      32.987  24.493  23.347  1.00  0.00     0.072 C 
ATOM      9  C   UNL A   1      32.184  25.404  22.780  1.00  0.00     0.014 C 
BRANCH   9  10
ATOM     10  C   UNL A   1      31.721  26.643  23.422  1.00  0.00    -0.024 A 
ATOM     11  C   UNL A   1      32.121  28.658  24.755  1.00  0.00    -0.047 A 
ATOM     12  C   UNL A   1      32.545  27.417  24.253  1.00  0.00     0.011 A 
ATOM     13  C   UNL A   1      30.849  29.125  24.400  1.00  0.00     0.016 A 
ATOM     14  C   UNL A   1      30.018  28.378  23.553  1.00  0.00     0.023 A 
ATOM     15  C   UNL A   1      30.453  27.131  23.087  1.00  0.00     0.020 A 
BRANCH  11  16
ATOM     16  C   UNL A   1      33.096  29.499  25.549  1.00  0.00     0.032 C 
ATOM     17  C   UNL A   1      33.807  28.799  26.700  1.00  0.00     0.009 C 
ENDBRANCH  11  16
BRANCH  14  18
ATOM     18  C   UNL A   1      28.681  28.868  23.110  1.00  0.00     0.193 C 
ATOM     19  O   UNL A   1      27.702  28.132  23.166  1.00  0.00    -0.289 OA
BRANCH  18  20
ATOM     20  C   UNL A   1      28.505  30.249  22.614  1.00  0.00     0.022 A 
ATOM     21  C   UNL A   1      28.480  30.465  21.234  1.00  0.00     0.012 A 
ATOM     22  C   UNL A   1      28.344  31.317  23.504  1.00  0.00     0.012 A 
ATOM     23  C   UNL A   1      28.231  31.746  20.744  1.00  0.00     0.001 A 
ATOM     24  C   UNL A   1      28.093  32.596  23.007  1.00  0.00     0.001 A 
ATOM     25  C   UNL A   1      28.024  32.806  21.628  1.00  0.00     0.000 A 
ENDBRANCH  18  20
ENDBRANCH  14  18
ENDBRANCH   9  10
ENDBRANCH   5   8
ENDBRANCH   3   4
ENDBRANCH   2   3
ENDBRANCH   1   2
BRANCH   1  26
ATOM     26  C   UNL A   1      37.780  20.137  24.991  1.00  0.00     0.002 C 
BRANCH  26  27
ATOM     27  C   UNL A   1      39.236  20.509  25.278  1.00  0.00     0.021 C 
BRANCH  27  28
ATOM     28  C   UNL A   1      39.834  19.804  26.491  1.00  0.00     0.116 C 
BRANCH  28  29
ATOM     29  N   UNL A   1      41.034  19.061  26.135  1.00  0.00    -0.352 N 
ATOM     30  C   UNL A   1      42.282  19.534  25.815  1.00  0.00     0.251 C 
ATOM     31  H   UNL A   1      40.937  18.082  26.119  1.00  0.00     0.163 HD
ATOM     32  O   UNL A   1      43.105  18.792  25.288  1.00  0.00    -0.269 OA
BRANCH  30  33
ATOM     33  C   UNL A   1      42.629  20.939  26.112  1.00  0.00     0.039 A 
ATOM     34  C   UNL A   1      42.788  21.334  27.443  1.00  0.00     0.014 A 
ATOM     35  C   UNL A   1      42.776  21.867  25.079  1.00  0.00     0.014 A 
ATOM     36  C   UNL A   1      43.138  22.654  27.733  1.00  0.00     0.010 A 
ATOM     37  C   UNL A   1      43.197  23.162  25.365  1.00  0.00     0.010 A 
ATOM     38  C   UNL A   1      43.369  23.572  26.695  1.00  0.00    -0.014 A 
BRANCH  38  39
ATOM     39  C   UNL A   1      43.788  24.968  26.978  1.00  0.00     0.031 A 
ATOM     40  C   UNL A   1      45.224  25.379  26.792  1.00  0.00     0.074 A 
ATOM     41  C   UNL A   1      42.894  25.838  27.486  1.00  0.00     0.049 A 
ATOM     42  N   UNL A   1      45.792  26.529  27.046  1.00  0.00    -0.248 NA
ATOM     43  C   UNL A   1      46.150  24.355  26.277  1.00  0.00     0.031 C 
ATOM     44  C   UNL A   1      41.493  25.535  27.783  1.00  0.00     0.029 A 
ATOM     45  N   UNL A   1      43.039  27.148  27.871  1.00  0.00    -0.354 N 
ATOM     46  C   UNL A   1      47.141  26.357  26.761  1.00  0.00     0.074 A 
ATOM     47  C   UNL A   1      47.314  24.983  26.345  1.00  0.00     0.031 C 
ATOM     48  C   UNL A   1      40.907  26.625  28.303  1.00  0.00     0.029 A 
ATOM     49  C   UNL A   1      41.895  27.694  28.405  1.00  0.00     0.049 A 
ATOM     50  H   UNL A   1      43.881  27.648  27.774  1.00  0.00     0.167 HD
ATOM     51  C   UNL A   1      48.141  27.269  26.813  1.00  0.00     0.034 A 
ATOM     52  C   UNL A   1      41.671  28.915  28.929  1.00  0.00     0.034 A 
ATOM     53  C   UNL A   1      47.955  28.644  27.188  1.00  0.00     0.049 A 
ATOM     54  C   UNL A   1      42.792  29.920  28.941  1.00  0.00     0.074 A 
ATOM     55  C   UNL A   1      48.884  29.670  27.186  1.00  0.00     0.029 A 
ATOM     56  N   UNL A   1      46.762  29.186  27.643  1.00  0.00    -0.354 N 
ATOM     57  N   UNL A   1      44.024  29.787  28.514  1.00  0.00    -0.248 NA
ATOM     58  C   UNL A   1      42.482  31.254  29.474  1.00  0.00     0.031 C 
ATOM     59  C   UNL A   1      48.259  30.826  27.665  1.00  0.00     0.029 A 
ATOM     60  C   UNL A   1      46.933  30.528  27.936  1.00  0.00     0.049 A 
ATOM     61  H   UNL A   1      45.918  28.689  27.742  1.00  0.00     0.167 HD
ATOM     62  C   UNL A   1      44.626  31.026  28.694  1.00  0.00     0.074 A 
ATOM     63  C   UNL A   1      43.615  31.904  29.246  1.00  0.00     0.031 C 
ATOM     64  C   UNL A   1      45.903  31.402  28.438  1.00  0.00     0.034 A 
BRANCH  51  65
ATOM     65  C   UNL A   1      49.522  26.819  26.408  1.00  0.00     0.023 A 
ATOM     66  C   UNL A   1      50.264  25.985  27.270  1.00  0.00     0.012 A 
ATOM     67  C   UNL A   1      50.060  27.169  25.154  1.00  0.00     0.148 A 
ATOM     68  C   UNL A   1      51.534  25.538  26.909  1.00  0.00     0.002 A 
ATOM     69  C   UNL A   1      51.308  26.681  24.781  1.00  0.00     0.091 A 
ATOM     70  F   UNL A   1      49.350  27.977  24.355  1.00  0.00    -0.205 F 
ATOM     71  C   UNL A   1      52.050  25.877  25.662  1.00  0.00     0.022 A 
BRANCH  69  72
ATOM     72  S   UNL A   1      52.029  26.991  23.165  1.00  0.00     0.127 S 
ATOM     73  O   UNL A   1      52.431  28.391  23.286  1.00  0.00    -0.237 OA
ATOM     74  O   UNL A   1      53.138  26.039  23.134  1.00  0.00    -0.237 OA
ATOM     75  O   UNL A   1      50.973  26.728  22.197  1.00  0.00    -0.744 OA
ENDBRANCH  69  72
ENDBRANCH  51  65
BRANCH  52  76
ATOM     76  C   UNL A   1      40.313  29.276  29.425  1.00  0.00     0.023 A 
ATOM     77  C   UNL A   1      39.386  29.859  28.539  1.00  0.00     0.012 A 
ATOM     78  C   UNL A   1      39.927  29.025  30.756  1.00  0.00     0.148 A 
ATOM     79  C   UNL A   1      38.111  30.216  28.977  1.00  0.00     0.002 A 
ATOM     80  C   UNL A   1      38.636  29.333  31.171  1.00  0.00     0.091 A 
ATOM     81  F   UNL A   1      40.826  28.480  31.586  1.00  0.00    -0.205 F 
ATOM     82  C   UNL A   1      37.733  29.945  30.290  1.00  0.00     0.022 A 
BRANCH  80  83
ATOM     83  S   UNL A   1      38.019  28.903  32.803  1.00  0.00     0.127 S 
ATOM     84  O   UNL A   1      38.934  29.638  33.673  1.00  0.00    -0.237 OA
ATOM     85  O   UNL A   1      36.655  29.432  32.757  1.00  0.00    -0.237 OA
ATOM     86  O   UNL A   1      38.097  27.451  32.882  1.00  0.00    -0.744 OA
ENDBRANCH  80  83
ENDBRANCH  52  76
BRANCH  64  87
ATOM     87  C   UNL A   1      46.280  32.834  28.714  1.00  0.00     0.023 A 
ATOM     88  C   UNL A   1      47.004  33.158  29.880  1.00  0.00     0.012 A 
ATOM     89  C   UNL A   1      45.980  33.849  27.784  1.00  0.00     0.148 A 
ATOM     90  C   UNL A   1      47.393  34.473  30.130  1.00  0.00     0.002 A 
ATOM     91  C   UNL A   1      46.417  35.148  28.015  1.00  0.00     0.091 A 
ATOM     92  F   UNL A   1      45.275  33.524  26.689  1.00  0.00    -0.205 F 
ATOM     93  C   UNL A   1      47.110  35.464  29.193  1.00  0.00     0.022 A 
BRANCH  91  94
ATOM     94  S   UNL A   1      46.185  36.468  26.819  1.00  0.00     0.127 S 
ATOM     95  O   UNL A   1      46.861  35.925  25.642  1.00  0.00    -0.237 OA
ATOM     96  O   UNL A   1      44.728  36.535  26.709  1.00  0.00    -0.237 OA
ATOM     97  O   UNL A   1      46.802  37.652  27.403  1.00  0.00    -0.744 OA
ENDBRANCH  91  94
ENDBRANCH  64  87
ENDBRANCH  38  39
ENDBRANCH  30  33
ENDBRANCH  28  29
ENDBRANCH  27  28
ENDBRANCH  26  27
ENDBRANCH   1  26
TORSDOF 20
ENDMDL
