MODEL 1
REMARK VINA RESULT:     -10.9      0.000      0.000
REMARK SMILES C[C@@H]1[C@@H](C)CC[C@H]1[NH2+][C@@H](C)[C@@H](C)C(=O)NCCCCCCNC(=O)c1ccc(-c2c3nc(c(-c4cccc(S(=O)(=O)[O-])c4F)c4ccc([nH]4)c(-c4cccc(S(=O)(=O)[O-])c4F)c4nc(c(-c5cccc(S(=O)(=O)[O-])c5F)c5ccc2[nH]5)C=C4)C=C3)cc1
REMARK SMILES IDX 18 1 17 2 16 3 15 4 13 5 14 6 11 8 12 9 9 10 10 11 8 12 7 15
REMARK SMILES IDX 1 16 2 17 3 18 5 19 4 20 6 21 19 22 20 23 21 24 22 25 23 26
REMARK SMILES IDX 24 28 25 29 26 30 87 31 27 32 86 33 28 34 29 35 30 36 80 37
REMARK SMILES IDX 31 38 85 39 79 40 81 41 32 42 84 43 78 44 77 45 33 47 65 48
REMARK SMILES IDX 45 49 64 50 46 51 49 52 63 53 82 54 47 55 48 56 62 58 83 59
REMARK SMILES IDX 50 60 34 61 35 62 43 63 36 64 38 65 44 66 37 67 39 68 40 69
REMARK SMILES IDX 41 70 42 71 66 72 67 73 75 74 68 75 70 76 76 77 69 78 71 79
REMARK SMILES IDX 72 80 73 81 74 82 51 83 52 84 60 85 53 86 55 87 61 88 54 89
REMARK SMILES IDX 56 90 57 91 58 92 59 93
REMARK H PARENT 15 7 8 13 8 14 22 27 81 46 49 57
REMARK Flexibility Score: inf
ROOT
ATOM      1  C   UNL A   1      34.726  20.542  25.188  1.00  0.00     0.002 C 
ENDROOT
BRANCH   1   2
ATOM      2  C   UNL A   1      33.343  19.917  24.974  1.00  0.00     0.021 C 
BRANCH   2   3
ATOM      3  C   UNL A   1      32.210  20.922  24.766  1.00  0.00     0.116 C 
BRANCH   3   4
ATOM      4  N   UNL A   1      31.875  21.619  25.993  1.00  0.00    -0.356 N 
ATOM      5  C   UNL A   1      31.971  22.931  26.332  1.00  0.00     0.228 C 
ATOM      6  O   UNL A   1      31.599  23.253  27.465  1.00  0.00    -0.275 OA
ATOM      7  H   UNL A   1      31.516  21.040  26.705  1.00  0.00     0.163 HD
BRANCH   5   8
ATOM      8  C   UNL A   1      32.516  23.992  25.373  1.00  0.00     0.133 C 
ATOM      9  C   UNL A   1      33.750  24.664  25.982  1.00  0.00     0.024 C 
BRANCH   8  10
ATOM     10  C   UNL A   1      31.403  24.937  24.835  1.00  0.00     0.191 C 
ATOM     11  C   UNL A   1      30.681  24.231  23.673  1.00  0.00     0.076 C 
BRANCH  10  12
ATOM     12  N   UNL A   1      31.990  26.223  24.419  1.00  0.00    -0.341 N 
ATOM     13  H   UNL A   1      32.929  26.276  24.813  1.00  0.00     0.346 HD
ATOM     14  H   UNL A   1      31.955  26.215  23.400  1.00  0.00     0.346 HD
BRANCH  12  15
ATOM     15  C   UNL A   1      31.272  27.438  24.819  1.00  0.00     0.185 C 
ATOM     16  C   UNL A   1      31.791  27.459  27.340  1.00  0.00     0.014 C 
ATOM     17  C   UNL A   1      32.010  28.131  25.985  1.00  0.00     0.047 C 
ATOM     18  C   UNL A   1      31.503  29.587  25.956  1.00  0.00    -0.005 C 
ATOM     19  C   UNL A   1      31.049  29.846  24.517  1.00  0.00     0.010 C 
ATOM     20  C   UNL A   1      32.567  30.583  26.407  1.00  0.00     0.008 C 
ATOM     21  C   UNL A   1      31.244  28.541  23.761  1.00  0.00     0.065 C 
ENDBRANCH  12  15
ENDBRANCH  10  12
ENDBRANCH   8  10
ENDBRANCH   5   8
ENDBRANCH   3   4
ENDBRANCH   2   3
ENDBRANCH   1   2
BRANCH   1  22
ATOM     22  C   UNL A   1      35.059  21.727  24.277  1.00  0.00     0.002 C 
BRANCH  22  23
ATOM     23  C   UNL A   1      36.518  22.191  24.306  1.00  0.00     0.021 C 
BRANCH  23  24
ATOM     24  C   UNL A   1      37.114  22.365  25.699  1.00  0.00     0.116 C 
BRANCH  24  25
ATOM     25  N   UNL A   1      38.131  21.368  25.988  1.00  0.00    -0.352 N 
ATOM     26  C   UNL A   1      39.437  21.537  26.370  1.00  0.00     0.251 C 
ATOM     27  H   UNL A   1      37.839  20.432  25.896  1.00  0.00     0.163 HD
ATOM     28  O   UNL A   1      40.196  20.569  26.377  1.00  0.00    -0.269 OA
BRANCH  26  29
ATOM     29  C   UNL A   1      39.940  22.872  26.762  1.00  0.00     0.039 A 
ATOM     30  C   UNL A   1      40.799  22.970  27.860  1.00  0.00     0.014 A 
ATOM     31  C   UNL A   1      39.543  24.028  26.082  1.00  0.00     0.014 A 
ATOM     32  C   UNL A   1      41.285  24.219  28.255  1.00  0.00     0.010 A 
ATOM     33  C   UNL A   1      40.086  25.263  26.431  1.00  0.00     0.010 A 
ATOM     34  C   UNL A   1      40.946  25.375  27.533  1.00  0.00    -0.014 A 
BRANCH  34  35
ATOM     35  C   UNL A   1      41.484  26.702  27.928  1.00  0.00     0.031 A 
ATOM     36  C   UNL A   1      42.915  27.067  27.635  1.00  0.00     0.074 A 
ATOM     37  C   UNL A   1      40.702  27.559  28.612  1.00  0.00     0.049 A 
ATOM     38  N   UNL A   1      43.549  28.184  27.890  1.00  0.00    -0.248 NA
ATOM     39  C   UNL A   1      43.752  26.035  27.003  1.00  0.00     0.031 C 
ATOM     40  C   UNL A   1      39.332  27.285  29.049  1.00  0.00     0.029 A 
ATOM     41  N   UNL A   1      40.954  28.824  29.079  1.00  0.00    -0.354 N 
ATOM     42  C   UNL A   1      44.861  27.978  27.483  1.00  0.00     0.074 A 
ATOM     43  C   UNL A   1      44.943  26.617  27.000  1.00  0.00     0.031 C 
ATOM     44  C   UNL A   1      38.862  28.352  29.715  1.00  0.00     0.029 A 
ATOM     45  C   UNL A   1      39.899  29.379  29.764  1.00  0.00     0.049 A 
ATOM     46  H   UNL A   1      41.809  29.291  28.937  1.00  0.00     0.167 HD
ATOM     47  C   UNL A   1      45.899  28.851  27.481  1.00  0.00     0.034 A 
ATOM     48  C   UNL A   1      39.775  30.581  30.358  1.00  0.00     0.034 A 
ATOM     49  C   UNL A   1      45.803  30.218  27.918  1.00  0.00     0.049 A 
ATOM     50  C   UNL A   1      40.910  31.564  30.264  1.00  0.00     0.074 A 
ATOM     51  C   UNL A   1      46.762  31.212  27.854  1.00  0.00     0.029 A 
ATOM     52  N   UNL A   1      44.682  30.783  28.505  1.00  0.00    -0.354 N 
ATOM     53  N   UNL A   1      42.085  31.416  29.702  1.00  0.00    -0.248 NA
ATOM     54  C   UNL A   1      40.683  32.897  30.841  1.00  0.00     0.031 C 
ATOM     55  C   UNL A   1      46.227  32.374  28.423  1.00  0.00     0.029 A 
ATOM     56  C   UNL A   1      44.926  32.110  28.819  1.00  0.00     0.049 A 
ATOM     57  H   UNL A   1      43.835  30.310  28.677  1.00  0.00     0.167 HD
ATOM     58  C   UNL A   1      42.728  32.643  29.832  1.00  0.00     0.074 A 
ATOM     59  C   UNL A   1      41.797  33.530  30.499  1.00  0.00     0.031 C 
ATOM     60  C   UNL A   1      43.979  32.996  29.447  1.00  0.00     0.034 A 
BRANCH  47  61
ATOM     61  C   UNL A   1      47.217  28.361  26.936  1.00  0.00     0.023 A 
ATOM     62  C   UNL A   1      48.297  28.146  27.817  1.00  0.00     0.012 A 
ATOM     63  C   UNL A   1      47.380  28.081  25.565  1.00  0.00     0.148 A 
ATOM     64  C   UNL A   1      49.530  27.704  27.338  1.00  0.00     0.002 A 
ATOM     65  C   UNL A   1      48.599  27.598  25.101  1.00  0.00     0.091 A 
ATOM     66  F   UNL A   1      46.352  28.314  24.736  1.00  0.00    -0.205 F 
ATOM     67  C   UNL A   1      49.678  27.421  25.984  1.00  0.00     0.022 A 
BRANCH  65  68
ATOM     68  S   UNL A   1      48.859  27.130  23.387  1.00  0.00     0.127 S 
ATOM     69  O   UNL A   1      48.317  28.289  22.679  1.00  0.00    -0.237 OA
ATOM     70  O   UNL A   1      50.316  27.002  23.316  1.00  0.00    -0.237 OA
ATOM     71  O   UNL A   1      48.134  25.881  23.201  1.00  0.00    -0.744 OA
ENDBRANCH  65  68
ENDBRANCH  47  61
BRANCH  48  72
ATOM     72  C   UNL A   1      38.489  30.946  31.014  1.00  0.00     0.023 A 
ATOM     73  C   UNL A   1      38.333  30.736  32.398  1.00  0.00     0.012 A 
ATOM     74  C   UNL A   1      37.446  31.554  30.288  1.00  0.00     0.148 A 
ATOM     75  C   UNL A   1      37.151  31.102  33.043  1.00  0.00     0.002 A 
ATOM     76  C   UNL A   1      36.294  31.966  30.947  1.00  0.00     0.091 A 
ATOM     77  F   UNL A   1      37.614  31.737  28.970  1.00  0.00    -0.205 F 
ATOM     78  C   UNL A   1      36.138  31.726  32.322  1.00  0.00     0.022 A 
BRANCH  76  79
ATOM     79  S   UNL A   1      34.998  32.901  30.126  1.00  0.00     0.127 S 
ATOM     80  O   UNL A   1      34.073  33.160  31.231  1.00  0.00    -0.237 OA
ATOM     81  O   UNL A   1      35.732  34.076  29.651  1.00  0.00    -0.237 OA
ATOM     82  O   UNL A   1      34.495  32.039  29.071  1.00  0.00    -0.744 OA
ENDBRANCH  76  79
ENDBRANCH  48  72
BRANCH  60  83
ATOM     83  C   UNL A   1      44.415  34.413  29.722  1.00  0.00     0.023 A 
ATOM     84  C   UNL A   1      44.948  34.748  30.983  1.00  0.00     0.012 A 
ATOM     85  C   UNL A   1      44.345  35.399  28.718  1.00  0.00     0.148 A 
ATOM     86  C   UNL A   1      45.365  36.051  31.254  1.00  0.00     0.002 A 
ATOM     87  C   UNL A   1      44.808  36.683  28.980  1.00  0.00     0.091 A 
ATOM     88  F   UNL A   1      43.816  35.070  27.530  1.00  0.00    -0.205 F 
ATOM     89  C   UNL A   1      45.305  37.015  30.250  1.00  0.00     0.022 A 
BRANCH  87  90
ATOM     90  S   UNL A   1      44.853  37.955  27.711  1.00  0.00     0.127 S 
ATOM     91  O   UNL A   1      43.444  38.054  27.335  1.00  0.00    -0.237 OA
ATOM     92  O   UNL A   1      45.371  39.113  28.443  1.00  0.00    -0.237 OA
ATOM     93  O   UNL A   1      45.749  37.450  26.679  1.00  0.00    -0.744 OA
ENDBRANCH  87  90
ENDBRANCH  60  83
ENDBRANCH  34  35
ENDBRANCH  26  29
ENDBRANCH  24  25
ENDBRANCH  23  24
ENDBRANCH  22  23
ENDBRANCH   1  22
TORSDOF 19
ENDMDL
MODEL 2
REMARK VINA RESULT:     -10.8      1.678      2.173
REMARK SMILES C[C@@H]1[C@@H](C)CC[C@H]1[NH2+][C@@H](C)[C@@H](C)C(=O)NCCCCCCNC(=O)c1ccc(-c2c3nc(c(-c4cccc(S(=O)(=O)[O-])c4F)c4ccc([nH]4)c(-c4cccc(S(=O)(=O)[O-])c4F)c4nc(c(-c5cccc(S(=O)(=O)[O-])c5F)c5ccc2[nH]5)C=C4)C=C3)cc1
REMARK SMILES IDX 18 1 17 2 16 3 15 4 13 5 14 6 11 8 12 9 9 10 10 11 8 12 7 15
REMARK SMILES IDX 1 16 2 17 3 18 5 19 4 20 6 21 19 22 20 23 21 24 22 25 23 26
REMARK SMILES IDX 24 28 25 29 26 30 87 31 27 32 86 33 28 34 29 35 30 36 80 37
REMARK SMILES IDX 31 38 85 39 79 40 81 41 32 42 84 43 78 44 77 45 33 47 65 48
REMARK SMILES IDX 45 49 64 50 46 51 49 52 63 53 82 54 47 55 48 56 62 58 83 59
REMARK SMILES IDX 50 60 34 61 35 62 43 63 36 64 38 65 44 66 37 67 39 68 40 69
REMARK SMILES IDX 41 70 42 71 66 72 67 73 75 74 68 75 70 76 76 77 69 78 71 79
REMARK SMILES IDX 72 80 73 81 74 82 51 83 52 84 60 85 53 86 55 87 61 88 54 89
REMARK SMILES IDX 56 90 57 91 58 92 59 93
REMARK H PARENT 15 7 8 13 8 14 22 27 81 46 49 57
REMARK Flexibility Score: inf
ROOT
ATOM      1  C   UNL A   1      32.692  20.866  25.473  1.00  0.00     0.002 C 
ENDROOT
BRANCH   1   2
ATOM      2  C   UNL A   1      32.831  20.380  24.027  1.00  0.00     0.021 C 
BRANCH   2   3
ATOM      3  C   UNL A   1      31.941  21.106  23.018  1.00  0.00     0.116 C 
BRANCH   3   4
ATOM      4  N   UNL A   1      32.684  22.087  22.250  1.00  0.00    -0.356 N 
ATOM      5  C   UNL A   1      32.822  23.430  22.409  1.00  0.00     0.228 C 
ATOM      6  O   UNL A   1      33.535  24.026  21.595  1.00  0.00    -0.275 OA
ATOM      7  H   UNL A   1      33.173  21.716  21.481  1.00  0.00     0.163 HD
BRANCH   5   8
ATOM      8  C   UNL A   1      32.133  24.201  23.536  1.00  0.00     0.133 C 
ATOM      9  C   UNL A   1      30.635  24.332  23.242  1.00  0.00     0.024 C 
BRANCH   8  10
ATOM     10  C   UNL A   1      32.886  25.512  23.908  1.00  0.00     0.191 C 
ATOM     11  C   UNL A   1      34.013  25.164  24.897  1.00  0.00     0.076 C 
BRANCH  10  12
ATOM     12  N   UNL A   1      31.942  26.494  24.471  1.00  0.00    -0.341 N 
ATOM     13  H   UNL A   1      31.778  27.207  23.760  1.00  0.00     0.346 HD
ATOM     14  H   UNL A   1      31.118  25.953  24.732  1.00  0.00     0.346 HD
BRANCH  12  15
ATOM     15  C   UNL A   1      32.357  27.180  25.700  1.00  0.00     0.185 C 
ATOM     16  C   UNL A   1      33.875  29.007  24.707  1.00  0.00     0.014 C 
ATOM     17  C   UNL A   1      32.564  28.685  25.424  1.00  0.00     0.047 C 
ATOM     18  C   UNL A   1      32.467  29.352  26.810  1.00  0.00    -0.005 C 
ATOM     19  C   UNL A   1      31.626  28.408  27.673  1.00  0.00     0.010 C 
ATOM     20  C   UNL A   1      31.866  30.752  26.743  1.00  0.00     0.008 C 
ATOM     21  C   UNL A   1      31.301  27.202  26.805  1.00  0.00     0.065 C 
ENDBRANCH  12  15
ENDBRANCH  10  12
ENDBRANCH   8  10
ENDBRANCH   5   8
ENDBRANCH   3   4
ENDBRANCH   2   3
ENDBRANCH   1   2
BRANCH   1  22
ATOM     22  C   UNL A   1      33.922  21.572  26.050  1.00  0.00     0.002 C 
BRANCH  22  23
ATOM     23  C   UNL A   1      35.135  21.650  25.119  1.00  0.00     0.021 C 
BRANCH  23  24
ATOM     24  C   UNL A   1      36.437  22.078  25.788  1.00  0.00     0.116 C 
BRANCH  24  25
ATOM     25  N   UNL A   1      37.398  20.990  25.862  1.00  0.00    -0.352 N 
ATOM     26  C   UNL A   1      38.755  21.033  26.056  1.00  0.00     0.251 C 
ATOM     27  H   UNL A   1      37.018  20.087  25.758  1.00  0.00     0.163 HD
ATOM     28  O   UNL A   1      39.422  20.014  25.892  1.00  0.00    -0.269 OA
BRANCH  26  29
ATOM     29  C   UNL A   1      39.419  22.295  26.449  1.00  0.00     0.039 A 
ATOM     30  C   UNL A   1      38.997  23.489  25.857  1.00  0.00     0.014 A 
ATOM     31  C   UNL A   1      40.478  22.307  27.363  1.00  0.00     0.014 A 
ATOM     32  C   UNL A   1      39.611  24.695  26.206  1.00  0.00     0.010 A 
ATOM     33  C   UNL A   1      41.039  23.518  27.764  1.00  0.00     0.010 A 
ATOM     34  C   UNL A   1      40.626  24.721  27.176  1.00  0.00    -0.014 A 
BRANCH  34  35
ATOM     35  C   UNL A   1      41.261  26.003  27.575  1.00  0.00     0.031 A 
ATOM     36  C   UNL A   1      42.692  26.297  27.211  1.00  0.00     0.074 A 
ATOM     37  C   UNL A   1      40.569  26.882  28.326  1.00  0.00     0.049 A 
ATOM     38  N   UNL A   1      43.402  27.368  27.458  1.00  0.00    -0.248 NA
ATOM     39  C   UNL A   1      43.432  25.240  26.504  1.00  0.00     0.031 C 
ATOM     40  C   UNL A   1      39.212  26.672  28.833  1.00  0.00     0.029 A 
ATOM     41  N   UNL A   1      40.918  28.116  28.811  1.00  0.00    -0.354 N 
ATOM     42  C   UNL A   1      44.676  27.102  26.972  1.00  0.00     0.074 A 
ATOM     43  C   UNL A   1      44.653  25.754  26.449  1.00  0.00     0.031 C 
ATOM     44  C   UNL A   1      38.842  27.743  29.554  1.00  0.00     0.029 A 
ATOM     45  C   UNL A   1      39.937  28.708  29.570  1.00  0.00     0.049 A 
ATOM     46  H   UNL A   1      41.790  28.539  28.633  1.00  0.00     0.167 HD
ATOM     47  C   UNL A   1      45.760  27.915  26.934  1.00  0.00     0.034 A 
ATOM     48  C   UNL A   1      39.916  29.897  30.203  1.00  0.00     0.034 A 
ATOM     49  C   UNL A   1      45.767  29.272  27.413  1.00  0.00     0.049 A 
ATOM     50  C   UNL A   1      41.098  30.818  30.071  1.00  0.00     0.074 A 
ATOM     51  C   UNL A   1      46.777  30.212  27.321  1.00  0.00     0.029 A 
ATOM     52  N   UNL A   1      44.715  29.880  28.078  1.00  0.00    -0.354 N 
ATOM     53  N   UNL A   1      42.230  30.621  29.439  1.00  0.00    -0.248 NA
ATOM     54  C   UNL A   1      40.980  32.143  30.695  1.00  0.00     0.031 C 
ATOM     55  C   UNL A   1      46.342  31.385  27.950  1.00  0.00     0.029 A 
ATOM     56  C   UNL A   1      45.053  31.182  28.413  1.00  0.00     0.049 A 
ATOM     57  H   UNL A   1      43.853  29.451  28.285  1.00  0.00     0.167 HD
ATOM     58  C   UNL A   1      42.948  31.805  29.564  1.00  0.00     0.074 A 
ATOM     59  C   UNL A   1      42.109  32.723  30.308  1.00  0.00     0.031 C 
ATOM     60  C   UNL A   1      44.194  32.100  29.118  1.00  0.00     0.034 A 
BRANCH  47  61
ATOM     61  C   UNL A   1      47.015  27.369  26.301  1.00  0.00     0.023 A 
ATOM     62  C   UNL A   1      47.260  27.600  24.932  1.00  0.00     0.012 A 
ATOM     63  C   UNL A   1      47.966  26.660  27.061  1.00  0.00     0.148 A 
ATOM     64  C   UNL A   1      48.408  27.096  24.319  1.00  0.00     0.002 A 
ATOM     65  C   UNL A   1      49.130  26.200  26.453  1.00  0.00     0.091 A 
ATOM     66  F   UNL A   1      47.708  26.427  28.357  1.00  0.00    -0.205 F 
ATOM     67  C   UNL A   1      49.345  26.406  25.080  1.00  0.00     0.022 A 
BRANCH  65  68
ATOM     68  S   UNL A   1      50.431  25.370  27.371  1.00  0.00     0.127 S 
ATOM     69  O   UNL A   1      51.385  25.052  26.309  1.00  0.00    -0.237 OA
ATOM     70  O   UNL A   1      50.876  26.415  28.295  1.00  0.00    -0.237 OA
ATOM     71  O   UNL A   1      49.798  24.226  28.013  1.00  0.00    -0.744 OA
ENDBRANCH  65  68
ENDBRANCH  47  61
BRANCH  48  72
ATOM     72  C   UNL A   1      38.692  30.313  30.941  1.00  0.00     0.023 A 
ATOM     73  C   UNL A   1      38.588  30.044  32.320  1.00  0.00     0.012 A 
ATOM     74  C   UNL A   1      37.659  31.025  30.300  1.00  0.00     0.148 A 
ATOM     75  C   UNL A   1      37.467  30.454  33.042  1.00  0.00     0.002 A 
ATOM     76  C   UNL A   1      36.571  31.480  31.036  1.00  0.00     0.091 A 
ATOM     77  F   UNL A   1      37.775  31.264  28.986  1.00  0.00    -0.205 F 
ATOM     78  C   UNL A   1      36.466  31.181  32.404  1.00  0.00     0.022 A 
BRANCH  76  79
ATOM     79  S   UNL A   1      35.305  32.540  30.329  1.00  0.00     0.127 S 
ATOM     80  O   UNL A   1      34.796  31.708  29.238  1.00  0.00    -0.237 OA
ATOM     81  O   UNL A   1      34.386  32.701  31.458  1.00  0.00    -0.237 OA
ATOM     82  O   UNL A   1      35.986  33.758  29.930  1.00  0.00    -0.744 OA
ENDBRANCH  76  79
ENDBRANCH  48  72
BRANCH  60  83
ATOM     83  C   UNL A   1      44.725  33.481  29.406  1.00  0.00     0.023 A 
ATOM     84  C   UNL A   1      45.390  33.736  30.622  1.00  0.00     0.012 A 
ATOM     85  C   UNL A   1      44.613  34.512  28.453  1.00  0.00     0.148 A 
ATOM     86  C   UNL A   1      45.896  35.005  30.903  1.00  0.00     0.002 A 
ATOM     87  C   UNL A   1      45.163  35.761  28.719  1.00  0.00     0.091 A 
ATOM     88  F   UNL A   1      43.959  34.262  27.308  1.00  0.00    -0.205 F 
ATOM     89  C   UNL A   1      45.792  36.014  29.948  1.00  0.00     0.022 A 
BRANCH  87  90
ATOM     90  S   UNL A   1      45.154  37.084  27.503  1.00  0.00     0.127 S 
ATOM     91  O   UNL A   1      43.723  37.260  27.261  1.00  0.00    -0.237 OA
ATOM     92  O   UNL A   1      45.789  38.186  28.230  1.00  0.00    -0.237 OA
ATOM     93  O   UNL A   1      45.930  36.586  26.374  1.00  0.00    -0.744 OA
ENDBRANCH  87  90
ENDBRANCH  60  83
ENDBRANCH  34  35
ENDBRANCH  26  29
ENDBRANCH  24  25
ENDBRANCH  23  24
ENDBRANCH  22  23
ENDBRANCH   1  22
TORSDOF 19
ENDMDL
MODEL 3
REMARK VINA RESULT:     -10.7      1.315      1.693
REMARK SMILES C[C@@H]1[C@@H](C)CC[C@H]1[NH2+][C@@H](C)[C@@H](C)C(=O)NCCCCCCNC(=O)c1ccc(-c2c3nc(c(-c4cccc(S(=O)(=O)[O-])c4F)c4ccc([nH]4)c(-c4cccc(S(=O)(=O)[O-])c4F)c4nc(c(-c5cccc(S(=O)(=O)[O-])c5F)c5ccc2[nH]5)C=C4)C=C3)cc1
REMARK SMILES IDX 18 1 17 2 16 3 15 4 13 5 14 6 11 8 12 9 9 10 10 11 8 12 7 15
REMARK SMILES IDX 1 16 2 17 3 18 5 19 4 20 6 21 19 22 20 23 21 24 22 25 23 26
REMARK SMILES IDX 24 28 25 29 26 30 87 31 27 32 86 33 28 34 29 35 30 36 80 37
REMARK SMILES IDX 31 38 85 39 79 40 81 41 32 42 84 43 78 44 77 45 33 47 65 48
REMARK SMILES IDX 45 49 64 50 46 51 49 52 63 53 82 54 47 55 48 56 62 58 83 59
REMARK SMILES IDX 50 60 34 61 35 62 43 63 36 64 38 65 44 66 37 67 39 68 40 69
REMARK SMILES IDX 41 70 42 71 66 72 67 73 75 74 68 75 70 76 76 77 69 78 71 79
REMARK SMILES IDX 72 80 73 81 74 82 51 83 52 84 60 85 53 86 55 87 61 88 54 89
REMARK SMILES IDX 56 90 57 91 58 92 59 93
REMARK H PARENT 15 7 8 13 8 14 22 27 81 46 49 57
REMARK Flexibility Score: inf
ROOT
ATOM      1  C   UNL A   1      33.163  20.653  24.201  1.00  0.00     0.002 C 
ENDROOT
BRANCH   1   2
ATOM      2  C   UNL A   1      32.033  21.414  24.900  1.00  0.00     0.021 C 
BRANCH   2   3
ATOM      3  C   UNL A   1      31.534  22.651  24.151  1.00  0.00     0.116 C 
BRANCH   3   4
ATOM      4  N   UNL A   1      32.422  23.019  23.066  1.00  0.00    -0.356 N 
ATOM      5  C   UNL A   1      32.981  24.212  22.732  1.00  0.00     0.228 C 
ATOM      6  O   UNL A   1      33.718  24.235  21.741  1.00  0.00    -0.275 OA
ATOM      7  H   UNL A   1      32.663  22.276  22.466  1.00  0.00     0.163 HD
BRANCH   5   8
ATOM      8  C   UNL A   1      32.723  25.493  23.527  1.00  0.00     0.133 C 
ATOM      9  C   UNL A   1      32.101  26.558  22.618  1.00  0.00     0.024 C 
BRANCH   8  10
ATOM     10  C   UNL A   1      33.957  25.930  24.369  1.00  0.00     0.191 C 
ATOM     11  C   UNL A   1      33.991  25.091  25.659  1.00  0.00     0.076 C 
BRANCH  10  12
ATOM     12  N   UNL A   1      33.888  27.375  24.653  1.00  0.00    -0.341 N 
ATOM     13  H   UNL A   1      34.837  27.745  24.602  1.00  0.00     0.346 HD
ATOM     14  H   UNL A   1      33.245  27.753  23.958  1.00  0.00     0.346 HD
BRANCH  12  15
ATOM     15  C   UNL A   1      33.327  27.767  25.951  1.00  0.00     0.185 C 
ATOM     16  C   UNL A   1      35.214  29.289  26.817  1.00  0.00     0.014 C 
ATOM     17  C   UNL A   1      33.775  29.201  26.311  1.00  0.00     0.047 C 
ATOM     18  C   UNL A   1      32.748  29.678  27.357  1.00  0.00    -0.005 C 
ATOM     19  C   UNL A   1      31.480  28.858  27.107  1.00  0.00     0.010 C 
ATOM     20  C   UNL A   1      32.484  31.178  27.273  1.00  0.00     0.008 C 
ATOM     21  C   UNL A   1      31.804  27.895  25.975  1.00  0.00     0.065 C 
ENDBRANCH  12  15
ENDBRANCH  10  12
ENDBRANCH   8  10
ENDBRANCH   5   8
ENDBRANCH   3   4
ENDBRANCH   2   3
ENDBRANCH   1   2
BRANCH   1  22
ATOM     22  C   UNL A   1      34.498  20.623  24.951  1.00  0.00     0.002 C 
BRANCH  22  23
ATOM     23  C   UNL A   1      35.433  21.806  24.681  1.00  0.00     0.021 C 
BRANCH  23  24
ATOM     24  C   UNL A   1      36.452  22.088  25.780  1.00  0.00     0.116 C 
BRANCH  24  25
ATOM     25  N   UNL A   1      37.462  21.047  25.871  1.00  0.00    -0.352 N 
ATOM     26  C   UNL A   1      38.814  21.155  26.073  1.00  0.00     0.251 C 
ATOM     27  H   UNL A   1      37.125  20.126  25.772  1.00  0.00     0.163 HD
ATOM     28  O   UNL A   1      39.529  20.166  25.923  1.00  0.00    -0.269 OA
BRANCH  26  29
ATOM     29  C   UNL A   1      39.416  22.450  26.458  1.00  0.00     0.039 A 
ATOM     30  C   UNL A   1      40.442  22.458  27.407  1.00  0.00     0.014 A 
ATOM     31  C   UNL A   1      38.953  23.656  25.923  1.00  0.00     0.014 A 
ATOM     32  C   UNL A   1      41.025  23.667  27.793  1.00  0.00     0.010 A 
ATOM     33  C   UNL A   1      39.584  24.854  26.253  1.00  0.00     0.010 A 
ATOM     34  C   UNL A   1      40.612  24.875  27.206  1.00  0.00    -0.014 A 
BRANCH  34  35
ATOM     35  C   UNL A   1      41.250  26.161  27.588  1.00  0.00     0.031 A 
ATOM     36  C   UNL A   1      42.655  26.481  27.152  1.00  0.00     0.074 A 
ATOM     37  C   UNL A   1      40.586  27.020  28.387  1.00  0.00     0.049 A 
ATOM     38  N   UNL A   1      43.362  27.559  27.376  1.00  0.00    -0.248 NA
ATOM     39  C   UNL A   1      43.371  25.444  26.392  1.00  0.00     0.031 C 
ATOM     40  C   UNL A   1      39.262  26.783  28.963  1.00  0.00     0.029 A 
ATOM     41  N   UNL A   1      40.944  28.253  28.870  1.00  0.00    -0.354 N 
ATOM     42  C   UNL A   1      44.611  27.318  26.818  1.00  0.00     0.074 A 
ATOM     43  C   UNL A   1      44.579  25.976  26.278  1.00  0.00     0.031 C 
ATOM     44  C   UNL A   1      38.916  27.839  29.717  1.00  0.00     0.029 A 
ATOM     45  C   UNL A   1      39.996  28.820  29.688  1.00  0.00     0.049 A 
ATOM     46  H   UNL A   1      41.799  28.690  28.651  1.00  0.00     0.167 HD
ATOM     47  C   UNL A   1      45.680  28.147  26.733  1.00  0.00     0.034 A 
ATOM     48  C   UNL A   1      39.993  30.000  30.338  1.00  0.00     0.034 A 
ATOM     49  C   UNL A   1      45.694  29.497  27.229  1.00  0.00     0.049 A 
ATOM     50  C   UNL A   1      41.153  30.940  30.154  1.00  0.00     0.074 A 
ATOM     51  C   UNL A   1      46.684  30.454  27.096  1.00  0.00     0.029 A 
ATOM     52  N   UNL A   1      44.671  30.082  27.959  1.00  0.00    -0.354 N 
ATOM     53  N   UNL A   1      42.252  30.768  29.460  1.00  0.00    -0.248 NA
ATOM     54  C   UNL A   1      41.051  32.255  30.803  1.00  0.00     0.031 C 
ATOM     55  C   UNL A   1      46.267  31.612  27.764  1.00  0.00     0.029 A 
ATOM     56  C   UNL A   1      45.007  31.384  28.293  1.00  0.00     0.049 A 
ATOM     57  H   UNL A   1      43.827  29.637  28.205  1.00  0.00     0.167 HD
ATOM     58  C   UNL A   1      42.959  31.961  29.563  1.00  0.00     0.074 A 
ATOM     59  C   UNL A   1      42.148  32.857  30.363  1.00  0.00     0.031 C 
ATOM     60  C   UNL A   1      44.175  32.280  29.055  1.00  0.00     0.034 A 
BRANCH  47  61
ATOM     61  C   UNL A   1      46.907  27.628  26.027  1.00  0.00     0.023 A 
ATOM     62  C   UNL A   1      47.855  26.871  26.745  1.00  0.00     0.012 A 
ATOM     63  C   UNL A   1      47.108  27.857  24.651  1.00  0.00     0.148 A 
ATOM     64  C   UNL A   1      49.004  26.389  26.119  1.00  0.00     0.002 A 
ATOM     65  C   UNL A   1      48.234  27.334  24.024  1.00  0.00     0.091 A 
ATOM     66  F   UNL A   1      46.210  28.599  23.986  1.00  0.00    -0.205 F 
ATOM     67  C   UNL A   1      49.189  26.611  24.759  1.00  0.00     0.022 A 
BRANCH  65  68
ATOM     68  S   UNL A   1      48.516  27.502  22.258  1.00  0.00     0.127 S 
ATOM     69  O   UNL A   1      47.262  28.110  21.815  1.00  0.00    -0.237 OA
ATOM     70  O   UNL A   1      49.675  28.396  22.211  1.00  0.00    -0.237 OA
ATOM     71  O   UNL A   1      48.773  26.156  21.766  1.00  0.00    -0.744 OA
ENDBRANCH  65  68
ENDBRANCH  47  61
BRANCH  48  72
ATOM     72  C   UNL A   1      38.804  30.389  31.146  1.00  0.00     0.023 A 
ATOM     73  C   UNL A   1      38.798  30.142  32.533  1.00  0.00     0.012 A 
ATOM     74  C   UNL A   1      37.709  31.054  30.560  1.00  0.00     0.148 A 
ATOM     75  C   UNL A   1      37.712  30.527  33.318  1.00  0.00     0.002 A 
ATOM     76  C   UNL A   1      36.655  31.485  31.358  1.00  0.00     0.091 A 
ATOM     77  F   UNL A   1      37.733  31.273  29.238  1.00  0.00    -0.205 F 
ATOM     78  C   UNL A   1      36.648  31.208  32.734  1.00  0.00     0.022 A 
BRANCH  76  79
ATOM     79  S   UNL A   1      35.311  32.489  30.716  1.00  0.00     0.127 S 
ATOM     80  O   UNL A   1      34.328  32.395  31.796  1.00  0.00    -0.237 OA
ATOM     81  O   UNL A   1      35.953  33.799  30.583  1.00  0.00    -0.237 OA
ATOM     82  O   UNL A   1      34.926  31.878  29.457  1.00  0.00    -0.744 OA
ENDBRANCH  76  79
ENDBRANCH  48  72
BRANCH  60  83
ATOM     83  C   UNL A   1      44.701  33.665  29.333  1.00  0.00     0.023 A 
ATOM     84  C   UNL A   1      45.467  33.903  30.492  1.00  0.00     0.012 A 
ATOM     85  C   UNL A   1      44.483  34.718  28.422  1.00  0.00     0.148 A 
ATOM     86  C   UNL A   1      45.970  35.176  30.762  1.00  0.00     0.002 A 
ATOM     87  C   UNL A   1      45.029  35.972  28.674  1.00  0.00     0.091 A 
ATOM     88  F   UNL A   1      43.735  34.482  27.334  1.00  0.00    -0.205 F 
ATOM     89  C   UNL A   1      45.760  36.206  29.849  1.00  0.00     0.022 A 
BRANCH  87  90
ATOM     90  S   UNL A   1      44.885  37.325  27.500  1.00  0.00     0.127 S 
ATOM     91  O   UNL A   1      45.117  38.488  28.353  1.00  0.00    -0.237 OA
ATOM     92  O   UNL A   1      45.965  37.038  26.553  1.00  0.00    -0.237 OA
ATOM     93  O   UNL A   1      43.547  37.213  26.933  1.00  0.00    -0.744 OA
ENDBRANCH  87  90
ENDBRANCH  60  83
ENDBRANCH  34  35
ENDBRANCH  26  29
ENDBRANCH  24  25
ENDBRANCH  23  24
ENDBRANCH  22  23
ENDBRANCH   1  22
TORSDOF 19
ENDMDL
