MODEL 1
REMARK VINA RESULT:     -12.1      0.000      0.000
REMARK SMILES C[C@@H](NC(=O)c1cc(C(=O)NCCCCCCNC(=O)c2ccc(-c3c4nc(c(-c5cccc(S(=O)(=O)[O-])c5F)c5ccc([nH]5)c(-c5cccc(S(=O)(=O)[O-])c5F)c5nc(c(-c6cccc(S(=O)(=O)[O-])c6F)c6ccc3[nH]6)C=C5)C=C4)cc2)n(C)n1)c1ccccc1
REMARK SMILES IDX 14 1 13 2 12 3 11 4 9 5 10 6 8 8 6 9 7 10 86 11 84 12 85 13
REMARK SMILES IDX 4 14 3 15 5 17 2 18 1 19 87 20 88 21 92 22 89 23 91 24 90 25
REMARK SMILES IDX 15 26 16 27 17 28 18 29 19 30 20 32 21 33 22 34 83 35 23 36
REMARK SMILES IDX 82 37 24 38 25 39 26 40 76 41 27 42 81 43 75 44 77 45 28 46
REMARK SMILES IDX 80 47 74 48 73 49 29 51 61 52 41 53 60 54 42 55 45 56 59 57
REMARK SMILES IDX 78 58 43 59 44 60 58 62 79 63 46 64 30 65 31 66 39 67 32 68
REMARK SMILES IDX 34 69 40 70 33 71 35 72 36 73 37 74 38 75 62 76 63 77 71 78
REMARK SMILES IDX 64 79 66 80 72 81 65 82 67 83 68 84 69 85 70 86 47 87 48 88
REMARK SMILES IDX 56 89 49 90 51 91 57 92 50 93 52 94 53 95 54 96 55 97
REMARK H PARENT 11 7 3 16 18 31 77 50 45 61
REMARK Flexibility Score: inf
ROOT
ATOM      1  C   UNL A   1      33.613  28.756  23.548  1.00  0.00     0.002 C 
ENDROOT
BRANCH   1   2
ATOM      2  C   UNL A   1      33.200  27.545  22.702  1.00  0.00     0.021 C 
BRANCH   2   3
ATOM      3  C   UNL A   1      33.600  26.197  23.307  1.00  0.00     0.116 C 
BRANCH   3   4
ATOM      4  N   UNL A   1      33.650  25.171  22.300  1.00  0.00    -0.351 N 
ATOM      5  C   UNL A   1      33.137  23.914  22.175  1.00  0.00     0.269 C 
ATOM      6  O   UNL A   1      33.278  23.458  21.032  1.00  0.00    -0.268 OA
ATOM      7  H   UNL A   1      34.180  25.440  21.516  1.00  0.00     0.163 HD
BRANCH   5   8
ATOM      8  C   UNL A   1      32.492  23.118  23.205  1.00  0.00     0.126 A 
ATOM      9  C   UNL A   1      32.300  21.387  24.636  1.00  0.00     0.151 A 
ATOM     10  C   UNL A   1      32.873  21.789  23.421  1.00  0.00     0.069 A 
ATOM     11  N   UNL A   1      31.414  22.298  25.047  1.00  0.00    -0.167 NA
ATOM     12  N   UNL A   1      31.603  23.357  24.233  1.00  0.00    -0.262 N 
ATOM     13  C   UNL A   1      30.964  24.562  24.701  1.00  0.00     0.174 C 
BRANCH   9  14
ATOM     14  C   UNL A   1      32.585  20.214  25.444  1.00  0.00     0.272 C 
ATOM     15  N   UNL A   1      33.280  20.356  26.620  1.00  0.00    -0.344 N 
ATOM     16  H   UNL A   1      33.082  19.647  27.273  1.00  0.00     0.164 HD
ATOM     17  O   UNL A   1      32.157  19.090  25.162  1.00  0.00    -0.267 OA
BRANCH  15  18
ATOM     18  C   UNL A   1      34.253  21.336  27.113  1.00  0.00     0.109 C 
ATOM     19  C   UNL A   1      33.500  22.411  27.909  1.00  0.00     0.036 C 
BRANCH  18  20
ATOM     20  C   UNL A   1      35.183  22.019  26.131  1.00  0.00    -0.026 A 
ATOM     21  C   UNL A   1      35.097  23.414  25.960  1.00  0.00     0.006 A 
ATOM     22  C   UNL A   1      36.091  21.309  25.334  1.00  0.00     0.006 A 
ATOM     23  C   UNL A   1      35.912  24.080  25.042  1.00  0.00     0.000 A 
ATOM     24  C   UNL A   1      36.905  21.976  24.411  1.00  0.00     0.000 A 
ATOM     25  C   UNL A   1      36.818  23.360  24.269  1.00  0.00     0.000 A 
ENDBRANCH  18  20
ENDBRANCH  15  18
ENDBRANCH   9  14
ENDBRANCH   5   8
ENDBRANCH   3   4
ENDBRANCH   2   3
ENDBRANCH   1   2
BRANCH   1  26
ATOM     26  C   UNL A   1      33.454  28.570  25.062  1.00  0.00     0.002 C 
BRANCH  26  27
ATOM     27  C   UNL A   1      32.279  29.332  25.684  1.00  0.00     0.021 C 
BRANCH  27  28
ATOM     28  C   UNL A   1      32.591  29.952  27.041  1.00  0.00     0.116 C 
BRANCH  28  29
ATOM     29  N   UNL A   1      32.748  31.395  26.937  1.00  0.00    -0.352 N 
ATOM     30  C   UNL A   1      33.676  32.207  27.537  1.00  0.00     0.251 C 
ATOM     31  H   UNL A   1      32.099  31.853  26.356  1.00  0.00     0.163 HD
ATOM     32  O   UNL A   1      33.499  33.425  27.568  1.00  0.00    -0.269 OA
BRANCH  30  33
ATOM     33  C   UNL A   1      34.887  31.616  28.140  1.00  0.00     0.039 A 
ATOM     34  C   UNL A   1      36.063  32.368  28.191  1.00  0.00     0.014 A 
ATOM     35  C   UNL A   1      34.864  30.309  28.638  1.00  0.00     0.014 A 
ATOM     36  C   UNL A   1      37.206  31.824  28.782  1.00  0.00     0.010 A 
ATOM     37  C   UNL A   1      35.979  29.799  29.294  1.00  0.00     0.010 A 
ATOM     38  C   UNL A   1      37.165  30.545  29.361  1.00  0.00    -0.014 A 
BRANCH  38  39
ATOM     39  C   UNL A   1      38.352  29.965  30.039  1.00  0.00     0.031 A 
ATOM     40  C   UNL A   1      38.749  30.443  31.409  1.00  0.00     0.074 A 
ATOM     41  C   UNL A   1      39.125  29.079  29.382  1.00  0.00     0.049 A 
ATOM     42  N   UNL A   1      39.785  30.105  32.131  1.00  0.00    -0.248 NA
ATOM     43  C   UNL A   1      37.884  31.454  32.039  1.00  0.00     0.031 C 
ATOM     44  C   UNL A   1      38.889  28.601  28.019  1.00  0.00     0.029 A 
ATOM     45  N   UNL A   1      40.281  28.445  29.762  1.00  0.00    -0.354 N 
ATOM     46  C   UNL A   1      39.719  30.886  33.279  1.00  0.00     0.074 A 
ATOM     47  C   UNL A   1      38.562  31.742  33.140  1.00  0.00     0.031 C 
ATOM     48  C   UNL A   1      39.869  27.750  27.676  1.00  0.00     0.029 A 
ATOM     49  C   UNL A   1      40.817  27.645  28.781  1.00  0.00     0.049 A 
ATOM     50  H   UNL A   1      40.687  28.552  30.652  1.00  0.00     0.167 HD
ATOM     51  C   UNL A   1      40.531  30.873  34.364  1.00  0.00     0.034 A 
ATOM     52  C   UNL A   1      41.952  26.919  28.767  1.00  0.00     0.034 A 
ATOM     53  C   UNL A   1      41.659  29.994  34.512  1.00  0.00     0.049 A 
ATOM     54  C   UNL A   1      42.817  26.890  29.996  1.00  0.00     0.074 A 
ATOM     55  C   UNL A   1      42.490  29.836  35.607  1.00  0.00     0.029 A 
ATOM     56  N   UNL A   1      42.123  29.131  33.530  1.00  0.00    -0.354 N 
ATOM     57  N   UNL A   1      42.650  27.515  31.136  1.00  0.00    -0.248 NA
ATOM     58  C   UNL A   1      44.005  26.025  29.954  1.00  0.00     0.031 C 
ATOM     59  C   UNL A   1      43.476  28.900  35.275  1.00  0.00     0.029 A 
ATOM     60  C   UNL A   1      43.237  28.448  33.988  1.00  0.00     0.049 A 
ATOM     61  H   UNL A   1      41.720  29.021  32.639  1.00  0.00     0.167 HD
ATOM     62  C   UNL A   1      43.690  27.097  31.958  1.00  0.00     0.074 A 
ATOM     63  C   UNL A   1      44.469  26.147  31.191  1.00  0.00     0.031 C 
ATOM     64  C   UNL A   1      43.978  27.472  33.228  1.00  0.00     0.034 A 
BRANCH  51  65
ATOM     65  C   UNL A   1      40.198  31.813  35.495  1.00  0.00     0.023 A 
ATOM     66  C   UNL A   1      40.978  32.971  35.694  1.00  0.00     0.012 A 
ATOM     67  C   UNL A   1      39.095  31.573  36.338  1.00  0.00     0.148 A 
ATOM     68  C   UNL A   1      40.695  33.849  36.738  1.00  0.00     0.002 A 
ATOM     69  C   UNL A   1      38.789  32.479  37.347  1.00  0.00     0.091 A 
ATOM     70  F   UNL A   1      38.377  30.457  36.151  1.00  0.00    -0.205 F 
ATOM     71  C   UNL A   1      39.597  33.610  37.558  1.00  0.00     0.022 A 
BRANCH  69  72
ATOM     72  S   UNL A   1      37.348  32.301  38.404  1.00  0.00     0.127 S 
ATOM     73  O   UNL A   1      37.814  32.917  39.644  1.00  0.00    -0.237 OA
ATOM     74  O   UNL A   1      36.338  33.074  37.680  1.00  0.00    -0.237 OA
ATOM     75  O   UNL A   1      37.079  30.872  38.476  1.00  0.00    -0.744 OA
ENDBRANCH  69  72
ENDBRANCH  51  65
BRANCH  52  76
ATOM     76  C   UNL A   1      42.295  26.111  27.563  1.00  0.00     0.023 A 
ATOM     77  C   UNL A   1      43.079  26.684  26.543  1.00  0.00     0.012 A 
ATOM     78  C   UNL A   1      41.893  24.766  27.447  1.00  0.00     0.148 A 
ATOM     79  C   UNL A   1      43.433  25.942  25.416  1.00  0.00     0.002 A 
ATOM     80  C   UNL A   1      42.298  24.016  26.350  1.00  0.00     0.091 A 
ATOM     81  F   UNL A   1      41.143  24.242  28.427  1.00  0.00    -0.205 F 
ATOM     82  C   UNL A   1      43.053  24.606  25.325  1.00  0.00     0.022 A 
BRANCH  80  83
ATOM     83  S   UNL A   1      41.973  22.255  26.214  1.00  0.00     0.127 S 
ATOM     84  O   UNL A   1      42.528  21.750  27.467  1.00  0.00    -0.237 OA
ATOM     85  O   UNL A   1      40.512  22.225  26.128  1.00  0.00    -0.237 OA
ATOM     86  O   UNL A   1      42.654  21.819  25.002  1.00  0.00    -0.744 OA
ENDBRANCH  80  83
ENDBRANCH  52  76
BRANCH  64  87
ATOM     87  C   UNL A   1      45.168  26.830  33.894  1.00  0.00     0.023 A 
ATOM     88  C   UNL A   1      46.428  27.460  33.843  1.00  0.00     0.012 A 
ATOM     89  C   UNL A   1      45.019  25.640  34.635  1.00  0.00     0.148 A 
ATOM     90  C   UNL A   1      47.527  26.898  34.491  1.00  0.00     0.002 A 
ATOM     91  C   UNL A   1      46.108  25.114  35.320  1.00  0.00     0.091 A 
ATOM     92  F   UNL A   1      43.818  25.047  34.655  1.00  0.00    -0.205 F 
ATOM     93  C   UNL A   1      47.365  25.734  35.239  1.00  0.00     0.022 A 
BRANCH  91  94
ATOM     94  S   UNL A   1      45.969  23.676  36.387  1.00  0.00     0.127 S 
ATOM     95  O   UNL A   1      44.954  24.112  37.345  1.00  0.00    -0.237 OA
ATOM     96  O   UNL A   1      45.524  22.640  35.455  1.00  0.00    -0.237 OA
ATOM     97  O   UNL A   1      47.299  23.458  36.942  1.00  0.00    -0.744 OA
ENDBRANCH  91  94
ENDBRANCH  64  87
ENDBRANCH  38  39
ENDBRANCH  30  33
ENDBRANCH  28  29
ENDBRANCH  27  28
ENDBRANCH  26  27
ENDBRANCH   1  26
TORSDOF 19
ENDMDL
MODEL 2
REMARK VINA RESULT:     -11.8      2.160      2.592
REMARK SMILES C[C@@H](NC(=O)c1cc(C(=O)NCCCCCCNC(=O)c2ccc(-c3c4nc(c(-c5cccc(S(=O)(=O)[O-])c5F)c5ccc([nH]5)c(-c5cccc(S(=O)(=O)[O-])c5F)c5nc(c(-c6cccc(S(=O)(=O)[O-])c6F)c6ccc3[nH]6)C=C5)C=C4)cc2)n(C)n1)c1ccccc1
REMARK SMILES IDX 14 1 13 2 12 3 11 4 9 5 10 6 8 8 6 9 7 10 86 11 84 12 85 13
REMARK SMILES IDX 4 14 3 15 5 17 2 18 1 19 87 20 88 21 92 22 89 23 91 24 90 25
REMARK SMILES IDX 15 26 16 27 17 28 18 29 19 30 20 32 21 33 22 34 83 35 23 36
REMARK SMILES IDX 82 37 24 38 25 39 26 40 76 41 27 42 81 43 75 44 77 45 28 46
REMARK SMILES IDX 80 47 74 48 73 49 29 51 61 52 41 53 60 54 42 55 45 56 59 57
REMARK SMILES IDX 78 58 43 59 44 60 58 62 79 63 46 64 30 65 31 66 39 67 32 68
REMARK SMILES IDX 34 69 40 70 33 71 35 72 36 73 37 74 38 75 62 76 63 77 71 78
REMARK SMILES IDX 64 79 66 80 72 81 65 82 67 83 68 84 69 85 70 86 47 87 48 88
REMARK SMILES IDX 56 89 49 90 51 91 57 92 50 93 52 94 53 95 54 96 55 97
REMARK H PARENT 11 7 3 16 18 31 77 50 45 61
REMARK Flexibility Score: inf
ROOT
ATOM      1  C   UNL A   1      32.536  28.598  23.387  1.00  0.00     0.002 C 
ENDROOT
BRANCH   1   2
ATOM      2  C   UNL A   1      32.263  27.099  23.560  1.00  0.00     0.021 C 
BRANCH   2   3
ATOM      3  C   UNL A   1      33.528  26.243  23.660  1.00  0.00     0.116 C 
BRANCH   3   4
ATOM      4  N   UNL A   1      33.609  25.308  22.570  1.00  0.00    -0.351 N 
ATOM      5  C   UNL A   1      33.108  24.064  22.325  1.00  0.00     0.269 C 
ATOM      6  O   UNL A   1      33.279  23.709  21.151  1.00  0.00    -0.268 OA
ATOM      7  H   UNL A   1      34.155  25.646  21.824  1.00  0.00     0.163 HD
BRANCH   5   8
ATOM      8  C   UNL A   1      32.444  23.179  23.267  1.00  0.00     0.126 A 
ATOM      9  C   UNL A   1      32.264  21.369  24.599  1.00  0.00     0.151 A 
ATOM     10  C   UNL A   1      32.895  21.866  23.449  1.00  0.00     0.069 A 
ATOM     11  N   UNL A   1      31.294  22.202  24.984  1.00  0.00    -0.167 NA
ATOM     12  N   UNL A   1      31.471  23.311  24.236  1.00  0.00    -0.262 N 
ATOM     13  C   UNL A   1      30.724  24.449  24.710  1.00  0.00     0.174 C 
BRANCH   9  14
ATOM     14  C   UNL A   1      32.566  20.177  25.372  1.00  0.00     0.272 C 
ATOM     15  N   UNL A   1      33.259  20.295  26.552  1.00  0.00    -0.344 N 
ATOM     16  H   UNL A   1      33.072  19.563  27.183  1.00  0.00     0.164 HD
ATOM     17  O   UNL A   1      32.155  19.056  25.056  1.00  0.00    -0.267 OA
BRANCH  15  18
ATOM     18  C   UNL A   1      34.217  21.273  27.074  1.00  0.00     0.109 C 
ATOM     19  C   UNL A   1      33.448  22.320  27.891  1.00  0.00     0.036 C 
BRANCH  18  20
ATOM     20  C   UNL A   1      35.145  21.991  26.115  1.00  0.00    -0.026 A 
ATOM     21  C   UNL A   1      36.090  21.245  25.385  1.00  0.00     0.006 A 
ATOM     22  C   UNL A   1      35.147  23.386  25.970  1.00  0.00     0.006 A 
ATOM     23  C   UNL A   1      36.986  21.871  24.515  1.00  0.00     0.000 A 
ATOM     24  C   UNL A   1      36.049  24.012  25.102  1.00  0.00     0.000 A 
ATOM     25  C   UNL A   1      36.964  23.255  24.373  1.00  0.00     0.000 A 
ENDBRANCH  18  20
ENDBRANCH  15  18
ENDBRANCH   9  14
ENDBRANCH   5   8
ENDBRANCH   3   4
ENDBRANCH   2   3
ENDBRANCH   1   2
BRANCH   1  26
ATOM     26  C   UNL A   1      32.985  29.323  24.661  1.00  0.00     0.002 C 
BRANCH  26  27
ATOM     27  C   UNL A   1      32.545  28.657  25.970  1.00  0.00     0.021 C 
BRANCH  27  28
ATOM     28  C   UNL A   1      33.371  29.069  27.183  1.00  0.00     0.116 C 
BRANCH  28  29
ATOM     29  N   UNL A   1      33.537  30.515  27.242  1.00  0.00    -0.352 N 
ATOM     30  C   UNL A   1      34.491  31.247  27.898  1.00  0.00     0.251 C 
ATOM     31  H   UNL A   1      32.871  31.039  26.742  1.00  0.00     0.163 HD
ATOM     32  O   UNL A   1      34.326  32.454  28.078  1.00  0.00    -0.269 OA
BRANCH  30  33
ATOM     33  C   UNL A   1      35.718  30.584  28.386  1.00  0.00     0.039 A 
ATOM     34  C   UNL A   1      36.888  30.667  27.626  1.00  0.00     0.014 A 
ATOM     35  C   UNL A   1      35.705  29.865  29.584  1.00  0.00     0.014 A 
ATOM     36  C   UNL A   1      38.058  30.064  28.093  1.00  0.00     0.010 A 
ATOM     37  C   UNL A   1      36.888  29.331  30.084  1.00  0.00     0.010 A 
ATOM     38  C   UNL A   1      38.073  29.412  29.337  1.00  0.00    -0.014 A 
BRANCH  38  39
ATOM     39  C   UNL A   1      39.316  28.806  29.878  1.00  0.00     0.031 A 
ATOM     40  C   UNL A   1      39.979  29.397  31.092  1.00  0.00     0.074 A 
ATOM     41  C   UNL A   1      39.897  27.784  29.220  1.00  0.00     0.049 A 
ATOM     42  N   UNL A   1      41.099  29.049  31.670  1.00  0.00    -0.248 NA
ATOM     43  C   UNL A   1      39.312  30.548  31.723  1.00  0.00     0.031 C 
ATOM     44  C   UNL A   1      39.392  27.179  27.986  1.00  0.00     0.029 A 
ATOM     45  N   UNL A   1      41.054  27.094  29.481  1.00  0.00    -0.354 N 
ATOM     46  C   UNL A   1      41.292  29.957  32.705  1.00  0.00     0.074 A 
ATOM     47  C   UNL A   1      40.191  30.895  32.652  1.00  0.00     0.031 C 
ATOM     48  C   UNL A   1      40.234  26.209  27.596  1.00  0.00     0.029 A 
ATOM     49  C   UNL A   1      41.351  26.143  28.533  1.00  0.00     0.049 A 
ATOM     50  H   UNL A   1      41.616  27.264  30.271  1.00  0.00     0.167 HD
ATOM     51  C   UNL A   1      42.278  29.992  33.633  1.00  0.00     0.034 A 
ATOM     52  C   UNL A   1      42.411  25.319  28.424  1.00  0.00     0.034 A 
ATOM     53  C   UNL A   1      43.349  29.035  33.702  1.00  0.00     0.049 A 
ATOM     54  C   UNL A   1      43.475  25.350  29.488  1.00  0.00     0.074 A 
ATOM     55  C   UNL A   1      44.345  28.927  34.656  1.00  0.00     0.029 A 
ATOM     56  N   UNL A   1      43.571  28.028  32.775  1.00  0.00    -0.354 N 
ATOM     57  N   UNL A   1      43.555  26.112  30.551  1.00  0.00    -0.248 NA
ATOM     58  C   UNL A   1      44.572  24.381  29.359  1.00  0.00     0.031 C 
ATOM     59  C   UNL A   1      45.189  27.873  34.287  1.00  0.00     0.029 A 
ATOM     60  C   UNL A   1      44.697  27.303  33.124  1.00  0.00     0.049 A 
ATOM     61  H   UNL A   1      43.012  27.856  31.983  1.00  0.00     0.167 HD
ATOM     62  C   UNL A   1      44.690  25.695  31.236  1.00  0.00     0.074 A 
ATOM     63  C   UNL A   1      45.254  24.598  30.476  1.00  0.00     0.031 C 
ATOM     64  C   UNL A   1      45.223  26.183  32.383  1.00  0.00     0.034 A 
BRANCH  51  65
ATOM     65  C   UNL A   1      42.215  31.080  34.676  1.00  0.00     0.023 A 
ATOM     66  C   UNL A   1      41.536  30.845  35.890  1.00  0.00     0.012 A 
ATOM     67  C   UNL A   1      42.857  32.317  34.474  1.00  0.00     0.148 A 
ATOM     68  C   UNL A   1      41.457  31.838  36.864  1.00  0.00     0.002 A 
ATOM     69  C   UNL A   1      42.817  33.285  35.471  1.00  0.00     0.091 A 
ATOM     70  F   UNL A   1      43.480  32.533  33.307  1.00  0.00    -0.205 F 
ATOM     71  C   UNL A   1      42.105  33.053  36.661  1.00  0.00     0.022 A 
BRANCH  69  72
ATOM     72  S   UNL A   1      43.686  34.850  35.337  1.00  0.00     0.127 S 
ATOM     73  O   UNL A   1      43.358  35.481  36.614  1.00  0.00    -0.237 OA
ATOM     74  O   UNL A   1      45.079  34.419  35.209  1.00  0.00    -0.237 OA
ATOM     75  O   UNL A   1      43.147  35.508  34.156  1.00  0.00    -0.744 OA
ENDBRANCH  69  72
ENDBRANCH  51  65
BRANCH  52  76
ATOM     76  C   UNL A   1      42.481  24.353  27.293  1.00  0.00     0.023 A 
ATOM     77  C   UNL A   1      43.192  24.698  26.127  1.00  0.00     0.012 A 
ATOM     78  C   UNL A   1      41.890  23.078  27.384  1.00  0.00     0.148 A 
ATOM     79  C   UNL A   1      43.291  23.803  25.063  1.00  0.00     0.002 A 
ATOM     80  C   UNL A   1      42.040  22.170  26.343  1.00  0.00     0.091 A 
ATOM     81  F   UNL A   1      41.211  22.772  28.499  1.00  0.00    -0.205 F 
ATOM     82  C   UNL A   1      42.726  22.536  25.175  1.00  0.00     0.022 A 
BRANCH  80  83
ATOM     83  S   UNL A   1      41.466  20.471  26.454  1.00  0.00     0.127 S 
ATOM     84  O   UNL A   1      40.035  20.622  26.201  1.00  0.00    -0.237 OA
ATOM     85  O   UNL A   1      42.221  19.829  25.377  1.00  0.00    -0.237 OA
ATOM     86  O   UNL A   1      41.826  20.019  27.792  1.00  0.00    -0.744 OA
ENDBRANCH  80  83
ENDBRANCH  52  76
BRANCH  64  87
ATOM     87  C   UNL A   1      46.462  25.514  32.918  1.00  0.00     0.023 A 
ATOM     88  C   UNL A   1      47.735  26.016  32.579  1.00  0.00     0.012 A 
ATOM     89  C   UNL A   1      46.361  24.435  33.820  1.00  0.00     0.148 A 
ATOM     90  C   UNL A   1      48.888  25.431  33.102  1.00  0.00     0.002 A 
ATOM     91  C   UNL A   1      47.513  23.892  34.377  1.00  0.00     0.091 A 
ATOM     92  F   UNL A   1      45.143  23.961  34.115  1.00  0.00    -0.205 F 
ATOM     93  C   UNL A   1      48.777  24.380  34.009  1.00  0.00     0.022 A 
BRANCH  91  94
ATOM     94  S   UNL A   1      47.462  22.604  35.627  1.00  0.00     0.127 S 
ATOM     95  O   UNL A   1      46.883  21.488  34.882  1.00  0.00    -0.237 OA
ATOM     96  O   UNL A   1      48.877  22.444  35.965  1.00  0.00    -0.237 OA
ATOM     97  O   UNL A   1      46.639  23.127  36.710  1.00  0.00    -0.744 OA
ENDBRANCH  91  94
ENDBRANCH  64  87
ENDBRANCH  38  39
ENDBRANCH  30  33
ENDBRANCH  28  29
ENDBRANCH  27  28
ENDBRANCH  26  27
ENDBRANCH   1  26
TORSDOF 19
ENDMDL
MODEL 3
REMARK VINA RESULT:     -11.6      5.433      8.930
REMARK SMILES C[C@@H](NC(=O)c1cc(C(=O)NCCCCCCNC(=O)c2ccc(-c3c4nc(c(-c5cccc(S(=O)(=O)[O-])c5F)c5ccc([nH]5)c(-c5cccc(S(=O)(=O)[O-])c5F)c5nc(c(-c6cccc(S(=O)(=O)[O-])c6F)c6ccc3[nH]6)C=C5)C=C4)cc2)n(C)n1)c1ccccc1
REMARK SMILES IDX 14 1 13 2 12 3 11 4 9 5 10 6 8 8 6 9 7 10 86 11 84 12 85 13
REMARK SMILES IDX 4 14 3 15 5 17 2 18 1 19 87 20 88 21 92 22 89 23 91 24 90 25
REMARK SMILES IDX 15 26 16 27 17 28 18 29 19 30 20 32 21 33 22 34 83 35 23 36
REMARK SMILES IDX 82 37 24 38 25 39 26 40 76 41 27 42 81 43 75 44 77 45 28 46
REMARK SMILES IDX 80 47 74 48 73 49 29 51 61 52 41 53 60 54 42 55 45 56 59 57
REMARK SMILES IDX 78 58 43 59 44 60 58 62 79 63 46 64 30 65 31 66 39 67 32 68
REMARK SMILES IDX 34 69 40 70 33 71 35 72 36 73 37 74 38 75 62 76 63 77 71 78
REMARK SMILES IDX 64 79 66 80 72 81 65 82 67 83 68 84 69 85 70 86 47 87 48 88
REMARK SMILES IDX 56 89 49 90 51 91 57 92 50 93 52 94 53 95 54 96 55 97
REMARK H PARENT 11 7 3 16 18 31 77 50 45 61
REMARK Flexibility Score: inf
ROOT
ATOM      1  C   UNL A   1      35.955  21.094  25.050  1.00  0.00     0.002 C 
ENDROOT
BRANCH   1   2
ATOM      2  C   UNL A   1      34.468  21.011  24.684  1.00  0.00     0.021 C 
BRANCH   2   3
ATOM      3  C   UNL A   1      33.598  20.352  25.758  1.00  0.00     0.116 C 
BRANCH   3   4
ATOM      4  N   UNL A   1      33.579  21.138  26.963  1.00  0.00    -0.351 N 
ATOM      5  C   UNL A   1      32.919  22.257  27.375  1.00  0.00     0.269 C 
ATOM      6  O   UNL A   1      33.071  22.476  28.585  1.00  0.00    -0.268 OA
ATOM      7  H   UNL A   1      34.187  20.785  27.652  1.00  0.00     0.163 HD
BRANCH   5   8
ATOM      8  C   UNL A   1      32.115  23.156  26.566  1.00  0.00     0.126 A 
ATOM      9  C   UNL A   1      31.656  24.436  24.767  1.00  0.00     0.151 A 
ATOM     10  C   UNL A   1      32.701  23.904  25.537  1.00  0.00     0.069 A 
ATOM     11  N   UNL A   1      30.490  24.255  25.392  1.00  0.00    -0.167 NA
ATOM     12  N   UNL A   1      30.769  23.420  26.414  1.00  0.00    -0.262 N 
ATOM     13  C   UNL A   1      29.596  22.853  27.030  1.00  0.00     0.174 C 
BRANCH   9  14
ATOM     14  C   UNL A   1      31.705  25.057  23.455  1.00  0.00     0.272 C 
ATOM     15  N   UNL A   1      31.358  26.379  23.321  1.00  0.00    -0.344 N 
ATOM     16  H   UNL A   1      31.788  26.813  22.548  1.00  0.00     0.164 HD
ATOM     17  O   UNL A   1      32.125  24.468  22.454  1.00  0.00    -0.267 OA
BRANCH  15  18
ATOM     18  C   UNL A   1      30.487  27.283  24.077  1.00  0.00     0.109 C 
ATOM     19  C   UNL A   1      29.709  28.155  23.082  1.00  0.00     0.036 C 
BRANCH  18  20
ATOM     20  C   UNL A   1      31.088  28.178  25.142  1.00  0.00    -0.026 A 
ATOM     21  C   UNL A   1      31.376  27.638  26.410  1.00  0.00     0.006 A 
ATOM     22  C   UNL A   1      31.312  29.546  24.937  1.00  0.00     0.006 A 
ATOM     23  C   UNL A   1      31.899  28.435  27.431  1.00  0.00     0.000 A 
ATOM     24  C   UNL A   1      31.832  30.345  25.962  1.00  0.00     0.000 A 
ATOM     25  C   UNL A   1      32.130  29.789  27.206  1.00  0.00     0.000 A 
ENDBRANCH  18  20
ENDBRANCH  15  18
ENDBRANCH   9  14
ENDBRANCH   5   8
ENDBRANCH   3   4
ENDBRANCH   2   3
ENDBRANCH   1   2
BRANCH   1  26
ATOM     26  C   UNL A   1      36.711  19.762  24.986  1.00  0.00     0.002 C 
BRANCH  26  27
ATOM     27  C   UNL A   1      38.209  19.885  24.690  1.00  0.00     0.021 C 
BRANCH  27  28
ATOM     28  C   UNL A   1      39.060  20.194  25.917  1.00  0.00     0.116 C 
BRANCH  28  29
ATOM     29  N   UNL A   1      40.136  19.224  26.069  1.00  0.00    -0.352 N 
ATOM     30  C   UNL A   1      41.486  19.442  26.161  1.00  0.00     0.251 C 
ATOM     31  H   UNL A   1      39.855  18.282  26.113  1.00  0.00     0.163 HD
ATOM     32  O   UNL A   1      42.272  18.507  26.004  1.00  0.00    -0.269 OA
BRANCH  30  33
ATOM     33  C   UNL A   1      41.993  20.798  26.451  1.00  0.00     0.039 A 
ATOM     34  C   UNL A   1      42.222  21.683  25.395  1.00  0.00     0.014 A 
ATOM     35  C   UNL A   1      42.260  21.186  27.767  1.00  0.00     0.014 A 
ATOM     36  C   UNL A   1      42.679  22.975  25.664  1.00  0.00     0.010 A 
ATOM     37  C   UNL A   1      42.640  22.496  28.039  1.00  0.00     0.010 A 
ATOM     38  C   UNL A   1      42.868  23.400  26.989  1.00  0.00    -0.014 A 
BRANCH  38  39
ATOM     39  C   UNL A   1      43.304  24.784  27.303  1.00  0.00     0.031 A 
ATOM     40  C   UNL A   1      42.342  25.757  27.927  1.00  0.00     0.074 A 
ATOM     41  C   UNL A   1      44.536  25.189  26.941  1.00  0.00     0.049 A 
ATOM     42  N   UNL A   1      42.518  27.021  28.214  1.00  0.00    -0.248 NA
ATOM     43  C   UNL A   1      40.995  25.254  28.244  1.00  0.00     0.031 C 
ATOM     44  C   UNL A   1      45.530  24.361  26.256  1.00  0.00     0.029 A 
ATOM     45  N   UNL A   1      45.151  26.409  27.071  1.00  0.00    -0.354 N 
ATOM     46  C   UNL A   1      41.299  27.473  28.706  1.00  0.00     0.074 A 
ATOM     47  C   UNL A   1      40.381  26.357  28.645  1.00  0.00     0.031 C 
ATOM     48  C   UNL A   1      46.630  25.095  26.025  1.00  0.00     0.029 A 
ATOM     49  C   UNL A   1      46.409  26.452  26.517  1.00  0.00     0.049 A 
ATOM     50  H   UNL A   1      44.732  27.179  27.518  1.00  0.00     0.167 HD
ATOM     51  C   UNL A   1      40.979  28.696  29.193  1.00  0.00     0.034 A 
ATOM     52  C   UNL A   1      47.282  27.472  26.407  1.00  0.00     0.034 A 
ATOM     53  C   UNL A   1      41.908  29.791  29.285  1.00  0.00     0.049 A 
ATOM     54  C   UNL A   1      46.920  28.810  26.988  1.00  0.00     0.074 A 
ATOM     55  C   UNL A   1      41.712  31.040  29.845  1.00  0.00     0.029 A 
ATOM     56  N   UNL A   1      43.205  29.771  28.793  1.00  0.00    -0.354 N 
ATOM     57  N   UNL A   1      45.818  29.174  27.597  1.00  0.00    -0.248 NA
ATOM     58  C   UNL A   1      47.937  29.869  26.904  1.00  0.00     0.031 C 
ATOM     59  C   UNL A   1      42.881  31.788  29.664  1.00  0.00     0.029 A 
ATOM     60  C   UNL A   1      43.817  30.991  29.024  1.00  0.00     0.049 A 
ATOM     61  H   UNL A   1      43.627  29.003  28.345  1.00  0.00     0.167 HD
ATOM     62  C   UNL A   1      46.018  30.490  27.997  1.00  0.00     0.074 A 
ATOM     63  C   UNL A   1      47.357  30.852  27.581  1.00  0.00     0.031 C 
ATOM     64  C   UNL A   1      45.167  31.324  28.643  1.00  0.00     0.034 A 
BRANCH  51  65
ATOM     65  C   UNL A   1      39.575  28.898  29.703  1.00  0.00     0.023 A 
ATOM     66  C   UNL A   1      39.258  28.548  31.033  1.00  0.00     0.012 A 
ATOM     67  C   UNL A   1      38.580  29.467  28.885  1.00  0.00     0.148 A 
ATOM     68  C   UNL A   1      37.966  28.717  31.524  1.00  0.00     0.002 A 
ATOM     69  C   UNL A   1      37.305  29.679  29.398  1.00  0.00     0.091 A 
ATOM     70  F   UNL A   1      38.890  29.774  27.618  1.00  0.00    -0.205 F 
ATOM     71  C   UNL A   1      36.992  29.292  30.712  1.00  0.00     0.022 A 
BRANCH  69  72
ATOM     72  S   UNL A   1      36.005  30.485  28.457  1.00  0.00     0.127 S 
ATOM     73  O   UNL A   1      35.482  29.374  27.666  1.00  0.00    -0.237 OA
ATOM     74  O   UNL A   1      35.108  30.957  29.513  1.00  0.00    -0.237 OA
ATOM     75  O   UNL A   1      36.657  31.543  27.699  1.00  0.00    -0.744 OA
ENDBRANCH  69  72
ENDBRANCH  51  65
BRANCH  52  76
ATOM     76  C   UNL A   1      48.609  27.241  25.770  1.00  0.00     0.023 A 
ATOM     77  C   UNL A   1      49.666  26.716  26.539  1.00  0.00     0.012 A 
ATOM     78  C   UNL A   1      48.815  27.491  24.400  1.00  0.00     0.148 A 
ATOM     79  C   UNL A   1      50.911  26.469  25.961  1.00  0.00     0.002 A 
ATOM     80  C   UNL A   1      50.040  27.189  23.818  1.00  0.00     0.091 A 
ATOM     81  F   UNL A   1      47.798  27.997  23.688  1.00  0.00    -0.205 F 
ATOM     82  C   UNL A   1      51.095  26.695  24.600  1.00  0.00     0.022 A 
BRANCH  80  83
ATOM     83  S   UNL A   1      50.326  27.317  22.049  1.00  0.00     0.127 S 
ATOM     84  O   UNL A   1      49.306  26.416  21.516  1.00  0.00    -0.237 OA
ATOM     85  O   UNL A   1      50.081  28.739  21.808  1.00  0.00    -0.237 OA
ATOM     86  O   UNL A   1      51.706  26.901  21.840  1.00  0.00    -0.744 OA
ENDBRANCH  80  83
ENDBRANCH  52  76
BRANCH  64  87
ATOM     87  C   UNL A   1      45.663  32.707  28.978  1.00  0.00     0.023 A 
ATOM     88  C   UNL A   1      46.354  32.935  30.184  1.00  0.00     0.012 A 
ATOM     89  C   UNL A   1      45.509  33.765  28.058  1.00  0.00     0.148 A 
ATOM     90  C   UNL A   1      46.855  34.201  30.485  1.00  0.00     0.002 A 
ATOM     91  C   UNL A   1      46.056  35.010  28.343  1.00  0.00     0.091 A 
ATOM     92  F   UNL A   1      44.832  33.533  26.925  1.00  0.00    -0.205 F 
ATOM     93  C   UNL A   1      46.717  35.234  29.561  1.00  0.00     0.022 A 
BRANCH  91  94
ATOM     94  S   UNL A   1      46.014  36.370  27.170  1.00  0.00     0.127 S 
ATOM     95  O   UNL A   1      44.590  36.704  27.151  1.00  0.00    -0.237 OA
ATOM     96  O   UNL A   1      46.866  37.366  27.820  1.00  0.00    -0.237 OA
ATOM     97  O   UNL A   1      46.548  35.841  25.922  1.00  0.00    -0.744 OA
ENDBRANCH  91  94
ENDBRANCH  64  87
ENDBRANCH  38  39
ENDBRANCH  30  33
ENDBRANCH  28  29
ENDBRANCH  27  28
ENDBRANCH  26  27
ENDBRANCH   1  26
TORSDOF 19
ENDMDL
