MODEL 1
REMARK VINA RESULT:     -11.5      0.000      0.000
REMARK SMILES CCOc1ccc(-c2nc(C(=O)NCCCCCCNC(=O)c3ccc(-c4c5nc(c(-c6cccc(S(=O)(=O)[O-])c6F)c6ccc([nH]6)c(-c6cccc(S(=O)(=O)[O-])c6F)c6nc(c(-c7cccc(S(=O)(=O)[O-])c7F)c7ccc4[nH]7)C=C6)C=C5)cc3)cc(=O)[nH]2)cc1
REMARK SMILES IDX 16 1 15 2 14 3 13 4 11 5 12 6 10 8 8 9 9 10 89 11 87 12
REMARK SMILES IDX 86 14 88 15 7 16 4 17 5 18 91 19 6 20 90 21 3 22 2 23 1 24
REMARK SMILES IDX 17 25 18 26 19 27 20 28 21 29 22 31 23 32 24 33 85 34 25 35
REMARK SMILES IDX 84 36 26 37 27 38 28 39 78 40 29 41 83 42 77 43 79 44 30 45
REMARK SMILES IDX 82 46 76 47 75 48 31 50 63 51 43 52 62 53 44 54 47 55 61 56
REMARK SMILES IDX 80 57 45 58 46 59 60 61 81 62 48 63 32 64 33 65 41 66 34 67
REMARK SMILES IDX 36 68 42 69 35 70 37 71 38 72 39 73 40 74 64 75 65 76 73 77
REMARK SMILES IDX 66 78 68 79 74 80 67 81 69 82 70 83 71 84 72 85 49 86 50 87
REMARK SMILES IDX 58 88 51 89 53 90 59 91 52 92 54 93 55 94 56 95 57 96
REMARK H PARENT 13 7 89 13 20 30 79 49 47 60
REMARK Flexibility Score: inf
ROOT
ATOM      1  C   UNL A   1      34.348  25.207  25.620  1.00  0.00     0.002 C 
ENDROOT
BRANCH   1   2
ATOM      2  C   UNL A   1      34.794  24.066  24.705  1.00  0.00     0.021 C 
BRANCH   2   3
ATOM      3  C   UNL A   1      34.346  24.151  23.252  1.00  0.00     0.116 C 
BRANCH   3   4
ATOM      4  N   UNL A   1      33.501  23.046  22.842  1.00  0.00    -0.351 N 
ATOM      5  C   UNL A   1      32.200  22.731  23.115  1.00  0.00     0.270 C 
ATOM      6  O   UNL A   1      31.769  21.686  22.618  1.00  0.00    -0.268 OA
ATOM      7  H   UNL A   1      33.951  22.399  22.255  1.00  0.00     0.163 HD
BRANCH   5   8
ATOM      8  C   UNL A   1      31.315  23.568  24.022  1.00  0.00     0.136 A 
ATOM      9  C   UNL A   1      30.165  25.540  24.256  1.00  0.00     0.141 A 
ATOM     10  N   UNL A   1      30.809  24.736  23.473  1.00  0.00    -0.225 NA
ATOM     11  N   UNL A   1      29.839  25.220  25.545  1.00  0.00    -0.306 N 
ATOM     12  C   UNL A   1      30.259  24.068  26.125  1.00  0.00     0.251 A 
ATOM     13  H   UNL A   1      29.284  25.844  26.067  1.00  0.00     0.171 HD
ATOM     14  C   UNL A   1      31.179  23.262  25.318  1.00  0.00     0.105 A 
ATOM     15  O   UNL A   1      29.905  23.717  27.239  1.00  0.00    -0.269 OA
BRANCH   9  16
ATOM     16  C   UNL A   1      29.755  26.888  23.805  1.00  0.00     0.018 A 
ATOM     17  C   UNL A   1      28.993  29.384  22.840  1.00  0.00     0.119 A 
ATOM     18  C   UNL A   1      30.347  29.078  22.952  1.00  0.00     0.047 A 
ATOM     19  C   UNL A   1      28.022  28.432  23.156  1.00  0.00     0.047 A 
ATOM     20  C   UNL A   1      30.730  27.828  23.440  1.00  0.00     0.016 A 
ATOM     21  C   UNL A   1      28.400  27.183  23.648  1.00  0.00     0.016 A 
BRANCH  17  22
ATOM     22  O   UNL A   1      28.644  30.586  22.293  1.00  0.00    -0.494 OA
BRANCH  22  23
ATOM     23  C   UNL A   1      28.683  31.655  23.247  1.00  0.00     0.226 C 
ATOM     24  C   UNL A   1      28.525  33.007  22.572  1.00  0.00     0.049 C 
ENDBRANCH  22  23
ENDBRANCH  17  22
ENDBRANCH   9  16
ENDBRANCH   5   8
ENDBRANCH   3   4
ENDBRANCH   2   3
ENDBRANCH   1   2
BRANCH   1  25
ATOM     25  C   UNL A   1      33.658  26.390  24.938  1.00  0.00     0.002 C 
BRANCH  25  26
ATOM     26  C   UNL A   1      33.439  27.636  25.802  1.00  0.00     0.021 C 
BRANCH  26  27
ATOM     27  C   UNL A   1      33.955  28.947  25.218  1.00  0.00     0.116 C 
BRANCH  27  28
ATOM     28  N   UNL A   1      33.278  30.105  25.773  1.00  0.00    -0.352 N 
ATOM     29  C   UNL A   1      33.548  30.820  26.912  1.00  0.00     0.251 C 
ATOM     30  H   UNL A   1      32.506  30.427  25.252  1.00  0.00     0.163 HD
ATOM     31  O   UNL A   1      32.739  31.658  27.304  1.00  0.00    -0.269 OA
BRANCH  29  32
ATOM     32  C   UNL A   1      34.793  30.581  27.678  1.00  0.00     0.039 A 
ATOM     33  C   UNL A   1      34.877  29.431  28.468  1.00  0.00     0.014 A 
ATOM     34  C   UNL A   1      35.857  31.489  27.655  1.00  0.00     0.014 A 
ATOM     35  C   UNL A   1      36.043  29.169  29.190  1.00  0.00     0.010 A 
ATOM     36  C   UNL A   1      37.048  31.187  28.317  1.00  0.00     0.010 A 
ATOM     37  C   UNL A   1      37.152  30.027  29.098  1.00  0.00    -0.014 A 
BRANCH  37  38
ATOM     38  C   UNL A   1      38.425  29.689  29.787  1.00  0.00     0.031 A 
ATOM     39  C   UNL A   1      38.788  30.323  31.104  1.00  0.00     0.074 A 
ATOM     40  C   UNL A   1      39.281  28.829  29.198  1.00  0.00     0.049 A 
ATOM     41  N   UNL A   1      39.844  30.121  31.851  1.00  0.00    -0.248 NA
ATOM     42  C   UNL A   1      37.859  31.329  31.645  1.00  0.00     0.031 C 
ATOM     43  C   UNL A   1      39.086  28.211  27.884  1.00  0.00     0.029 A 
ATOM     44  N   UNL A   1      40.491  28.336  29.618  1.00  0.00    -0.354 N 
ATOM     45  C   UNL A   1      39.718  30.982  32.935  1.00  0.00     0.074 A 
ATOM     46  C   UNL A   1      38.501  31.738  32.731  1.00  0.00     0.031 C 
ATOM     47  C   UNL A   1      40.128  27.409  27.614  1.00  0.00     0.029 A 
ATOM     48  C   UNL A   1      41.080  27.478  28.717  1.00  0.00     0.049 A 
ATOM     49  H   UNL A   1      40.900  28.573  30.482  1.00  0.00     0.167 HD
ATOM     50  C   UNL A   1      40.523  31.109  34.018  1.00  0.00     0.034 A 
ATOM     51  C   UNL A   1      42.257  26.824  28.770  1.00  0.00     0.034 A 
ATOM     52  C   UNL A   1      41.719  30.338  34.231  1.00  0.00     0.049 A 
ATOM     53  C   UNL A   1      43.114  26.966  29.997  1.00  0.00     0.074 A 
ATOM     54  C   UNL A   1      42.563  30.344  35.329  1.00  0.00     0.029 A 
ATOM     55  N   UNL A   1      42.251  29.432  33.326  1.00  0.00    -0.354 N 
ATOM     56  N   UNL A   1      42.894  27.664  31.085  1.00  0.00    -0.248 NA
ATOM     57  C   UNL A   1      44.368  26.198  30.021  1.00  0.00     0.031 C 
ATOM     58  C   UNL A   1      43.621  29.466  35.074  1.00  0.00     0.029 A 
ATOM     59  C   UNL A   1      43.417  28.883  33.835  1.00  0.00     0.049 A 
ATOM     60  H   UNL A   1      41.858  29.212  32.451  1.00  0.00     0.167 HD
ATOM     61  C   UNL A   1      43.961  27.393  31.933  1.00  0.00     0.074 A 
ATOM     62  C   UNL A   1      44.807  26.440  31.247  1.00  0.00     0.031 C 
ATOM     63  C   UNL A   1      44.229  27.903  33.161  1.00  0.00     0.034 A 
BRANCH  50  64
ATOM     64  C   UNL A   1      40.113  32.088  35.091  1.00  0.00     0.023 A 
ATOM     65  C   UNL A   1      40.602  33.410  35.048  1.00  0.00     0.012 A 
ATOM     66  C   UNL A   1      39.183  31.729  36.086  1.00  0.00     0.148 A 
ATOM     67  C   UNL A   1      40.193  34.351  35.993  1.00  0.00     0.002 A 
ATOM     68  C   UNL A   1      38.745  32.684  36.996  1.00  0.00     0.091 A 
ATOM     69  F   UNL A   1      38.741  30.463  36.121  1.00  0.00    -0.205 F 
ATOM     70  C   UNL A   1      39.258  33.991  36.958  1.00  0.00     0.022 A 
BRANCH  68  71
ATOM     71  S   UNL A   1      37.482  32.348  38.230  1.00  0.00     0.127 S 
ATOM     72  O   UNL A   1      38.058  32.975  39.419  1.00  0.00    -0.237 OA
ATOM     73  O   UNL A   1      36.322  33.045  37.675  1.00  0.00    -0.237 OA
ATOM     74  O   UNL A   1      37.354  30.899  38.292  1.00  0.00    -0.744 OA
ENDBRANCH  68  71
ENDBRANCH  50  64
BRANCH  51  75
ATOM     75  C   UNL A   1      42.675  25.935  27.649  1.00  0.00     0.023 A 
ATOM     76  C   UNL A   1      43.584  26.411  26.682  1.00  0.00     0.012 A 
ATOM     77  C   UNL A   1      42.174  24.624  27.531  1.00  0.00     0.148 A 
ATOM     78  C   UNL A   1      43.946  25.616  25.593  1.00  0.00     0.002 A 
ATOM     79  C   UNL A   1      42.587  23.816  26.478  1.00  0.00     0.091 A 
ATOM     80  F   UNL A   1      41.302  24.192  28.454  1.00  0.00    -0.205 F 
ATOM     81  C   UNL A   1      43.455  24.317  25.496  1.00  0.00     0.022 A 
BRANCH  79  82
ATOM     82  S   UNL A   1      42.112  22.089  26.353  1.00  0.00     0.127 S 
ATOM     83  O   UNL A   1      42.461  21.586  27.679  1.00  0.00    -0.237 OA
ATOM     84  O   UNL A   1      40.677  22.188  26.088  1.00  0.00    -0.237 OA
ATOM     85  O   UNL A   1      42.888  21.549  25.244  1.00  0.00    -0.744 OA
ENDBRANCH  79  82
ENDBRANCH  51  75
BRANCH  63  86
ATOM     86  C   UNL A   1      45.474  27.412  33.856  1.00  0.00     0.023 A 
ATOM     87  C   UNL A   1      46.692  28.101  33.691  1.00  0.00     0.012 A 
ATOM     88  C   UNL A   1      45.430  26.282  34.698  1.00  0.00     0.148 A 
ATOM     89  C   UNL A   1      47.856  27.644  34.307  1.00  0.00     0.002 A 
ATOM     90  C   UNL A   1      46.582  25.866  35.353  1.00  0.00     0.091 A 
ATOM     91  F   UNL A   1      44.267  25.628  34.832  1.00  0.00    -0.205 F 
ATOM     92  C   UNL A   1      47.800  26.533  35.145  1.00  0.00     0.022 A 
BRANCH  90  93
ATOM     93  S   UNL A   1      46.584  24.506  36.528  1.00  0.00     0.127 S 
ATOM     94  O   UNL A   1      45.570  24.939  37.487  1.00  0.00    -0.237 OA
ATOM     95  O   UNL A   1      46.188  23.374  35.690  1.00  0.00    -0.237 OA
ATOM     96  O   UNL A   1      47.943  24.427  37.046  1.00  0.00    -0.744 OA
ENDBRANCH  90  93
ENDBRANCH  63  86
ENDBRANCH  37  38
ENDBRANCH  29  32
ENDBRANCH  27  28
ENDBRANCH  26  27
ENDBRANCH  25  26
ENDBRANCH   1  25
TORSDOF 19
ENDMDL
MODEL 2
REMARK VINA RESULT:     -11.3      2.307      2.784
REMARK SMILES CCOc1ccc(-c2nc(C(=O)NCCCCCCNC(=O)c3ccc(-c4c5nc(c(-c6cccc(S(=O)(=O)[O-])c6F)c6ccc([nH]6)c(-c6cccc(S(=O)(=O)[O-])c6F)c6nc(c(-c7cccc(S(=O)(=O)[O-])c7F)c7ccc4[nH]7)C=C6)C=C5)cc3)cc(=O)[nH]2)cc1
REMARK SMILES IDX 16 1 15 2 14 3 13 4 11 5 12 6 10 8 8 9 9 10 89 11 87 12
REMARK SMILES IDX 86 14 88 15 7 16 4 17 5 18 91 19 6 20 90 21 3 22 2 23 1 24
REMARK SMILES IDX 17 25 18 26 19 27 20 28 21 29 22 31 23 32 24 33 85 34 25 35
REMARK SMILES IDX 84 36 26 37 27 38 28 39 78 40 29 41 83 42 77 43 79 44 30 45
REMARK SMILES IDX 82 46 76 47 75 48 31 50 63 51 43 52 62 53 44 54 47 55 61 56
REMARK SMILES IDX 80 57 45 58 46 59 60 61 81 62 48 63 32 64 33 65 41 66 34 67
REMARK SMILES IDX 36 68 42 69 35 70 37 71 38 72 39 73 40 74 64 75 65 76 73 77
REMARK SMILES IDX 66 78 68 79 74 80 67 81 69 82 70 83 71 84 72 85 49 86 50 87
REMARK SMILES IDX 58 88 51 89 53 90 59 91 52 92 54 93 55 94 56 95 57 96
REMARK H PARENT 13 7 89 13 20 30 79 49 47 60
REMARK Flexibility Score: inf
ROOT
ATOM      1  C   UNL A   1      34.152  26.088  24.272  1.00  0.00     0.002 C 
ENDROOT
BRANCH   1   2
ATOM      2  C   UNL A   1      34.400  24.761  23.556  1.00  0.00     0.021 C 
BRANCH   2   3
ATOM      3  C   UNL A   1      34.692  23.558  24.444  1.00  0.00     0.116 C 
BRANCH   3   4
ATOM      4  N   UNL A   1      33.999  22.353  24.032  1.00  0.00    -0.351 N 
ATOM      5  C   UNL A   1      32.692  21.965  24.122  1.00  0.00     0.270 C 
ATOM      6  O   UNL A   1      32.418  20.843  23.685  1.00  0.00    -0.268 OA
ATOM      7  H   UNL A   1      34.583  21.685  23.606  1.00  0.00     0.163 HD
BRANCH   5   8
ATOM      8  C   UNL A   1      31.615  22.819  24.766  1.00  0.00     0.136 A 
ATOM      9  C   UNL A   1      30.356  24.731  24.598  1.00  0.00     0.141 A 
ATOM     10  N   UNL A   1      31.172  23.905  24.027  1.00  0.00    -0.225 NA
ATOM     11  N   UNL A   1      29.804  24.499  25.828  1.00  0.00    -0.306 N 
ATOM     12  C   UNL A   1      30.156  23.427  26.581  1.00  0.00     0.251 A 
ATOM     13  H   UNL A   1      29.133  25.129  26.178  1.00  0.00     0.171 HD
ATOM     14  C   UNL A   1      31.247  22.614  26.037  1.00  0.00     0.105 A 
ATOM     15  O   UNL A   1      29.613  23.149  27.637  1.00  0.00    -0.269 OA
BRANCH   9  16
ATOM     16  C   UNL A   1      29.980  26.009  23.956  1.00  0.00     0.018 A 
ATOM     17  C   UNL A   1      29.250  28.350  22.643  1.00  0.00     0.119 A 
ATOM     18  C   UNL A   1      30.554  27.877  22.522  1.00  0.00     0.047 A 
ATOM     19  C   UNL A   1      28.299  27.634  23.370  1.00  0.00     0.047 A 
ATOM     20  C   UNL A   1      30.923  26.705  23.184  1.00  0.00     0.016 A 
ATOM     21  C   UNL A   1      28.664  26.464  24.036  1.00  0.00     0.016 A 
BRANCH  17  22
ATOM     22  O   UNL A   1      28.896  29.460  21.928  1.00  0.00    -0.494 OA
BRANCH  22  23
ATOM     23  C   UNL A   1      29.109  30.674  22.659  1.00  0.00     0.226 C 
ATOM     24  C   UNL A   1      27.793  31.290  23.105  1.00  0.00     0.049 C 
ENDBRANCH  22  23
ENDBRANCH  17  22
ENDBRANCH   9  16
ENDBRANCH   5   8
ENDBRANCH   3   4
ENDBRANCH   2   3
ENDBRANCH   1   2
BRANCH   1  25
ATOM     25  C   UNL A   1      33.581  25.997  25.688  1.00  0.00     0.002 C 
BRANCH  25  26
ATOM     26  C   UNL A   1      33.417  27.321  26.439  1.00  0.00     0.021 C 
BRANCH  26  27
ATOM     27  C   UNL A   1      34.281  28.477  25.943  1.00  0.00     0.116 C 
BRANCH  27  28
ATOM     28  N   UNL A   1      33.890  29.749  26.523  1.00  0.00    -0.352 N 
ATOM     29  C   UNL A   1      34.496  30.490  27.506  1.00  0.00     0.251 C 
ATOM     30  H   UNL A   1      33.065  30.140  26.154  1.00  0.00     0.163 HD
ATOM     31  O   UNL A   1      33.903  31.453  27.986  1.00  0.00    -0.269 OA
BRANCH  29  32
ATOM     32  C   UNL A   1      35.844  30.130  28.004  1.00  0.00     0.039 A 
ATOM     33  C   UNL A   1      35.949  29.531  29.262  1.00  0.00     0.014 A 
ATOM     34  C   UNL A   1      36.998  30.407  27.265  1.00  0.00     0.014 A 
ATOM     35  C   UNL A   1      37.205  29.165  29.753  1.00  0.00     0.010 A 
ATOM     36  C   UNL A   1      38.243  29.974  27.725  1.00  0.00     0.010 A 
ATOM     37  C   UNL A   1      38.361  29.353  28.977  1.00  0.00    -0.014 A 
BRANCH  37  38
ATOM     38  C   UNL A   1      39.681  28.870  29.462  1.00  0.00     0.031 A 
ATOM     39  C   UNL A   1      40.408  29.579  30.573  1.00  0.00     0.074 A 
ATOM     40  C   UNL A   1      40.246  27.800  28.864  1.00  0.00     0.049 A 
ATOM     41  N   UNL A   1      41.552  29.275  31.133  1.00  0.00    -0.248 NA
ATOM     42  C   UNL A   1      39.786  30.798  31.114  1.00  0.00     0.031 C 
ATOM     43  C   UNL A   1      39.683  27.076  27.723  1.00  0.00     0.029 A 
ATOM     44  N   UNL A   1      41.423  27.144  29.124  1.00  0.00    -0.354 N 
ATOM     45  C   UNL A   1      41.795  30.269  32.074  1.00  0.00     0.074 A 
ATOM     46  C   UNL A   1      40.699  31.208  31.984  1.00  0.00     0.031 C 
ATOM     47  C   UNL A   1      40.504  26.066  27.392  1.00  0.00     0.029 A 
ATOM     48  C   UNL A   1      41.665  26.089  28.274  1.00  0.00     0.049 A 
ATOM     49  H   UNL A   1      42.037  27.403  29.849  1.00  0.00     0.167 HD
ATOM     50  C   UNL A   1      42.820  30.373  32.954  1.00  0.00     0.034 A 
ATOM     51  C   UNL A   1      42.707  25.237  28.208  1.00  0.00     0.034 A 
ATOM     52  C   UNL A   1      43.897  29.424  33.059  1.00  0.00     0.049 A 
ATOM     53  C   UNL A   1      43.815  25.364  29.217  1.00  0.00     0.074 A 
ATOM     54  C   UNL A   1      44.942  29.404  33.966  1.00  0.00     0.029 A 
ATOM     55  N   UNL A   1      44.075  28.331  32.223  1.00  0.00    -0.354 N 
ATOM     56  N   UNL A   1      43.943  26.217  30.205  1.00  0.00    -0.248 NA
ATOM     57  C   UNL A   1      44.907  24.384  29.126  1.00  0.00     0.031 C 
ATOM     58  C   UNL A   1      45.770  28.319  33.659  1.00  0.00     0.029 A 
ATOM     59  C   UNL A   1      45.219  27.640  32.585  1.00  0.00     0.049 A 
ATOM     60  H   UNL A   1      43.477  28.085  31.482  1.00  0.00     0.167 HD
ATOM     61  C   UNL A   1      45.107  25.856  30.871  1.00  0.00     0.074 A 
ATOM     62  C   UNL A   1      45.628  24.685  30.196  1.00  0.00     0.031 C 
ATOM     63  C   UNL A   1      45.706  26.451  31.933  1.00  0.00     0.034 A 
BRANCH  50  64
ATOM     64  C   UNL A   1      42.806  31.533  33.919  1.00  0.00     0.023 A 
ATOM     65  C   UNL A   1      43.200  32.812  33.473  1.00  0.00     0.012 A 
ATOM     66  C   UNL A   1      42.325  31.380  35.234  1.00  0.00     0.148 A 
ATOM     67  C   UNL A   1      43.140  33.913  34.327  1.00  0.00     0.002 A 
ATOM     68  C   UNL A   1      42.225  32.490  36.065  1.00  0.00     0.091 A 
ATOM     69  F   UNL A   1      41.970  30.153  35.646  1.00  0.00    -0.205 F 
ATOM     70  C   UNL A   1      42.642  33.754  35.617  1.00  0.00     0.022 A 
BRANCH  68  71
ATOM     71  S   UNL A   1      41.523  32.411  37.717  1.00  0.00     0.127 S 
ATOM     72  O   UNL A   1      42.245  31.276  38.290  1.00  0.00    -0.237 OA
ATOM     73  O   UNL A   1      41.898  33.713  38.270  1.00  0.00    -0.237 OA
ATOM     74  O   UNL A   1      40.092  32.211  37.539  1.00  0.00    -0.744 OA
ENDBRANCH  68  71
ENDBRANCH  50  64
BRANCH  51  75
ATOM     75  C   UNL A   1      42.733  24.157  27.181  1.00  0.00     0.023 A 
ATOM     76  C   UNL A   1      43.426  24.362  25.970  1.00  0.00     0.012 A 
ATOM     77  C   UNL A   1      42.073  22.932  27.393  1.00  0.00     0.148 A 
ATOM     78  C   UNL A   1      43.417  23.387  24.972  1.00  0.00     0.002 A 
ATOM     79  C   UNL A   1      42.120  21.941  26.420  1.00  0.00     0.091 A 
ATOM     80  F   UNL A   1      41.410  22.760  28.547  1.00  0.00    -0.205 F 
ATOM     81  C   UNL A   1      42.772  22.174  25.200  1.00  0.00     0.022 A 
BRANCH  79  82
ATOM     82  S   UNL A   1      41.434  20.303  26.687  1.00  0.00     0.127 S 
ATOM     83  O   UNL A   1      41.776  19.629  25.438  1.00  0.00    -0.237 OA
ATOM     84  O   UNL A   1      42.183  19.849  27.859  1.00  0.00    -0.237 OA
ATOM     85  O   UNL A   1      40.013  20.509  26.930  1.00  0.00    -0.744 OA
ENDBRANCH  79  82
ENDBRANCH  51  75
BRANCH  63  86
ATOM     86  C   UNL A   1      46.975  25.824  32.452  1.00  0.00     0.023 A 
ATOM     87  C   UNL A   1      46.928  24.953  33.560  1.00  0.00     0.012 A 
ATOM     88  C   UNL A   1      48.211  26.074  31.823  1.00  0.00     0.148 A 
ATOM     89  C   UNL A   1      48.096  24.385  34.066  1.00  0.00     0.002 A 
ATOM     90  C   UNL A   1      49.363  25.459  32.299  1.00  0.00     0.091 A 
ATOM     91  F   UNL A   1      48.241  26.917  30.781  1.00  0.00    -0.205 F 
ATOM     92  C   UNL A   1      49.311  24.630  33.431  1.00  0.00     0.022 A 
BRANCH  90  93
ATOM     93  S   UNL A   1      50.955  25.638  31.487  1.00  0.00     0.127 S 
ATOM     94  O   UNL A   1      50.640  25.226  30.120  1.00  0.00    -0.237 OA
ATOM     95  O   UNL A   1      51.225  27.066  31.647  1.00  0.00    -0.237 OA
ATOM     96  O   UNL A   1      51.872  24.765  32.208  1.00  0.00    -0.744 OA
ENDBRANCH  90  93
ENDBRANCH  63  86
ENDBRANCH  37  38
ENDBRANCH  29  32
ENDBRANCH  27  28
ENDBRANCH  26  27
ENDBRANCH  25  26
ENDBRANCH   1  25
TORSDOF 19
ENDMDL
MODEL 3
REMARK VINA RESULT:     -11.3      5.392      7.996
REMARK SMILES CCOc1ccc(-c2nc(C(=O)NCCCCCCNC(=O)c3ccc(-c4c5nc(c(-c6cccc(S(=O)(=O)[O-])c6F)c6ccc([nH]6)c(-c6cccc(S(=O)(=O)[O-])c6F)c6nc(c(-c7cccc(S(=O)(=O)[O-])c7F)c7ccc4[nH]7)C=C6)C=C5)cc3)cc(=O)[nH]2)cc1
REMARK SMILES IDX 16 1 15 2 14 3 13 4 11 5 12 6 10 8 8 9 9 10 89 11 87 12
REMARK SMILES IDX 86 14 88 15 7 16 4 17 5 18 91 19 6 20 90 21 3 22 2 23 1 24
REMARK SMILES IDX 17 25 18 26 19 27 20 28 21 29 22 31 23 32 24 33 85 34 25 35
REMARK SMILES IDX 84 36 26 37 27 38 28 39 78 40 29 41 83 42 77 43 79 44 30 45
REMARK SMILES IDX 82 46 76 47 75 48 31 50 63 51 43 52 62 53 44 54 47 55 61 56
REMARK SMILES IDX 80 57 45 58 46 59 60 61 81 62 48 63 32 64 33 65 41 66 34 67
REMARK SMILES IDX 36 68 42 69 35 70 37 71 38 72 39 73 40 74 64 75 65 76 73 77
REMARK SMILES IDX 66 78 68 79 74 80 67 81 69 82 70 83 71 84 72 85 49 86 50 87
REMARK SMILES IDX 58 88 51 89 53 90 59 91 52 92 54 93 55 94 56 95 57 96
REMARK H PARENT 13 7 89 13 20 30 79 49 47 60
REMARK Flexibility Score: inf
ROOT
ATOM      1  C   UNL A   1      37.248  21.973  24.407  1.00  0.00     0.002 C 
ENDROOT
BRANCH   1   2
ATOM      2  C   UNL A   1      36.232  22.886  23.719  1.00  0.00     0.021 C 
BRANCH   2   3
ATOM      3  C   UNL A   1      34.819  22.875  24.289  1.00  0.00     0.116 C 
BRANCH   3   4
ATOM      4  N   UNL A   1      33.930  21.951  23.611  1.00  0.00    -0.351 N 
ATOM      5  C   UNL A   1      32.569  21.839  23.578  1.00  0.00     0.270 C 
ATOM      6  O   UNL A   1      32.107  20.911  22.907  1.00  0.00    -0.268 OA
ATOM      7  H   UNL A   1      34.397  21.274  23.072  1.00  0.00     0.163 HD
BRANCH   5   8
ATOM      8  C   UNL A   1      31.642  22.757  24.356  1.00  0.00     0.136 A 
ATOM      9  C   UNL A   1      30.467  24.728  24.334  1.00  0.00     0.141 A 
ATOM     10  N   UNL A   1      31.149  23.854  23.668  1.00  0.00    -0.225 NA
ATOM     11  N   UNL A   1      30.092  24.541  25.637  1.00  0.00    -0.306 N 
ATOM     12  C   UNL A   1      30.497  23.461  26.351  1.00  0.00     0.251 A 
ATOM     13  H   UNL A   1      29.511  25.210  26.068  1.00  0.00     0.171 HD
ATOM     14  C   UNL A   1      31.455  22.587  25.671  1.00  0.00     0.105 A 
ATOM     15  O   UNL A   1      30.101  23.226  27.481  1.00  0.00    -0.269 OA
BRANCH   9  16
ATOM     16  C   UNL A   1      30.065  26.016  23.729  1.00  0.00     0.018 A 
ATOM     17  C   UNL A   1      29.333  28.495  22.699  1.00  0.00     0.119 A 
ATOM     18  C   UNL A   1      28.402  27.753  23.422  1.00  0.00     0.047 A 
ATOM     19  C   UNL A   1      30.638  28.029  22.535  1.00  0.00     0.047 A 
ATOM     20  C   UNL A   1      28.767  26.508  23.935  1.00  0.00     0.016 A 
ATOM     21  C   UNL A   1      31.006  26.784  23.043  1.00  0.00     0.016 A 
BRANCH  17  22
ATOM     22  O   UNL A   1      28.973  29.741  22.268  1.00  0.00    -0.494 OA
BRANCH  22  23
ATOM     23  C   UNL A   1      27.672  30.126  22.729  1.00  0.00     0.226 C 
ATOM     24  C   UNL A   1      27.728  31.414  23.534  1.00  0.00     0.049 C 
ENDBRANCH  22  23
ENDBRANCH  17  22
ENDBRANCH   9  16
ENDBRANCH   5   8
ENDBRANCH   3   4
ENDBRANCH   2   3
ENDBRANCH   1   2
BRANCH   1  25
ATOM     25  C   UNL A   1      36.807  20.527  24.641  1.00  0.00     0.002 C 
BRANCH  25  26
ATOM     26  C   UNL A   1      37.917  19.529  24.985  1.00  0.00     0.021 C 
BRANCH  26  27
ATOM     27  C   UNL A   1      39.039  20.063  25.870  1.00  0.00     0.116 C 
BRANCH  27  28
ATOM     28  N   UNL A   1      40.158  19.143  25.963  1.00  0.00    -0.352 N 
ATOM     29  C   UNL A   1      41.497  19.399  26.115  1.00  0.00     0.251 C 
ATOM     30  H   UNL A   1      39.919  18.189  25.909  1.00  0.00     0.163 HD
ATOM     31  O   UNL A   1      42.304  18.481  25.985  1.00  0.00    -0.269 OA
BRANCH  29  32
ATOM     32  C   UNL A   1      41.977  20.767  26.417  1.00  0.00     0.039 A 
ATOM     33  C   UNL A   1      42.337  21.595  25.350  1.00  0.00     0.014 A 
ATOM     34  C   UNL A   1      42.108  21.228  27.730  1.00  0.00     0.014 A 
ATOM     35  C   UNL A   1      42.779  22.896  25.599  1.00  0.00     0.010 A 
ATOM     36  C   UNL A   1      42.477  22.551  27.974  1.00  0.00     0.010 A 
ATOM     37  C   UNL A   1      42.823  23.399  26.911  1.00  0.00    -0.014 A 
BRANCH  37  38
ATOM     38  C   UNL A   1      43.195  24.816  27.162  1.00  0.00     0.031 A 
ATOM     39  C   UNL A   1      42.227  25.771  27.809  1.00  0.00     0.074 A 
ATOM     40  C   UNL A   1      44.407  25.255  26.766  1.00  0.00     0.049 A 
ATOM     41  N   UNL A   1      42.400  27.030  28.125  1.00  0.00    -0.248 NA
ATOM     42  C   UNL A   1      40.885  25.257  28.127  1.00  0.00     0.031 C 
ATOM     43  C   UNL A   1      45.404  24.453  26.053  1.00  0.00     0.029 A 
ATOM     44  N   UNL A   1      45.004  26.485  26.893  1.00  0.00    -0.354 N 
ATOM     45  C   UNL A   1      41.191  27.462  28.657  1.00  0.00     0.074 A 
ATOM     46  C   UNL A   1      40.278  26.342  28.588  1.00  0.00     0.031 C 
ATOM     47  C   UNL A   1      46.493  25.204  25.822  1.00  0.00     0.029 A 
ATOM     48  C   UNL A   1      46.262  26.547  26.340  1.00  0.00     0.049 A 
ATOM     49  H   UNL A   1      44.572  27.250  27.338  1.00  0.00     0.167 HD
ATOM     50  C   UNL A   1      40.878  28.671  29.185  1.00  0.00     0.034 A 
ATOM     51  C   UNL A   1      47.133  27.573  26.254  1.00  0.00     0.034 A 
ATOM     52  C   UNL A   1      41.796  29.776  29.276  1.00  0.00     0.049 A 
ATOM     53  C   UNL A   1      46.765  28.893  26.874  1.00  0.00     0.074 A 
ATOM     54  C   UNL A   1      41.595  31.015  29.858  1.00  0.00     0.029 A 
ATOM     55  N   UNL A   1      43.084  29.782  28.763  1.00  0.00    -0.354 N 
ATOM     56  N   UNL A   1      45.674  29.230  27.518  1.00  0.00    -0.248 NA
ATOM     57  C   UNL A   1      47.767  29.965  26.789  1.00  0.00     0.031 C 
ATOM     58  C   UNL A   1      42.749  31.782  29.669  1.00  0.00     0.029 A 
ATOM     59  C   UNL A   1      43.684  31.006  29.003  1.00  0.00     0.049 A 
ATOM     60  H   UNL A   1      43.509  29.026  28.296  1.00  0.00     0.167 HD
ATOM     61  C   UNL A   1      45.872  30.538  27.943  1.00  0.00     0.074 A 
ATOM     62  C   UNL A   1      47.202  30.918  27.514  1.00  0.00     0.031 C 
ATOM     63  C   UNL A   1      45.024  31.360  28.609  1.00  0.00     0.034 A 
BRANCH  50  64
ATOM     64  C   UNL A   1      39.494  28.854  29.758  1.00  0.00     0.023 A 
ATOM     65  C   UNL A   1      39.218  28.400  31.064  1.00  0.00     0.012 A 
ATOM     66  C   UNL A   1      38.498  29.547  29.045  1.00  0.00     0.148 A 
ATOM     67  C   UNL A   1      37.965  28.608  31.641  1.00  0.00     0.002 A 
ATOM     68  C   UNL A   1      37.267  29.792  29.643  1.00  0.00     0.091 A 
ATOM     69  F   UNL A   1      38.772  29.958  27.798  1.00  0.00    -0.205 F 
ATOM     70  C   UNL A   1      36.996  29.313  30.935  1.00  0.00     0.022 A 
BRANCH  68  71
ATOM     71  S   UNL A   1      35.974  30.760  28.853  1.00  0.00     0.127 S 
ATOM     72  O   UNL A   1      35.201  29.721  28.175  1.00  0.00    -0.237 OA
ATOM     73  O   UNL A   1      35.302  31.366  30.003  1.00  0.00    -0.237 OA
ATOM     74  O   UNL A   1      36.655  31.701  27.975  1.00  0.00    -0.744 OA
ENDBRANCH  68  71
ENDBRANCH  50  64
BRANCH  51  75
ATOM     75  C   UNL A   1      48.458  27.383  25.598  1.00  0.00     0.023 A 
ATOM     76  C   UNL A   1      49.571  26.998  26.372  1.00  0.00     0.012 A 
ATOM     77  C   UNL A   1      48.623  27.586  24.215  1.00  0.00     0.148 A 
ATOM     78  C   UNL A   1      50.833  26.869  25.789  1.00  0.00     0.002 A 
ATOM     79  C   UNL A   1      49.869  27.395  23.630  1.00  0.00     0.091 A 
ATOM     80  F   UNL A   1      47.555  27.962  23.497  1.00  0.00    -0.205 F 
ATOM     81  C   UNL A   1      50.980  27.059  24.418  1.00  0.00     0.022 A 
BRANCH  79  82
ATOM     82  S   UNL A   1      50.117  27.484  21.854  1.00  0.00     0.127 S 
ATOM     83  O   UNL A   1      49.247  26.413  21.376  1.00  0.00    -0.237 OA
ATOM     84  O   UNL A   1      49.653  28.838  21.551  1.00  0.00    -0.237 OA
ATOM     85  O   UNL A   1      51.545  27.283  21.648  1.00  0.00    -0.744 OA
ENDBRANCH  79  82
ENDBRANCH  51  75
BRANCH  63  86
ATOM     86  C   UNL A   1      45.523  32.743  28.946  1.00  0.00     0.023 A 
ATOM     87  C   UNL A   1      46.254  32.958  30.131  1.00  0.00     0.012 A 
ATOM     88  C   UNL A   1      45.291  33.824  28.072  1.00  0.00     0.148 A 
ATOM     89  C   UNL A   1      46.701  34.236  30.468  1.00  0.00     0.002 A 
ATOM     90  C   UNL A   1      45.788  35.083  28.387  1.00  0.00     0.091 A 
ATOM     91  F   UNL A   1      44.580  33.606  26.956  1.00  0.00    -0.205 F 
ATOM     92  C   UNL A   1      46.476  35.295  29.592  1.00  0.00     0.022 A 
BRANCH  90  93
ATOM     93  S   UNL A   1      45.633  36.485  27.274  1.00  0.00     0.127 S 
ATOM     94  O   UNL A   1      46.250  37.555  28.056  1.00  0.00    -0.237 OA
ATOM     95  O   UNL A   1      46.412  36.049  26.116  1.00  0.00    -0.237 OA
ATOM     96  O   UNL A   1      44.207  36.639  27.020  1.00  0.00    -0.744 OA
ENDBRANCH  90  93
ENDBRANCH  63  86
ENDBRANCH  37  38
ENDBRANCH  29  32
ENDBRANCH  27  28
ENDBRANCH  26  27
ENDBRANCH  25  26
ENDBRANCH   1  25
TORSDOF 19
ENDMDL
