MODEL 1
REMARK VINA RESULT:     -14.3      0.000      0.000
REMARK SMILES Cc1ccc([C@@]23C[C@@H]4C[C@@H](C[C@@](C(=O)N5CCC(C(=O)NCCCCCCNC(=O)c6ccc(-c7c8nc(c(-c9cccc(S(=O)(=O)[O-])c9F)c9ccc([nH]9)c(-c9cccc(S(=O)(=O)[O-])c9F)c9nc(c(-c%10cccc(S(=O)(=O)[O-])c%10F)c%10ccc7[nH]%10)C=C9)C=C8)cc6)CC5)(C4)C2)C3)cc1
REMARK SMILES IDX 25 1 24 2 23 3 22 4 21 5 19 6 20 7 18 9 13 10 14 11 15 12
REMARK SMILES IDX 16 13 95 14 17 15 94 16 12 17 6 18 7 19 97 20 98 21 8 22
REMARK SMILES IDX 10 23 9 24 96 25 11 26 5 27 1 28 2 29 3 30 100 31 4 32 99 33
REMARK SMILES IDX 26 34 27 35 28 36 29 37 30 39 31 40 32 41 93 42 33 43 92 44
REMARK SMILES IDX 34 45 35 46 36 47 86 48 37 49 91 50 85 51 87 52 38 53 90 54
REMARK SMILES IDX 84 55 83 56 39 58 71 59 51 60 70 61 52 62 55 63 69 64 88 65
REMARK SMILES IDX 53 66 54 67 68 69 89 70 56 71 40 72 41 73 49 74 42 75 44 76
REMARK SMILES IDX 50 77 43 78 45 79 46 80 47 81 48 82 72 83 73 84 81 85 74 86
REMARK SMILES IDX 76 87 82 88 75 89 77 90 78 91 79 92 80 93 57 94 58 95 66 96
REMARK SMILES IDX 59 97 61 98 67 99 60 100 62 101 63 102 64 103 65 104
REMARK H PARENT 21 8 28 38 87 57 55 68
REMARK Flexibility Score: inf
ROOT
ATOM      1  C   UNL A   1      34.345  28.710  26.776  1.00  0.00     0.002 C 
ENDROOT
BRANCH   1   2
ATOM      2  C   UNL A   1      33.711  27.964  25.591  1.00  0.00     0.002 C 
BRANCH   2   3
ATOM      3  C   UNL A   1      33.120  28.836  24.477  1.00  0.00     0.021 C 
BRANCH   3   4
ATOM      4  C   UNL A   1      31.629  29.127  24.612  1.00  0.00     0.116 C 
BRANCH   4   5
ATOM      5  N   UNL A   1      31.032  29.545  23.354  1.00  0.00    -0.356 N 
ATOM      6  C   UNL A   1      30.438  28.817  22.370  1.00  0.00     0.223 C 
ATOM      7  O   UNL A   1      29.922  29.418  21.425  1.00  0.00    -0.275 OA
ATOM      8  H   UNL A   1      31.063  30.515  23.185  1.00  0.00     0.163 HD
BRANCH   6   9
ATOM      9  C   UNL A   1      30.399  27.299  22.425  1.00  0.00     0.082 C 
ATOM     10  C   UNL A   1      31.933  24.801  25.164  1.00  0.00     0.228 C 
ATOM     11  O   UNL A   1      31.376  25.044  26.239  1.00  0.00    -0.274 OA
ATOM     12  N   UNL A   1      31.276  25.056  23.956  1.00  0.00    -0.342 N 
ATOM     13  C   UNL A   1      29.851  25.352  23.982  1.00  0.00     0.120 C 
ATOM     14  C   UNL A   1      31.859  25.236  22.625  1.00  0.00     0.120 C 
ATOM     15  C   UNL A   1      29.608  26.814  23.655  1.00  0.00     0.035 C 
ATOM     16  C   UNL A   1      31.806  26.705  22.238  1.00  0.00     0.035 C 
BRANCH  10  17
ATOM     17  C   UNL A   1      33.323  24.127  25.150  1.00  0.00     0.051 C 
ATOM     18  C   UNL A   1      34.399  21.804  24.863  1.00  0.00    -0.003 C 
ATOM     19  C   UNL A   1      35.250  22.454  23.731  1.00  0.00     0.015 C 
ATOM     20  C   UNL A   1      33.095  22.616  24.967  1.00  0.00     0.028 C 
ATOM     21  C   UNL A   1      35.139  21.981  26.214  1.00  0.00     0.015 C 
ATOM     22  C   UNL A   1      35.574  23.930  24.038  1.00  0.00    -0.009 C 
ATOM     23  C   UNL A   1      35.393  23.476  26.499  1.00  0.00    -0.009 C 
ATOM     24  C   UNL A   1      36.295  24.035  25.388  1.00  0.00     0.007 C 
ATOM     25  C   UNL A   1      34.276  24.743  24.109  1.00  0.00     0.020 C 
ATOM     26  C   UNL A   1      34.057  24.259  26.522  1.00  0.00     0.020 C 
BRANCH  18  27
ATOM     27  C   UNL A   1      34.103  20.321  24.563  1.00  0.00    -0.042 A 
ATOM     28  C   UNL A   1      33.194  16.121  23.935  1.00  0.00     0.044 C 
ATOM     29  C   UNL A   1      33.497  17.575  24.126  1.00  0.00    -0.051 A 
ATOM     30  C   UNL A   1      34.784  17.966  24.486  1.00  0.00     0.004 A 
ATOM     31  C   UNL A   1      32.519  18.559  23.961  1.00  0.00     0.004 A 
ATOM     32  C   UNL A   1      35.080  19.315  24.692  1.00  0.00     0.004 A 
ATOM     33  C   UNL A   1      32.819  19.912  24.174  1.00  0.00     0.004 A 
ENDBRANCH  18  27
ENDBRANCH  10  17
ENDBRANCH   6   9
ENDBRANCH   4   5
ENDBRANCH   3   4
ENDBRANCH   2   3
ENDBRANCH   1   2
BRANCH   1  34
ATOM     34  C   UNL A   1      34.341  30.237  26.698  1.00  0.00     0.021 C 
BRANCH  34  35
ATOM     35  C   UNL A   1      34.322  30.935  28.048  1.00  0.00     0.116 C 
BRANCH  35  36
ATOM     36  N   UNL A   1      35.363  31.929  28.213  1.00  0.00    -0.352 N 
ATOM     37  C   UNL A   1      36.695  31.769  28.560  1.00  0.00     0.251 C 
ATOM     38  H   UNL A   1      35.081  32.859  28.055  1.00  0.00     0.163 HD
ATOM     39  O   UNL A   1      37.341  32.763  28.847  1.00  0.00    -0.269 OA
BRANCH  37  40
ATOM     40  C   UNL A   1      37.346  30.432  28.447  1.00  0.00     0.039 A 
ATOM     41  C   UNL A   1      37.303  29.590  29.567  1.00  0.00     0.014 A 
ATOM     42  C   UNL A   1      38.154  30.093  27.365  1.00  0.00     0.014 A 
ATOM     43  C   UNL A   1      38.252  28.578  29.712  1.00  0.00     0.010 A 
ATOM     44  C   UNL A   1      39.150  29.158  27.539  1.00  0.00     0.010 A 
ATOM     45  C   UNL A   1      39.241  28.457  28.744  1.00  0.00    -0.014 A 
BRANCH  45  46
ATOM     46  C   UNL A   1      40.482  27.719  28.917  1.00  0.00     0.031 A 
ATOM     47  C   UNL A   1      40.535  26.267  28.694  1.00  0.00     0.074 A 
ATOM     48  C   UNL A   1      41.620  28.435  29.055  1.00  0.00     0.049 A 
ATOM     49  N   UNL A   1      41.496  25.510  29.099  1.00  0.00    -0.248 NA
ATOM     50  C   UNL A   1      39.482  25.550  27.989  1.00  0.00     0.031 C 
ATOM     51  C   UNL A   1      42.988  27.989  28.828  1.00  0.00     0.029 A 
ATOM     52  N   UNL A   1      41.765  29.693  29.647  1.00  0.00    -0.354 N 
ATOM     53  C   UNL A   1      41.348  24.290  28.472  1.00  0.00     0.074 A 
ATOM     54  C   UNL A   1      40.038  24.341  27.862  1.00  0.00     0.031 C 
ATOM     55  C   UNL A   1      43.818  28.792  29.513  1.00  0.00     0.029 A 
ATOM     56  C   UNL A   1      42.987  29.653  30.336  1.00  0.00     0.049 A 
ATOM     57  H   UNL A   1      41.139  30.451  29.591  1.00  0.00     0.167 HD
ATOM     58  C   UNL A   1      42.420  23.449  28.403  1.00  0.00     0.034 A 
ATOM     59  C   UNL A   1      43.094  29.804  31.690  1.00  0.00     0.034 A 
ATOM     60  C   UNL A   1      43.576  24.013  29.115  1.00  0.00     0.049 A 
ATOM     61  C   UNL A   1      43.780  28.631  32.366  1.00  0.00     0.074 A 
ATOM     62  C   UNL A   1      44.694  24.711  28.686  1.00  0.00     0.029 A 
ATOM     63  N   UNL A   1      43.543  24.137  30.497  1.00  0.00    -0.354 N 
ATOM     64  N   UNL A   1      44.055  27.502  31.774  1.00  0.00    -0.248 NA
ATOM     65  C   UNL A   1      44.188  28.624  33.768  1.00  0.00     0.031 C 
ATOM     66  C   UNL A   1      45.298  25.316  29.819  1.00  0.00     0.029 A 
ATOM     67  C   UNL A   1      44.561  24.967  30.938  1.00  0.00     0.049 A 
ATOM     68  H   UNL A   1      42.886  23.695  31.083  1.00  0.00     0.167 HD
ATOM     69  C   UNL A   1      44.528  26.593  32.686  1.00  0.00     0.074 A 
ATOM     70  C   UNL A   1      44.668  27.374  33.903  1.00  0.00     0.031 C 
ATOM     71  C   UNL A   1      44.701  25.273  32.359  1.00  0.00     0.034 A 
BRANCH  58  72
ATOM     72  C   UNL A   1      42.552  22.292  27.424  1.00  0.00     0.023 A 
ATOM     73  C   UNL A   1      41.726  21.163  27.643  1.00  0.00     0.012 A 
ATOM     74  C   UNL A   1      43.464  22.185  26.351  1.00  0.00     0.148 A 
ATOM     75  C   UNL A   1      41.876  19.967  26.934  1.00  0.00     0.002 A 
ATOM     76  C   UNL A   1      43.666  20.969  25.689  1.00  0.00     0.091 A 
ATOM     77  F   UNL A   1      44.081  23.278  25.894  1.00  0.00    -0.205 F 
ATOM     78  C   UNL A   1      42.876  19.854  25.984  1.00  0.00     0.022 A 
BRANCH  76  79
ATOM     79  S   UNL A   1      45.001  20.724  24.503  1.00  0.00     0.127 S 
ATOM     80  O   UNL A   1      46.187  21.039  25.304  1.00  0.00    -0.237 OA
ATOM     81  O   UNL A   1      44.861  19.312  24.157  1.00  0.00    -0.237 OA
ATOM     82  O   UNL A   1      44.752  21.668  23.420  1.00  0.00    -0.744 OA
ENDBRANCH  76  79
ENDBRANCH  58  72
BRANCH  59  83
ATOM     83  C   UNL A   1      42.000  30.631  32.286  1.00  0.00     0.023 A 
ATOM     84  C   UNL A   1      41.911  31.979  31.855  1.00  0.00     0.012 A 
ATOM     85  C   UNL A   1      40.879  30.044  32.897  1.00  0.00     0.148 A 
ATOM     86  C   UNL A   1      40.697  32.665  31.889  1.00  0.00     0.002 A 
ATOM     87  C   UNL A   1      39.673  30.744  32.942  1.00  0.00     0.091 A 
ATOM     88  F   UNL A   1      40.978  28.788  33.354  1.00  0.00    -0.205 F 
ATOM     89  C   UNL A   1      39.568  32.034  32.399  1.00  0.00     0.022 A 
BRANCH  87  90
ATOM     90  S   UNL A   1      38.177  29.977  33.583  1.00  0.00     0.127 S 
ATOM     91  O   UNL A   1      38.365  30.126  35.022  1.00  0.00    -0.237 OA
ATOM     92  O   UNL A   1      37.119  30.809  33.011  1.00  0.00    -0.237 OA
ATOM     93  O   UNL A   1      38.211  28.620  33.057  1.00  0.00    -0.744 OA
ENDBRANCH  87  90
ENDBRANCH  59  83
BRANCH  71  94
ATOM     94  C   UNL A   1      44.991  24.132  33.325  1.00  0.00     0.023 A 
ATOM     95  C   UNL A   1      44.067  23.104  33.589  1.00  0.00     0.012 A 
ATOM     96  C   UNL A   1      46.285  23.975  33.895  1.00  0.00     0.148 A 
ATOM     97  C   UNL A   1      44.386  22.005  34.399  1.00  0.00     0.002 A 
ATOM     98  C   UNL A   1      46.631  22.826  34.603  1.00  0.00     0.091 A 
ATOM     99  F   UNL A   1      47.195  24.953  33.777  1.00  0.00    -0.205 F 
ATOM    100  C   UNL A   1      45.676  21.850  34.882  1.00  0.00     0.022 A 
BRANCH  98 101
ATOM    101  S   UNL A   1      48.348  22.493  35.029  1.00  0.00     0.127 S 
ATOM    102  O   UNL A   1      48.689  23.648  35.856  1.00  0.00    -0.237 OA
ATOM    103  O   UNL A   1      48.256  21.228  35.760  1.00  0.00    -0.237 OA
ATOM    104  O   UNL A   1      49.034  22.388  33.747  1.00  0.00    -0.744 OA
ENDBRANCH  98 101
ENDBRANCH  71  94
ENDBRANCH  45  46
ENDBRANCH  37  40
ENDBRANCH  35  36
ENDBRANCH  34  35
ENDBRANCH   1  34
TORSDOF 18
ENDMDL
MODEL 2
REMARK VINA RESULT:     -14.2      1.215      1.622
REMARK SMILES Cc1ccc([C@@]23C[C@@H]4C[C@@H](C[C@@](C(=O)N5CCC(C(=O)NCCCCCCNC(=O)c6ccc(-c7c8nc(c(-c9cccc(S(=O)(=O)[O-])c9F)c9ccc([nH]9)c(-c9cccc(S(=O)(=O)[O-])c9F)c9nc(c(-c%10cccc(S(=O)(=O)[O-])c%10F)c%10ccc7[nH]%10)C=C9)C=C8)cc6)CC5)(C4)C2)C3)cc1
REMARK SMILES IDX 25 1 24 2 23 3 22 4 21 5 19 6 20 7 18 9 13 10 14 11 15 12
REMARK SMILES IDX 16 13 95 14 17 15 94 16 12 17 6 18 7 19 97 20 98 21 8 22
REMARK SMILES IDX 10 23 9 24 96 25 11 26 5 27 1 28 2 29 3 30 100 31 4 32 99 33
REMARK SMILES IDX 26 34 27 35 28 36 29 37 30 39 31 40 32 41 93 42 33 43 92 44
REMARK SMILES IDX 34 45 35 46 36 47 86 48 37 49 91 50 85 51 87 52 38 53 90 54
REMARK SMILES IDX 84 55 83 56 39 58 71 59 51 60 70 61 52 62 55 63 69 64 88 65
REMARK SMILES IDX 53 66 54 67 68 69 89 70 56 71 40 72 41 73 49 74 42 75 44 76
REMARK SMILES IDX 50 77 43 78 45 79 46 80 47 81 48 82 72 83 73 84 81 85 74 86
REMARK SMILES IDX 76 87 82 88 75 89 77 90 78 91 79 92 80 93 57 94 58 95 66 96
REMARK SMILES IDX 59 97 61 98 67 99 60 100 62 101 63 102 64 103 65 104
REMARK H PARENT 21 8 28 38 87 57 55 68
REMARK Flexibility Score: inf
ROOT
ATOM      1  C   UNL A   1      33.935  28.696  27.189  1.00  0.00     0.002 C 
ENDROOT
BRANCH   1   2
ATOM      2  C   UNL A   1      33.512  28.163  25.810  1.00  0.00     0.002 C 
BRANCH   2   3
ATOM      3  C   UNL A   1      32.939  29.195  24.830  1.00  0.00     0.021 C 
BRANCH   3   4
ATOM      4  C   UNL A   1      31.417  29.280  24.804  1.00  0.00     0.116 C 
BRANCH   4   5
ATOM      5  N   UNL A   1      30.913  29.758  23.527  1.00  0.00    -0.356 N 
ATOM      6  C   UNL A   1      30.399  29.079  22.467  1.00  0.00     0.223 C 
ATOM      7  O   UNL A   1      29.951  29.724  21.516  1.00  0.00    -0.275 OA
ATOM      8  H   UNL A   1      30.950  30.735  23.409  1.00  0.00     0.163 HD
BRANCH   6   9
ATOM      9  C   UNL A   1      30.366  27.559  22.444  1.00  0.00     0.082 C 
ATOM     10  C   UNL A   1      31.785  24.932  25.122  1.00  0.00     0.228 C 
ATOM     11  O   UNL A   1      31.177  25.118  26.181  1.00  0.00    -0.274 OA
ATOM     12  N   UNL A   1      31.184  25.245  23.899  1.00  0.00    -0.342 N 
ATOM     13  C   UNL A   1      29.758  25.535  23.873  1.00  0.00     0.120 C 
ATOM     14  C   UNL A   1      31.826  25.494  22.607  1.00  0.00     0.120 C 
ATOM     15  C   UNL A   1      29.521  27.011  23.610  1.00  0.00     0.035 C 
ATOM     16  C   UNL A   1      31.783  26.980  22.292  1.00  0.00     0.035 C 
BRANCH  10  17
ATOM     17  C   UNL A   1      33.178  24.264  25.139  1.00  0.00     0.051 C 
ATOM     18  C   UNL A   1      34.268  21.942  24.903  1.00  0.00    -0.003 C 
ATOM     19  C   UNL A   1      35.135  22.579  23.774  1.00  0.00     0.015 C 
ATOM     20  C   UNL A   1      32.959  22.750  24.974  1.00  0.00     0.028 C 
ATOM     21  C   UNL A   1      34.987  22.142  26.261  1.00  0.00     0.015 C 
ATOM     22  C   UNL A   1      35.447  24.061  24.064  1.00  0.00    -0.009 C 
ATOM     23  C   UNL A   1      35.231  23.642  26.529  1.00  0.00    -0.009 C 
ATOM     24  C   UNL A   1      36.147  24.189  25.423  1.00  0.00     0.007 C 
ATOM     25  C   UNL A   1      34.144  24.869  24.104  1.00  0.00     0.020 C 
ATOM     26  C   UNL A   1      33.891  24.419  26.520  1.00  0.00     0.020 C 
BRANCH  18  27
ATOM     27  C   UNL A   1      33.984  20.454  24.619  1.00  0.00    -0.042 A 
ATOM     28  C   UNL A   1      33.269  16.290  23.609  1.00  0.00     0.044 C 
ATOM     29  C   UNL A   1      33.523  17.718  23.984  1.00  0.00    -0.051 A 
ATOM     30  C   UNL A   1      32.511  18.660  23.824  1.00  0.00     0.004 A 
ATOM     31  C   UNL A   1      34.758  18.139  24.484  1.00  0.00     0.004 A 
ATOM     32  C   UNL A   1      32.737  20.000  24.144  1.00  0.00     0.004 A 
ATOM     33  C   UNL A   1      34.983  19.487  24.800  1.00  0.00     0.004 A 
ENDBRANCH  18  27
ENDBRANCH  10  17
ENDBRANCH   6   9
ENDBRANCH   4   5
ENDBRANCH   3   4
ENDBRANCH   2   3
ENDBRANCH   1   2
BRANCH   1  34
ATOM     34  C   UNL A   1      33.345  30.043  27.607  1.00  0.00     0.021 C 
BRANCH  34  35
ATOM     35  C   UNL A   1      34.217  31.241  27.268  1.00  0.00     0.116 C 
BRANCH  35  36
ATOM     36  N   UNL A   1      34.767  31.917  28.425  1.00  0.00    -0.352 N 
ATOM     37  C   UNL A   1      35.673  31.464  29.370  1.00  0.00     0.251 C 
ATOM     38  H   UNL A   1      34.448  32.839  28.561  1.00  0.00     0.163 HD
ATOM     39  O   UNL A   1      35.838  32.129  30.379  1.00  0.00    -0.269 OA
BRANCH  37  40
ATOM     40  C   UNL A   1      36.521  30.271  29.086  1.00  0.00     0.039 A 
ATOM     41  C   UNL A   1      36.784  29.392  30.147  1.00  0.00     0.014 A 
ATOM     42  C   UNL A   1      37.211  30.122  27.886  1.00  0.00     0.014 A 
ATOM     43  C   UNL A   1      37.903  28.561  30.100  1.00  0.00     0.010 A 
ATOM     44  C   UNL A   1      38.368  29.374  27.866  1.00  0.00     0.010 A 
ATOM     45  C   UNL A   1      38.750  28.655  29.001  1.00  0.00    -0.014 A 
BRANCH  45  46
ATOM     46  C   UNL A   1      40.110  28.145  28.959  1.00  0.00     0.031 A 
ATOM     47  C   UNL A   1      40.373  26.710  28.776  1.00  0.00     0.074 A 
ATOM     48  C   UNL A   1      41.112  29.046  28.856  1.00  0.00     0.049 A 
ATOM     49  N   UNL A   1      41.508  26.149  29.015  1.00  0.00    -0.248 NA
ATOM     50  C   UNL A   1      39.351  25.786  28.306  1.00  0.00     0.031 C 
ATOM     51  C   UNL A   1      42.472  28.818  28.389  1.00  0.00     0.029 A 
ATOM     52  N   UNL A   1      41.141  30.345  29.370  1.00  0.00    -0.354 N 
ATOM     53  C   UNL A   1      41.464  24.884  28.466  1.00  0.00     0.074 A 
ATOM     54  C   UNL A   1      40.077  24.680  28.115  1.00  0.00     0.031 C 
ATOM     55  C   UNL A   1      43.261  29.789  28.878  1.00  0.00     0.029 A 
ATOM     56  C   UNL A   1      42.456  30.552  29.816  1.00  0.00     0.049 A 
ATOM     57  H   UNL A   1      40.393  30.984  29.410  1.00  0.00     0.167 HD
ATOM     58  C   UNL A   1      42.635  24.229  28.222  1.00  0.00     0.034 A 
ATOM     59  C   UNL A   1      42.779  30.804  31.120  1.00  0.00     0.034 A 
ATOM     60  C   UNL A   1      43.785  25.019  28.684  1.00  0.00     0.049 A 
ATOM     61  C   UNL A   1      43.769  29.805  31.690  1.00  0.00     0.074 A 
ATOM     62  C   UNL A   1      44.669  25.864  28.029  1.00  0.00     0.029 A 
ATOM     63  N   UNL A   1      43.982  25.224  30.043  1.00  0.00    -0.354 N 
ATOM     64  N   UNL A   1      44.124  28.702  31.093  1.00  0.00    -0.248 NA
ATOM     65  C   UNL A   1      44.420  29.954  32.989  1.00  0.00     0.031 C 
ATOM     66  C   UNL A   1      45.353  26.631  29.008  1.00  0.00     0.029 A 
ATOM     67  C   UNL A   1      44.904  26.237  30.257  1.00  0.00     0.049 A 
ATOM     68  H   UNL A   1      43.530  24.718  30.757  1.00  0.00     0.167 HD
ATOM     69  C   UNL A   1      44.906  27.943  31.926  1.00  0.00     0.074 A 
ATOM     70  C   UNL A   1      45.126  28.812  33.070  1.00  0.00     0.031 C 
ATOM     71  C   UNL A   1      45.243  26.651  31.615  1.00  0.00     0.034 A 
BRANCH  58  72
ATOM     72  C   UNL A   1      42.788  23.050  27.273  1.00  0.00     0.023 A 
ATOM     73  C   UNL A   1      42.060  21.875  27.581  1.00  0.00     0.012 A 
ATOM     74  C   UNL A   1      43.634  22.969  26.145  1.00  0.00     0.148 A 
ATOM     75  C   UNL A   1      42.249  20.668  26.900  1.00  0.00     0.002 A 
ATOM     76  C   UNL A   1      43.880  21.747  25.510  1.00  0.00     0.091 A 
ATOM     77  F   UNL A   1      44.142  24.085  25.616  1.00  0.00    -0.205 F 
ATOM     78  C   UNL A   1      43.192  20.591  25.890  1.00  0.00     0.022 A 
BRANCH  76  79
ATOM     79  S   UNL A   1      45.151  21.553  24.247  1.00  0.00     0.127 S 
ATOM     80  O   UNL A   1      45.194  20.098  24.074  1.00  0.00    -0.237 OA
ATOM     81  O   UNL A   1      44.586  22.281  23.114  1.00  0.00    -0.237 OA
ATOM     82  O   UNL A   1      46.370  22.116  24.816  1.00  0.00    -0.744 OA
ENDBRANCH  76  79
ENDBRANCH  58  72
BRANCH  59  83
ATOM     83  C   UNL A   1      41.684  31.475  31.886  1.00  0.00     0.023 A 
ATOM     84  C   UNL A   1      41.332  32.787  31.480  1.00  0.00     0.012 A 
ATOM     85  C   UNL A   1      40.771  30.743  32.666  1.00  0.00     0.148 A 
ATOM     86  C   UNL A   1      40.051  33.291  31.710  1.00  0.00     0.002 A 
ATOM     87  C   UNL A   1      39.499  31.263  32.906  1.00  0.00     0.091 A 
ATOM     88  F   UNL A   1      41.125  29.525  33.096  1.00  0.00    -0.205 F 
ATOM     89  C   UNL A   1      39.122  32.513  32.391  1.00  0.00     0.022 A 
BRANCH  87  90
ATOM     90  S   UNL A   1      38.251  30.299  33.774  1.00  0.00     0.127 S 
ATOM     91  O   UNL A   1      37.020  30.930  33.309  1.00  0.00    -0.237 OA
ATOM     92  O   UNL A   1      38.479  28.947  33.268  1.00  0.00    -0.237 OA
ATOM     93  O   UNL A   1      38.578  30.467  35.183  1.00  0.00    -0.744 OA
ENDBRANCH  87  90
ENDBRANCH  59  83
BRANCH  71  94
ATOM     94  C   UNL A   1      45.897  25.637  32.543  1.00  0.00     0.023 A 
ATOM     95  C   UNL A   1      47.287  25.583  32.755  1.00  0.00     0.012 A 
ATOM     96  C   UNL A   1      45.104  24.786  33.363  1.00  0.00     0.148 A 
ATOM     97  C   UNL A   1      47.866  24.714  33.690  1.00  0.00     0.002 A 
ATOM     98  C   UNL A   1      45.675  24.010  34.370  1.00  0.00     0.091 A 
ATOM     99  F   UNL A   1      43.781  24.701  33.161  1.00  0.00    -0.205 F 
ATOM    100  C   UNL A   1      47.060  23.949  34.518  1.00  0.00     0.022 A 
BRANCH  98 101
ATOM    101  S   UNL A   1      44.642  23.203  35.603  1.00  0.00     0.127 S 
ATOM    102  O   UNL A   1      43.875  24.323  36.142  1.00  0.00    -0.237 OA
ATOM    103  O   UNL A   1      43.861  22.262  34.799  1.00  0.00    -0.237 OA
ATOM    104  O   UNL A   1      45.584  22.564  36.514  1.00  0.00    -0.744 OA
ENDBRANCH  98 101
ENDBRANCH  71  94
ENDBRANCH  45  46
ENDBRANCH  37  40
ENDBRANCH  35  36
ENDBRANCH  34  35
ENDBRANCH   1  34
TORSDOF 18
ENDMDL
MODEL 3
REMARK VINA RESULT:     -14.1      3.734      5.563
REMARK SMILES Cc1ccc([C@@]23C[C@@H]4C[C@@H](C[C@@](C(=O)N5CCC(C(=O)NCCCCCCNC(=O)c6ccc(-c7c8nc(c(-c9cccc(S(=O)(=O)[O-])c9F)c9ccc([nH]9)c(-c9cccc(S(=O)(=O)[O-])c9F)c9nc(c(-c%10cccc(S(=O)(=O)[O-])c%10F)c%10ccc7[nH]%10)C=C9)C=C8)cc6)CC5)(C4)C2)C3)cc1
REMARK SMILES IDX 25 1 24 2 23 3 22 4 21 5 19 6 20 7 18 9 13 10 14 11 15 12
REMARK SMILES IDX 16 13 95 14 17 15 94 16 12 17 6 18 7 19 97 20 98 21 8 22
REMARK SMILES IDX 10 23 9 24 96 25 11 26 5 27 1 28 2 29 3 30 100 31 4 32 99 33
REMARK SMILES IDX 26 34 27 35 28 36 29 37 30 39 31 40 32 41 93 42 33 43 92 44
REMARK SMILES IDX 34 45 35 46 36 47 86 48 37 49 91 50 85 51 87 52 38 53 90 54
REMARK SMILES IDX 84 55 83 56 39 58 71 59 51 60 70 61 52 62 55 63 69 64 88 65
REMARK SMILES IDX 53 66 54 67 68 69 89 70 56 71 40 72 41 73 49 74 42 75 44 76
REMARK SMILES IDX 50 77 43 78 45 79 46 80 47 81 48 82 72 83 73 84 81 85 74 86
REMARK SMILES IDX 76 87 82 88 75 89 77 90 78 91 79 92 80 93 57 94 58 95 66 96
REMARK SMILES IDX 59 97 61 98 67 99 60 100 62 101 63 102 64 103 65 104
REMARK H PARENT 21 8 28 38 87 57 55 68
REMARK Flexibility Score: inf
ROOT
ATOM      1  C   UNL A   1      33.770  35.762  28.457  1.00  0.00     0.002 C 
ENDROOT
BRANCH   1   2
ATOM      2  C   UNL A   1      33.205  34.333  28.393  1.00  0.00     0.002 C 
BRANCH   2   3
ATOM      3  C   UNL A   1      34.232  33.204  28.244  1.00  0.00     0.021 C 
BRANCH   3   4
ATOM      4  C   UNL A   1      33.667  31.888  27.721  1.00  0.00     0.116 C 
BRANCH   4   5
ATOM      5  N   UNL A   1      34.573  30.772  27.941  1.00  0.00    -0.356 N 
ATOM      6  C   UNL A   1      34.611  29.537  27.373  1.00  0.00     0.223 C 
ATOM      7  O   UNL A   1      35.543  28.784  27.665  1.00  0.00    -0.275 OA
ATOM      8  H   UNL A   1      35.275  30.937  28.611  1.00  0.00     0.163 HD
BRANCH   6   9
ATOM      9  C   UNL A   1      33.539  29.084  26.395  1.00  0.00     0.082 C 
ATOM     10  C   UNL A   1      31.820  25.484  25.975  1.00  0.00     0.228 C 
ATOM     11  O   UNL A   1      31.233  25.229  27.031  1.00  0.00    -0.274 OA
ATOM     12  N   UNL A   1      32.018  26.811  25.581  1.00  0.00    -0.342 N 
ATOM     13  C   UNL A   1      31.300  27.865  26.282  1.00  0.00     0.120 C 
ATOM     14  C   UNL A   1      33.002  27.342  24.634  1.00  0.00     0.120 C 
ATOM     15  C   UNL A   1      32.253  28.676  27.140  1.00  0.00     0.035 C 
ATOM     16  C   UNL A   1      34.104  28.063  25.393  1.00  0.00     0.035 C 
BRANCH  10  17
ATOM     17  C   UNL A   1      32.257  24.336  25.038  1.00  0.00     0.051 C 
ATOM     18  C   UNL A   1      34.323  22.897  24.493  1.00  0.00    -0.003 C 
ATOM     19  C   UNL A   1      33.406  21.665  24.761  1.00  0.00     0.015 C 
ATOM     20  C   UNL A   1      33.748  24.070  25.308  1.00  0.00     0.028 C 
ATOM     21  C   UNL A   1      34.205  23.295  23.000  1.00  0.00     0.015 C 
ATOM     22  C   UNL A   1      31.948  21.936  24.336  1.00  0.00    -0.009 C 
ATOM     23  C   UNL A   1      32.738  23.606  22.637  1.00  0.00    -0.009 C 
ATOM     24  C   UNL A   1      31.904  22.334  22.854  1.00  0.00     0.007 C 
ATOM     25  C   UNL A   1      31.369  23.085  25.171  1.00  0.00     0.020 C 
ATOM     26  C   UNL A   1      32.188  24.743  23.533  1.00  0.00     0.020 C 
BRANCH  18  27
ATOM     27  C   UNL A   1      35.783  22.608  24.895  1.00  0.00    -0.042 A 
ATOM     28  C   UNL A   1      39.817  21.702  26.224  1.00  0.00     0.044 C 
ATOM     29  C   UNL A   1      38.433  22.007  25.739  1.00  0.00    -0.051 A 
ATOM     30  C   UNL A   1      37.885  23.264  25.976  1.00  0.00     0.004 A 
ATOM     31  C   UNL A   1      37.666  21.058  25.059  1.00  0.00     0.004 A 
ATOM     32  C   UNL A   1      36.587  23.559  25.553  1.00  0.00     0.004 A 
ATOM     33  C   UNL A   1      36.361  21.356  24.640  1.00  0.00     0.004 A 
ENDBRANCH  18  27
ENDBRANCH  10  17
ENDBRANCH   6   9
ENDBRANCH   4   5
ENDBRANCH   3   4
ENDBRANCH   2   3
ENDBRANCH   1   2
BRANCH   1  34
ATOM     34  C   UNL A   1      33.211  36.665  29.557  1.00  0.00     0.021 C 
BRANCH  34  35
ATOM     35  C   UNL A   1      32.787  35.929  30.818  1.00  0.00     0.116 C 
BRANCH  35  36
ATOM     36  N   UNL A   1      33.437  36.402  32.023  1.00  0.00    -0.352 N 
ATOM     37  C   UNL A   1      34.277  35.734  32.899  1.00  0.00     0.251 C 
ATOM     38  H   UNL A   1      33.253  37.341  32.255  1.00  0.00     0.163 HD
ATOM     39  O   UNL A   1      34.542  36.265  33.965  1.00  0.00    -0.269 OA
BRANCH  37  40
ATOM     40  C   UNL A   1      34.944  34.467  32.482  1.00  0.00     0.039 A 
ATOM     41  C   UNL A   1      35.074  33.454  33.442  1.00  0.00     0.014 A 
ATOM     42  C   UNL A   1      35.609  34.348  31.264  1.00  0.00     0.014 A 
ATOM     43  C   UNL A   1      36.061  32.480  33.294  1.00  0.00     0.010 A 
ATOM     44  C   UNL A   1      36.645  33.447  31.152  1.00  0.00     0.010 A 
ATOM     45  C   UNL A   1      36.916  32.565  32.201  1.00  0.00    -0.014 A 
BRANCH  45  46
ATOM     46  C   UNL A   1      38.188  31.871  32.089  1.00  0.00     0.031 A 
ATOM     47  C   UNL A   1      38.287  30.583  31.387  1.00  0.00     0.074 A 
ATOM     48  C   UNL A   1      39.303  32.551  32.437  1.00  0.00     0.049 A 
ATOM     49  N   UNL A   1      39.289  29.780  31.493  1.00  0.00    -0.248 NA
ATOM     50  C   UNL A   1      37.237  30.097  30.504  1.00  0.00     0.031 C 
ATOM     51  C   UNL A   1      40.677  32.272  32.045  1.00  0.00     0.029 A 
ATOM     52  N   UNL A   1      39.422  33.542  33.416  1.00  0.00    -0.354 N 
ATOM     53  C   UNL A   1      39.164  28.836  30.494  1.00  0.00     0.074 A 
ATOM     54  C   UNL A   1      37.833  29.028  29.965  1.00  0.00     0.031 C 
ATOM     55  C   UNL A   1      41.501  32.836  32.943  1.00  0.00     0.029 A 
ATOM     56  C   UNL A   1      40.668  33.330  34.026  1.00  0.00     0.049 A 
ATOM     57  H   UNL A   1      38.766  34.244  33.632  1.00  0.00     0.167 HD
ATOM     58  C   UNL A   1      40.263  28.119  30.123  1.00  0.00     0.034 A 
ATOM     59  C   UNL A   1      40.817  33.022  35.349  1.00  0.00     0.034 A 
ATOM     60  C   UNL A   1      41.422  28.464  30.959  1.00  0.00     0.049 A 
ATOM     61  C   UNL A   1      41.569  31.723  35.575  1.00  0.00     0.074 A 
ATOM     62  C   UNL A   1      42.498  29.317  30.769  1.00  0.00     0.029 A 
ATOM     63  N   UNL A   1      41.433  28.114  32.303  1.00  0.00    -0.354 N 
ATOM     64  N   UNL A   1      41.865  30.873  34.630  1.00  0.00    -0.248 NA
ATOM     65  C   UNL A   1      42.027  31.263  36.883  1.00  0.00     0.031 C 
ATOM     66  C   UNL A   1      43.119  29.533  32.027  1.00  0.00     0.029 A 
ATOM     67  C   UNL A   1      42.435  28.794  32.977  1.00  0.00     0.049 A 
ATOM     68  H   UNL A   1      40.815  27.470  32.719  1.00  0.00     0.167 HD
ATOM     69  C   UNL A   1      42.404  29.733  35.171  1.00  0.00     0.074 A 
ATOM     70  C   UNL A   1      42.558  30.065  36.578  1.00  0.00     0.031 C 
ATOM     71  C   UNL A   1      42.613  28.609  34.415  1.00  0.00     0.034 A 
BRANCH  58  72
ATOM     72  C   UNL A   1      40.404  27.366  28.809  1.00  0.00     0.023 A 
ATOM     73  C   UNL A   1      39.688  26.152  28.680  1.00  0.00     0.012 A 
ATOM     74  C   UNL A   1      41.231  27.709  27.716  1.00  0.00     0.148 A 
ATOM     75  C   UNL A   1      39.871  25.276  27.605  1.00  0.00     0.002 A 
ATOM     76  C   UNL A   1      41.471  26.804  26.677  1.00  0.00     0.091 A 
ATOM     77  F   UNL A   1      41.723  28.947  27.620  1.00  0.00    -0.205 F 
ATOM     78  C   UNL A   1      40.796  25.581  26.622  1.00  0.00     0.022 A 
BRANCH  76  79
ATOM     79  S   UNL A   1      42.720  27.095  25.410  1.00  0.00     0.127 S 
ATOM     80  O   UNL A   1      43.921  27.340  26.211  1.00  0.00    -0.237 OA
ATOM     81  O   UNL A   1      42.727  25.833  24.676  1.00  0.00    -0.237 OA
ATOM     82  O   UNL A   1      42.264  28.260  24.659  1.00  0.00    -0.744 OA
ENDBRANCH  76  79
ENDBRANCH  58  72
BRANCH  59  83
ATOM     83  C   UNL A   1      39.715  33.548  36.211  1.00  0.00     0.023 A 
ATOM     84  C   UNL A   1      38.626  32.674  36.459  1.00  0.00     0.012 A 
ATOM     85  C   UNL A   1      39.905  34.647  37.066  1.00  0.00     0.148 A 
ATOM     86  C   UNL A   1      37.851  32.803  37.612  1.00  0.00     0.002 A 
ATOM     87  C   UNL A   1      39.113  34.777  38.208  1.00  0.00     0.091 A 
ATOM     88  F   UNL A   1      40.900  35.504  36.801  1.00  0.00    -0.205 F 
ATOM     89  C   UNL A   1      38.119  33.833  38.506  1.00  0.00     0.022 A 
BRANCH  87  90
ATOM     90  S   UNL A   1      39.418  36.085  39.405  1.00  0.00     0.127 S 
ATOM     91  O   UNL A   1      38.478  35.735  40.465  1.00  0.00    -0.237 OA
ATOM     92  O   UNL A   1      40.827  35.890  39.743  1.00  0.00    -0.237 OA
ATOM     93  O   UNL A   1      39.149  37.316  38.675  1.00  0.00    -0.744 OA
ENDBRANCH  87  90
ENDBRANCH  59  83
BRANCH  71  94
ATOM     94  C   UNL A   1      42.979  27.225  34.932  1.00  0.00     0.023 A 
ATOM     95  C   UNL A   1      42.201  26.535  35.879  1.00  0.00     0.012 A 
ATOM     96  C   UNL A   1      44.060  26.498  34.359  1.00  0.00     0.148 A 
ATOM     97  C   UNL A   1      42.492  25.220  36.268  1.00  0.00     0.002 A 
ATOM     98  C   UNL A   1      44.275  25.156  34.664  1.00  0.00     0.091 A 
ATOM     99  F   UNL A   1      44.913  27.109  33.522  1.00  0.00    -0.205 F 
ATOM    100  C   UNL A   1      43.510  24.520  35.640  1.00  0.00     0.022 A 
BRANCH  98 101
ATOM    101  S   UNL A   1      45.424  24.167  33.694  1.00  0.00     0.127 S 
ATOM    102  O   UNL A   1      44.970  24.419  32.329  1.00  0.00    -0.237 OA
ATOM    103  O   UNL A   1      46.718  24.766  34.025  1.00  0.00    -0.237 OA
ATOM    104  O   UNL A   1      45.255  22.808  34.193  1.00  0.00    -0.744 OA
ENDBRANCH  98 101
ENDBRANCH  71  94
ENDBRANCH  45  46
ENDBRANCH  37  40
ENDBRANCH  35  36
ENDBRANCH  34  35
ENDBRANCH   1  34
TORSDOF 18
ENDMDL
