MODEL 1
REMARK VINA RESULT:     -13.6      0.000      0.000
REMARK SMILES Cc1ccccc1[C@@H]1[NH2+][C@@H](C(=O)NCCCCCCNC(=O)c2ccc(-c3c4nc(c(-c5cccc(S(=O)(=O)[O-])c5F)c5ccc([nH]5)c(-c5cccc(S(=O)(=O)[O-])c5F)c5nc(c(-c6cccc(S(=O)(=O)[O-])c6F)c6ccc3[nH]6)C=C5)C=C4)cc2)CC2=c3ccccc3=N[C@H]21
REMARK SMILES IDX 17 1 16 2 15 3 14 4 13 5 11 6 12 7 10 9 8 10 9 11 95 12
REMARK SMILES IDX 87 15 94 16 86 17 88 18 93 19 89 20 92 21 90 22 91 23 7 24
REMARK SMILES IDX 1 25 2 26 3 27 4 28 6 29 5 30 18 31 19 32 20 33 21 34 22 36
REMARK SMILES IDX 23 37 24 38 85 39 25 40 84 41 26 42 27 43 28 44 78 45 29 46
REMARK SMILES IDX 83 47 77 48 79 49 30 50 82 51 76 52 75 53 31 55 63 56 43 57
REMARK SMILES IDX 62 58 44 59 47 60 61 61 80 62 45 63 46 64 60 66 81 67 48 68
REMARK SMILES IDX 32 69 33 70 41 71 34 72 36 73 42 74 35 75 37 76 38 77 39 78
REMARK SMILES IDX 40 79 64 80 65 81 73 82 66 83 68 84 74 85 67 86 69 87 70 88
REMARK SMILES IDX 71 89 72 90 49 91 50 92 58 93 51 94 53 95 59 96 52 97 54 98
REMARK SMILES IDX 55 99 56 100 57 101
REMARK H PARENT 13 8 9 13 9 14 20 35 79 54 47 65
REMARK Flexibility Score: inf
ROOT
ATOM      1  C   UNL A   1      35.648  21.172  25.480  1.00  0.00     0.002 C 
ENDROOT
BRANCH   1   2
ATOM      2  C   UNL A   1      35.004  22.427  26.096  1.00  0.00     0.002 C 
BRANCH   2   3
ATOM      3  C   UNL A   1      34.002  23.195  25.225  1.00  0.00     0.021 C 
BRANCH   3   4
ATOM      4  C   UNL A   1      34.510  24.527  24.676  1.00  0.00     0.116 C 
BRANCH   4   5
ATOM      5  N   UNL A   1      34.240  24.769  23.273  1.00  0.00    -0.351 N 
ATOM      6  C   UNL A   1      33.433  25.682  22.657  1.00  0.00     0.278 C 
ATOM      7  O   UNL A   1      33.802  26.038  21.527  1.00  0.00    -0.268 OA
ATOM      8  H   UNL A   1      34.721  24.170  22.656  1.00  0.00     0.163 HD
BRANCH   6   9
ATOM      9  C   UNL A   1      32.038  26.136  23.205  1.00  0.00     0.277 C 
ATOM     10  C   UNL A   1      31.136  28.564  23.150  1.00  0.00     0.243 C 
ATOM     11  N   UNL A   1      31.578  27.339  22.429  1.00  0.00    -0.327 N 
ATOM     12  C   UNL A   1      31.035  28.550  24.709  1.00  0.00     0.196 C 
ATOM     13  H   UNL A   1      32.353  27.615  21.826  1.00  0.00     0.347 HD
ATOM     14  H   UNL A   1      30.725  27.014  21.975  1.00  0.00     0.347 HD
ATOM     15  C   UNL A   1      32.041  27.579  25.224  1.00  0.00    -0.024 C 
ATOM     16  N   UNL A   1      31.423  29.861  25.311  1.00  0.00    -0.270 NA
ATOM     17  C   UNL A   1      31.837  26.205  24.719  1.00  0.00     0.109 C 
ATOM     18  C   UNL A   1      32.973  28.173  25.955  1.00  0.00     0.002 A 
ATOM     19  C   UNL A   1      32.481  29.562  26.002  1.00  0.00     0.066 A 
ATOM     20  C   UNL A   1      34.211  27.797  26.550  1.00  0.00     0.010 A 
ATOM     21  C   UNL A   1      33.253  30.501  26.840  1.00  0.00     0.028 A 
ATOM     22  C   UNL A   1      34.910  28.728  27.220  1.00  0.00     0.001 A 
ATOM     23  C   UNL A   1      34.397  30.077  27.401  1.00  0.00     0.002 A 
BRANCH  10  24
ATOM     24  C   UNL A   1      29.833  29.114  22.553  1.00  0.00     0.015 A 
ATOM     25  C   UNL A   1      28.304  27.345  23.645  1.00  0.00     0.045 C 
ATOM     26  C   UNL A   1      28.547  28.596  22.847  1.00  0.00    -0.042 A 
ATOM     27  C   UNL A   1      27.409  29.314  22.436  1.00  0.00     0.004 A 
ATOM     28  C   UNL A   1      27.521  30.479  21.680  1.00  0.00     0.000 A 
ATOM     29  C   UNL A   1      29.919  30.264  21.741  1.00  0.00     0.010 A 
ATOM     30  C   UNL A   1      28.777  30.938  21.307  1.00  0.00     0.001 A 
ENDBRANCH  10  24
ENDBRANCH   6   9
ENDBRANCH   4   5
ENDBRANCH   3   4
ENDBRANCH   2   3
ENDBRANCH   1   2
BRANCH   1  31
ATOM     31  C   UNL A   1      37.041  21.341  24.870  1.00  0.00     0.021 C 
BRANCH  31  32
ATOM     32  C   UNL A   1      37.796  22.565  25.361  1.00  0.00     0.116 C 
BRANCH  32  33
ATOM     33  N   UNL A   1      38.948  22.244  26.181  1.00  0.00    -0.352 N 
ATOM     34  C   UNL A   1      39.955  23.071  26.640  1.00  0.00     0.251 C 
ATOM     35  H   UNL A   1      39.024  21.300  26.450  1.00  0.00     0.163 HD
ATOM     36  O   UNL A   1      41.008  22.550  27.012  1.00  0.00    -0.269 OA
BRANCH  34  37
ATOM     37  C   UNL A   1      39.708  24.523  26.843  1.00  0.00     0.039 A 
ATOM     38  C   UNL A   1      40.585  25.418  26.210  1.00  0.00     0.014 A 
ATOM     39  C   UNL A   1      38.855  24.990  27.835  1.00  0.00     0.014 A 
ATOM     40  C   UNL A   1      40.817  26.674  26.766  1.00  0.00     0.010 A 
ATOM     41  C   UNL A   1      39.145  26.183  28.447  1.00  0.00     0.010 A 
ATOM     42  C   UNL A   1      40.185  26.979  27.961  1.00  0.00    -0.014 A 
BRANCH  42  43
ATOM     43  C   UNL A   1      40.485  28.106  28.819  1.00  0.00     0.031 A 
ATOM     44  C   UNL A   1      39.609  29.282  28.777  1.00  0.00     0.074 A 
ATOM     45  C   UNL A   1      41.284  27.863  29.882  1.00  0.00     0.049 A 
ATOM     46  N   UNL A   1      39.788  30.337  29.489  1.00  0.00    -0.248 NA
ATOM     47  C   UNL A   1      38.444  29.355  27.908  1.00  0.00     0.031 C 
ATOM     48  C   UNL A   1      41.290  28.551  31.164  1.00  0.00     0.029 A 
ATOM     49  N   UNL A   1      42.392  27.015  29.949  1.00  0.00    -0.354 N 
ATOM     50  C   UNL A   1      38.633  31.082  29.417  1.00  0.00     0.074 A 
ATOM     51  C   UNL A   1      37.889  30.495  28.329  1.00  0.00     0.031 C 
ATOM     52  C   UNL A   1      42.464  28.323  31.771  1.00  0.00     0.029 A 
ATOM     53  C   UNL A   1      43.313  27.648  30.806  1.00  0.00     0.049 A 
ATOM     54  H   UNL A   1      42.506  26.150  29.492  1.00  0.00     0.167 HD
ATOM     55  C   UNL A   1      38.409  32.009  30.393  1.00  0.00     0.034 A 
ATOM     56  C   UNL A   1      44.528  28.104  30.372  1.00  0.00     0.034 A 
ATOM     57  C   UNL A   1      39.605  32.153  31.250  1.00  0.00     0.049 A 
ATOM     58  C   UNL A   1      44.652  29.624  30.447  1.00  0.00     0.074 A 
ATOM     59  C   UNL A   1      39.976  31.733  32.518  1.00  0.00     0.029 A 
ATOM     60  N   UNL A   1      40.769  32.599  30.653  1.00  0.00    -0.354 N 
ATOM     61  N   UNL A   1      43.787  30.420  31.019  1.00  0.00    -0.248 NA
ATOM     62  C   UNL A   1      45.731  30.371  29.799  1.00  0.00     0.031 C 
ATOM     63  C   UNL A   1      41.398  31.881  32.634  1.00  0.00     0.029 A 
ATOM     64  C   UNL A   1      41.881  32.422  31.454  1.00  0.00     0.049 A 
ATOM     65  H   UNL A   1      40.801  33.000  29.756  1.00  0.00     0.167 HD
ATOM     66  C   UNL A   1      44.050  31.719  30.661  1.00  0.00     0.074 A 
ATOM     67  C   UNL A   1      45.316  31.641  29.951  1.00  0.00     0.031 C 
ATOM     68  C   UNL A   1      43.187  32.758  30.892  1.00  0.00     0.034 A 
BRANCH  55  69
ATOM     69  C   UNL A   1      37.083  32.682  30.719  1.00  0.00     0.023 A 
ATOM     70  C   UNL A   1      36.616  32.557  32.048  1.00  0.00     0.012 A 
ATOM     71  C   UNL A   1      36.220  33.372  29.834  1.00  0.00     0.148 A 
ATOM     72  C   UNL A   1      35.360  33.022  32.457  1.00  0.00     0.002 A 
ATOM     73  C   UNL A   1      34.957  33.823  30.233  1.00  0.00     0.091 A 
ATOM     74  F   UNL A   1      36.600  33.633  28.588  1.00  0.00    -0.205 F 
ATOM     75  C   UNL A   1      34.521  33.642  31.545  1.00  0.00     0.022 A 
BRANCH  73  76
ATOM     76  S   UNL A   1      33.803  34.615  29.092  1.00  0.00     0.127 S 
ATOM     77  O   UNL A   1      33.496  33.522  28.167  1.00  0.00    -0.237 OA
ATOM     78  O   UNL A   1      32.700  34.990  29.974  1.00  0.00    -0.237 OA
ATOM     79  O   UNL A   1      34.515  35.733  28.485  1.00  0.00    -0.744 OA
ENDBRANCH  73  76
ENDBRANCH  55  69
BRANCH  56  80
ATOM     80  C   UNL A   1      45.122  27.217  29.323  1.00  0.00     0.023 A 
ATOM     81  C   UNL A   1      45.447  25.900  29.729  1.00  0.00     0.012 A 
ATOM     82  C   UNL A   1      44.938  27.478  27.953  1.00  0.00     0.148 A 
ATOM     83  C   UNL A   1      45.422  24.843  28.818  1.00  0.00     0.002 A 
ATOM     84  C   UNL A   1      44.915  26.417  27.049  1.00  0.00     0.091 A 
ATOM     85  F   UNL A   1      44.679  28.734  27.571  1.00  0.00    -0.205 F 
ATOM     86  C   UNL A   1      45.113  25.096  27.487  1.00  0.00     0.022 A 
BRANCH  84  87
ATOM     87  S   UNL A   1      44.475  26.654  25.323  1.00  0.00     0.127 S 
ATOM     88  O   UNL A   1      45.788  26.808  24.705  1.00  0.00    -0.237 OA
ATOM     89  O   UNL A   1      43.786  25.405  25.004  1.00  0.00    -0.237 OA
ATOM     90  O   UNL A   1      43.616  27.830  25.311  1.00  0.00    -0.744 OA
ENDBRANCH  84  87
ENDBRANCH  56  80
BRANCH  68  91
ATOM     91  C   UNL A   1      43.519  34.207  30.563  1.00  0.00     0.023 A 
ATOM     92  C   UNL A   1      43.679  35.149  31.597  1.00  0.00     0.012 A 
ATOM     93  C   UNL A   1      43.526  34.712  29.236  1.00  0.00     0.148 A 
ATOM     94  C   UNL A   1      43.890  36.509  31.332  1.00  0.00     0.002 A 
ATOM     95  C   UNL A   1      43.623  36.077  28.982  1.00  0.00     0.091 A 
ATOM     96  F   UNL A   1      43.496  33.872  28.199  1.00  0.00    -0.205 F 
ATOM     97  C   UNL A   1      43.838  36.976  30.026  1.00  0.00     0.022 A 
BRANCH  95  98
ATOM     98  S   UNL A   1      43.360  36.768  27.340  1.00  0.00     0.127 S 
ATOM     99  O   UNL A   1      42.032  36.244  27.008  1.00  0.00    -0.237 OA
ATOM    100  O   UNL A   1      43.398  38.204  27.610  1.00  0.00    -0.237 OA
ATOM    101  O   UNL A   1      44.434  36.249  26.507  1.00  0.00    -0.744 OA
ENDBRANCH  95  98
ENDBRANCH  68  91
ENDBRANCH  42  43
ENDBRANCH  34  37
ENDBRANCH  32  33
ENDBRANCH  31  32
ENDBRANCH   1  31
TORSDOF 17
ENDMDL
MODEL 2
REMARK VINA RESULT:     -13.3      1.356      2.878
REMARK SMILES Cc1ccccc1[C@@H]1[NH2+][C@@H](C(=O)NCCCCCCNC(=O)c2ccc(-c3c4nc(c(-c5cccc(S(=O)(=O)[O-])c5F)c5ccc([nH]5)c(-c5cccc(S(=O)(=O)[O-])c5F)c5nc(c(-c6cccc(S(=O)(=O)[O-])c6F)c6ccc3[nH]6)C=C5)C=C4)cc2)CC2=c3ccccc3=N[C@H]21
REMARK SMILES IDX 17 1 16 2 15 3 14 4 13 5 11 6 12 7 10 9 8 10 9 11 95 12
REMARK SMILES IDX 87 15 94 16 86 17 88 18 93 19 89 20 92 21 90 22 91 23 7 24
REMARK SMILES IDX 1 25 2 26 3 27 4 28 6 29 5 30 18 31 19 32 20 33 21 34 22 36
REMARK SMILES IDX 23 37 24 38 85 39 25 40 84 41 26 42 27 43 28 44 78 45 29 46
REMARK SMILES IDX 83 47 77 48 79 49 30 50 82 51 76 52 75 53 31 55 63 56 43 57
REMARK SMILES IDX 62 58 44 59 47 60 61 61 80 62 45 63 46 64 60 66 81 67 48 68
REMARK SMILES IDX 32 69 33 70 41 71 34 72 36 73 42 74 35 75 37 76 38 77 39 78
REMARK SMILES IDX 40 79 64 80 65 81 73 82 66 83 68 84 74 85 67 86 69 87 70 88
REMARK SMILES IDX 71 89 72 90 49 91 50 92 58 93 51 94 53 95 59 96 52 97 54 98
REMARK SMILES IDX 55 99 56 100 57 101
REMARK H PARENT 13 8 9 13 9 14 20 35 79 54 47 65
REMARK Flexibility Score: inf
ROOT
ATOM      1  C   UNL A   1      35.971  21.385  24.462  1.00  0.00     0.002 C 
ENDROOT
BRANCH   1   2
ATOM      2  C   UNL A   1      34.893  20.423  24.993  1.00  0.00     0.002 C 
BRANCH   2   3
ATOM      3  C   UNL A   1      33.948  20.964  26.073  1.00  0.00     0.021 C 
BRANCH   3   4
ATOM      4  C   UNL A   1      32.564  21.376  25.575  1.00  0.00     0.116 C 
BRANCH   4   5
ATOM      5  N   UNL A   1      31.729  22.059  26.544  1.00  0.00    -0.351 N 
ATOM      6  C   UNL A   1      31.501  23.388  26.756  1.00  0.00     0.278 C 
ATOM      7  O   UNL A   1      30.385  23.667  27.220  1.00  0.00    -0.268 OA
ATOM      8  H   UNL A   1      31.241  21.460  27.155  1.00  0.00     0.163 HD
BRANCH   6   9
ATOM      9  C   UNL A   1      32.594  24.501  26.623  1.00  0.00     0.277 C 
ATOM     10  C   UNL A   1      32.308  26.719  25.316  1.00  0.00     0.243 C 
ATOM     11  N   UNL A   1      31.916  25.831  26.444  1.00  0.00    -0.327 N 
ATOM     12  C   UNL A   1      33.508  26.320  24.398  1.00  0.00     0.196 C 
ATOM     13  H   UNL A   1      30.920  25.642  26.338  1.00  0.00     0.347 HD
ATOM     14  H   UNL A   1      32.208  26.356  27.268  1.00  0.00     0.347 HD
ATOM     15  C   UNL A   1      33.591  24.833  24.374  1.00  0.00    -0.024 C 
ATOM     16  N   UNL A   1      33.283  26.715  22.974  1.00  0.00    -0.270 NA
ATOM     17  C   UNL A   1      33.794  24.239  25.712  1.00  0.00     0.109 C 
ATOM     18  C   UNL A   1      33.365  24.344  23.164  1.00  0.00     0.002 A 
ATOM     19  C   UNL A   1      33.245  25.573  22.358  1.00  0.00     0.066 A 
ATOM     20  C   UNL A   1      33.173  23.053  22.593  1.00  0.00     0.010 A 
ATOM     21  C   UNL A   1      33.081  25.387  20.902  1.00  0.00     0.028 A 
ATOM     22  C   UNL A   1      32.934  22.963  21.274  1.00  0.00     0.001 A 
ATOM     23  C   UNL A   1      32.936  24.142  20.422  1.00  0.00     0.002 A 
BRANCH  10  24
ATOM     24  C   UNL A   1      32.483  28.169  25.792  1.00  0.00     0.015 A 
ATOM     25  C   UNL A   1      30.669  29.150  24.240  1.00  0.00     0.045 C 
ATOM     26  C   UNL A   1      31.680  29.250  25.350  1.00  0.00    -0.042 A 
ATOM     27  C   UNL A   1      31.767  30.486  26.016  1.00  0.00     0.004 A 
ATOM     28  C   UNL A   1      32.680  30.689  27.049  1.00  0.00     0.000 A 
ATOM     29  C   UNL A   1      33.436  28.416  26.801  1.00  0.00     0.010 A 
ATOM     30  C   UNL A   1      33.536  29.662  27.421  1.00  0.00     0.001 A 
ENDBRANCH  10  24
ENDBRANCH   6   9
ENDBRANCH   4   5
ENDBRANCH   3   4
ENDBRANCH   2   3
ENDBRANCH   1   2
BRANCH   1  31
ATOM     31  C   UNL A   1      37.401  21.156  24.953  1.00  0.00     0.021 C 
BRANCH  31  32
ATOM     32  C   UNL A   1      38.149  22.426  25.325  1.00  0.00     0.116 C 
BRANCH  32  33
ATOM     33  N   UNL A   1      39.347  22.187  26.105  1.00  0.00    -0.352 N 
ATOM     34  C   UNL A   1      40.272  23.090  26.591  1.00  0.00     0.251 C 
ATOM     35  H   UNL A   1      39.527  21.243  26.320  1.00  0.00     0.163 HD
ATOM     36  O   UNL A   1      41.382  22.665  26.915  1.00  0.00    -0.269 OA
BRANCH  34  37
ATOM     37  C   UNL A   1      39.879  24.495  26.878  1.00  0.00     0.039 A 
ATOM     38  C   UNL A   1      40.533  25.505  26.155  1.00  0.00     0.014 A 
ATOM     39  C   UNL A   1      39.131  24.832  28.000  1.00  0.00     0.014 A 
ATOM     40  C   UNL A   1      40.687  26.771  26.714  1.00  0.00     0.010 A 
ATOM     41  C   UNL A   1      39.359  26.043  28.604  1.00  0.00     0.010 A 
ATOM     42  C   UNL A   1      40.207  26.974  27.999  1.00  0.00    -0.014 A 
BRANCH  42  43
ATOM     43  C   UNL A   1      40.489  28.116  28.843  1.00  0.00     0.031 A 
ATOM     44  C   UNL A   1      39.602  29.283  28.775  1.00  0.00     0.074 A 
ATOM     45  C   UNL A   1      41.280  27.896  29.916  1.00  0.00     0.049 A 
ATOM     46  N   UNL A   1      39.765  30.350  29.472  1.00  0.00    -0.248 NA
ATOM     47  C   UNL A   1      38.445  29.333  27.894  1.00  0.00     0.031 C 
ATOM     48  C   UNL A   1      41.268  28.604  31.188  1.00  0.00     0.029 A 
ATOM     49  N   UNL A   1      42.395  27.059  30.007  1.00  0.00    -0.354 N 
ATOM     50  C   UNL A   1      38.604  31.084  29.379  1.00  0.00     0.074 A 
ATOM     51  C   UNL A   1      37.876  30.474  28.293  1.00  0.00     0.031 C 
ATOM     52  C   UNL A   1      42.438  28.395  31.809  1.00  0.00     0.029 A 
ATOM     53  C   UNL A   1      43.302  27.714  30.862  1.00  0.00     0.049 A 
ATOM     54  H   UNL A   1      42.521  26.189  29.564  1.00  0.00     0.167 HD
ATOM     55  C   UNL A   1      38.363  32.023  30.338  1.00  0.00     0.034 A 
ATOM     56  C   UNL A   1      44.517  28.174  30.433  1.00  0.00     0.034 A 
ATOM     57  C   UNL A   1      39.549  32.190  31.205  1.00  0.00     0.049 A 
ATOM     58  C   UNL A   1      44.627  29.696  30.486  1.00  0.00     0.074 A 
ATOM     59  C   UNL A   1      39.912  31.794  32.482  1.00  0.00     0.029 A 
ATOM     60  N   UNL A   1      40.715  32.639  30.612  1.00  0.00    -0.354 N 
ATOM     61  N   UNL A   1      43.749  30.492  31.038  1.00  0.00    -0.248 NA
ATOM     62  C   UNL A   1      45.705  30.443  29.837  1.00  0.00     0.031 C 
ATOM     63  C   UNL A   1      41.332  31.956  32.609  1.00  0.00     0.029 A 
ATOM     64  C   UNL A   1      41.821  32.483  31.425  1.00  0.00     0.049 A 
ATOM     65  H   UNL A   1      40.752  33.026  29.708  1.00  0.00     0.167 HD
ATOM     66  C   UNL A   1      44.004  31.788  30.663  1.00  0.00     0.074 A 
ATOM     67  C   UNL A   1      45.277  31.711  29.966  1.00  0.00     0.031 C 
ATOM     68  C   UNL A   1      43.130  32.823  30.870  1.00  0.00     0.034 A 
BRANCH  55  69
ATOM     69  C   UNL A   1      37.029  32.689  30.642  1.00  0.00     0.023 A 
ATOM     70  C   UNL A   1      36.497  32.488  31.938  1.00  0.00     0.012 A 
ATOM     71  C   UNL A   1      36.214  33.439  29.761  1.00  0.00     0.148 A 
ATOM     72  C   UNL A   1      35.227  32.941  32.315  1.00  0.00     0.002 A 
ATOM     73  C   UNL A   1      34.937  33.879  30.126  1.00  0.00     0.091 A 
ATOM     74  F   UNL A   1      36.654  33.771  28.552  1.00  0.00    -0.205 F 
ATOM     75  C   UNL A   1      34.437  33.624  31.403  1.00  0.00     0.022 A 
BRANCH  73  76
ATOM     76  S   UNL A   1      33.844  34.749  28.983  1.00  0.00     0.127 S 
ATOM     77  O   UNL A   1      33.801  33.827  27.846  1.00  0.00    -0.237 OA
ATOM     78  O   UNL A   1      32.598  34.833  29.743  1.00  0.00    -0.237 OA
ATOM     79  O   UNL A   1      34.475  36.030  28.692  1.00  0.00    -0.744 OA
ENDBRANCH  73  76
ENDBRANCH  55  69
BRANCH  56  80
ATOM     80  C   UNL A   1      45.129  27.277  29.402  1.00  0.00     0.023 A 
ATOM     81  C   UNL A   1      45.376  25.942  29.804  1.00  0.00     0.012 A 
ATOM     82  C   UNL A   1      45.029  27.564  28.029  1.00  0.00     0.148 A 
ATOM     83  C   UNL A   1      45.356  24.899  28.877  1.00  0.00     0.002 A 
ATOM     84  C   UNL A   1      45.010  26.517  27.109  1.00  0.00     0.091 A 
ATOM     85  F   UNL A   1      44.843  28.835  27.654  1.00  0.00    -0.205 F 
ATOM     86  C   UNL A   1      45.130  25.184  27.536  1.00  0.00     0.022 A 
BRANCH  84  87
ATOM     87  S   UNL A   1      44.673  26.796  25.366  1.00  0.00     0.127 S 
ATOM     88  O   UNL A   1      45.848  27.562  24.960  1.00  0.00    -0.237 OA
ATOM     89  O   UNL A   1      44.612  25.434  24.840  1.00  0.00    -0.237 OA
ATOM     90  O   UNL A   1      43.402  27.505  25.337  1.00  0.00    -0.744 OA
ENDBRANCH  84  87
ENDBRANCH  56  80
BRANCH  68  91
ATOM     91  C   UNL A   1      43.451  34.270  30.522  1.00  0.00     0.023 A 
ATOM     92  C   UNL A   1      43.642  35.218  31.546  1.00  0.00     0.012 A 
ATOM     93  C   UNL A   1      43.419  34.767  29.193  1.00  0.00     0.148 A 
ATOM     94  C   UNL A   1      43.845  36.576  31.266  1.00  0.00     0.002 A 
ATOM     95  C   UNL A   1      43.508  36.130  28.927  1.00  0.00     0.091 A 
ATOM     96  F   UNL A   1      43.358  33.920  28.162  1.00  0.00    -0.205 F 
ATOM     97  C   UNL A   1      43.755  37.035  29.959  1.00  0.00     0.022 A 
BRANCH  95  98
ATOM     98  S   UNL A   1      43.196  36.810  27.290  1.00  0.00     0.127 S 
ATOM     99  O   UNL A   1      44.226  36.142  26.490  1.00  0.00    -0.237 OA
ATOM    100  O   UNL A   1      41.832  36.353  27.031  1.00  0.00    -0.237 OA
ATOM    101  O   UNL A   1      43.371  38.250  27.411  1.00  0.00    -0.744 OA
ENDBRANCH  95  98
ENDBRANCH  68  91
ENDBRANCH  42  43
ENDBRANCH  34  37
ENDBRANCH  32  33
ENDBRANCH  31  32
ENDBRANCH   1  31
TORSDOF 17
ENDMDL
MODEL 3
REMARK VINA RESULT:     -13.2      1.540      2.890
REMARK SMILES Cc1ccccc1[C@@H]1[NH2+][C@@H](C(=O)NCCCCCCNC(=O)c2ccc(-c3c4nc(c(-c5cccc(S(=O)(=O)[O-])c5F)c5ccc([nH]5)c(-c5cccc(S(=O)(=O)[O-])c5F)c5nc(c(-c6cccc(S(=O)(=O)[O-])c6F)c6ccc3[nH]6)C=C5)C=C4)cc2)CC2=c3ccccc3=N[C@H]21
REMARK SMILES IDX 17 1 16 2 15 3 14 4 13 5 11 6 12 7 10 9 8 10 9 11 95 12
REMARK SMILES IDX 87 15 94 16 86 17 88 18 93 19 89 20 92 21 90 22 91 23 7 24
REMARK SMILES IDX 1 25 2 26 3 27 4 28 6 29 5 30 18 31 19 32 20 33 21 34 22 36
REMARK SMILES IDX 23 37 24 38 85 39 25 40 84 41 26 42 27 43 28 44 78 45 29 46
REMARK SMILES IDX 83 47 77 48 79 49 30 50 82 51 76 52 75 53 31 55 63 56 43 57
REMARK SMILES IDX 62 58 44 59 47 60 61 61 80 62 45 63 46 64 60 66 81 67 48 68
REMARK SMILES IDX 32 69 33 70 41 71 34 72 36 73 42 74 35 75 37 76 38 77 39 78
REMARK SMILES IDX 40 79 64 80 65 81 73 82 66 83 68 84 74 85 67 86 69 87 70 88
REMARK SMILES IDX 71 89 72 90 49 91 50 92 58 93 51 94 53 95 59 96 52 97 54 98
REMARK SMILES IDX 55 99 56 100 57 101
REMARK H PARENT 13 8 9 13 9 14 20 35 79 54 47 65
REMARK Flexibility Score: inf
ROOT
ATOM      1  C   UNL A   1      35.751  20.989  25.110  1.00  0.00     0.002 C 
ENDROOT
BRANCH   1   2
ATOM      2  C   UNL A   1      34.763  22.097  24.702  1.00  0.00     0.002 C 
BRANCH   2   3
ATOM      3  C   UNL A   1      35.034  22.819  23.376  1.00  0.00     0.021 C 
BRANCH   3   4
ATOM      4  C   UNL A   1      34.500  24.248  23.296  1.00  0.00     0.116 C 
BRANCH   4   5
ATOM      5  N   UNL A   1      33.830  24.596  22.059  1.00  0.00    -0.351 N 
ATOM      6  C   UNL A   1      33.199  25.743  21.671  1.00  0.00     0.278 C 
ATOM      7  O   UNL A   1      33.223  25.974  20.452  1.00  0.00    -0.268 OA
ATOM      8  H   UNL A   1      33.828  23.882  21.382  1.00  0.00     0.163 HD
BRANCH   6   9
ATOM      9  C   UNL A   1      32.333  26.637  22.621  1.00  0.00     0.277 C 
ATOM     10  C   UNL A   1      32.929  27.216  25.074  1.00  0.00     0.243 C 
ATOM     11  N   UNL A   1      33.236  27.304  23.621  1.00  0.00    -0.327 N 
ATOM     12  C   UNL A   1      31.602  26.537  25.545  1.00  0.00     0.196 C 
ATOM     13  H   UNL A   1      34.165  26.905  23.491  1.00  0.00     0.347 HD
ATOM     14  H   UNL A   1      33.120  28.297  23.416  1.00  0.00     0.347 HD
ATOM     15  C   UNL A   1      31.234  25.505  24.536  1.00  0.00    -0.024 C 
ATOM     16  N   UNL A   1      31.779  25.781  26.822  1.00  0.00    -0.270 NA
ATOM     17  C   UNL A   1      31.033  26.059  23.181  1.00  0.00     0.109 C 
ATOM     18  C   UNL A   1      31.260  24.282  25.047  1.00  0.00     0.002 A 
ATOM     19  C   UNL A   1      31.546  24.554  26.468  1.00  0.00     0.066 A 
ATOM     20  C   UNL A   1      31.153  22.953  24.546  1.00  0.00     0.010 A 
ATOM     21  C   UNL A   1      31.549  23.385  27.370  1.00  0.00     0.028 A 
ATOM     22  C   UNL A   1      31.259  21.931  25.411  1.00  0.00     0.001 A 
ATOM     23  C   UNL A   1      31.412  22.159  26.839  1.00  0.00     0.002 A 
BRANCH  10  24
ATOM     24  C   UNL A   1      33.076  28.586  25.752  1.00  0.00     0.015 A 
ATOM     25  C   UNL A   1      30.995  29.629  24.637  1.00  0.00     0.045 C 
ATOM     26  C   UNL A   1      32.149  29.647  25.603  1.00  0.00    -0.042 A 
ATOM     27  C   UNL A   1      32.251  30.770  26.444  1.00  0.00     0.004 A 
ATOM     28  C   UNL A   1      33.289  30.894  27.365  1.00  0.00     0.000 A 
ATOM     29  C   UNL A   1      34.148  28.759  26.652  1.00  0.00     0.010 A 
ATOM     30  C   UNL A   1      34.256  29.901  27.448  1.00  0.00     0.001 A 
ENDBRANCH  10  24
ENDBRANCH   6   9
ENDBRANCH   4   5
ENDBRANCH   3   4
ENDBRANCH   2   3
ENDBRANCH   1   2
BRANCH   1  31
ATOM     31  C   UNL A   1      37.199  21.151  24.644  1.00  0.00     0.021 C 
BRANCH  31  32
ATOM     32  C   UNL A   1      37.892  22.398  25.169  1.00  0.00     0.116 C 
BRANCH  32  33
ATOM     33  N   UNL A   1      39.035  22.113  26.014  1.00  0.00    -0.352 N 
ATOM     34  C   UNL A   1      40.002  22.972  26.499  1.00  0.00     0.251 C 
ATOM     35  H   UNL A   1      39.137  21.171  26.281  1.00  0.00     0.163 HD
ATOM     36  O   UNL A   1      41.064  22.486  26.892  1.00  0.00    -0.269 OA
BRANCH  34  37
ATOM     37  C   UNL A   1      39.701  24.413  26.702  1.00  0.00     0.039 A 
ATOM     38  C   UNL A   1      40.518  25.340  26.035  1.00  0.00     0.014 A 
ATOM     39  C   UNL A   1      38.861  24.851  27.718  1.00  0.00     0.014 A 
ATOM     40  C   UNL A   1      40.715  26.608  26.576  1.00  0.00     0.010 A 
ATOM     41  C   UNL A   1      39.120  26.059  28.314  1.00  0.00     0.010 A 
ATOM     42  C   UNL A   1      40.109  26.895  27.789  1.00  0.00    -0.014 A 
BRANCH  42  43
ATOM     43  C   UNL A   1      40.389  28.039  28.632  1.00  0.00     0.031 A 
ATOM     44  C   UNL A   1      39.535  29.227  28.519  1.00  0.00     0.074 A 
ATOM     45  C   UNL A   1      41.136  27.813  29.735  1.00  0.00     0.049 A 
ATOM     46  N   UNL A   1      39.700  30.297  29.211  1.00  0.00    -0.248 NA
ATOM     47  C   UNL A   1      38.412  29.296  27.596  1.00  0.00     0.031 C 
ATOM     48  C   UNL A   1      41.096  28.534  30.998  1.00  0.00     0.029 A 
ATOM     49  N   UNL A   1      42.226  26.949  29.875  1.00  0.00    -0.354 N 
ATOM     50  C   UNL A   1      38.562  31.059  29.068  1.00  0.00     0.074 A 
ATOM     51  C   UNL A   1      37.858  30.455  27.962  1.00  0.00     0.031 C 
ATOM     52  C   UNL A   1      42.236  28.303  31.663  1.00  0.00     0.029 A 
ATOM     53  C   UNL A   1      43.117  27.591  30.756  1.00  0.00     0.049 A 
ATOM     54  H   UNL A   1      42.345  26.071  29.446  1.00  0.00     0.167 HD
ATOM     55  C   UNL A   1      38.310  32.014  30.008  1.00  0.00     0.034 A 
ATOM     56  C   UNL A   1      44.358  28.015  30.366  1.00  0.00     0.034 A 
ATOM     57  C   UNL A   1      39.468  32.162  30.915  1.00  0.00     0.049 A 
ATOM     58  C   UNL A   1      44.504  29.535  30.407  1.00  0.00     0.074 A 
ATOM     59  C   UNL A   1      39.774  31.771  32.209  1.00  0.00     0.029 A 
ATOM     60  N   UNL A   1      40.665  32.575  30.361  1.00  0.00    -0.354 N 
ATOM     61  N   UNL A   1      43.627  30.359  30.919  1.00  0.00    -0.248 NA
ATOM     62  C   UNL A   1      45.623  30.248  29.790  1.00  0.00     0.031 C 
ATOM     63  C   UNL A   1      41.193  31.900  32.386  1.00  0.00     0.029 A 
ATOM     64  C   UNL A   1      41.737  32.401  31.215  1.00  0.00     0.049 A 
ATOM     65  H   UNL A   1      40.745  32.951  29.455  1.00  0.00     0.167 HD
ATOM     66  C   UNL A   1      43.928  31.644  30.540  1.00  0.00     0.074 A 
ATOM     67  C   UNL A   1      45.223  31.528  29.890  1.00  0.00     0.031 C 
ATOM     68  C   UNL A   1      43.073  32.702  30.705  1.00  0.00     0.034 A 
BRANCH  55  69
ATOM     69  C   UNL A   1      36.982  32.716  30.257  1.00  0.00     0.023 A 
ATOM     70  C   UNL A   1      36.266  33.146  29.115  1.00  0.00     0.012 A 
ATOM     71  C   UNL A   1      36.399  33.053  31.502  1.00  0.00     0.148 A 
ATOM     72  C   UNL A   1      35.094  33.908  29.198  1.00  0.00     0.002 A 
ATOM     73  C   UNL A   1      35.238  33.828  31.591  1.00  0.00     0.091 A 
ATOM     74  F   UNL A   1      36.934  32.617  32.637  1.00  0.00    -0.205 F 
ATOM     75  C   UNL A   1      34.586  34.263  30.437  1.00  0.00     0.022 A 
BRANCH  73  76
ATOM     76  S   UNL A   1      34.536  34.351  33.170  1.00  0.00     0.127 S 
ATOM     77  O   UNL A   1      35.416  35.463  33.537  1.00  0.00    -0.237 OA
ATOM     78  O   UNL A   1      33.181  34.749  32.794  1.00  0.00    -0.237 OA
ATOM     79  O   UNL A   1      34.616  33.203  34.064  1.00  0.00    -0.744 OA
ENDBRANCH  73  76
ENDBRANCH  55  69
BRANCH  56  80
ATOM     80  C   UNL A   1      44.984  27.093  29.368  1.00  0.00     0.023 A 
ATOM     81  C   UNL A   1      45.253  25.777  29.817  1.00  0.00     0.012 A 
ATOM     82  C   UNL A   1      44.878  27.328  27.985  1.00  0.00     0.148 A 
ATOM     83  C   UNL A   1      45.250  24.701  28.928  1.00  0.00     0.002 A 
ATOM     84  C   UNL A   1      44.876  26.248  27.104  1.00  0.00     0.091 A 
ATOM     85  F   UNL A   1      44.671  28.581  27.564  1.00  0.00    -0.205 F 
ATOM     86  C   UNL A   1      45.018  24.933  27.578  1.00  0.00     0.022 A 
BRANCH  84  87
ATOM     87  S   UNL A   1      44.533  26.459  25.352  1.00  0.00     0.127 S 
ATOM     88  O   UNL A   1      43.762  25.255  25.058  1.00  0.00    -0.237 OA
ATOM     89  O   UNL A   1      43.765  27.702  25.333  1.00  0.00    -0.237 OA
ATOM     90  O   UNL A   1      45.841  26.555  24.720  1.00  0.00    -0.744 OA
ENDBRANCH  84  87
ENDBRANCH  56  80
BRANCH  68  91
ATOM     91  C   UNL A   1      43.443  34.137  30.354  1.00  0.00     0.023 A 
ATOM     92  C   UNL A   1      43.508  35.118  31.362  1.00  0.00     0.012 A 
ATOM     93  C   UNL A   1      43.581  34.590  29.016  1.00  0.00     0.148 A 
ATOM     94  C   UNL A   1      43.751  36.466  31.067  1.00  0.00     0.002 A 
ATOM     95  C   UNL A   1      43.710  35.944  28.720  1.00  0.00     0.091 A 
ATOM     96  F   UNL A   1      43.645  33.710  28.013  1.00  0.00    -0.205 F 
ATOM     97  C   UNL A   1      43.829  36.882  29.744  1.00  0.00     0.022 A 
BRANCH  95  98
ATOM     98  S   UNL A   1      43.610  36.571  27.035  1.00  0.00     0.127 S 
ATOM     99  O   UNL A   1      44.889  36.126  26.477  1.00  0.00    -0.237 OA
ATOM    100  O   UNL A   1      42.441  35.860  26.520  1.00  0.00    -0.237 OA
ATOM    101  O   UNL A   1      43.474  38.016  27.150  1.00  0.00    -0.744 OA
ENDBRANCH  95  98
ENDBRANCH  68  91
ENDBRANCH  42  43
ENDBRANCH  34  37
ENDBRANCH  32  33
ENDBRANCH  31  32
ENDBRANCH   1  31
TORSDOF 17
ENDMDL
