MODEL 1
REMARK VINA RESULT:     -12.0      0.000      0.000
REMARK SMILES CC1(C)[C@H](C(=O)NCCCCCCNC(=O)c2ccc(-c3c4nc(c(-c5cccc(S(=O)(=O)[O-])c5F)c5ccc([nH]5)c(-c5cccc(S(=O)(=O)[O-])c5F)c5nc(c(-c6cccc(S(=O)(=O)[O-])c6F)c6ccc3[nH]6)C=C5)C=C4)cc2)[C@H]1C(=O)Nc1cccc2[nH]ccc12
REMARK SMILES IDX 11 1 10 2 9 3 8 4 7 5 5 6 6 7 4 9 1 10 2 11 3 12 80 13 81 14
REMARK SMILES IDX 82 15 83 16 84 18 85 19 92 20 86 21 88 22 91 23 87 24 89 25
REMARK SMILES IDX 90 26 12 28 13 29 14 30 15 31 16 33 17 34 18 35 79 36 19 37
REMARK SMILES IDX 78 38 20 39 21 40 22 41 72 42 23 43 77 44 71 45 73 46 24 47
REMARK SMILES IDX 76 48 70 49 69 50 25 52 57 53 37 54 56 55 38 56 41 57 55 58
REMARK SMILES IDX 74 59 39 60 40 61 54 63 75 64 42 65 26 66 27 67 35 68 28 69
REMARK SMILES IDX 30 70 36 71 29 72 31 73 32 74 33 75 34 76 58 77 59 78 67 79
REMARK SMILES IDX 60 80 62 81 68 82 61 83 63 84 64 85 65 86 66 87 43 88 44 89
REMARK SMILES IDX 52 90 45 91 47 92 53 93 46 94 48 95 49 96 50 97 51 98
REMARK H PARENT 7 8 83 17 89 27 14 32 73 51 41 62
REMARK Flexibility Score: inf
ROOT
ATOM      1  C   UNL A   1      31.625  30.494  26.141  1.00  0.00     0.002 C 
ENDROOT
BRANCH   1   2
ATOM      2  C   UNL A   1      32.534  29.626  27.018  1.00  0.00     0.002 C 
BRANCH   2   3
ATOM      3  C   UNL A   1      32.588  28.146  26.631  1.00  0.00     0.021 C 
BRANCH   3   4
ATOM      4  C   UNL A   1      31.219  27.503  26.405  1.00  0.00     0.116 C 
BRANCH   4   5
ATOM      5  N   UNL A   1      31.175  26.164  26.934  1.00  0.00    -0.356 N 
ATOM      6  C   UNL A   1      31.767  24.989  26.580  1.00  0.00     0.224 C 
ATOM      7  O   UNL A   1      31.491  24.024  27.301  1.00  0.00    -0.275 OA
ATOM      8  H   UNL A   1      30.592  26.079  27.722  1.00  0.00     0.163 HD
BRANCH   6   9
ATOM      9  C   UNL A   1      32.699  24.733  25.447  1.00  0.00     0.098 C 
ATOM     10  C   UNL A   1      35.123  24.373  24.844  1.00  0.00     0.013 C 
ATOM     11  C   UNL A   1      33.833  23.716  25.258  1.00  0.00    -0.011 C 
ATOM     12  C   UNL A   1      34.153  22.409  25.932  1.00  0.00     0.013 C 
ATOM     13  C   UNL A   1      32.537  23.671  24.422  1.00  0.00     0.098 C 
BRANCH  13  14
ATOM     14  C   UNL A   1      32.505  23.733  22.929  1.00  0.00     0.228 C 
ATOM     15  O   UNL A   1      32.677  22.673  22.327  1.00  0.00    -0.274 OA
ATOM     16  N   UNL A   1      32.037  24.805  22.207  1.00  0.00    -0.325 N 
ATOM     17  H   UNL A   1      31.486  24.574  21.425  1.00  0.00     0.169 HD
BRANCH  16  18
ATOM     18  C   UNL A   1      32.225  26.172  22.416  1.00  0.00     0.050 A 
ATOM     19  C   UNL A   1      33.536  26.662  22.427  1.00  0.00     0.027 A 
ATOM     20  C   UNL A   1      31.174  27.048  22.771  1.00  0.00     0.023 A 
ATOM     21  C   UNL A   1      33.781  28.026  22.567  1.00  0.00     0.004 A 
ATOM     22  C   UNL A   1      31.441  28.418  22.831  1.00  0.00     0.047 A 
ATOM     23  C   UNL A   1      29.813  26.892  23.169  1.00  0.00     0.030 A 
ATOM     24  C   UNL A   1      32.732  28.939  22.704  1.00  0.00     0.027 A 
ATOM     25  N   UNL A   1      30.234  29.060  23.002  1.00  0.00    -0.361 N 
ATOM     26  C   UNL A   1      29.248  28.145  23.257  1.00  0.00     0.083 A 
ATOM     27  H   UNL A   1      30.100  30.034  22.948  1.00  0.00     0.166 HD
ENDBRANCH  16  18
ENDBRANCH  13  14
ENDBRANCH   6   9
ENDBRANCH   4   5
ENDBRANCH   3   4
ENDBRANCH   2   3
ENDBRANCH   1   2
BRANCH   1  28
ATOM     28  C   UNL A   1      31.518  31.962  26.564  1.00  0.00     0.021 C 
BRANCH  28  29
ATOM     29  C   UNL A   1      32.756  32.510  27.272  1.00  0.00     0.116 C 
BRANCH  29  30
ATOM     30  N   UNL A   1      32.595  33.914  27.617  1.00  0.00    -0.352 N 
ATOM     31  C   UNL A   1      33.169  34.630  28.636  1.00  0.00     0.251 C 
ATOM     32  H   UNL A   1      31.986  34.424  27.036  1.00  0.00     0.163 HD
ATOM     33  O   UNL A   1      32.722  35.734  28.935  1.00  0.00    -0.269 OA
BRANCH  31  34
ATOM     34  C   UNL A   1      34.325  34.072  29.371  1.00  0.00     0.039 A 
ATOM     35  C   UNL A   1      34.096  33.188  30.427  1.00  0.00     0.014 A 
ATOM     36  C   UNL A   1      35.630  34.454  29.043  1.00  0.00     0.014 A 
ATOM     37  C   UNL A   1      35.179  32.653  31.129  1.00  0.00     0.010 A 
ATOM     38  C   UNL A   1      36.708  33.866  29.696  1.00  0.00     0.010 A 
ATOM     39  C   UNL A   1      36.495  32.973  30.756  1.00  0.00    -0.014 A 
BRANCH  39  40
ATOM     40  C   UNL A   1      37.659  32.388  31.470  1.00  0.00     0.031 A 
ATOM     41  C   UNL A   1      38.430  31.250  30.856  1.00  0.00     0.074 A 
ATOM     42  C   UNL A   1      37.971  32.828  32.704  1.00  0.00     0.049 A 
ATOM     43  N   UNL A   1      39.445  30.585  31.343  1.00  0.00    -0.248 NA
ATOM     44  C   UNL A   1      37.988  30.778  29.532  1.00  0.00     0.031 C 
ATOM     45  C   UNL A   1      37.246  33.867  33.440  1.00  0.00     0.029 A 
ATOM     46  N   UNL A   1      38.962  32.439  33.569  1.00  0.00    -0.354 N 
ATOM     47  C   UNL A   1      39.738  29.597  30.410  1.00  0.00     0.074 A 
ATOM     48  C   UNL A   1      38.773  29.728  29.340  1.00  0.00     0.031 C 
ATOM     49  C   UNL A   1      37.819  34.034  34.642  1.00  0.00     0.029 A 
ATOM     50  C   UNL A   1      38.933  33.101  34.775  1.00  0.00     0.049 A 
ATOM     51  H   UNL A   1      39.632  31.752  33.348  1.00  0.00     0.167 HD
ATOM     52  C   UNL A   1      40.738  28.684  30.425  1.00  0.00     0.034 A 
ATOM     53  C   UNL A   1      39.714  32.968  35.865  1.00  0.00     0.034 A 
ATOM     54  C   UNL A   1      41.725  28.590  31.467  1.00  0.00     0.049 A 
ATOM     55  C   UNL A   1      40.852  31.984  35.831  1.00  0.00     0.074 A 
ATOM     56  C   UNL A   1      42.832  27.762  31.532  1.00  0.00     0.029 A 
ATOM     57  N   UNL A   1      41.722  29.346  32.629  1.00  0.00    -0.354 N 
ATOM     58  N   UNL A   1      41.213  31.172  34.867  1.00  0.00    -0.248 NA
ATOM     59  C   UNL A   1      41.717  31.928  37.019  1.00  0.00     0.031 C 
ATOM     60  C   UNL A   1      43.486  28.002  32.745  1.00  0.00     0.029 A 
ATOM     61  C   UNL A   1      42.803  29.000  33.422  1.00  0.00     0.049 A 
ATOM     62  H   UNL A   1      41.050  30.027  32.858  1.00  0.00     0.167 HD
ATOM     63  C   UNL A   1      42.367  30.538  35.315  1.00  0.00     0.074 A 
ATOM     64  C   UNL A   1      42.656  31.077  36.628  1.00  0.00     0.031 C 
ATOM     65  C   UNL A   1      43.110  29.585  34.702  1.00  0.00     0.034 A 
BRANCH  52  66
ATOM     66  C   UNL A   1      40.852  27.747  29.250  1.00  0.00     0.023 A 
ATOM     67  C   UNL A   1      40.073  26.573  29.219  1.00  0.00     0.012 A 
ATOM     68  C   UNL A   1      41.676  28.058  28.151  1.00  0.00     0.148 A 
ATOM     69  C   UNL A   1      40.138  25.704  28.130  1.00  0.00     0.002 A 
ATOM     70  C   UNL A   1      41.702  27.210  27.049  1.00  0.00     0.091 A 
ATOM     71  F   UNL A   1      42.426  29.168  28.205  1.00  0.00    -0.205 F 
ATOM     72  C   UNL A   1      40.943  26.028  27.042  1.00  0.00     0.022 A 
BRANCH  70  73
ATOM     73  S   UNL A   1      42.644  27.577  25.563  1.00  0.00     0.127 S 
ATOM     74  O   UNL A   1      43.996  27.722  26.100  1.00  0.00    -0.237 OA
ATOM     75  O   UNL A   1      42.433  26.372  24.760  1.00  0.00    -0.237 OA
ATOM     76  O   UNL A   1      42.059  28.788  25.006  1.00  0.00    -0.744 OA
ENDBRANCH  70  73
ENDBRANCH  52  66
BRANCH  53  77
ATOM     77  C   UNL A   1      39.489  33.839  37.052  1.00  0.00     0.023 A 
ATOM     78  C   UNL A   1      39.876  35.193  37.001  1.00  0.00     0.012 A 
ATOM     79  C   UNL A   1      38.875  33.344  38.219  1.00  0.00     0.148 A 
ATOM     80  C   UNL A   1      39.688  36.029  38.102  1.00  0.00     0.002 A 
ATOM     81  C   UNL A   1      38.640  34.197  39.291  1.00  0.00     0.091 A 
ATOM     82  F   UNL A   1      38.524  32.052  38.253  1.00  0.00    -0.205 F 
ATOM     83  C   UNL A   1      39.062  35.534  39.243  1.00  0.00     0.022 A 
BRANCH  81  84
ATOM     84  S   UNL A   1      37.720  33.680  40.746  1.00  0.00     0.127 S 
ATOM     85  O   UNL A   1      38.647  32.736  41.365  1.00  0.00    -0.237 OA
ATOM     86  O   UNL A   1      37.557  34.945  41.465  1.00  0.00    -0.237 OA
ATOM     87  O   UNL A   1      36.478  33.113  40.241  1.00  0.00    -0.744 OA
ENDBRANCH  81  84
ENDBRANCH  53  77
BRANCH  65  88
ATOM     88  C   UNL A   1      44.338  29.089  35.420  1.00  0.00     0.023 A 
ATOM     89  C   UNL A   1      45.575  29.731  35.223  1.00  0.00     0.012 A 
ATOM     90  C   UNL A   1      44.248  28.027  36.342  1.00  0.00     0.148 A 
ATOM     91  C   UNL A   1      46.713  29.301  35.905  1.00  0.00     0.002 A 
ATOM     92  C   UNL A   1      45.375  27.637  37.055  1.00  0.00     0.091 A 
ATOM     93  F   UNL A   1      43.065  27.415  36.503  1.00  0.00    -0.205 F 
ATOM     94  C   UNL A   1      46.611  28.264  36.829  1.00  0.00     0.022 A 
BRANCH  92  95
ATOM     95  S   UNL A   1      45.312  26.379  38.335  1.00  0.00     0.127 S 
ATOM     96  O   UNL A   1      46.703  26.341  38.786  1.00  0.00    -0.237 OA
ATOM     97  O   UNL A   1      44.376  26.961  39.299  1.00  0.00    -0.237 OA
ATOM     98  O   UNL A   1      44.830  25.169  37.683  1.00  0.00    -0.744 OA
ENDBRANCH  92  95
ENDBRANCH  65  88
ENDBRANCH  39  40
ENDBRANCH  31  34
ENDBRANCH  29  30
ENDBRANCH  28  29
ENDBRANCH   1  28
TORSDOF 18
ENDMDL
MODEL 2
REMARK VINA RESULT:     -11.9      2.342      8.440
REMARK SMILES CC1(C)[C@H](C(=O)NCCCCCCNC(=O)c2ccc(-c3c4nc(c(-c5cccc(S(=O)(=O)[O-])c5F)c5ccc([nH]5)c(-c5cccc(S(=O)(=O)[O-])c5F)c5nc(c(-c6cccc(S(=O)(=O)[O-])c6F)c6ccc3[nH]6)C=C5)C=C4)cc2)[C@H]1C(=O)Nc1cccc2[nH]ccc12
REMARK SMILES IDX 11 1 10 2 9 3 8 4 7 5 5 6 6 7 4 9 1 10 2 11 3 12 80 13 81 14
REMARK SMILES IDX 82 15 83 16 84 18 85 19 92 20 86 21 88 22 91 23 87 24 89 25
REMARK SMILES IDX 90 26 12 28 13 29 14 30 15 31 16 33 17 34 18 35 79 36 19 37
REMARK SMILES IDX 78 38 20 39 21 40 22 41 72 42 23 43 77 44 71 45 73 46 24 47
REMARK SMILES IDX 76 48 70 49 69 50 25 52 57 53 37 54 56 55 38 56 41 57 55 58
REMARK SMILES IDX 74 59 39 60 40 61 54 63 75 64 42 65 26 66 27 67 35 68 28 69
REMARK SMILES IDX 30 70 36 71 29 72 31 73 32 74 33 75 34 76 58 77 59 78 67 79
REMARK SMILES IDX 60 80 62 81 68 82 61 83 63 84 64 85 65 86 66 87 43 88 44 89
REMARK SMILES IDX 52 90 45 91 47 92 53 93 46 94 48 95 49 96 50 97 51 98
REMARK H PARENT 7 8 83 17 89 27 14 32 73 51 41 62
REMARK Flexibility Score: inf
ROOT
ATOM      1  C   UNL A   1      31.877  29.021  25.288  1.00  0.00     0.002 C 
ENDROOT
BRANCH   1   2
ATOM      2  C   UNL A   1      33.312  28.483  25.262  1.00  0.00     0.002 C 
BRANCH   2   3
ATOM      3  C   UNL A   1      33.972  28.462  23.880  1.00  0.00     0.021 C 
BRANCH   3   4
ATOM      4  C   UNL A   1      32.993  28.585  22.712  1.00  0.00     0.116 C 
BRANCH   4   5
ATOM      5  N   UNL A   1      33.175  27.518  21.762  1.00  0.00    -0.356 N 
ATOM      6  C   UNL A   1      33.067  26.162  21.832  1.00  0.00     0.224 C 
ATOM      7  O   UNL A   1      33.293  25.562  20.776  1.00  0.00    -0.275 OA
ATOM      8  H   UNL A   1      33.432  27.838  20.867  1.00  0.00     0.163 HD
BRANCH   6   9
ATOM      9  C   UNL A   1      32.706  25.328  23.013  1.00  0.00     0.098 C 
ATOM     10  C   UNL A   1      31.098  23.575  23.855  1.00  0.00     0.013 C 
ATOM     11  C   UNL A   1      32.410  23.829  23.161  1.00  0.00    -0.011 C 
ATOM     12  C   UNL A   1      32.742  22.635  22.308  1.00  0.00     0.013 C 
ATOM     13  C   UNL A   1      33.651  24.491  23.795  1.00  0.00     0.098 C 
BRANCH  13  14
ATOM     14  C   UNL A   1      33.960  24.453  25.257  1.00  0.00     0.228 C 
ATOM     15  O   UNL A   1      33.564  25.402  25.933  1.00  0.00    -0.274 OA
ATOM     16  N   UNL A   1      34.400  23.336  25.929  1.00  0.00    -0.325 N 
ATOM     17  H   UNL A   1      33.991  23.191  26.812  1.00  0.00     0.169 HD
BRANCH  16  18
ATOM     18  C   UNL A   1      35.337  22.376  25.545  1.00  0.00     0.050 A 
ATOM     19  C   UNL A   1      36.664  22.785  25.369  1.00  0.00     0.027 A 
ATOM     20  C   UNL A   1      34.983  21.058  25.176  1.00  0.00     0.023 A 
ATOM     21  C   UNL A   1      37.655  21.859  25.050  1.00  0.00     0.004 A 
ATOM     22  C   UNL A   1      36.004  20.137  24.934  1.00  0.00     0.047 A 
ATOM     23  C   UNL A   1      33.760  20.372  24.913  1.00  0.00     0.030 A 
ATOM     24  C   UNL A   1      37.353  20.504  24.892  1.00  0.00     0.027 A 
ATOM     25  N   UNL A   1      35.412  18.902  24.788  1.00  0.00    -0.361 N 
ATOM     26  C   UNL A   1      34.052  19.039  24.724  1.00  0.00     0.083 A 
ATOM     27  H   UNL A   1      35.896  18.046  24.737  1.00  0.00     0.166 HD
ENDBRANCH  16  18
ENDBRANCH  13  14
ENDBRANCH   6   9
ENDBRANCH   4   5
ENDBRANCH   3   4
ENDBRANCH   2   3
ENDBRANCH   1   2
BRANCH   1  28
ATOM     28  C   UNL A   1      31.719  30.432  25.862  1.00  0.00     0.021 C 
BRANCH  28  29
ATOM     29  C   UNL A   1      32.791  30.828  26.875  1.00  0.00     0.116 C 
BRANCH  29  30
ATOM     30  N   UNL A   1      32.925  32.273  26.973  1.00  0.00    -0.352 N 
ATOM     31  C   UNL A   1      33.798  33.017  27.725  1.00  0.00     0.251 C 
ATOM     32  H   UNL A   1      32.298  32.793  26.419  1.00  0.00     0.163 HD
ATOM     33  O   UNL A   1      33.599  34.218  27.884  1.00  0.00    -0.269 OA
BRANCH  31  34
ATOM     34  C   UNL A   1      34.976  32.371  28.342  1.00  0.00     0.039 A 
ATOM     35  C   UNL A   1      36.211  33.021  28.292  1.00  0.00     0.014 A 
ATOM     36  C   UNL A   1      34.869  31.108  28.933  1.00  0.00     0.014 A 
ATOM     37  C   UNL A   1      37.333  32.423  28.872  1.00  0.00     0.010 A 
ATOM     38  C   UNL A   1      35.971  30.546  29.571  1.00  0.00     0.010 A 
ATOM     39  C   UNL A   1      37.217  31.189  29.533  1.00  0.00    -0.014 A 
BRANCH  39  40
ATOM     40  C   UNL A   1      38.391  30.553  30.184  1.00  0.00     0.031 A 
ATOM     41  C   UNL A   1      38.793  30.954  31.579  1.00  0.00     0.074 A 
ATOM     42  C   UNL A   1      39.141  29.675  29.490  1.00  0.00     0.049 A 
ATOM     43  N   UNL A   1      39.808  30.542  32.294  1.00  0.00    -0.248 NA
ATOM     44  C   UNL A   1      37.963  31.969  32.250  1.00  0.00     0.031 C 
ATOM     45  C   UNL A   1      38.902  29.271  28.103  1.00  0.00     0.029 A 
ATOM     46  N   UNL A   1      40.271  28.984  29.847  1.00  0.00    -0.354 N 
ATOM     47  C   UNL A   1      39.761  31.271  33.477  1.00  0.00     0.074 A 
ATOM     48  C   UNL A   1      38.637  32.174  33.372  1.00  0.00     0.031 C 
ATOM     49  C   UNL A   1      39.855  28.402  27.729  1.00  0.00     0.029 A 
ATOM     50  C   UNL A   1      40.785  28.205  28.836  1.00  0.00     0.049 A 
ATOM     51  H   UNL A   1      40.677  29.040  30.742  1.00  0.00     0.167 HD
ATOM     52  C   UNL A   1      40.562  31.175  34.565  1.00  0.00     0.034 A 
ATOM     53  C   UNL A   1      41.881  27.424  28.805  1.00  0.00     0.034 A 
ATOM     54  C   UNL A   1      41.649  30.240  34.684  1.00  0.00     0.049 A 
ATOM     55  C   UNL A   1      42.720  27.294  30.047  1.00  0.00     0.074 A 
ATOM     56  C   UNL A   1      42.462  30.000  35.778  1.00  0.00     0.029 A 
ATOM     57  N   UNL A   1      42.078  29.394  33.673  1.00  0.00    -0.354 N 
ATOM     58  N   UNL A   1      42.562  27.870  31.214  1.00  0.00    -0.248 NA
ATOM     59  C   UNL A   1      43.866  26.374  29.982  1.00  0.00     0.031 C 
ATOM     60  C   UNL A   1      43.397  29.024  35.420  1.00  0.00     0.029 A 
ATOM     61  C   UNL A   1      43.149  28.635  34.114  1.00  0.00     0.049 A 
ATOM     62  H   UNL A   1      41.682  29.341  32.774  1.00  0.00     0.167 HD
ATOM     63  C   UNL A   1      43.560  27.355  32.033  1.00  0.00     0.074 A 
ATOM     64  C   UNL A   1      44.305  26.403  31.234  1.00  0.00     0.031 C 
ATOM     65  C   UNL A   1      43.845  27.651  33.324  1.00  0.00     0.034 A 
BRANCH  52  66
ATOM     66  C   UNL A   1      40.258  32.067  35.741  1.00  0.00     0.023 A 
ATOM     67  C   UNL A   1      41.031  33.227  35.952  1.00  0.00     0.012 A 
ATOM     68  C   UNL A   1      39.173  31.795  36.597  1.00  0.00     0.148 A 
ATOM     69  C   UNL A   1      40.752  34.084  37.016  1.00  0.00     0.002 A 
ATOM     70  C   UNL A   1      38.873  32.678  37.629  1.00  0.00     0.091 A 
ATOM     71  F   UNL A   1      38.461  30.677  36.395  1.00  0.00    -0.205 F 
ATOM     72  C   UNL A   1      39.668  33.816  37.846  1.00  0.00     0.022 A 
BRANCH  70  73
ATOM     73  S   UNL A   1      37.450  32.467  38.705  1.00  0.00     0.127 S 
ATOM     74  O   UNL A   1      37.770  33.381  39.800  1.00  0.00    -0.237 OA
ATOM     75  O   UNL A   1      36.348  32.906  37.848  1.00  0.00    -0.237 OA
ATOM     76  O   UNL A   1      37.419  31.055  39.059  1.00  0.00    -0.744 OA
ENDBRANCH  70  73
ENDBRANCH  52  66
BRANCH  53  77
ATOM     77  C   UNL A   1      42.208  26.648  27.576  1.00  0.00     0.023 A 
ATOM     78  C   UNL A   1      42.803  27.304  26.480  1.00  0.00     0.012 A 
ATOM     79  C   UNL A   1      41.956  25.265  27.493  1.00  0.00     0.148 A 
ATOM     80  C   UNL A   1      43.108  26.606  25.312  1.00  0.00     0.002 A 
ATOM     81  C   UNL A   1      42.315  24.564  26.347  1.00  0.00     0.091 A 
ATOM     82  F   UNL A   1      41.379  24.660  28.540  1.00  0.00    -0.205 F 
ATOM     83  C   UNL A   1      42.873  25.235  25.249  1.00  0.00     0.022 A 
BRANCH  81  84
ATOM     84  S   UNL A   1      42.173  22.777  26.231  1.00  0.00     0.127 S 
ATOM     85  O   UNL A   1      42.966  22.339  27.377  1.00  0.00    -0.237 OA
ATOM     86  O   UNL A   1      40.729  22.579  26.369  1.00  0.00    -0.237 OA
ATOM     87  O   UNL A   1      42.702  22.428  24.921  1.00  0.00    -0.744 OA
ENDBRANCH  81  84
ENDBRANCH  53  77
BRANCH  65  88
ATOM     88  C   UNL A   1      44.984  26.913  33.976  1.00  0.00     0.023 A 
ATOM     89  C   UNL A   1      46.299  27.405  33.858  1.00  0.00     0.012 A 
ATOM     90  C   UNL A   1      44.741  25.769  34.762  1.00  0.00     0.148 A 
ATOM     91  C   UNL A   1      47.359  26.748  34.482  1.00  0.00     0.002 A 
ATOM     92  C   UNL A   1      45.795  25.150  35.422  1.00  0.00     0.091 A 
ATOM     93  F   UNL A   1      43.485  25.305  34.848  1.00  0.00    -0.205 F 
ATOM     94  C   UNL A   1      47.106  25.630  35.273  1.00  0.00     0.022 A 
BRANCH  92  95
ATOM     95  S   UNL A   1      45.547  23.766  36.540  1.00  0.00     0.127 S 
ATOM     96  O   UNL A   1      44.680  24.356  37.559  1.00  0.00    -0.237 OA
ATOM     97  O   UNL A   1      44.889  22.783  35.677  1.00  0.00    -0.237 OA
ATOM     98  O   UNL A   1      46.874  23.376  36.994  1.00  0.00    -0.744 OA
ENDBRANCH  92  95
ENDBRANCH  65  88
ENDBRANCH  39  40
ENDBRANCH  31  34
ENDBRANCH  29  30
ENDBRANCH  28  29
ENDBRANCH   1  28
TORSDOF 18
ENDMDL
MODEL 3
REMARK VINA RESULT:     -11.8      2.606      8.246
REMARK SMILES CC1(C)[C@H](C(=O)NCCCCCCNC(=O)c2ccc(-c3c4nc(c(-c5cccc(S(=O)(=O)[O-])c5F)c5ccc([nH]5)c(-c5cccc(S(=O)(=O)[O-])c5F)c5nc(c(-c6cccc(S(=O)(=O)[O-])c6F)c6ccc3[nH]6)C=C5)C=C4)cc2)[C@H]1C(=O)Nc1cccc2[nH]ccc12
REMARK SMILES IDX 11 1 10 2 9 3 8 4 7 5 5 6 6 7 4 9 1 10 2 11 3 12 80 13 81 14
REMARK SMILES IDX 82 15 83 16 84 18 85 19 92 20 86 21 88 22 91 23 87 24 89 25
REMARK SMILES IDX 90 26 12 28 13 29 14 30 15 31 16 33 17 34 18 35 79 36 19 37
REMARK SMILES IDX 78 38 20 39 21 40 22 41 72 42 23 43 77 44 71 45 73 46 24 47
REMARK SMILES IDX 76 48 70 49 69 50 25 52 57 53 37 54 56 55 38 56 41 57 55 58
REMARK SMILES IDX 74 59 39 60 40 61 54 63 75 64 42 65 26 66 27 67 35 68 28 69
REMARK SMILES IDX 30 70 36 71 29 72 31 73 32 74 33 75 34 76 58 77 59 78 67 79
REMARK SMILES IDX 60 80 62 81 68 82 61 83 63 84 64 85 65 86 66 87 43 88 44 89
REMARK SMILES IDX 52 90 45 91 47 92 53 93 46 94 48 95 49 96 50 97 51 98
REMARK H PARENT 7 8 83 17 89 27 14 32 73 51 41 62
REMARK Flexibility Score: inf
ROOT
ATOM      1  C   UNL A   1      31.159  28.941  24.042  1.00  0.00     0.002 C 
ENDROOT
BRANCH   1   2
ATOM      2  C   UNL A   1      30.322  28.282  22.941  1.00  0.00     0.002 C 
BRANCH   2   3
ATOM      3  C   UNL A   1      28.931  27.813  23.377  1.00  0.00     0.021 C 
BRANCH   3   4
ATOM      4  C   UNL A   1      28.817  26.305  23.605  1.00  0.00     0.116 C 
BRANCH   4   5
ATOM      5  N   UNL A   1      29.077  25.962  24.980  1.00  0.00    -0.356 N 
ATOM      6  C   UNL A   1      30.196  25.607  25.669  1.00  0.00     0.224 C 
ATOM      7  O   UNL A   1      30.024  25.395  26.875  1.00  0.00    -0.275 OA
ATOM      8  H   UNL A   1      28.270  25.991  25.543  1.00  0.00     0.163 HD
BRANCH   6   9
ATOM      9  C   UNL A   1      31.584  25.454  25.153  1.00  0.00     0.098 C 
ATOM     10  C   UNL A   1      34.022  25.706  25.756  1.00  0.00     0.013 C 
ATOM     11  C   UNL A   1      32.833  24.782  25.743  1.00  0.00    -0.011 C 
ATOM     12  C   UNL A   1      33.021  23.741  26.813  1.00  0.00     0.013 C 
ATOM     13  C   UNL A   1      32.124  24.244  24.483  1.00  0.00     0.098 C 
BRANCH  13  14
ATOM     14  C   UNL A   1      32.798  24.063  23.161  1.00  0.00     0.228 C 
ATOM     15  O   UNL A   1      32.237  24.552  22.181  1.00  0.00    -0.274 OA
ATOM     16  N   UNL A   1      34.098  23.642  23.003  1.00  0.00    -0.325 N 
ATOM     17  H   UNL A   1      34.612  24.121  22.314  1.00  0.00     0.169 HD
BRANCH  16  18
ATOM     18  C   UNL A   1      34.798  22.639  23.675  1.00  0.00     0.050 A 
ATOM     19  C   UNL A   1      36.190  22.753  23.760  1.00  0.00     0.027 A 
ATOM     20  C   UNL A   1      34.189  21.447  24.129  1.00  0.00     0.023 A 
ATOM     21  C   UNL A   1      36.936  21.816  24.473  1.00  0.00     0.004 A 
ATOM     22  C   UNL A   1      34.947  20.565  24.903  1.00  0.00     0.047 A 
ATOM     23  C   UNL A   1      32.917  20.826  23.952  1.00  0.00     0.030 A 
ATOM     24  C   UNL A   1      36.318  20.740  25.116  1.00  0.00     0.027 A 
ATOM     25  N   UNL A   1      34.089  19.598  25.375  1.00  0.00    -0.361 N 
ATOM     26  C   UNL A   1      32.868  19.716  24.766  1.00  0.00     0.083 A 
ATOM     27  H   UNL A   1      34.319  18.920  26.051  1.00  0.00     0.166 HD
ENDBRANCH  16  18
ENDBRANCH  13  14
ENDBRANCH   6   9
ENDBRANCH   4   5
ENDBRANCH   3   4
ENDBRANCH   2   3
ENDBRANCH   1   2
BRANCH   1  28
ATOM     28  C   UNL A   1      32.676  28.863  23.844  1.00  0.00     0.021 C 
BRANCH  28  29
ATOM     29  C   UNL A   1      33.498  29.326  25.046  1.00  0.00     0.116 C 
BRANCH  29  30
ATOM     30  N   UNL A   1      32.959  30.548  25.622  1.00  0.00    -0.352 N 
ATOM     31  C   UNL A   1      33.268  31.158  26.810  1.00  0.00     0.251 C 
ATOM     32  H   UNL A   1      32.274  31.003  25.080  1.00  0.00     0.163 HD
ATOM     33  O   UNL A   1      32.533  32.036  27.256  1.00  0.00    -0.269 OA
BRANCH  31  34
ATOM     34  C   UNL A   1      34.483  30.759  27.552  1.00  0.00     0.039 A 
ATOM     35  C   UNL A   1      35.495  31.700  27.754  1.00  0.00     0.014 A 
ATOM     36  C   UNL A   1      34.640  29.448  28.011  1.00  0.00     0.014 A 
ATOM     37  C   UNL A   1      36.649  31.337  28.454  1.00  0.00     0.010 A 
ATOM     38  C   UNL A   1      35.757  29.107  28.768  1.00  0.00     0.010 A 
ATOM     39  C   UNL A   1      36.780  30.042  28.983  1.00  0.00    -0.014 A 
BRANCH  39  40
ATOM     40  C   UNL A   1      37.984  29.648  29.758  1.00  0.00     0.031 A 
ATOM     41  C   UNL A   1      38.225  30.223  31.128  1.00  0.00     0.074 A 
ATOM     42  C   UNL A   1      38.899  28.834  29.196  1.00  0.00     0.049 A 
ATOM     43  N   UNL A   1      39.235  30.031  31.937  1.00  0.00    -0.248 NA
ATOM     44  C   UNL A   1      37.213  31.158  31.650  1.00  0.00     0.031 C 
ATOM     45  C   UNL A   1      38.820  28.281  27.842  1.00  0.00     0.029 A 
ATOM     46  N   UNL A   1      40.089  28.354  29.682  1.00  0.00    -0.354 N 
ATOM     47  C   UNL A   1      39.001  30.845  33.039  1.00  0.00     0.074 A 
ATOM     48  C   UNL A   1      37.770  31.558  32.784  1.00  0.00     0.031 C 
ATOM     49  C   UNL A   1      39.910  27.534  27.608  1.00  0.00     0.029 A 
ATOM     50  C   UNL A   1      40.778  27.575  28.781  1.00  0.00     0.049 A 
ATOM     51  H   UNL A   1      40.418  28.547  30.589  1.00  0.00     0.167 HD
ATOM     52  C   UNL A   1      39.728  30.964  34.175  1.00  0.00     0.034 A 
ATOM     53  C   UNL A   1      41.975  26.967  28.887  1.00  0.00     0.034 A 
ATOM     54  C   UNL A   1      40.927  30.216  34.446  1.00  0.00     0.049 A 
ATOM     55  C   UNL A   1      42.734  27.072  30.183  1.00  0.00     0.074 A 
ATOM     56  C   UNL A   1      41.687  30.196  35.602  1.00  0.00     0.029 A 
ATOM     57  N   UNL A   1      41.543  29.359  33.547  1.00  0.00    -0.354 N 
ATOM     58  N   UNL A   1      42.413  27.716  31.278  1.00  0.00    -0.248 NA
ATOM     59  C   UNL A   1      44.001  26.331  30.272  1.00  0.00     0.031 C 
ATOM     60  C   UNL A   1      42.775  29.342  35.395  1.00  0.00     0.029 A 
ATOM     61  C   UNL A   1      42.678  28.809  34.119  1.00  0.00     0.049 A 
ATOM     62  H   UNL A   1      41.223  29.170  32.636  1.00  0.00     0.167 HD
ATOM     63  C   UNL A   1      43.414  27.429  32.198  1.00  0.00     0.074 A 
ATOM     64  C   UNL A   1      44.342  26.533  31.538  1.00  0.00     0.031 C 
ATOM     65  C   UNL A   1      43.561  27.876  33.469  1.00  0.00     0.034 A 
BRANCH  52  66
ATOM     66  C   UNL A   1      39.218  31.900  35.241  1.00  0.00     0.023 A 
ATOM     67  C   UNL A   1      38.243  31.448  36.154  1.00  0.00     0.012 A 
ATOM     68  C   UNL A   1      39.746  33.198  35.381  1.00  0.00     0.148 A 
ATOM     69  C   UNL A   1      37.776  32.284  37.168  1.00  0.00     0.002 A 
ATOM     70  C   UNL A   1      39.307  34.011  36.421  1.00  0.00     0.091 A 
ATOM     71  F   UNL A   1      40.657  33.620  34.492  1.00  0.00    -0.205 F 
ATOM     72  C   UNL A   1      38.316  33.559  37.308  1.00  0.00     0.022 A 
BRANCH  70  73
ATOM     73  S   UNL A   1      39.996  35.640  36.737  1.00  0.00     0.127 S 
ATOM     74  O   UNL A   1      39.323  36.008  37.982  1.00  0.00    -0.237 OA
ATOM     75  O   UNL A   1      41.422  35.349  36.878  1.00  0.00    -0.237 OA
ATOM     76  O   UNL A   1      39.654  36.453  35.579  1.00  0.00    -0.744 OA
ENDBRANCH  70  73
ENDBRANCH  52  66
BRANCH  53  77
ATOM     77  C   UNL A   1      42.495  26.145  27.759  1.00  0.00     0.023 A 
ATOM     78  C   UNL A   1      43.465  26.689  26.895  1.00  0.00     0.012 A 
ATOM     79  C   UNL A   1      42.056  24.823  27.551  1.00  0.00     0.148 A 
ATOM     80  C   UNL A   1      43.962  25.947  25.823  1.00  0.00     0.002 A 
ATOM     81  C   UNL A   1      42.596  24.069  26.516  1.00  0.00     0.091 A 
ATOM     82  F   UNL A   1      41.125  24.325  28.377  1.00  0.00    -0.205 F 
ATOM     83  C   UNL A   1      43.535  24.635  25.639  1.00  0.00     0.022 A 
BRANCH  81  84
ATOM     84  S   UNL A   1      42.205  22.330  26.288  1.00  0.00     0.127 S 
ATOM     85  O   UNL A   1      40.760  22.374  26.081  1.00  0.00    -0.237 OA
ATOM     86  O   UNL A   1      42.988  21.999  25.096  1.00  0.00    -0.237 OA
ATOM     87  O   UNL A   1      42.654  21.667  27.503  1.00  0.00    -0.744 OA
ENDBRANCH  81  84
ENDBRANCH  53  77
BRANCH  65  88
ATOM     88  C   UNL A   1      44.747  27.375  34.253  1.00  0.00     0.023 A 
ATOM     89  C   UNL A   1      45.948  28.110  34.257  1.00  0.00     0.012 A 
ATOM     90  C   UNL A   1      44.645  26.210  35.040  1.00  0.00     0.148 A 
ATOM     91  C   UNL A   1      47.042  27.674  35.003  1.00  0.00     0.002 A 
ATOM     92  C   UNL A   1      45.722  25.810  35.820  1.00  0.00     0.091 A 
ATOM     93  F   UNL A   1      43.499  25.513  35.009  1.00  0.00    -0.205 F 
ATOM     94  C   UNL A   1      46.926  26.533  35.793  1.00  0.00     0.022 A 
BRANCH  92  95
ATOM     95  S   UNL A   1      45.627  24.411  36.942  1.00  0.00     0.127 S 
ATOM     96  O   UNL A   1      46.967  24.405  37.527  1.00  0.00    -0.237 OA
ATOM     97  O   UNL A   1      44.564  24.819  37.861  1.00  0.00    -0.237 OA
ATOM     98  O   UNL A   1      45.298  23.257  36.115  1.00  0.00    -0.744 OA
ENDBRANCH  92  95
ENDBRANCH  65  88
ENDBRANCH  39  40
ENDBRANCH  31  34
ENDBRANCH  29  30
ENDBRANCH  28  29
ENDBRANCH   1  28
TORSDOF 18
ENDMDL
