MODEL 1
REMARK VINA RESULT:      -8.0      0.000      0.000
REMARK SMILES CC[C@](C)([NH2+]CCC(=O)Nc1ccccc1)C(=O)NCCCCCCNC(=O)c1ccc(-c2c3nc(c(-c4cccc(S(=O)(=O)[O-])c4F)c4ccc([nH]4)c(-c4cccc(S(=O)(=O)[O-])c4F)c4nc(c(-c5cccc(S(=O)(=O)[O-])c5F)c5ccc2[nH]5)C=C4)C=C3)cc1
REMARK SMILES IDX 21 1 20 2 19 3 17 4 18 5 3 7 4 8 2 9 1 10 5 11 6 14 7 15
REMARK SMILES IDX 8 16 9 17 10 18 11 20 12 21 16 22 13 23 15 24 14 25 22 26
REMARK SMILES IDX 23 27 24 28 25 29 26 30 27 31 28 33 29 34 30 35 91 36 31 37
REMARK SMILES IDX 90 38 32 39 33 40 34 41 84 42 35 43 89 44 83 45 85 46 36 47
REMARK SMILES IDX 88 48 82 49 81 50 37 52 69 53 49 54 68 55 50 56 53 57 67 58
REMARK SMILES IDX 86 59 51 60 52 61 66 63 87 64 54 65 38 66 39 67 47 68 40 69
REMARK SMILES IDX 42 70 48 71 41 72 43 73 44 74 45 75 46 76 70 77 71 78 79 79
REMARK SMILES IDX 72 80 74 81 80 82 73 83 75 84 76 85 77 86 78 87 55 88 56 89
REMARK SMILES IDX 64 90 57 91 59 92 65 93 58 94 60 95 61 96 62 97 63 98
REMARK H PARENT 19 6 5 12 5 13 10 19 26 32 85 51 53 62
REMARK Flexibility Score: inf
ROOT
ATOM      1  C   UNL A   1      38.210  31.437  36.189  1.00  0.00     0.021 C 
ENDROOT
BRANCH   1   2
ATOM      2  C   UNL A   1      38.100  31.665  34.683  1.00  0.00     0.116 C 
BRANCH   2   3
ATOM      3  N   UNL A   1      37.671  33.018  34.423  1.00  0.00    -0.351 N 
ATOM      4  C   UNL A   1      37.473  33.712  33.273  1.00  0.00     0.281 C 
ATOM      5  O   UNL A   1      37.316  34.931  33.436  1.00  0.00    -0.268 OA
ATOM      6  H   UNL A   1      37.485  33.539  35.238  1.00  0.00     0.163 HD
BRANCH   4   7
ATOM      7  C   UNL A   1      37.381  33.045  31.857  1.00  0.00     0.172 C 
ATOM      8  C   UNL A   1      36.131  32.109  31.962  1.00  0.00     0.090 C 
BRANCH   7   9
ATOM      9  C   UNL A   1      38.609  32.144  31.567  1.00  0.00     0.075 C 
ATOM     10  C   UNL A   1      39.464  32.524  30.362  1.00  0.00     0.011 C 
ENDBRANCH   7   9
BRANCH   7  11
ATOM     11  N   UNL A   1      36.958  33.995  30.808  1.00  0.00    -0.333 N 
ATOM     12  H   UNL A   1      37.791  34.160  30.243  1.00  0.00     0.347 HD
ATOM     13  H   UNL A   1      36.537  34.721  31.387  1.00  0.00     0.347 HD
BRANCH  11  14
ATOM     14  C   UNL A   1      35.884  33.782  29.851  1.00  0.00     0.271 C 
BRANCH  14  15
ATOM     15  C   UNL A   1      36.204  33.196  28.481  1.00  0.00     0.161 C 
BRANCH  15  16
ATOM     16  C   UNL A   1      35.486  31.993  27.858  1.00  0.00     0.230 C 
ATOM     17  O   UNL A   1      34.387  32.177  27.318  1.00  0.00    -0.275 OA
ATOM     18  N   UNL A   1      36.091  30.798  27.606  1.00  0.00    -0.326 N 
ATOM     19  H   UNL A   1      35.795  30.360  26.776  1.00  0.00     0.169 HD
BRANCH  18  20
ATOM     20  C   UNL A   1      37.054  30.089  28.320  1.00  0.00     0.041 A 
ATOM     21  C   UNL A   1      36.725  29.632  29.597  1.00  0.00     0.026 A 
ATOM     22  C   UNL A   1      38.326  29.849  27.803  1.00  0.00     0.026 A 
ATOM     23  C   UNL A   1      37.613  28.807  30.288  1.00  0.00     0.002 A 
ATOM     24  C   UNL A   1      39.217  29.029  28.497  1.00  0.00     0.002 A 
ATOM     25  C   UNL A   1      38.849  28.486  29.727  1.00  0.00     0.000 A 
ENDBRANCH  18  20
ENDBRANCH  15  16
ENDBRANCH  14  15
ENDBRANCH  11  14
ENDBRANCH   7  11
ENDBRANCH   4   7
ENDBRANCH   2   3
ENDBRANCH   1   2
BRANCH   1  26
ATOM     26  C   UNL A   1      37.833  32.660  37.029  1.00  0.00     0.002 C 
BRANCH  26  27
ATOM     27  C   UNL A   1      38.441  32.683  38.433  1.00  0.00     0.002 C 
BRANCH  27  28
ATOM     28  C   UNL A   1      38.346  34.033  39.151  1.00  0.00     0.021 C 
BRANCH  28  29
ATOM     29  C   UNL A   1      39.630  34.464  39.854  1.00  0.00     0.116 C 
BRANCH  29  30
ATOM     30  N   UNL A   1      39.941  35.858  39.590  1.00  0.00    -0.352 N 
ATOM     31  C   UNL A   1      40.751  36.388  38.620  1.00  0.00     0.251 C 
ATOM     32  H   UNL A   1      39.510  36.511  40.189  1.00  0.00     0.163 HD
ATOM     33  O   UNL A   1      41.106  37.559  38.682  1.00  0.00    -0.269 OA
BRANCH  31  34
ATOM     34  C   UNL A   1      41.191  35.530  37.503  1.00  0.00     0.039 A 
ATOM     35  C   UNL A   1      42.488  35.012  37.513  1.00  0.00     0.014 A 
ATOM     36  C   UNL A   1      40.320  35.248  36.446  1.00  0.00     0.014 A 
ATOM     37  C   UNL A   1      42.903  34.180  36.473  1.00  0.00     0.010 A 
ATOM     38  C   UNL A   1      40.713  34.366  35.446  1.00  0.00     0.010 A 
ATOM     39  C   UNL A   1      42.014  33.840  35.440  1.00  0.00    -0.014 A 
BRANCH  39  40
ATOM     40  C   UNL A   1      42.428  32.946  34.333  1.00  0.00     0.031 A 
ATOM     41  C   UNL A   1      42.613  33.504  32.949  1.00  0.00     0.074 A 
ATOM     42  C   UNL A   1      42.550  31.623  34.557  1.00  0.00     0.049 A 
ATOM     43  N   UNL A   1      42.918  32.879  31.842  1.00  0.00    -0.248 NA
ATOM     44  C   UNL A   1      42.397  34.951  32.777  1.00  0.00     0.031 C 
ATOM     45  C   UNL A   1      42.309  30.958  35.838  1.00  0.00     0.029 A 
ATOM     46  N   UNL A   1      42.879  30.600  33.705  1.00  0.00    -0.354 N 
ATOM     47  C   UNL A   1      42.892  33.842  30.841  1.00  0.00     0.074 A 
ATOM     48  C   UNL A   1      42.511  35.090  31.464  1.00  0.00     0.031 C 
ATOM     49  C   UNL A   1      42.493  29.636  35.688  1.00  0.00     0.029 A 
ATOM     50  C   UNL A   1      42.847  29.360  34.299  1.00  0.00     0.049 A 
ATOM     51  H   UNL A   1      43.113  30.739  32.760  1.00  0.00     0.167 HD
ATOM     52  C   UNL A   1      43.192  33.708  29.528  1.00  0.00     0.034 A 
ATOM     53  C   UNL A   1      43.077  28.138  33.779  1.00  0.00     0.034 A 
ATOM     54  C   UNL A   1      43.628  32.476  28.929  1.00  0.00     0.049 A 
ATOM     55  C   UNL A   1      43.481  28.026  32.334  1.00  0.00     0.074 A 
ATOM     56  C   UNL A   1      44.053  32.254  27.631  1.00  0.00     0.029 A 
ATOM     57  N   UNL A   1      43.695  31.258  29.587  1.00  0.00    -0.354 N 
ATOM     58  N   UNL A   1      43.620  28.977  31.441  1.00  0.00    -0.248 NA
ATOM     59  C   UNL A   1      43.800  26.682  31.833  1.00  0.00     0.031 C 
ATOM     60  C   UNL A   1      44.368  30.898  27.502  1.00  0.00     0.029 A 
ATOM     61  C   UNL A   1      44.152  30.278  28.724  1.00  0.00     0.049 A 
ATOM     62  H   UNL A   1      43.453  31.111  30.529  1.00  0.00     0.167 HD
ATOM     63  C   UNL A   1      44.072  28.352  30.285  1.00  0.00     0.074 A 
ATOM     64  C   UNL A   1      44.206  26.944  30.598  1.00  0.00     0.031 C 
ATOM     65  C   UNL A   1      44.335  28.892  29.069  1.00  0.00     0.034 A 
BRANCH  52  66
ATOM     66  C   UNL A   1      43.125  34.939  28.665  1.00  0.00     0.023 A 
ATOM     67  C   UNL A   1      41.873  35.385  28.193  1.00  0.00     0.012 A 
ATOM     68  C   UNL A   1      44.282  35.686  28.368  1.00  0.00     0.148 A 
ATOM     69  C   UNL A   1      41.776  36.536  27.412  1.00  0.00     0.002 A 
ATOM     70  C   UNL A   1      44.171  36.856  27.624  1.00  0.00     0.091 A 
ATOM     71  F   UNL A   1      45.465  35.234  28.805  1.00  0.00    -0.205 F 
ATOM     72  C   UNL A   1      42.922  37.276  27.138  1.00  0.00     0.022 A 
BRANCH  70  73
ATOM     73  S   UNL A   1      45.577  37.920  27.279  1.00  0.00     0.127 S 
ATOM     74  O   UNL A   1      46.081  38.189  28.624  1.00  0.00    -0.237 OA
ATOM     75  O   UNL A   1      46.432  37.051  26.470  1.00  0.00    -0.237 OA
ATOM     76  O   UNL A   1      45.041  39.073  26.569  1.00  0.00    -0.744 OA
ENDBRANCH  70  73
ENDBRANCH  52  66
BRANCH  53  77
ATOM     77  C   UNL A   1      43.015  26.937  34.658  1.00  0.00     0.023 A 
ATOM     78  C   UNL A   1      41.774  26.308  34.877  1.00  0.00     0.012 A 
ATOM     79  C   UNL A   1      44.175  26.386  35.235  1.00  0.00     0.148 A 
ATOM     80  C   UNL A   1      41.686  25.168  35.677  1.00  0.00     0.002 A 
ATOM     81  C   UNL A   1      44.088  25.220  35.988  1.00  0.00     0.091 A 
ATOM     82  F   UNL A   1      45.346  27.006  35.026  1.00  0.00    -0.205 F 
ATOM     83  C   UNL A   1      42.842  24.619  36.224  1.00  0.00     0.022 A 
BRANCH  81  84
ATOM     84  S   UNL A   1      45.543  24.371  36.612  1.00  0.00     0.127 S 
ATOM     85  O   UNL A   1      46.455  24.461  35.475  1.00  0.00    -0.237 OA
ATOM     86  O   UNL A   1      45.911  25.198  37.762  1.00  0.00    -0.237 OA
ATOM     87  O   UNL A   1      45.091  23.031  36.963  1.00  0.00    -0.744 OA
ENDBRANCH  81  84
ENDBRANCH  53  77
BRANCH  65  88
ATOM     88  C   UNL A   1      44.819  27.966  27.986  1.00  0.00     0.023 A 
ATOM     89  C   UNL A   1      46.203  27.826  27.758  1.00  0.00     0.012 A 
ATOM     90  C   UNL A   1      43.913  27.173  27.256  1.00  0.00     0.148 A 
ATOM     91  C   UNL A   1      46.675  26.931  26.799  1.00  0.00     0.002 A 
ATOM     92  C   UNL A   1      44.393  26.252  26.334  1.00  0.00     0.091 A 
ATOM     93  F   UNL A   1      42.600  27.336  27.473  1.00  0.00    -0.205 F 
ATOM     94  C   UNL A   1      45.773  26.136  26.097  1.00  0.00     0.022 A 
BRANCH  92  95
ATOM     95  S   UNL A   1      43.308  25.122  25.454  1.00  0.00     0.127 S 
ATOM     96  O   UNL A   1      42.675  24.398  26.555  1.00  0.00    -0.237 OA
ATOM     97  O   UNL A   1      42.419  26.037  24.735  1.00  0.00    -0.237 OA
ATOM     98  O   UNL A   1      44.174  24.327  24.593  1.00  0.00    -0.744 OA
ENDBRANCH  92  95
ENDBRANCH  65  88
ENDBRANCH  39  40
ENDBRANCH  31  34
ENDBRANCH  29  30
ENDBRANCH  28  29
ENDBRANCH  27  28
ENDBRANCH  26  27
ENDBRANCH   1  26
TORSDOF 22
ENDMDL
MODEL 2
REMARK VINA RESULT:      -7.5      2.154      8.131
REMARK SMILES CC[C@](C)([NH2+]CCC(=O)Nc1ccccc1)C(=O)NCCCCCCNC(=O)c1ccc(-c2c3nc(c(-c4cccc(S(=O)(=O)[O-])c4F)c4ccc([nH]4)c(-c4cccc(S(=O)(=O)[O-])c4F)c4nc(c(-c5cccc(S(=O)(=O)[O-])c5F)c5ccc2[nH]5)C=C4)C=C3)cc1
REMARK SMILES IDX 21 1 20 2 19 3 17 4 18 5 3 7 4 8 2 9 1 10 5 11 6 14 7 15
REMARK SMILES IDX 8 16 9 17 10 18 11 20 12 21 16 22 13 23 15 24 14 25 22 26
REMARK SMILES IDX 23 27 24 28 25 29 26 30 27 31 28 33 29 34 30 35 91 36 31 37
REMARK SMILES IDX 90 38 32 39 33 40 34 41 84 42 35 43 89 44 83 45 85 46 36 47
REMARK SMILES IDX 88 48 82 49 81 50 37 52 69 53 49 54 68 55 50 56 53 57 67 58
REMARK SMILES IDX 86 59 51 60 52 61 66 63 87 64 54 65 38 66 39 67 47 68 40 69
REMARK SMILES IDX 42 70 48 71 41 72 43 73 44 74 45 75 46 76 70 77 71 78 79 79
REMARK SMILES IDX 72 80 74 81 80 82 73 83 75 84 76 85 77 86 78 87 55 88 56 89
REMARK SMILES IDX 64 90 57 91 59 92 65 93 58 94 60 95 61 96 62 97 63 98
REMARK H PARENT 19 6 5 12 5 13 10 19 26 32 85 51 53 62
REMARK Flexibility Score: inf
ROOT
ATOM      1  C   UNL A   1      38.197  30.859  35.472  1.00  0.00     0.021 C 
ENDROOT
BRANCH   1   2
ATOM      2  C   UNL A   1      38.331  31.190  33.987  1.00  0.00     0.116 C 
BRANCH   2   3
ATOM      3  N   UNL A   1      37.350  30.449  33.231  1.00  0.00    -0.351 N 
ATOM      4  C   UNL A   1      37.428  29.741  32.076  1.00  0.00     0.281 C 
ATOM      5  O   UNL A   1      36.329  29.420  31.601  1.00  0.00    -0.268 OA
ATOM      6  H   UNL A   1      36.451  30.458  33.631  1.00  0.00     0.163 HD
BRANCH   4   7
ATOM      7  C   UNL A   1      38.780  29.299  31.414  1.00  0.00     0.172 C 
ATOM      8  C   UNL A   1      39.425  28.346  32.475  1.00  0.00     0.090 C 
BRANCH   7   9
ATOM      9  C   UNL A   1      39.744  30.497  31.224  1.00  0.00     0.075 C 
ATOM     10  C   UNL A   1      39.253  31.632  30.329  1.00  0.00     0.011 C 
ENDBRANCH   7   9
BRANCH   7  11
ATOM     11  N   UNL A   1      38.580  28.384  30.270  1.00  0.00    -0.333 N 
ATOM     12  H   UNL A   1      39.093  28.805  29.496  1.00  0.00     0.347 HD
ATOM     13  H   UNL A   1      37.562  28.313  30.277  1.00  0.00     0.347 HD
BRANCH  11  14
ATOM     14  C   UNL A   1      38.929  26.974  30.239  1.00  0.00     0.271 C 
BRANCH  14  15
ATOM     15  C   UNL A   1      39.424  26.351  28.938  1.00  0.00     0.161 C 
BRANCH  15  16
ATOM     16  C   UNL A   1      40.697  26.776  28.197  1.00  0.00     0.230 C 
ATOM     17  O   UNL A   1      40.969  27.983  28.136  1.00  0.00    -0.275 OA
ATOM     18  N   UNL A   1      41.691  25.913  27.846  1.00  0.00    -0.326 N 
ATOM     19  H   UNL A   1      42.598  26.286  27.923  1.00  0.00     0.169 HD
BRANCH  18  20
ATOM     20  C   UNL A   1      41.646  24.596  27.397  1.00  0.00     0.041 A 
ATOM     21  C   UNL A   1      42.286  24.286  26.196  1.00  0.00     0.026 A 
ATOM     22  C   UNL A   1      40.969  23.600  28.099  1.00  0.00     0.026 A 
ATOM     23  C   UNL A   1      42.377  22.957  25.781  1.00  0.00     0.002 A 
ATOM     24  C   UNL A   1      41.055  22.271  27.681  1.00  0.00     0.002 A 
ATOM     25  C   UNL A   1      41.782  21.947  26.536  1.00  0.00     0.000 A 
ENDBRANCH  18  20
ENDBRANCH  15  16
ENDBRANCH  14  15
ENDBRANCH  11  14
ENDBRANCH   7  11
ENDBRANCH   4   7
ENDBRANCH   2   3
ENDBRANCH   1   2
BRANCH   1  26
ATOM     26  C   UNL A   1      37.718  32.035  36.328  1.00  0.00     0.002 C 
BRANCH  26  27
ATOM     27  C   UNL A   1      38.291  32.068  37.747  1.00  0.00     0.002 C 
BRANCH  27  28
ATOM     28  C   UNL A   1      37.835  33.260  38.594  1.00  0.00     0.021 C 
BRANCH  28  29
ATOM     29  C   UNL A   1      38.948  33.917  39.406  1.00  0.00     0.116 C 
BRANCH  29  30
ATOM     30  N   UNL A   1      39.016  35.347  39.156  1.00  0.00    -0.352 N 
ATOM     31  C   UNL A   1      39.707  36.015  38.180  1.00  0.00     0.251 C 
ATOM     32  H   UNL A   1      38.496  35.912  39.773  1.00  0.00     0.163 HD
ATOM     33  O   UNL A   1      39.864  37.228  38.252  1.00  0.00    -0.269 OA
BRANCH  31  34
ATOM     34  C   UNL A   1      40.260  35.255  37.042  1.00  0.00     0.039 A 
ATOM     35  C   UNL A   1      41.542  34.710  37.148  1.00  0.00     0.014 A 
ATOM     36  C   UNL A   1      39.511  35.093  35.872  1.00  0.00     0.014 A 
ATOM     37  C   UNL A   1      42.061  33.969  36.086  1.00  0.00     0.010 A 
ATOM     38  C   UNL A   1      40.005  34.300  34.843  1.00  0.00     0.010 A 
ATOM     39  C   UNL A   1      41.291  33.747  34.933  1.00  0.00    -0.014 A 
BRANCH  39  40
ATOM     40  C   UNL A   1      41.817  32.951  33.799  1.00  0.00     0.031 A 
ATOM     41  C   UNL A   1      42.098  31.484  33.979  1.00  0.00     0.074 A 
ATOM     42  C   UNL A   1      42.122  33.566  32.640  1.00  0.00     0.049 A 
ATOM     43  N   UNL A   1      42.608  30.633  33.128  1.00  0.00    -0.248 NA
ATOM     44  C   UNL A   1      41.796  30.903  35.298  1.00  0.00     0.031 C 
ATOM     45  C   UNL A   1      41.975  34.999  32.380  1.00  0.00     0.029 A 
ATOM     46  N   UNL A   1      42.648  33.068  31.475  1.00  0.00    -0.354 N 
ATOM     47  C   UNL A   1      42.724  29.431  33.817  1.00  0.00     0.074 A 
ATOM     48  C   UNL A   1      42.261  29.669  35.165  1.00  0.00     0.031 C 
ATOM     49  C   UNL A   1      42.404  35.266  31.136  1.00  0.00     0.029 A 
ATOM     50  C   UNL A   1      42.872  34.029  30.518  1.00  0.00     0.049 A 
ATOM     51  H   UNL A   1      42.846  32.113  31.338  1.00  0.00     0.167 HD
ATOM     52  C   UNL A   1      43.146  28.230  33.359  1.00  0.00     0.034 A 
ATOM     53  C   UNL A   1      43.398  33.924  29.282  1.00  0.00     0.034 A 
ATOM     54  C   UNL A   1      43.548  27.987  32.000  1.00  0.00     0.049 A 
ATOM     55  C   UNL A   1      43.789  32.563  28.772  1.00  0.00     0.074 A 
ATOM     56  C   UNL A   1      43.895  26.787  31.407  1.00  0.00     0.029 A 
ATOM     57  N   UNL A   1      43.655  28.964  31.022  1.00  0.00    -0.354 N 
ATOM     58  N   UNL A   1      43.729  31.404  29.384  1.00  0.00    -0.248 NA
ATOM     59  C   UNL A   1      44.282  32.486  27.389  1.00  0.00     0.031 C 
ATOM     60  C   UNL A   1      44.224  27.041  30.071  1.00  0.00     0.029 A 
ATOM     61  C   UNL A   1      44.066  28.396  29.829  1.00  0.00     0.049 A 
ATOM     62  H   UNL A   1      43.467  29.921  31.157  1.00  0.00     0.167 HD
ATOM     63  C   UNL A   1      44.144  30.459  28.453  1.00  0.00     0.074 A 
ATOM     64  C   UNL A   1      44.432  31.178  27.229  1.00  0.00     0.031 C 
ATOM     65  C   UNL A   1      44.292  29.120  28.605  1.00  0.00     0.034 A 
BRANCH  52  66
ATOM     66  C   UNL A   1      43.128  27.069  34.317  1.00  0.00     0.023 A 
ATOM     67  C   UNL A   1      41.910  26.410  34.582  1.00  0.00     0.012 A 
ATOM     68  C   UNL A   1      44.314  26.592  34.908  1.00  0.00     0.148 A 
ATOM     69  C   UNL A   1      41.866  25.316  35.446  1.00  0.00     0.002 A 
ATOM     70  C   UNL A   1      44.269  25.475  35.735  1.00  0.00     0.091 A 
ATOM     71  F   UNL A   1      45.459  27.246  34.663  1.00  0.00    -0.205 F 
ATOM     72  C   UNL A   1      43.046  24.843  36.012  1.00  0.00     0.022 A 
BRANCH  70  73
ATOM     73  S   UNL A   1      45.743  24.742  36.455  1.00  0.00     0.127 S 
ATOM     74  O   UNL A   1      45.182  23.607  37.184  1.00  0.00    -0.237 OA
ATOM     75  O   UNL A   1      46.520  24.382  35.268  1.00  0.00    -0.237 OA
ATOM     76  O   UNL A   1      46.344  25.781  37.279  1.00  0.00    -0.744 OA
ENDBRANCH  70  73
ENDBRANCH  52  66
BRANCH  53  77
ATOM     77  C   UNL A   1      43.500  35.131  28.416  1.00  0.00     0.023 A 
ATOM     78  C   UNL A   1      42.356  35.589  27.735  1.00  0.00     0.012 A 
ATOM     79  C   UNL A   1      44.703  35.854  28.300  1.00  0.00     0.148 A 
ATOM     80  C   UNL A   1      42.413  36.729  26.932  1.00  0.00     0.002 A 
ATOM     81  C   UNL A   1      44.740  37.019  27.541  1.00  0.00     0.091 A 
ATOM     82  F   UNL A   1      45.785  35.396  28.945  1.00  0.00    -0.205 F 
ATOM     83  C   UNL A   1      43.601  37.449  26.843  1.00  0.00     0.022 A 
BRANCH  81  84
ATOM     84  S   UNL A   1      46.189  38.080  27.485  1.00  0.00     0.127 S 
ATOM     85  O   UNL A   1      47.184  37.198  26.881  1.00  0.00    -0.237 OA
ATOM     86  O   UNL A   1      45.734  39.174  26.624  1.00  0.00    -0.237 OA
ATOM     87  O   UNL A   1      46.438  38.473  28.865  1.00  0.00    -0.744 OA
ENDBRANCH  81  84
ENDBRANCH  53  77
BRANCH  65  88
ATOM     88  C   UNL A   1      44.762  28.332  27.411  1.00  0.00     0.023 A 
ATOM     89  C   UNL A   1      43.830  27.917  26.439  1.00  0.00     0.012 A 
ATOM     90  C   UNL A   1      46.133  28.078  27.210  1.00  0.00     0.148 A 
ATOM     91  C   UNL A   1      44.252  27.238  25.298  1.00  0.00     0.002 A 
ATOM     92  C   UNL A   1      46.550  27.439  26.049  1.00  0.00     0.091 A 
ATOM     93  F   UNL A   1      47.002  28.462  28.156  1.00  0.00    -0.205 F 
ATOM     94  C   UNL A   1      45.612  27.009  25.097  1.00  0.00     0.022 A 
BRANCH  92  95
ATOM     95  S   UNL A   1      48.287  27.189  25.665  1.00  0.00     0.127 S 
ATOM     96  O   UNL A   1      48.785  28.563  25.626  1.00  0.00    -0.237 OA
ATOM     97  O   UNL A   1      48.753  26.404  26.810  1.00  0.00    -0.237 OA
ATOM     98  O   UNL A   1      48.316  26.473  24.396  1.00  0.00    -0.744 OA
ENDBRANCH  92  95
ENDBRANCH  65  88
ENDBRANCH  39  40
ENDBRANCH  31  34
ENDBRANCH  29  30
ENDBRANCH  28  29
ENDBRANCH  27  28
ENDBRANCH  26  27
ENDBRANCH   1  26
TORSDOF 22
ENDMDL
MODEL 3
REMARK VINA RESULT:      -7.4      5.552     11.693
REMARK SMILES CC[C@](C)([NH2+]CCC(=O)Nc1ccccc1)C(=O)NCCCCCCNC(=O)c1ccc(-c2c3nc(c(-c4cccc(S(=O)(=O)[O-])c4F)c4ccc([nH]4)c(-c4cccc(S(=O)(=O)[O-])c4F)c4nc(c(-c5cccc(S(=O)(=O)[O-])c5F)c5ccc2[nH]5)C=C4)C=C3)cc1
REMARK SMILES IDX 21 1 20 2 19 3 17 4 18 5 3 7 4 8 2 9 1 10 5 11 6 14 7 15
REMARK SMILES IDX 8 16 9 17 10 18 11 20 12 21 16 22 13 23 15 24 14 25 22 26
REMARK SMILES IDX 23 27 24 28 25 29 26 30 27 31 28 33 29 34 30 35 91 36 31 37
REMARK SMILES IDX 90 38 32 39 33 40 34 41 84 42 35 43 89 44 83 45 85 46 36 47
REMARK SMILES IDX 88 48 82 49 81 50 37 52 69 53 49 54 68 55 50 56 53 57 67 58
REMARK SMILES IDX 86 59 51 60 52 61 66 63 87 64 54 65 38 66 39 67 47 68 40 69
REMARK SMILES IDX 42 70 48 71 41 72 43 73 44 74 45 75 46 76 70 77 71 78 79 79
REMARK SMILES IDX 72 80 74 81 80 82 73 83 75 84 76 85 77 86 78 87 55 88 56 89
REMARK SMILES IDX 64 90 57 91 59 92 65 93 58 94 60 95 61 96 62 97 63 98
REMARK H PARENT 19 6 5 12 5 13 10 19 26 32 85 51 53 62
REMARK Flexibility Score: inf
ROOT
ATOM      1  C   UNL A   1      35.822  33.018  32.957  1.00  0.00     0.021 C 
ENDROOT
BRANCH   1   2
ATOM      2  C   UNL A   1      34.542  33.550  33.597  1.00  0.00     0.116 C 
BRANCH   2   3
ATOM      3  N   UNL A   1      34.571  34.993  33.624  1.00  0.00    -0.351 N 
ATOM      4  C   UNL A   1      34.115  35.934  32.759  1.00  0.00     0.281 C 
ATOM      5  O   UNL A   1      34.514  37.082  33.001  1.00  0.00    -0.268 OA
ATOM      6  H   UNL A   1      35.006  35.366  34.424  1.00  0.00     0.163 HD
BRANCH   4   7
ATOM      7  C   UNL A   1      33.115  35.632  31.589  1.00  0.00     0.172 C 
ATOM      8  C   UNL A   1      33.047  36.978  30.794  1.00  0.00     0.090 C 
BRANCH   7   9
ATOM      9  C   UNL A   1      31.688  35.337  32.117  1.00  0.00     0.075 C 
ATOM     10  C   UNL A   1      31.121  36.321  33.137  1.00  0.00     0.011 C 
ENDBRANCH   7   9
BRANCH   7  11
ATOM     11  N   UNL A   1      33.682  34.714  30.580  1.00  0.00    -0.333 N 
ATOM     12  H   UNL A   1      33.602  33.783  30.989  1.00  0.00     0.347 HD
ATOM     13  H   UNL A   1      34.582  35.165  30.418  1.00  0.00     0.347 HD
BRANCH  11  14
ATOM     14  C   UNL A   1      33.222  34.570  29.208  1.00  0.00     0.271 C 
BRANCH  14  15
ATOM     15  C   UNL A   1      33.847  33.504  28.315  1.00  0.00     0.161 C 
BRANCH  15  16
ATOM     16  C   UNL A   1      34.606  32.274  28.825  1.00  0.00     0.230 C 
ATOM     17  O   UNL A   1      35.449  32.430  29.720  1.00  0.00    -0.275 OA
ATOM     18  N   UNL A   1      34.227  30.991  28.569  1.00  0.00    -0.326 N 
ATOM     19  H   UNL A   1      34.369  30.368  29.318  1.00  0.00     0.169 HD
BRANCH  18  20
ATOM     20  C   UNL A   1      33.672  30.408  27.433  1.00  0.00     0.041 A 
ATOM     21  C   UNL A   1      32.403  30.826  27.030  1.00  0.00     0.026 A 
ATOM     22  C   UNL A   1      34.336  29.416  26.714  1.00  0.00     0.026 A 
ATOM     23  C   UNL A   1      31.871  30.364  25.826  1.00  0.00     0.002 A 
ATOM     24  C   UNL A   1      33.801  28.949  25.512  1.00  0.00     0.002 A 
ATOM     25  C   UNL A   1      32.581  29.444  25.055  1.00  0.00     0.000 A 
ENDBRANCH  18  20
ENDBRANCH  15  16
ENDBRANCH  14  15
ENDBRANCH  11  14
ENDBRANCH   7  11
ENDBRANCH   4   7
ENDBRANCH   2   3
ENDBRANCH   1   2
BRANCH   1  26
ATOM     26  C   UNL A   1      36.614  32.064  33.856  1.00  0.00     0.002 C 
BRANCH  26  27
ATOM     27  C   UNL A   1      37.555  31.116  33.110  1.00  0.00     0.002 C 
BRANCH  27  28
ATOM     28  C   UNL A   1      36.852  30.037  32.281  1.00  0.00     0.021 C 
BRANCH  28  29
ATOM     29  C   UNL A   1      37.799  29.076  31.567  1.00  0.00     0.116 C 
BRANCH  29  30
ATOM     30  N   UNL A   1      37.751  29.254  30.125  1.00  0.00    -0.352 N 
ATOM     31  C   UNL A   1      38.187  30.315  29.376  1.00  0.00     0.251 C 
ATOM     32  H   UNL A   1      37.351  28.510  29.618  1.00  0.00     0.163 HD
ATOM     33  O   UNL A   1      37.853  30.424  28.202  1.00  0.00    -0.269 OA
BRANCH  31  34
ATOM     34  C   UNL A   1      39.063  31.325  30.002  1.00  0.00     0.039 A 
ATOM     35  C   UNL A   1      38.586  32.628  30.169  1.00  0.00     0.014 A 
ATOM     36  C   UNL A   1      40.354  30.981  30.413  1.00  0.00     0.014 A 
ATOM     37  C   UNL A   1      39.400  33.581  30.783  1.00  0.00     0.010 A 
ATOM     38  C   UNL A   1      41.136  31.914  31.083  1.00  0.00     0.010 A 
ATOM     39  C   UNL A   1      40.673  33.228  31.256  1.00  0.00    -0.014 A 
BRANCH  39  40
ATOM     40  C   UNL A   1      41.548  34.221  31.924  1.00  0.00     0.031 A 
ATOM     41  C   UNL A   1      41.472  34.403  33.415  1.00  0.00     0.074 A 
ATOM     42  C   UNL A   1      42.342  35.014  31.180  1.00  0.00     0.049 A 
ATOM     43  N   UNL A   1      42.113  35.252  34.175  1.00  0.00    -0.248 NA
ATOM     44  C   UNL A   1      40.531  33.538  34.147  1.00  0.00     0.031 C 
ATOM     45  C   UNL A   1      42.431  34.988  29.719  1.00  0.00     0.029 A 
ATOM     46  N   UNL A   1      43.201  36.018  31.549  1.00  0.00    -0.354 N 
ATOM     47  C   UNL A   1      41.627  35.054  35.461  1.00  0.00     0.074 A 
ATOM     48  C   UNL A   1      40.615  34.025  35.377  1.00  0.00     0.031 C 
ATOM     49  C   UNL A   1      43.294  35.934  29.315  1.00  0.00     0.029 A 
ATOM     50  C   UNL A   1      43.803  36.644  30.484  1.00  0.00     0.049 A 
ATOM     51  H   UNL A   1      43.369  36.266  32.486  1.00  0.00     0.167 HD
ATOM     52  C   UNL A   1      42.011  35.650  36.614  1.00  0.00     0.034 A 
ATOM     53  C   UNL A   1      44.669  37.676  30.455  1.00  0.00     0.034 A 
ATOM     54  C   UNL A   1      43.060  36.630  36.697  1.00  0.00     0.049 A 
ATOM     55  C   UNL A   1      45.136  38.271  31.756  1.00  0.00     0.074 A 
ATOM     56  C   UNL A   1      43.597  37.221  37.826  1.00  0.00     0.029 A 
ATOM     57  N   UNL A   1      43.732  37.161  35.607  1.00  0.00    -0.354 N 
ATOM     58  N   UNL A   1      44.791  37.950  32.980  1.00  0.00    -0.248 NA
ATOM     59  C   UNL A   1      46.141  39.340  31.677  1.00  0.00     0.031 C 
ATOM     60  C   UNL A   1      44.588  38.120  37.417  1.00  0.00     0.029 A 
ATOM     61  C   UNL A   1      44.677  38.076  36.035  1.00  0.00     0.049 A 
ATOM     62  H   UNL A   1      43.561  36.923  34.668  1.00  0.00     0.167 HD
ATOM     63  C   UNL A   1      45.558  38.752  33.816  1.00  0.00     0.074 A 
ATOM     64  C   UNL A   1      46.402  39.560  32.959  1.00  0.00     0.031 C 
ATOM     65  C   UNL A   1      45.550  38.828  35.170  1.00  0.00     0.034 A 
BRANCH  52  66
ATOM     66  C   UNL A   1      41.342  35.209  37.888  1.00  0.00     0.023 A 
ATOM     67  C   UNL A   1      41.632  33.934  38.415  1.00  0.00     0.012 A 
ATOM     68  C   UNL A   1      40.477  36.068  38.593  1.00  0.00     0.148 A 
ATOM     69  C   UNL A   1      41.048  33.507  39.607  1.00  0.00     0.002 A 
ATOM     70  C   UNL A   1      39.930  35.651  39.802  1.00  0.00     0.091 A 
ATOM     71  F   UNL A   1      40.194  37.267  38.064  1.00  0.00    -0.205 F 
ATOM     72  C   UNL A   1      40.207  34.369  40.304  1.00  0.00     0.022 A 
BRANCH  70  73
ATOM     73  S   UNL A   1      38.894  36.714  40.814  1.00  0.00     0.127 S 
ATOM     74  O   UNL A   1      38.308  37.599  39.809  1.00  0.00    -0.237 OA
ATOM     75  O   UNL A   1      37.957  35.759  41.407  1.00  0.00    -0.237 OA
ATOM     76  O   UNL A   1      39.789  37.355  41.767  1.00  0.00    -0.744 OA
ENDBRANCH  70  73
ENDBRANCH  52  66
BRANCH  53  77
ATOM     77  C   UNL A   1      45.212  38.151  29.151  1.00  0.00     0.023 A 
ATOM     78  C   UNL A   1      46.318  37.488  28.584  1.00  0.00     0.012 A 
ATOM     79  C   UNL A   1      44.615  39.215  28.449  1.00  0.00     0.148 A 
ATOM     80  C   UNL A   1      46.837  37.894  27.354  1.00  0.00     0.002 A 
ATOM     81  C   UNL A   1      45.105  39.581  27.199  1.00  0.00     0.091 A 
ATOM     82  F   UNL A   1      43.571  39.842  29.009  1.00  0.00    -0.205 F 
ATOM     83  C   UNL A   1      46.225  38.932  26.657  1.00  0.00     0.022 A 
BRANCH  81  84
ATOM     84  S   UNL A   1      44.292  40.813  26.174  1.00  0.00     0.127 S 
ATOM     85  O   UNL A   1      44.358  42.000  27.023  1.00  0.00    -0.237 OA
ATOM     86  O   UNL A   1      45.160  40.851  24.996  1.00  0.00    -0.237 OA
ATOM     87  O   UNL A   1      42.959  40.287  25.915  1.00  0.00    -0.744 OA
ENDBRANCH  81  84
ENDBRANCH  53  77
BRANCH  65  88
ATOM     88  C   UNL A   1      46.500  39.798  35.819  1.00  0.00     0.023 A 
ATOM     89  C   UNL A   1      47.814  39.388  36.121  1.00  0.00     0.012 A 
ATOM     90  C   UNL A   1      46.121  41.135  36.048  1.00  0.00     0.148 A 
ATOM     91  C   UNL A   1      48.728  40.288  36.669  1.00  0.00     0.002 A 
ATOM     92  C   UNL A   1      47.050  42.037  36.553  1.00  0.00     0.091 A 
ATOM     93  F   UNL A   1      44.861  41.500  35.772  1.00  0.00    -0.205 F 
ATOM     94  C   UNL A   1      48.350  41.613  36.873  1.00  0.00     0.022 A 
BRANCH  92  95
ATOM     95  S   UNL A   1      46.677  43.782  36.757  1.00  0.00     0.127 S 
ATOM     96  O   UNL A   1      46.237  44.153  35.414  1.00  0.00    -0.237 OA
ATOM     97  O   UNL A   1      45.613  43.760  37.763  1.00  0.00    -0.237 OA
ATOM     98  O   UNL A   1      47.916  44.403  37.208  1.00  0.00    -0.744 OA
ENDBRANCH  92  95
ENDBRANCH  65  88
ENDBRANCH  39  40
ENDBRANCH  31  34
ENDBRANCH  29  30
ENDBRANCH  28  29
ENDBRANCH  27  28
ENDBRANCH  26  27
ENDBRANCH   1  26
TORSDOF 22
ENDMDL
