MODEL 1
REMARK VINA RESULT:     -10.9      0.000      0.000
REMARK SMILES CCc1cc(OC(F)(F)F)cc2c1O[C@@H](C(F)(F)F)C(C(=O)NCCCCCCNC(=O)c1ccc(-c3c4nc(c(-c5cccc(S(=O)(=O)[O-])c5F)c5ccc([nH]5)c(-c5cccc(S(=O)(=O)[O-])c5F)c5nc(c(-c6cccc(S(=O)(=O)[O-])c6F)c6ccc3[nH]6)C=C5)C=C4)cc1)=C2
REMARK SMILES IDX 27 1 26 2 25 3 24 4 23 5 21 6 22 7 20 9 3 10 4 11 13 12 5 13
REMARK SMILES IDX 12 14 14 15 11 16 96 17 15 18 2 19 1 20 6 21 7 22 8 23 9 24
REMARK SMILES IDX 10 25 16 26 17 27 18 28 19 29 28 30 29 31 30 32 31 33 32 35
REMARK SMILES IDX 33 36 34 37 95 38 35 39 94 40 36 41 37 42 38 43 88 44 39 45
REMARK SMILES IDX 93 46 87 47 89 48 40 49 92 50 86 51 85 52 41 54 73 55 53 56
REMARK SMILES IDX 72 57 54 58 57 59 71 60 90 61 55 62 56 63 70 65 91 66 58 67
REMARK SMILES IDX 42 68 43 69 51 70 44 71 46 72 52 73 45 74 47 75 48 76 49 77
REMARK SMILES IDX 50 78 74 79 75 80 83 81 76 82 78 83 84 84 77 85 79 86 80 87
REMARK SMILES IDX 81 88 82 89 59 90 60 91 68 92 61 93 63 94 69 95 62 96 64 97
REMARK SMILES IDX 65 98 66 99 67 100
REMARK H PARENT 23 8 30 34 89 53 57 64
REMARK Flexibility Score: inf
ROOT
ATOM      1  C   UNL A   1      37.382  20.445  24.449  1.00  0.00     0.002 C 
ENDROOT
BRANCH   1   2
ATOM      2  C   UNL A   1      37.079  21.759  25.176  1.00  0.00     0.002 C 
BRANCH   2   3
ATOM      3  C   UNL A   1      36.034  22.644  24.482  1.00  0.00     0.021 C 
BRANCH   3   4
ATOM      4  C   UNL A   1      35.421  23.693  25.418  1.00  0.00     0.116 C 
BRANCH   4   5
ATOM      5  N   UNL A   1      34.338  23.083  26.173  1.00  0.00    -0.352 N 
ATOM      6  C   UNL A   1      33.140  23.556  26.597  1.00  0.00     0.251 C 
ATOM      7  O   UNL A   1      32.521  22.901  27.431  1.00  0.00    -0.270 OA
ATOM      8  H   UNL A   1      34.507  22.146  26.423  1.00  0.00     0.163 HD
BRANCH   6   9
ATOM      9  C   UNL A   1      32.514  24.775  26.024  1.00  0.00     0.067 C 
ATOM     10  C   UNL A   1      30.817  27.998  23.931  1.00  0.00    -0.002 A 
ATOM     11  C   UNL A   1      31.174  29.311  24.293  1.00  0.00     0.054 A 
ATOM     12  C   UNL A   1      31.384  26.926  24.633  1.00  0.00     0.131 A 
ATOM     13  C   UNL A   1      32.069  29.547  25.338  1.00  0.00     0.130 A 
ATOM     14  C   UNL A   1      32.242  27.150  25.710  1.00  0.00     0.021 A 
ATOM     15  O   UNL A   1      31.143  25.667  24.160  1.00  0.00    -0.475 OA
ATOM     16  C   UNL A   1      32.584  28.462  26.054  1.00  0.00     0.058 A 
ATOM     17  C   UNL A   1      32.848  26.018  26.399  1.00  0.00     0.025 C 
ATOM     18  C   UNL A   1      31.342  24.555  25.075  1.00  0.00     0.314 C 
BRANCH  10  19
ATOM     19  C   UNL A   1      29.851  27.772  22.789  1.00  0.00     0.036 C 
ATOM     20  C   UNL A   1      28.430  28.223  23.111  1.00  0.00     0.009 C 
ENDBRANCH  10  19
BRANCH  13  21
ATOM     21  O   UNL A   1      32.534  30.762  25.754  1.00  0.00    -0.406 OA
BRANCH  21  22
ATOM     22  C   UNL A   1      31.683  31.564  26.555  1.00  0.00     0.573 C 
ATOM     23  F   UNL A   1      30.980  30.813  27.431  1.00  0.00    -0.132 F 
ATOM     24  F   UNL A   1      32.397  32.488  27.234  1.00  0.00    -0.132 F 
ATOM     25  F   UNL A   1      30.808  32.210  25.756  1.00  0.00    -0.132 F 
ENDBRANCH  21  22
ENDBRANCH  13  21
BRANCH  18  26
ATOM     26  C   UNL A   1      31.344  23.271  24.216  1.00  0.00     0.429 C 
ATOM     27  F   UNL A   1      31.001  22.167  24.918  1.00  0.00    -0.167 F 
ATOM     28  F   UNL A   1      30.417  23.357  23.220  1.00  0.00    -0.167 F 
ATOM     29  F   UNL A   1      32.535  23.044  23.615  1.00  0.00    -0.167 F 
ENDBRANCH  18  26
ENDBRANCH   6   9
ENDBRANCH   4   5
ENDBRANCH   3   4
ENDBRANCH   2   3
ENDBRANCH   1   2
BRANCH   1  30
ATOM     30  C   UNL A   1      38.354  19.515  25.180  1.00  0.00     0.021 C 
BRANCH  30  31
ATOM     31  C   UNL A   1      39.438  20.235  25.978  1.00  0.00     0.116 C 
BRANCH  31  32
ATOM     32  N   UNL A   1      40.664  19.456  26.032  1.00  0.00    -0.352 N 
ATOM     33  C   UNL A   1      41.962  19.879  26.154  1.00  0.00     0.251 C 
ATOM     34  H   UNL A   1      40.545  18.481  25.971  1.00  0.00     0.163 HD
ATOM     35  O   UNL A   1      42.880  19.095  25.932  1.00  0.00    -0.269 OA
BRANCH  33  36
ATOM     36  C   UNL A   1      42.260  21.274  26.551  1.00  0.00     0.039 A 
ATOM     37  C   UNL A   1      42.367  21.577  27.910  1.00  0.00     0.014 A 
ATOM     38  C   UNL A   1      42.383  22.288  25.595  1.00  0.00     0.014 A 
ATOM     39  C   UNL A   1      42.622  22.890  28.310  1.00  0.00     0.010 A 
ATOM     40  C   UNL A   1      42.706  23.584  25.992  1.00  0.00     0.010 A 
ATOM     41  C   UNL A   1      42.809  23.903  27.354  1.00  0.00    -0.014 A 
BRANCH  41  42
ATOM     42  C   UNL A   1      43.110  25.294  27.776  1.00  0.00     0.031 A 
ATOM     43  C   UNL A   1      44.521  25.818  27.742  1.00  0.00     0.074 A 
ATOM     44  C   UNL A   1      42.113  26.073  28.239  1.00  0.00     0.049 A 
ATOM     45  N   UNL A   1      44.962  27.012  28.042  1.00  0.00    -0.248 NA
ATOM     46  C   UNL A   1      45.578  24.874  27.344  1.00  0.00     0.031 C 
ATOM     47  C   UNL A   1      40.721  25.650  28.410  1.00  0.00     0.029 A 
ATOM     48  N   UNL A   1      42.119  27.378  28.665  1.00  0.00    -0.354 N 
ATOM     49  C   UNL A   1      46.344  26.956  27.899  1.00  0.00     0.074 A 
ATOM     50  C   UNL A   1      46.672  25.600  27.520  1.00  0.00     0.031 C 
ATOM     51  C   UNL A   1      40.005  26.679  28.891  1.00  0.00     0.029 A 
ATOM     52  C   UNL A   1      40.888  27.828  29.079  1.00  0.00     0.049 A 
ATOM     53  H   UNL A   1      42.929  27.937  28.674  1.00  0.00     0.167 HD
ATOM     54  C   UNL A   1      47.253  27.951  28.034  1.00  0.00     0.034 A 
ATOM     55  C   UNL A   1      40.508  29.033  29.545  1.00  0.00     0.034 A 
ATOM     56  C   UNL A   1      46.916  29.310  28.365  1.00  0.00     0.049 A 
ATOM     57  C   UNL A   1      41.525  30.139  29.617  1.00  0.00     0.074 A 
ATOM     58  C   UNL A   1      47.750  30.412  28.436  1.00  0.00     0.029 A 
ATOM     59  N   UNL A   1      45.642  29.754  28.684  1.00  0.00    -0.354 N 
ATOM     60  N   UNL A   1      42.798  30.112  29.304  1.00  0.00    -0.248 NA
ATOM     61  C   UNL A   1      41.043  31.456  30.060  1.00  0.00     0.031 C 
ATOM     62  C   UNL A   1      46.983  31.519  28.816  1.00  0.00     0.029 A 
ATOM     63  C   UNL A   1      45.666  31.110  28.959  1.00  0.00     0.049 A 
ATOM     64  H   UNL A   1      44.838  29.186  28.711  1.00  0.00     0.167 HD
ATOM     65  C   UNL A   1      43.262  31.410  29.483  1.00  0.00     0.074 A 
ATOM     66  C   UNL A   1      42.126  32.205  29.903  1.00  0.00     0.031 C 
ATOM     67  C   UNL A   1      44.519  31.898  29.329  1.00  0.00     0.034 A 
BRANCH  54  68
ATOM     68  C   UNL A   1      48.698  27.621  27.764  1.00  0.00     0.023 A 
ATOM     69  C   UNL A   1      49.474  27.020  28.778  1.00  0.00     0.012 A 
ATOM     70  C   UNL A   1      49.275  27.845  26.498  1.00  0.00     0.148 A 
ATOM     71  C   UNL A   1      50.807  26.681  28.549  1.00  0.00     0.002 A 
ATOM     72  C   UNL A   1      50.591  27.464  26.264  1.00  0.00     0.091 A 
ATOM     73  F   UNL A   1      48.531  28.437  25.553  1.00  0.00    -0.205 F 
ATOM     74  C   UNL A   1      51.361  26.892  27.290  1.00  0.00     0.022 A 
BRANCH  72  75
ATOM     75  S   UNL A   1      51.375  27.623  24.654  1.00  0.00     0.127 S 
ATOM     76  O   UNL A   1      52.673  26.992  24.895  1.00  0.00    -0.237 OA
ATOM     77  O   UNL A   1      50.474  26.855  23.795  1.00  0.00    -0.237 OA
ATOM     78  O   UNL A   1      51.416  29.050  24.368  1.00  0.00    -0.744 OA
ENDBRANCH  72  75
ENDBRANCH  54  68
BRANCH  55  79
ATOM     79  C   UNL A   1      39.081  29.277  29.896  1.00  0.00     0.023 A 
ATOM     80  C   UNL A   1      38.625  28.971  31.193  1.00  0.00     0.012 A 
ATOM     81  C   UNL A   1      38.185  29.842  28.968  1.00  0.00     0.148 A 
ATOM     82  C   UNL A   1      37.295  29.193  31.550  1.00  0.00     0.002 A 
ATOM     83  C   UNL A   1      36.876  30.113  29.348  1.00  0.00     0.091 A 
ATOM     84  F   UNL A   1      38.635  30.114  27.736  1.00  0.00    -0.205 F 
ATOM     85  C   UNL A   1      36.424  29.775  30.633  1.00  0.00     0.022 A 
BRANCH  83  86
ATOM     86  S   UNL A   1      35.728  30.986  28.277  1.00  0.00     0.127 S 
ATOM     87  O   UNL A   1      36.528  32.126  27.844  1.00  0.00    -0.237 OA
ATOM     88  O   UNL A   1      35.462  29.987  27.239  1.00  0.00    -0.237 OA
ATOM     89  O   UNL A   1      34.575  31.297  29.113  1.00  0.00    -0.744 OA
ENDBRANCH  83  86
ENDBRANCH  55  79
BRANCH  67  90
ATOM     90  C   UNL A   1      44.730  33.366  29.595  1.00  0.00     0.023 A 
ATOM     91  C   UNL A   1      45.090  33.798  30.887  1.00  0.00     0.012 A 
ATOM     92  C   UNL A   1      44.624  34.310  28.554  1.00  0.00     0.148 A 
ATOM     93  C   UNL A   1      45.302  35.151  31.149  1.00  0.00     0.002 A 
ATOM     94  C   UNL A   1      44.885  35.651  28.813  1.00  0.00     0.091 A 
ATOM     95  F   UNL A   1      44.260  33.884  27.336  1.00  0.00    -0.205 F 
ATOM     96  C   UNL A   1      45.210  36.075  30.112  1.00  0.00     0.022 A 
BRANCH  94  97
ATOM     97  S   UNL A   1      44.882  36.892  27.514  1.00  0.00     0.127 S 
ATOM     98  O   UNL A   1      45.259  38.096  28.250  1.00  0.00    -0.237 OA
ATOM     99  O   UNL A   1      45.907  36.390  26.598  1.00  0.00    -0.237 OA
ATOM    100  O   UNL A   1      43.532  36.885  26.964  1.00  0.00    -0.744 OA
ENDBRANCH  94  97
ENDBRANCH  67  90
ENDBRANCH  41  42
ENDBRANCH  33  36
ENDBRANCH  31  32
ENDBRANCH  30  31
ENDBRANCH   1  30
TORSDOF 20
ENDMDL
MODEL 2
REMARK VINA RESULT:     -10.7      1.785      7.401
REMARK SMILES CCc1cc(OC(F)(F)F)cc2c1O[C@@H](C(F)(F)F)C(C(=O)NCCCCCCNC(=O)c1ccc(-c3c4nc(c(-c5cccc(S(=O)(=O)[O-])c5F)c5ccc([nH]5)c(-c5cccc(S(=O)(=O)[O-])c5F)c5nc(c(-c6cccc(S(=O)(=O)[O-])c6F)c6ccc3[nH]6)C=C5)C=C4)cc1)=C2
REMARK SMILES IDX 27 1 26 2 25 3 24 4 23 5 21 6 22 7 20 9 3 10 4 11 13 12 5 13
REMARK SMILES IDX 12 14 14 15 11 16 96 17 15 18 2 19 1 20 6 21 7 22 8 23 9 24
REMARK SMILES IDX 10 25 16 26 17 27 18 28 19 29 28 30 29 31 30 32 31 33 32 35
REMARK SMILES IDX 33 36 34 37 95 38 35 39 94 40 36 41 37 42 38 43 88 44 39 45
REMARK SMILES IDX 93 46 87 47 89 48 40 49 92 50 86 51 85 52 41 54 73 55 53 56
REMARK SMILES IDX 72 57 54 58 57 59 71 60 90 61 55 62 56 63 70 65 91 66 58 67
REMARK SMILES IDX 42 68 43 69 51 70 44 71 46 72 52 73 45 74 47 75 48 76 49 77
REMARK SMILES IDX 50 78 74 79 75 80 83 81 76 82 78 83 84 84 77 85 79 86 80 87
REMARK SMILES IDX 81 88 82 89 59 90 60 91 68 92 61 93 63 94 69 95 62 96 64 97
REMARK SMILES IDX 65 98 66 99 67 100
REMARK H PARENT 23 8 30 34 89 53 57 64
REMARK Flexibility Score: inf
ROOT
ATOM      1  C   UNL A   1      37.170  20.736  24.566  1.00  0.00     0.002 C 
ENDROOT
BRANCH   1   2
ATOM      2  C   UNL A   1      37.294  22.020  25.393  1.00  0.00     0.002 C 
BRANCH   2   3
ATOM      3  C   UNL A   1      36.847  23.294  24.662  1.00  0.00     0.021 C 
BRANCH   3   4
ATOM      4  C   UNL A   1      35.416  23.200  24.119  1.00  0.00     0.116 C 
BRANCH   4   5
ATOM      5  N   UNL A   1      34.550  22.650  25.149  1.00  0.00    -0.352 N 
ATOM      6  C   UNL A   1      33.554  23.195  25.891  1.00  0.00     0.251 C 
ATOM      7  O   UNL A   1      33.150  22.568  26.867  1.00  0.00    -0.270 OA
ATOM      8  H   UNL A   1      34.718  21.700  25.344  1.00  0.00     0.163 HD
BRANCH   6   9
ATOM      9  C   UNL A   1      32.876  24.461  25.514  1.00  0.00     0.067 C 
ATOM     10  C   UNL A   1      30.974  27.866  23.952  1.00  0.00    -0.002 A 
ATOM     11  C   UNL A   1      31.387  29.139  24.388  1.00  0.00     0.054 A 
ATOM     12  C   UNL A   1      31.611  26.732  24.477  1.00  0.00     0.131 A 
ATOM     13  C   UNL A   1      32.405  29.277  25.333  1.00  0.00     0.130 A 
ATOM     14  C   UNL A   1      32.595  26.855  25.458  1.00  0.00     0.021 A 
ATOM     15  O   UNL A   1      31.299  25.524  23.922  1.00  0.00    -0.475 OA
ATOM     16  C   UNL A   1      32.991  28.129  25.877  1.00  0.00     0.058 A 
ATOM     17  C   UNL A   1      33.268  25.664  25.960  1.00  0.00     0.025 C 
ATOM     18  C   UNL A   1      31.596  24.331  24.699  1.00  0.00     0.314 C 
BRANCH  10  19
ATOM     19  C   UNL A   1      29.875  27.747  22.919  1.00  0.00     0.036 C 
ATOM     20  C   UNL A   1      29.369  29.100  22.429  1.00  0.00     0.009 C 
ENDBRANCH  10  19
BRANCH  13  21
ATOM     21  O   UNL A   1      32.931  30.447  25.800  1.00  0.00    -0.406 OA
BRANCH  21  22
ATOM     22  C   UNL A   1      32.198  31.164  26.780  1.00  0.00     0.573 C 
ATOM     23  F   UNL A   1      31.526  30.328  27.601  1.00  0.00    -0.132 F 
ATOM     24  F   UNL A   1      33.021  31.944  27.515  1.00  0.00    -0.132 F 
ATOM     25  F   UNL A   1      31.302  31.961  26.162  1.00  0.00    -0.132 F 
ENDBRANCH  21  22
ENDBRANCH  13  21
BRANCH  18  26
ATOM     26  C   UNL A   1      31.479  23.132  23.731  1.00  0.00     0.429 C 
ATOM     27  F   UNL A   1      31.460  21.940  24.368  1.00  0.00    -0.167 F 
ATOM     28  F   UNL A   1      30.303  23.183  23.043  1.00  0.00    -0.167 F 
ATOM     29  F   UNL A   1      32.465  23.108  22.805  1.00  0.00    -0.167 F 
ENDBRANCH  18  26
ENDBRANCH   6   9
ENDBRANCH   4   5
ENDBRANCH   3   4
ENDBRANCH   2   3
ENDBRANCH   1   2
BRANCH   1  30
ATOM     30  C   UNL A   1      38.175  19.638  24.928  1.00  0.00     0.021 C 
BRANCH  30  31
ATOM     31  C   UNL A   1      39.042  19.952  26.144  1.00  0.00     0.116 C 
BRANCH  31  32
ATOM     32  N   UNL A   1      40.219  19.100  26.191  1.00  0.00    -0.352 N 
ATOM     33  C   UNL A   1      41.546  19.445  26.190  1.00  0.00     0.251 C 
ATOM     34  H   UNL A   1      40.037  18.133  26.229  1.00  0.00     0.163 HD
ATOM     35  O   UNL A   1      42.396  18.584  25.983  1.00  0.00    -0.269 OA
BRANCH  33  36
ATOM     36  C   UNL A   1      41.955  20.845  26.437  1.00  0.00     0.039 A 
ATOM     37  C   UNL A   1      42.327  21.219  27.730  1.00  0.00     0.014 A 
ATOM     38  C   UNL A   1      41.924  21.800  25.414  1.00  0.00     0.014 A 
ATOM     39  C   UNL A   1      42.693  22.540  27.992  1.00  0.00     0.010 A 
ATOM     40  C   UNL A   1      42.355  23.101  25.662  1.00  0.00     0.010 A 
ATOM     41  C   UNL A   1      42.724  23.490  26.958  1.00  0.00    -0.014 A 
BRANCH  41  42
ATOM     42  C   UNL A   1      43.141  24.889  27.229  1.00  0.00     0.031 A 
ATOM     43  C   UNL A   1      42.203  25.852  27.905  1.00  0.00     0.074 A 
ATOM     44  C   UNL A   1      44.355  25.307  26.818  1.00  0.00     0.049 A 
ATOM     45  N   UNL A   1      42.409  27.098  28.248  1.00  0.00    -0.248 NA
ATOM     46  C   UNL A   1      40.848  25.365  28.214  1.00  0.00     0.031 C 
ATOM     47  C   UNL A   1      45.317  24.496  26.069  1.00  0.00     0.029 A 
ATOM     48  N   UNL A   1      44.980  26.521  26.959  1.00  0.00    -0.354 N 
ATOM     49  C   UNL A   1      41.209  27.550  28.784  1.00  0.00     0.074 A 
ATOM     50  C   UNL A   1      40.267  26.458  28.687  1.00  0.00     0.031 C 
ATOM     51  C   UNL A   1      46.415  25.230  25.828  1.00  0.00     0.029 A 
ATOM     52  C   UNL A   1      46.230  26.565  26.389  1.00  0.00     0.049 A 
ATOM     53  H   UNL A   1      44.571  27.286  27.423  1.00  0.00     0.167 HD
ATOM     54  C   UNL A   1      40.927  28.754  29.339  1.00  0.00     0.034 A 
ATOM     55  C   UNL A   1      47.132  27.564  26.335  1.00  0.00     0.034 A 
ATOM     56  C   UNL A   1      41.881  29.821  29.476  1.00  0.00     0.049 A 
ATOM     57  C   UNL A   1      46.819  28.865  27.023  1.00  0.00     0.074 A 
ATOM     58  C   UNL A   1      41.722  31.044  30.105  1.00  0.00     0.029 A 
ATOM     59  N   UNL A   1      43.172  29.797  28.972  1.00  0.00    -0.354 N 
ATOM     60  N   UNL A   1      45.741  29.212  27.683  1.00  0.00    -0.248 NA
ATOM     61  C   UNL A   1      47.867  29.896  26.999  1.00  0.00     0.031 C 
ATOM     62  C   UNL A   1      42.913  31.765  29.966  1.00  0.00     0.029 A 
ATOM     63  C   UNL A   1      43.821  30.983  29.270  1.00  0.00     0.049 A 
ATOM     64  H   UNL A   1      43.570  29.045  28.475  1.00  0.00     0.167 HD
ATOM     65  C   UNL A   1      45.990  30.486  28.179  1.00  0.00     0.074 A 
ATOM     66  C   UNL A   1      47.334  30.837  27.767  1.00  0.00     0.031 C 
ATOM     67  C   UNL A   1      45.175  31.299  28.895  1.00  0.00     0.034 A 
BRANCH  54  68
ATOM     68  C   UNL A   1      39.542  28.959  29.899  1.00  0.00     0.023 A 
ATOM     69  C   UNL A   1      39.256  28.532  31.213  1.00  0.00     0.012 A 
ATOM     70  C   UNL A   1      38.545  29.622  29.157  1.00  0.00     0.148 A 
ATOM     71  C   UNL A   1      37.991  28.731  31.766  1.00  0.00     0.002 A 
ATOM     72  C   UNL A   1      37.301  29.856  29.732  1.00  0.00     0.091 A 
ATOM     73  F   UNL A   1      38.827  30.001  27.903  1.00  0.00    -0.205 F 
ATOM     74  C   UNL A   1      37.019  29.402  31.030  1.00  0.00     0.022 A 
BRANCH  72  75
ATOM     75  S   UNL A   1      36.004  30.778  28.896  1.00  0.00     0.127 S 
ATOM     76  O   UNL A   1      35.372  29.734  28.090  1.00  0.00    -0.237 OA
ATOM     77  O   UNL A   1      35.195  31.257  30.016  1.00  0.00    -0.237 OA
ATOM     78  O   UNL A   1      36.680  31.827  28.144  1.00  0.00    -0.744 OA
ENDBRANCH  72  75
ENDBRANCH  54  68
BRANCH  55  79
ATOM     79  C   UNL A   1      48.450  27.339  25.678  1.00  0.00     0.023 A 
ATOM     80  C   UNL A   1      49.538  26.886  26.450  1.00  0.00     0.012 A 
ATOM     81  C   UNL A   1      48.622  27.533  24.294  1.00  0.00     0.148 A 
ATOM     82  C   UNL A   1      50.783  26.661  25.861  1.00  0.00     0.002 A 
ATOM     83  C   UNL A   1      49.849  27.253  23.704  1.00  0.00     0.091 A 
ATOM     84  F   UNL A   1      47.578  27.976  23.581  1.00  0.00    -0.205 F 
ATOM     85  C   UNL A   1      50.935  26.833  24.488  1.00  0.00     0.022 A 
BRANCH  83  86
ATOM     86  S   UNL A   1      50.093  27.315  21.926  1.00  0.00     0.127 S 
ATOM     87  O   UNL A   1      49.996  28.746  21.659  1.00  0.00    -0.237 OA
ATOM     88  O   UNL A   1      51.437  26.750  21.783  1.00  0.00    -0.237 OA
ATOM     89  O   UNL A   1      49.036  26.488  21.358  1.00  0.00    -0.744 OA
ENDBRANCH  83  86
ENDBRANCH  55  79
BRANCH  67  90
ATOM     90  C   UNL A   1      45.721  32.644  29.303  1.00  0.00     0.023 A 
ATOM     91  C   UNL A   1      45.563  33.752  28.446  1.00  0.00     0.012 A 
ATOM     92  C   UNL A   1      46.343  32.821  30.555  1.00  0.00     0.148 A 
ATOM     93  C   UNL A   1      46.050  35.006  28.812  1.00  0.00     0.002 A 
ATOM     94  C   UNL A   1      46.783  34.084  30.932  1.00  0.00     0.091 A 
ATOM     95  F   UNL A   1      46.505  31.751  31.348  1.00  0.00    -0.205 F 
ATOM     96  C   UNL A   1      46.649  35.174  30.057  1.00  0.00     0.022 A 
BRANCH  94  97
ATOM     97  S   UNL A   1      47.480  34.407  32.556  1.00  0.00     0.127 S 
ATOM     98  O   UNL A   1      47.455  35.867  32.608  1.00  0.00    -0.237 OA
ATOM     99  O   UNL A   1      46.522  33.748  33.445  1.00  0.00    -0.237 OA
ATOM    100  O   UNL A   1      48.804  33.798  32.547  1.00  0.00    -0.744 OA
ENDBRANCH  94  97
ENDBRANCH  67  90
ENDBRANCH  41  42
ENDBRANCH  33  36
ENDBRANCH  31  32
ENDBRANCH  30  31
ENDBRANCH   1  30
TORSDOF 20
ENDMDL
MODEL 3
REMARK VINA RESULT:     -10.7      2.640      3.630
REMARK SMILES CCc1cc(OC(F)(F)F)cc2c1O[C@@H](C(F)(F)F)C(C(=O)NCCCCCCNC(=O)c1ccc(-c3c4nc(c(-c5cccc(S(=O)(=O)[O-])c5F)c5ccc([nH]5)c(-c5cccc(S(=O)(=O)[O-])c5F)c5nc(c(-c6cccc(S(=O)(=O)[O-])c6F)c6ccc3[nH]6)C=C5)C=C4)cc1)=C2
REMARK SMILES IDX 27 1 26 2 25 3 24 4 23 5 21 6 22 7 20 9 3 10 4 11 13 12 5 13
REMARK SMILES IDX 12 14 14 15 11 16 96 17 15 18 2 19 1 20 6 21 7 22 8 23 9 24
REMARK SMILES IDX 10 25 16 26 17 27 18 28 19 29 28 30 29 31 30 32 31 33 32 35
REMARK SMILES IDX 33 36 34 37 95 38 35 39 94 40 36 41 37 42 38 43 88 44 39 45
REMARK SMILES IDX 93 46 87 47 89 48 40 49 92 50 86 51 85 52 41 54 73 55 53 56
REMARK SMILES IDX 72 57 54 58 57 59 71 60 90 61 55 62 56 63 70 65 91 66 58 67
REMARK SMILES IDX 42 68 43 69 51 70 44 71 46 72 52 73 45 74 47 75 48 76 49 77
REMARK SMILES IDX 50 78 74 79 75 80 83 81 76 82 78 83 84 84 77 85 79 86 80 87
REMARK SMILES IDX 81 88 82 89 59 90 60 91 68 92 61 93 63 94 69 95 62 96 64 97
REMARK SMILES IDX 65 98 66 99 67 100
REMARK H PARENT 23 8 30 34 89 53 57 64
REMARK Flexibility Score: inf
ROOT
ATOM      1  C   UNL A   1      37.081  22.788  23.896  1.00  0.00     0.002 C 
ENDROOT
BRANCH   1   2
ATOM      2  C   UNL A   1      36.099  22.959  22.731  1.00  0.00     0.002 C 
BRANCH   2   3
ATOM      3  C   UNL A   1      34.619  22.892  23.131  1.00  0.00     0.021 C 
BRANCH   3   4
ATOM      4  C   UNL A   1      33.680  23.422  22.040  1.00  0.00     0.116 C 
BRANCH   4   5
ATOM      5  N   UNL A   1      32.316  23.023  22.350  1.00  0.00    -0.352 N 
ATOM      6  C   UNL A   1      31.356  23.580  23.129  1.00  0.00     0.251 C 
ATOM      7  O   UNL A   1      30.371  22.902  23.409  1.00  0.00    -0.270 OA
ATOM      8  H   UNL A   1      32.036  22.189  21.908  1.00  0.00     0.163 HD
BRANCH   6   9
ATOM      9  C   UNL A   1      31.407  24.998  23.568  1.00  0.00     0.067 C 
ATOM     10  C   UNL A   1      31.427  28.831  25.289  1.00  0.00    -0.002 A 
ATOM     11  C   UNL A   1      30.799  29.889  24.605  1.00  0.00     0.054 A 
ATOM     12  C   UNL A   1      31.419  27.554  24.710  1.00  0.00     0.131 A 
ATOM     13  C   UNL A   1      30.187  29.679  23.368  1.00  0.00     0.130 A 
ATOM     14  C   UNL A   1      30.853  27.342  23.453  1.00  0.00     0.021 A 
ATOM     15  O   UNL A   1      31.895  26.520  25.465  1.00  0.00    -0.475 OA
ATOM     16  C   UNL A   1      30.235  28.407  22.790  1.00  0.00     0.058 A 
ATOM     17  C   UNL A   1      30.825  25.998  22.890  1.00  0.00     0.025 C 
ATOM     18  C   UNL A   1      32.294  25.307  24.768  1.00  0.00     0.314 C 
BRANCH  10  19
ATOM     19  C   UNL A   1      32.074  29.086  26.632  1.00  0.00     0.036 C 
ATOM     20  C   UNL A   1      31.359  28.384  27.782  1.00  0.00     0.009 C 
ENDBRANCH  10  19
BRANCH  13  21
ATOM     21  O   UNL A   1      29.504  30.603  22.630  1.00  0.00    -0.406 OA
BRANCH  21  22
ATOM     22  C   UNL A   1      28.237  31.030  23.103  1.00  0.00     0.573 C 
ATOM     23  F   UNL A   1      28.362  31.896  24.133  1.00  0.00    -0.132 F 
ATOM     24  F   UNL A   1      27.531  31.617  22.111  1.00  0.00    -0.132 F 
ATOM     25  F   UNL A   1      27.544  29.956  23.534  1.00  0.00    -0.132 F 
ENDBRANCH  21  22
ENDBRANCH  13  21
BRANCH  18  26
ATOM     26  C   UNL A   1      32.452  24.210  25.846  1.00  0.00     0.429 C 
ATOM     27  F   UNL A   1      33.402  23.300  25.535  1.00  0.00    -0.167 F 
ATOM     28  F   UNL A   1      32.858  24.754  27.028  1.00  0.00    -0.167 F 
ATOM     29  F   UNL A   1      31.297  23.555  26.100  1.00  0.00    -0.167 F 
ENDBRANCH  18  26
ENDBRANCH   6   9
ENDBRANCH   4   5
ENDBRANCH   3   4
ENDBRANCH   2   3
ENDBRANCH   1   2
BRANCH   1  30
ATOM     30  C   UNL A   1      36.815  23.697  25.099  1.00  0.00     0.021 C 
BRANCH  30  31
ATOM     31  C   UNL A   1      37.161  23.075  26.449  1.00  0.00     0.116 C 
BRANCH  31  32
ATOM     32  N   UNL A   1      38.338  22.228  26.358  1.00  0.00    -0.352 N 
ATOM     33  C   UNL A   1      39.664  22.566  26.442  1.00  0.00     0.251 C 
ATOM     34  H   UNL A   1      38.158  21.271  26.213  1.00  0.00     0.163 HD
ATOM     35  O   UNL A   1      40.519  21.758  26.094  1.00  0.00    -0.269 OA
BRANCH  33  36
ATOM     36  C   UNL A   1      40.066  23.897  26.950  1.00  0.00     0.039 A 
ATOM     37  C   UNL A   1      40.072  24.979  26.067  1.00  0.00     0.014 A 
ATOM     38  C   UNL A   1      40.486  24.070  28.274  1.00  0.00     0.014 A 
ATOM     39  C   UNL A   1      40.471  26.239  26.517  1.00  0.00     0.010 A 
ATOM     40  C   UNL A   1      40.818  25.341  28.738  1.00  0.00     0.010 A 
ATOM     41  C   UNL A   1      40.834  26.435  27.860  1.00  0.00    -0.014 A 
BRANCH  41  42
ATOM     42  C   UNL A   1      41.231  27.780  28.347  1.00  0.00     0.031 A 
ATOM     43  C   UNL A   1      42.677  28.197  28.355  1.00  0.00     0.074 A 
ATOM     44  C   UNL A   1      40.287  28.611  28.831  1.00  0.00     0.049 A 
ATOM     45  N   UNL A   1      43.201  29.341  28.715  1.00  0.00    -0.248 NA
ATOM     46  C   UNL A   1      43.668  27.195  27.930  1.00  0.00     0.031 C 
ATOM     47  C   UNL A   1      38.865  28.286  28.965  1.00  0.00     0.029 A 
ATOM     48  N   UNL A   1      40.383  29.891  29.315  1.00  0.00    -0.354 N 
ATOM     49  C   UNL A   1      44.576  29.188  28.587  1.00  0.00     0.074 A 
ATOM     50  C   UNL A   1      44.810  27.828  28.153  1.00  0.00     0.031 C 
ATOM     51  C   UNL A   1      38.220  29.344  29.482  1.00  0.00     0.029 A 
ATOM     52  C   UNL A   1      39.181  30.414  29.732  1.00  0.00     0.049 A 
ATOM     53  H   UNL A   1      41.232  30.388  29.360  1.00  0.00     0.167 HD
ATOM     54  C   UNL A   1      45.555  30.105  28.779  1.00  0.00     0.034 A 
ATOM     55  C   UNL A   1      38.885  31.622  30.247  1.00  0.00     0.034 A 
ATOM     56  C   UNL A   1      45.314  31.470  29.166  1.00  0.00     0.049 A 
ATOM     57  C   UNL A   1      39.980  32.645  30.382  1.00  0.00     0.074 A 
ATOM     58  C   UNL A   1      46.227  32.502  29.298  1.00  0.00     0.029 A 
ATOM     59  N   UNL A   1      44.072  31.993  29.488  1.00  0.00    -0.354 N 
ATOM     60  N   UNL A   1      41.252  32.537  30.085  1.00  0.00    -0.248 NA
ATOM     61  C   UNL A   1      39.589  33.974  30.877  1.00  0.00     0.031 C 
ATOM     62  C   UNL A   1      45.537  33.645  29.716  1.00  0.00     0.029 A 
ATOM     63  C   UNL A   1      44.192  33.331  29.823  1.00  0.00     0.049 A 
ATOM     64  H   UNL A   1      43.227  31.487  29.479  1.00  0.00     0.167 HD
ATOM     65  C   UNL A   1      41.808  33.787  30.327  1.00  0.00     0.074 A 
ATOM     66  C   UNL A   1      40.728  34.645  30.768  1.00  0.00     0.031 C 
ATOM     67  C   UNL A   1      43.100  34.185  30.213  1.00  0.00     0.034 A 
BRANCH  54  68
ATOM     68  C   UNL A   1      46.976  29.679  28.514  1.00  0.00     0.023 A 
ATOM     69  C   UNL A   1      47.540  29.906  27.240  1.00  0.00     0.012 A 
ATOM     70  C   UNL A   1      47.771  29.114  29.529  1.00  0.00     0.148 A 
ATOM     71  C   UNL A   1      48.860  29.545  26.972  1.00  0.00     0.002 A 
ATOM     72  C   UNL A   1      49.100  28.797  29.266  1.00  0.00     0.091 A 
ATOM     73  F   UNL A   1      47.213  28.885  30.726  1.00  0.00    -0.205 F 
ATOM     74  C   UNL A   1      49.642  29.002  27.988  1.00  0.00     0.022 A 
BRANCH  72  75
ATOM     75  S   UNL A   1      50.213  28.163  30.528  1.00  0.00     0.127 S 
ATOM     76  O   UNL A   1      49.423  27.072  31.097  1.00  0.00    -0.237 OA
ATOM     77  O   UNL A   1      51.364  27.733  29.734  1.00  0.00    -0.237 OA
ATOM     78  O   UNL A   1      50.478  29.279  31.425  1.00  0.00    -0.744 OA
ENDBRANCH  72  75
ENDBRANCH  54  68
BRANCH  55  79
ATOM     79  C   UNL A   1      37.474  31.957  30.589  1.00  0.00     0.023 A 
ATOM     80  C   UNL A   1      36.998  31.699  31.889  1.00  0.00     0.012 A 
ATOM     81  C   UNL A   1      36.616  32.561  29.649  1.00  0.00     0.148 A 
ATOM     82  C   UNL A   1      35.682  32.007  32.239  1.00  0.00     0.002 A 
ATOM     83  C   UNL A   1      35.325  32.917  30.021  1.00  0.00     0.091 A 
ATOM     84  F   UNL A   1      37.084  32.787  28.415  1.00  0.00    -0.205 F 
ATOM     85  C   UNL A   1      34.850  32.625  31.310  1.00  0.00     0.022 A 
BRANCH  83  86
ATOM     86  S   UNL A   1      34.234  33.840  28.933  1.00  0.00     0.127 S 
ATOM     87  O   UNL A   1      33.219  34.322  29.864  1.00  0.00    -0.237 OA
ATOM     88  O   UNL A   1      35.130  34.872  28.407  1.00  0.00    -0.237 OA
ATOM     89  O   UNL A   1      33.778  32.881  27.934  1.00  0.00    -0.744 OA
ENDBRANCH  83  86
ENDBRANCH  55  79
BRANCH  67  90
ATOM     90  C   UNL A   1      43.415  35.621  30.547  1.00  0.00     0.023 A 
ATOM     91  C   UNL A   1      43.843  35.959  31.847  1.00  0.00     0.012 A 
ATOM     92  C   UNL A   1      43.339  36.625  29.561  1.00  0.00     0.148 A 
ATOM     93  C   UNL A   1      44.152  37.279  32.171  1.00  0.00     0.002 A 
ATOM     94  C   UNL A   1      43.695  37.930  29.880  1.00  0.00     0.091 A 
ATOM     95  F   UNL A   1      42.909  36.289  28.336  1.00  0.00    -0.205 F 
ATOM     96  C   UNL A   1      44.088  38.261  31.186  1.00  0.00     0.022 A 
BRANCH  94  97
ATOM     97  S   UNL A   1      43.732  39.237  28.647  1.00  0.00     0.127 S 
ATOM     98  O   UNL A   1      42.317  39.365  28.305  1.00  0.00    -0.237 OA
ATOM     99  O   UNL A   1      44.282  40.364  29.402  1.00  0.00    -0.237 OA
ATOM    100  O   UNL A   1      44.598  38.751  27.581  1.00  0.00    -0.744 OA
ENDBRANCH  94  97
ENDBRANCH  67  90
ENDBRANCH  41  42
ENDBRANCH  33  36
ENDBRANCH  31  32
ENDBRANCH  30  31
ENDBRANCH   1  30
TORSDOF 20
ENDMDL
