MODEL 1
REMARK VINA RESULT:     -12.1      0.000      0.000
REMARK SMILES O=C(NCCCCCCNC(=O)[C@@H]1CN(C(=O)[C@H]2CC=CCC2)c2ccccc2O1)c1ccc(-c2c3nc(c(-c4cccc(S(=O)(=O)[O-])c4F)c4ccc([nH]4)c(-c4cccc(S(=O)(=O)[O-])c4F)c4nc(c(-c5cccc(S(=O)(=O)[O-])c5F)c5ccc2[nH]5)C=C4)C=C3)cc1
REMARK SMILES IDX 6 1 5 2 4 3 3 4 1 5 2 6 31 8 32 9 93 10 33 11 92 12 34 13
REMARK SMILES IDX 35 14 36 15 86 16 37 17 91 18 85 19 87 20 38 21 90 22 84 23
REMARK SMILES IDX 83 24 39 26 71 27 51 28 70 29 52 30 55 31 69 32 88 33 53 34
REMARK SMILES IDX 54 35 68 37 89 38 56 39 40 40 41 41 49 42 42 43 44 44 50 45
REMARK SMILES IDX 43 46 45 47 46 48 47 49 48 50 72 51 73 52 81 53 74 54 76 55
REMARK SMILES IDX 82 56 75 57 77 58 78 59 79 60 80 61 57 62 58 63 66 64 59 65
REMARK SMILES IDX 61 66 67 67 60 68 62 69 63 70 64 71 65 72 7 73 8 74 9 75
REMARK SMILES IDX 10 76 11 77 12 79 13 80 14 81 30 82 15 83 29 84 24 85 28 86
REMARK SMILES IDX 25 87 27 88 26 89 16 90 17 91 18 92 19 93 23 94 20 95 22 96
REMARK SMILES IDX 21 97
REMARK H PARENT 3 7 87 25 55 36 10 78
REMARK Flexibility Score: inf
ROOT
ATOM      1  C   UNL A   1      34.999  22.436  24.476  1.00  0.00     0.002 C 
ENDROOT
BRANCH   1   2
ATOM      2  C   UNL A   1      35.499  23.148  25.730  1.00  0.00     0.021 C 
BRANCH   2   3
ATOM      3  C   UNL A   1      36.935  23.634  25.635  1.00  0.00     0.116 C 
BRANCH   3   4
ATOM      4  N   UNL A   1      37.883  22.588  25.968  1.00  0.00    -0.352 N 
ATOM      5  O   UNL A   1      39.916  21.784  26.518  1.00  0.00    -0.269 OA
ATOM      6  C   UNL A   1      39.152  22.734  26.474  1.00  0.00     0.251 C 
ATOM      7  H   UNL A   1      37.581  21.664  25.813  1.00  0.00     0.163 HD
BRANCH   6   8
ATOM      8  C   UNL A   1      39.568  24.074  26.942  1.00  0.00     0.039 A 
ATOM      9  C   UNL A   1      39.356  24.447  28.274  1.00  0.00     0.014 A 
ATOM     10  C   UNL A   1      40.144  24.964  26.037  1.00  0.00     0.014 A 
ATOM     11  C   UNL A   1      39.621  25.749  28.675  1.00  0.00     0.010 A 
ATOM     12  C   UNL A   1      40.496  26.244  26.466  1.00  0.00     0.010 A 
ATOM     13  C   UNL A   1      40.231  26.648  27.785  1.00  0.00    -0.014 A 
BRANCH  13  14
ATOM     14  C   UNL A   1      40.716  27.952  28.292  1.00  0.00     0.031 A 
ATOM     15  C   UNL A   1      42.178  28.235  28.468  1.00  0.00     0.074 A 
ATOM     16  C   UNL A   1      39.792  28.870  28.646  1.00  0.00     0.049 A 
ATOM     17  N   UNL A   1      42.751  29.309  28.945  1.00  0.00    -0.248 NA
ATOM     18  C   UNL A   1      43.123  27.179  28.067  1.00  0.00     0.031 C 
ATOM     19  C   UNL A   1      38.340  28.674  28.563  1.00  0.00     0.029 A 
ATOM     20  N   UNL A   1      39.926  30.129  29.168  1.00  0.00    -0.354 N 
ATOM     21  C   UNL A   1      44.115  29.045  28.951  1.00  0.00     0.074 A 
ATOM     22  C   UNL A   1      44.288  27.711  28.417  1.00  0.00     0.031 C 
ATOM     23  C   UNL A   1      37.720  29.772  29.016  1.00  0.00     0.029 A 
ATOM     24  C   UNL A   1      38.723  30.719  29.482  1.00  0.00     0.049 A 
ATOM     25  H   UNL A   1      40.796  30.570  29.303  1.00  0.00     0.167 HD
ATOM     26  C   UNL A   1      45.124  29.849  29.363  1.00  0.00     0.034 A 
ATOM     27  C   UNL A   1      38.453  31.874  30.118  1.00  0.00     0.034 A 
ATOM     28  C   UNL A   1      44.936  31.186  29.862  1.00  0.00     0.049 A 
ATOM     29  C   UNL A   1      39.596  32.739  30.555  1.00  0.00     0.074 A 
ATOM     30  C   UNL A   1      45.901  32.117  30.205  1.00  0.00     0.029 A 
ATOM     31  N   UNL A   1      43.706  31.772  30.118  1.00  0.00    -0.354 N 
ATOM     32  N   UNL A   1      40.883  32.545  30.396  1.00  0.00    -0.248 NA
ATOM     33  C   UNL A   1      39.256  33.993  31.240  1.00  0.00     0.031 C 
ATOM     34  C   UNL A   1      45.255  33.251  30.707  1.00  0.00     0.029 A 
ATOM     35  C   UNL A   1      43.887  33.041  30.646  1.00  0.00     0.049 A 
ATOM     36  H   UNL A   1      42.833  31.350  29.950  1.00  0.00     0.167 HD
ATOM     37  C   UNL A   1      41.504  33.660  30.942  1.00  0.00     0.074 A 
ATOM     38  C   UNL A   1      40.452  34.540  31.408  1.00  0.00     0.031 C 
ATOM     39  C   UNL A   1      42.828  33.921  31.066  1.00  0.00     0.034 A 
BRANCH  26  40
ATOM     40  C   UNL A   1      46.534  29.326  29.282  1.00  0.00     0.023 A 
ATOM     41  C   UNL A   1      47.066  28.573  30.348  1.00  0.00     0.012 A 
ATOM     42  C   UNL A   1      47.291  29.488  28.104  1.00  0.00     0.148 A 
ATOM     43  C   UNL A   1      48.337  28.006  30.250  1.00  0.00     0.002 A 
ATOM     44  C   UNL A   1      48.538  28.885  27.998  1.00  0.00     0.091 A 
ATOM     45  F   UNL A   1      46.772  30.222  27.109  1.00  0.00    -0.205 F 
ATOM     46  C   UNL A   1      49.066  28.151  29.072  1.00  0.00     0.022 A 
BRANCH  44  47
ATOM     47  S   UNL A   1      49.521  28.946  26.496  1.00  0.00     0.127 S 
ATOM     48  O   UNL A   1      48.571  28.449  25.502  1.00  0.00    -0.237 OA
ATOM     49  O   UNL A   1      49.826  30.373  26.386  1.00  0.00    -0.237 OA
ATOM     50  O   UNL A   1      50.677  28.093  26.734  1.00  0.00    -0.744 OA
ENDBRANCH  44  47
ENDBRANCH  26  40
BRANCH  27  51
ATOM     51  C   UNL A   1      37.040  32.266  30.372  1.00  0.00     0.023 A 
ATOM     52  C   UNL A   1      36.449  31.975  31.615  1.00  0.00     0.012 A 
ATOM     53  C   UNL A   1      36.290  32.956  29.398  1.00  0.00     0.148 A 
ATOM     54  C   UNL A   1      35.126  32.337  31.874  1.00  0.00     0.002 A 
ATOM     55  C   UNL A   1      34.996  33.369  29.685  1.00  0.00     0.091 A 
ATOM     56  F   UNL A   1      36.866  33.212  28.215  1.00  0.00    -0.205 F 
ATOM     57  C   UNL A   1      34.404  33.043  30.914  1.00  0.00     0.022 A 
BRANCH  55  58
ATOM     58  S   UNL A   1      34.053  34.407  28.562  1.00  0.00     0.127 S 
ATOM     59  O   UNL A   1      32.836  34.650  29.329  1.00  0.00    -0.237 OA
ATOM     60  O   UNL A   1      34.932  35.570  28.414  1.00  0.00    -0.237 OA
ATOM     61  O   UNL A   1      33.896  33.621  27.346  1.00  0.00    -0.744 OA
ENDBRANCH  55  58
ENDBRANCH  27  51
BRANCH  39  62
ATOM     62  C   UNL A   1      43.219  35.222  31.715  1.00  0.00     0.023 A 
ATOM     63  C   UNL A   1      43.333  35.296  33.117  1.00  0.00     0.012 A 
ATOM     64  C   UNL A   1      43.546  36.346  30.931  1.00  0.00     0.148 A 
ATOM     65  C   UNL A   1      43.740  36.478  33.732  1.00  0.00     0.002 A 
ATOM     66  C   UNL A   1      44.001  37.504  31.548  1.00  0.00     0.091 A 
ATOM     67  F   UNL A   1      43.413  36.257  29.600  1.00  0.00    -0.205 F 
ATOM     68  C   UNL A   1      44.086  37.576  32.949  1.00  0.00     0.022 A 
BRANCH  66  69
ATOM     69  S   UNL A   1      44.558  38.937  30.620  1.00  0.00     0.127 S 
ATOM     70  O   UNL A   1      43.314  39.397  30.005  1.00  0.00    -0.237 OA
ATOM     71  O   UNL A   1      45.076  39.806  31.677  1.00  0.00    -0.237 OA
ATOM     72  O   UNL A   1      45.566  38.448  29.688  1.00  0.00    -0.744 OA
ENDBRANCH  66  69
ENDBRANCH  39  62
ENDBRANCH  13  14
ENDBRANCH   6   8
ENDBRANCH   3   4
ENDBRANCH   2   3
ENDBRANCH   1   2
BRANCH   1  73
ATOM     73  C   UNL A   1      34.740  23.352  23.276  1.00  0.00     0.002 C 
BRANCH  73  74
ATOM     74  C   UNL A   1      33.452  23.063  22.492  1.00  0.00     0.021 C 
BRANCH  74  75
ATOM     75  C   UNL A   1      32.436  24.200  22.493  1.00  0.00     0.116 C 
BRANCH  75  76
ATOM     76  N   UNL A   1      33.114  25.461  22.646  1.00  0.00    -0.353 N 
ATOM     77  C   UNL A   1      32.851  26.464  23.515  1.00  0.00     0.262 C 
ATOM     78  H   UNL A   1      33.871  25.614  22.036  1.00  0.00     0.163 HD
ATOM     79  O   UNL A   1      33.424  27.534  23.306  1.00  0.00    -0.271 OA
BRANCH  77  80
ATOM     80  C   UNL A   1      31.827  26.256  24.643  1.00  0.00     0.281 C 
ATOM     81  C   UNL A   1      30.542  26.999  24.316  1.00  0.00     0.181 C 
ATOM     82  O   UNL A   1      32.253  26.612  25.950  1.00  0.00    -0.477 OA
ATOM     83  N   UNL A   1      30.757  28.445  24.261  1.00  0.00    -0.304 N 
ATOM     84  C   UNL A   1      32.275  27.970  26.159  1.00  0.00     0.144 A 
ATOM     85  C   UNL A   1      31.597  28.913  25.349  1.00  0.00     0.086 A 
ATOM     86  C   UNL A   1      33.051  28.359  27.255  1.00  0.00     0.049 A 
ATOM     87  C   UNL A   1      31.767  30.263  25.677  1.00  0.00     0.030 A 
ATOM     88  C   UNL A   1      33.200  29.705  27.557  1.00  0.00     0.004 A 
ATOM     89  C   UNL A   1      32.564  30.655  26.764  1.00  0.00     0.002 A 
BRANCH  83  90
ATOM     90  C   UNL A   1      30.308  29.257  23.218  1.00  0.00     0.230 C 
ATOM     91  O   UNL A   1      30.974  29.437  22.187  1.00  0.00    -0.274 OA
BRANCH  90  92
ATOM     92  C   UNL A   1      28.952  30.023  23.273  1.00  0.00     0.083 C 
ATOM     93  C   UNL A   1      28.944  31.451  23.839  1.00  0.00     0.040 C 
ATOM     94  C   UNL A   1      28.027  29.826  22.066  1.00  0.00     0.018 C 
ATOM     95  C   UNL A   1      28.645  32.544  22.849  1.00  0.00    -0.030 C 
ATOM     96  C   UNL A   1      28.036  30.944  21.025  1.00  0.00     0.028 C 
ATOM     97  C   UNL A   1      28.244  32.316  21.590  1.00  0.00    -0.031 C 
ENDBRANCH  90  92
ENDBRANCH  83  90
ENDBRANCH  77  80
ENDBRANCH  75  76
ENDBRANCH  74  75
ENDBRANCH  73  74
ENDBRANCH   1  73
TORSDOF 18
ENDMDL
MODEL 2
REMARK VINA RESULT:     -12.1      5.163      8.929
REMARK SMILES O=C(NCCCCCCNC(=O)[C@@H]1CN(C(=O)[C@H]2CC=CCC2)c2ccccc2O1)c1ccc(-c2c3nc(c(-c4cccc(S(=O)(=O)[O-])c4F)c4ccc([nH]4)c(-c4cccc(S(=O)(=O)[O-])c4F)c4nc(c(-c5cccc(S(=O)(=O)[O-])c5F)c5ccc2[nH]5)C=C4)C=C3)cc1
REMARK SMILES IDX 6 1 5 2 4 3 3 4 1 5 2 6 31 8 32 9 93 10 33 11 92 12 34 13
REMARK SMILES IDX 35 14 36 15 86 16 37 17 91 18 85 19 87 20 38 21 90 22 84 23
REMARK SMILES IDX 83 24 39 26 71 27 51 28 70 29 52 30 55 31 69 32 88 33 53 34
REMARK SMILES IDX 54 35 68 37 89 38 56 39 40 40 41 41 49 42 42 43 44 44 50 45
REMARK SMILES IDX 43 46 45 47 46 48 47 49 48 50 72 51 73 52 81 53 74 54 76 55
REMARK SMILES IDX 82 56 75 57 77 58 78 59 79 60 80 61 57 62 58 63 66 64 59 65
REMARK SMILES IDX 61 66 67 67 60 68 62 69 63 70 64 71 65 72 7 73 8 74 9 75
REMARK SMILES IDX 10 76 11 77 12 79 13 80 14 81 30 82 15 83 29 84 24 85 28 86
REMARK SMILES IDX 25 87 27 88 26 89 16 90 17 91 18 92 19 93 23 94 20 95 22 96
REMARK SMILES IDX 21 97
REMARK H PARENT 3 7 87 25 55 36 10 78
REMARK Flexibility Score: inf
ROOT
ATOM      1  C   UNL A   1      31.635  28.531  25.386  1.00  0.00     0.002 C 
ENDROOT
BRANCH   1   2
ATOM      2  C   UNL A   1      31.772  30.050  25.420  1.00  0.00     0.021 C 
BRANCH   2   3
ATOM      3  C   UNL A   1      32.315  30.594  26.730  1.00  0.00     0.116 C 
BRANCH   3   4
ATOM      4  N   UNL A   1      32.220  32.039  26.797  1.00  0.00    -0.352 N 
ATOM      5  O   UNL A   1      32.705  34.074  27.637  1.00  0.00    -0.269 OA
ATOM      6  C   UNL A   1      33.019  32.903  27.507  1.00  0.00     0.251 C 
ATOM      7  H   UNL A   1      31.496  32.450  26.271  1.00  0.00     0.163 HD
BRANCH   6   8
ATOM      8  C   UNL A   1      34.254  32.367  28.121  1.00  0.00     0.039 A 
ATOM      9  C   UNL A   1      35.388  33.177  28.231  1.00  0.00     0.014 A 
ATOM     10  C   UNL A   1      34.278  31.044  28.559  1.00  0.00     0.014 A 
ATOM     11  C   UNL A   1      36.583  32.631  28.681  1.00  0.00     0.010 A 
ATOM     12  C   UNL A   1      35.455  30.524  29.099  1.00  0.00     0.010 A 
ATOM     13  C   UNL A   1      36.617  31.311  29.157  1.00  0.00    -0.014 A 
BRANCH  13  14
ATOM     14  C   UNL A   1      37.834  30.820  29.844  1.00  0.00     0.031 A 
ATOM     15  C   UNL A   1      38.759  29.832  29.197  1.00  0.00     0.074 A 
ATOM     16  C   UNL A   1      38.059  31.250  31.103  1.00  0.00     0.049 A 
ATOM     17  N   UNL A   1      39.834  29.275  29.692  1.00  0.00    -0.248 NA
ATOM     18  C   UNL A   1      38.439  29.404  27.826  1.00  0.00     0.031 C 
ATOM     19  C   UNL A   1      37.191  32.172  31.843  1.00  0.00     0.029 A 
ATOM     20  N   UNL A   1      39.060  30.956  31.990  1.00  0.00    -0.354 N 
ATOM     21  C   UNL A   1      40.292  28.396  28.719  1.00  0.00     0.074 A 
ATOM     22  C   UNL A   1      39.385  28.501  27.596  1.00  0.00     0.031 C 
ATOM     23  C   UNL A   1      37.696  32.368  33.068  1.00  0.00     0.029 A 
ATOM     24  C   UNL A   1      38.881  31.537  33.224  1.00  0.00     0.049 A 
ATOM     25  H   UNL A   1      39.831  30.386  31.767  1.00  0.00     0.167 HD
ATOM     26  C   UNL A   1      41.373  27.582  28.765  1.00  0.00     0.034 A 
ATOM     27  C   UNL A   1      39.567  31.385  34.372  1.00  0.00     0.034 A 
ATOM     28  C   UNL A   1      42.284  27.514  29.878  1.00  0.00     0.049 A 
ATOM     29  C   UNL A   1      40.761  30.479  34.383  1.00  0.00     0.074 A 
ATOM     30  C   UNL A   1      43.465  26.800  29.977  1.00  0.00     0.029 A 
ATOM     31  N   UNL A   1      42.102  28.157  31.093  1.00  0.00    -0.354 N 
ATOM     32  N   UNL A   1      41.277  29.787  33.396  1.00  0.00    -0.248 NA
ATOM     33  C   UNL A   1      41.483  30.347  35.655  1.00  0.00     0.031 C 
ATOM     34  C   UNL A   1      43.977  26.978  31.266  1.00  0.00     0.029 A 
ATOM     35  C   UNL A   1      43.133  27.830  31.959  1.00  0.00     0.049 A 
ATOM     36  H   UNL A   1      41.352  28.757  31.307  1.00  0.00     0.167 HD
ATOM     37  C   UNL A   1      42.394  29.153  33.923  1.00  0.00     0.074 A 
ATOM     38  C   UNL A   1      42.499  29.569  35.307  1.00  0.00     0.031 C 
ATOM     39  C   UNL A   1      43.245  28.287  33.320  1.00  0.00     0.034 A 
BRANCH  26  40
ATOM     40  C   UNL A   1      41.658  26.702  27.576  1.00  0.00     0.023 A 
ATOM     41  C   UNL A   1      42.322  27.233  26.452  1.00  0.00     0.012 A 
ATOM     42  C   UNL A   1      41.365  25.324  27.619  1.00  0.00     0.148 A 
ATOM     43  C   UNL A   1      42.673  26.411  25.382  1.00  0.00     0.002 A 
ATOM     44  C   UNL A   1      41.755  24.504  26.567  1.00  0.00     0.091 A 
ATOM     45  F   UNL A   1      40.718  24.843  28.690  1.00  0.00    -0.205 F 
ATOM     46  C   UNL A   1      42.401  25.046  25.445  1.00  0.00     0.022 A 
BRANCH  44  47
ATOM     47  S   UNL A   1      41.522  22.723  26.588  1.00  0.00     0.127 S 
ATOM     48  O   UNL A   1      40.066  22.615  26.512  1.00  0.00    -0.237 OA
ATOM     49  O   UNL A   1      42.228  22.307  25.375  1.00  0.00    -0.237 OA
ATOM     50  O   UNL A   1      42.117  22.252  27.830  1.00  0.00    -0.744 OA
ENDBRANCH  44  47
ENDBRANCH  26  40
BRANCH  27  51
ATOM     51  C   UNL A   1      39.132  32.113  35.596  1.00  0.00     0.023 A 
ATOM     52  C   UNL A   1      39.404  33.487  35.723  1.00  0.00     0.012 A 
ATOM     53  C   UNL A   1      38.419  31.454  36.618  1.00  0.00     0.148 A 
ATOM     54  C   UNL A   1      39.000  34.187  36.861  1.00  0.00     0.002 A 
ATOM     55  C   UNL A   1      37.966  32.170  37.718  1.00  0.00     0.091 A 
ATOM     56  F   UNL A   1      38.182  30.141  36.485  1.00  0.00    -0.205 F 
ATOM     57  C   UNL A   1      38.273  33.532  37.852  1.00  0.00     0.022 A 
BRANCH  55  58
ATOM     58  S   UNL A   1      36.900  31.435  38.964  1.00  0.00     0.127 S 
ATOM     59  O   UNL A   1      35.732  32.309  38.910  1.00  0.00    -0.237 OA
ATOM     60  O   UNL A   1      36.689  30.089  38.426  1.00  0.00    -0.237 OA
ATOM     61  O   UNL A   1      37.667  31.469  40.201  1.00  0.00    -0.744 OA
ENDBRANCH  55  58
ENDBRANCH  27  51
BRANCH  39  62
ATOM     62  C   UNL A   1      44.379  27.743  34.147  1.00  0.00     0.023 A 
ATOM     63  C   UNL A   1      45.589  28.460  34.229  1.00  0.00     0.012 A 
ATOM     64  C   UNL A   1      44.218  26.564  34.901  1.00  0.00     0.148 A 
ATOM     65  C   UNL A   1      46.633  27.997  35.028  1.00  0.00     0.002 A 
ATOM     66  C   UNL A   1      45.244  26.137  35.735  1.00  0.00     0.091 A 
ATOM     67  F   UNL A   1      43.064  25.890  34.793  1.00  0.00    -0.205 F 
ATOM     68  C   UNL A   1      46.456  26.846  35.790  1.00  0.00     0.022 A 
BRANCH  66  69
ATOM     69  S   UNL A   1      45.075  24.720  36.824  1.00  0.00     0.127 S 
ATOM     70  O   UNL A   1      43.972  25.137  37.689  1.00  0.00    -0.237 OA
ATOM     71  O   UNL A   1      44.742  23.648  35.885  1.00  0.00    -0.237 OA
ATOM     72  O   UNL A   1      46.361  24.566  37.490  1.00  0.00    -0.744 OA
ENDBRANCH  66  69
ENDBRANCH  39  62
ENDBRANCH  13  14
ENDBRANCH   6   8
ENDBRANCH   3   4
ENDBRANCH   2   3
ENDBRANCH   1   2
BRANCH   1  73
ATOM     73  C   UNL A   1      30.869  27.981  24.178  1.00  0.00     0.002 C 
BRANCH  73  74
ATOM     74  C   UNL A   1      31.072  26.486  23.894  1.00  0.00     0.021 C 
BRANCH  74  75
ATOM     75  C   UNL A   1      32.322  25.882  24.525  1.00  0.00     0.116 C 
BRANCH  75  76
ATOM     76  N   UNL A   1      31.969  24.713  25.288  1.00  0.00    -0.353 N 
ATOM     77  C   UNL A   1      31.901  23.424  24.882  1.00  0.00     0.262 C 
ATOM     78  H   UNL A   1      31.747  24.873  26.234  1.00  0.00     0.163 HD
ATOM     79  O   UNL A   1      31.359  22.634  25.656  1.00  0.00    -0.271 OA
BRANCH  77  80
ATOM     80  C   UNL A   1      32.417  23.029  23.488  1.00  0.00     0.281 C 
ATOM     81  C   UNL A   1      32.323  21.523  23.312  1.00  0.00     0.181 C 
ATOM     82  O   UNL A   1      33.731  23.457  23.163  1.00  0.00    -0.477 OA
ATOM     83  N   UNL A   1      33.193  20.816  24.253  1.00  0.00    -0.304 N 
ATOM     84  C   UNL A   1      34.709  22.718  23.784  1.00  0.00     0.144 A 
ATOM     85  C   UNL A   1      34.497  21.444  24.365  1.00  0.00     0.086 A 
ATOM     86  C   UNL A   1      35.958  23.345  23.811  1.00  0.00     0.049 A 
ATOM     87  C   UNL A   1      35.595  20.851  25.001  1.00  0.00     0.030 A 
ATOM     88  C   UNL A   1      37.028  22.732  24.448  1.00  0.00     0.004 A 
ATOM     89  C   UNL A   1      36.844  21.491  25.047  1.00  0.00     0.002 A 
BRANCH  83  90
ATOM     90  C   UNL A   1      32.774  19.741  25.038  1.00  0.00     0.230 C 
ATOM     91  O   UNL A   1      32.657  19.828  26.269  1.00  0.00    -0.274 OA
BRANCH  90  92
ATOM     92  C   UNL A   1      32.449  18.340  24.439  1.00  0.00     0.083 C 
ATOM     93  C   UNL A   1      32.963  18.013  23.029  1.00  0.00     0.040 C 
ATOM     94  C   UNL A   1      32.528  17.163  25.419  1.00  0.00     0.018 C 
ATOM     95  C   UNL A   1      34.027  16.952  22.950  1.00  0.00    -0.030 C 
ATOM     96  C   UNL A   1      33.806  16.328  25.363  1.00  0.00     0.028 C 
ATOM     97  C   UNL A   1      34.407  16.203  23.995  1.00  0.00    -0.031 C 
ENDBRANCH  90  92
ENDBRANCH  83  90
ENDBRANCH  77  80
ENDBRANCH  75  76
ENDBRANCH  74  75
ENDBRANCH  73  74
ENDBRANCH   1  73
TORSDOF 18
ENDMDL
MODEL 3
REMARK VINA RESULT:     -12.0      2.170      7.642
REMARK SMILES O=C(NCCCCCCNC(=O)[C@@H]1CN(C(=O)[C@H]2CC=CCC2)c2ccccc2O1)c1ccc(-c2c3nc(c(-c4cccc(S(=O)(=O)[O-])c4F)c4ccc([nH]4)c(-c4cccc(S(=O)(=O)[O-])c4F)c4nc(c(-c5cccc(S(=O)(=O)[O-])c5F)c5ccc2[nH]5)C=C4)C=C3)cc1
REMARK SMILES IDX 6 1 5 2 4 3 3 4 1 5 2 6 31 8 32 9 93 10 33 11 92 12 34 13
REMARK SMILES IDX 35 14 36 15 86 16 37 17 91 18 85 19 87 20 38 21 90 22 84 23
REMARK SMILES IDX 83 24 39 26 71 27 51 28 70 29 52 30 55 31 69 32 88 33 53 34
REMARK SMILES IDX 54 35 68 37 89 38 56 39 40 40 41 41 49 42 42 43 44 44 50 45
REMARK SMILES IDX 43 46 45 47 46 48 47 49 48 50 72 51 73 52 81 53 74 54 76 55
REMARK SMILES IDX 82 56 75 57 77 58 78 59 79 60 80 61 57 62 58 63 66 64 59 65
REMARK SMILES IDX 61 66 67 67 60 68 62 69 63 70 64 71 65 72 7 73 8 74 9 75
REMARK SMILES IDX 10 76 11 77 12 79 13 80 14 81 30 82 15 83 29 84 24 85 28 86
REMARK SMILES IDX 25 87 27 88 26 89 16 90 17 91 18 92 19 93 23 94 20 95 22 96
REMARK SMILES IDX 21 97
REMARK H PARENT 3 7 87 25 55 36 10 78
REMARK Flexibility Score: inf
ROOT
ATOM      1  C   UNL A   1      36.543  22.360  23.605  1.00  0.00     0.002 C 
ENDROOT
BRANCH   1   2
ATOM      2  C   UNL A   1      36.954  21.140  24.424  1.00  0.00     0.021 C 
BRANCH   2   3
ATOM      3  C   UNL A   1      37.790  21.470  25.648  1.00  0.00     0.116 C 
BRANCH   3   4
ATOM      4  N   UNL A   1      38.746  20.422  25.949  1.00  0.00    -0.352 N 
ATOM      5  O   UNL A   1      40.801  19.608  26.393  1.00  0.00    -0.269 OA
ATOM      6  C   UNL A   1      40.046  20.565  26.373  1.00  0.00     0.251 C 
ATOM      7  H   UNL A   1      38.426  19.498  25.835  1.00  0.00     0.163 HD
BRANCH   6   8
ATOM      8  C   UNL A   1      40.502  21.911  26.782  1.00  0.00     0.039 A 
ATOM      9  C   UNL A   1      41.265  22.068  27.943  1.00  0.00     0.014 A 
ATOM     10  C   UNL A   1      40.140  23.016  26.013  1.00  0.00     0.014 A 
ATOM     11  C   UNL A   1      41.575  23.344  28.396  1.00  0.00     0.010 A 
ATOM     12  C   UNL A   1      40.533  24.292  26.421  1.00  0.00     0.010 A 
ATOM     13  C   UNL A   1      41.246  24.465  27.618  1.00  0.00    -0.014 A 
BRANCH  13  14
ATOM     14  C   UNL A   1      41.783  25.792  27.997  1.00  0.00     0.031 A 
ATOM     15  C   UNL A   1      40.934  26.817  28.689  1.00  0.00     0.074 A 
ATOM     16  C   UNL A   1      43.056  26.075  27.651  1.00  0.00     0.049 A 
ATOM     17  N   UNL A   1      41.249  28.037  29.040  1.00  0.00    -0.248 NA
ATOM     18  C   UNL A   1      39.553  26.434  29.025  1.00  0.00     0.031 C 
ATOM     19  C   UNL A   1      43.952  25.165  26.929  1.00  0.00     0.029 A 
ATOM     20  N   UNL A   1      43.809  27.206  27.831  1.00  0.00    -0.354 N 
ATOM     21  C   UNL A   1      40.098  28.586  29.590  1.00  0.00     0.074 A 
ATOM     22  C   UNL A   1      39.077  27.563  29.540  1.00  0.00     0.031 C 
ATOM     23  C   UNL A   1      45.129  25.771  26.728  1.00  0.00     0.029 A 
ATOM     24  C   UNL A   1      45.051  27.130  27.245  1.00  0.00     0.049 A 
ATOM     25  H   UNL A   1      43.493  27.993  28.330  1.00  0.00     0.167 HD
ATOM     26  C   UNL A   1      39.920  29.831  30.093  1.00  0.00     0.034 A 
ATOM     27  C   UNL A   1      46.009  28.065  27.096  1.00  0.00     0.034 A 
ATOM     28  C   UNL A   1      40.957  30.827  30.165  1.00  0.00     0.049 A 
ATOM     29  C   UNL A   1      45.777  29.430  27.670  1.00  0.00     0.074 A 
ATOM     30  C   UNL A   1      40.904  32.079  30.751  1.00  0.00     0.029 A 
ATOM     31  N   UNL A   1      42.221  30.699  29.609  1.00  0.00    -0.354 N 
ATOM     32  N   UNL A   1      44.741  29.876  28.339  1.00  0.00    -0.248 NA
ATOM     33  C   UNL A   1      46.849  30.417  27.490  1.00  0.00     0.031 C 
ATOM     34  C   UNL A   1      42.122  32.725  30.515  1.00  0.00     0.029 A 
ATOM     35  C   UNL A   1      42.946  31.863  29.810  1.00  0.00     0.049 A 
ATOM     36  H   UNL A   1      42.554  29.899  29.141  1.00  0.00     0.167 HD
ATOM     37  C   UNL A   1      45.045  31.187  28.677  1.00  0.00     0.074 A 
ATOM     38  C   UNL A   1      46.375  31.454  28.166  1.00  0.00     0.031 C 
ATOM     39  C   UNL A   1      44.283  32.097  29.332  1.00  0.00     0.034 A 
BRANCH  26  40
ATOM     40  C   UNL A   1      38.561  30.199  30.627  1.00  0.00     0.023 A 
ATOM     41  C   UNL A   1      38.246  29.953  31.978  1.00  0.00     0.012 A 
ATOM     42  C   UNL A   1      37.637  30.890  29.816  1.00  0.00     0.148 A 
ATOM     43  C   UNL A   1      37.026  30.370  32.510  1.00  0.00     0.002 A 
ATOM     44  C   UNL A   1      36.441  31.338  30.364  1.00  0.00     0.091 A 
ATOM     45  F   UNL A   1      37.949  31.099  28.530  1.00  0.00    -0.205 F 
ATOM     46  C   UNL A   1      36.130  31.073  31.707  1.00  0.00     0.022 A 
BRANCH  44  47
ATOM     47  S   UNL A   1      35.256  32.320  29.436  1.00  0.00     0.127 S 
ATOM     48  O   UNL A   1      36.119  33.346  28.852  1.00  0.00    -0.237 OA
ATOM     49  O   UNL A   1      34.734  31.346  28.478  1.00  0.00    -0.237 OA
ATOM     50  O   UNL A   1      34.284  32.803  30.406  1.00  0.00    -0.744 OA
ENDBRANCH  44  47
ENDBRANCH  26  40
BRANCH  27  51
ATOM     51  C   UNL A   1      47.266  27.728  26.373  1.00  0.00     0.023 A 
ATOM     52  C   UNL A   1      48.356  27.193  27.084  1.00  0.00     0.012 A 
ATOM     53  C   UNL A   1      47.372  27.905  24.979  1.00  0.00     0.148 A 
ATOM     54  C   UNL A   1      49.541  26.868  26.423  1.00  0.00     0.002 A 
ATOM     55  C   UNL A   1      48.532  27.520  24.319  1.00  0.00     0.091 A 
ATOM     56  F   UNL A   1      46.328  28.429  24.322  1.00  0.00    -0.205 F 
ATOM     57  C   UNL A   1      49.625  27.020  25.041  1.00  0.00     0.022 A 
BRANCH  55  58
ATOM     58  S   UNL A   1      48.666  27.548  22.528  1.00  0.00     0.127 S 
ATOM     59  O   UNL A   1      49.941  28.231  22.334  1.00  0.00    -0.237 OA
ATOM     60  O   UNL A   1      48.675  26.120  22.202  1.00  0.00    -0.237 OA
ATOM     61  O   UNL A   1      47.483  28.258  22.060  1.00  0.00    -0.744 OA
ENDBRANCH  55  58
ENDBRANCH  27  51
BRANCH  39  62
ATOM     62  C   UNL A   1      44.875  33.463  29.555  1.00  0.00     0.023 A 
ATOM     63  C   UNL A   1      45.591  33.729  30.739  1.00  0.00     0.012 A 
ATOM     64  C   UNL A   1      44.786  34.456  28.560  1.00  0.00     0.148 A 
ATOM     65  C   UNL A   1      46.187  34.973  30.941  1.00  0.00     0.002 A 
ATOM     66  C   UNL A   1      45.426  35.674  28.745  1.00  0.00     0.091 A 
ATOM     67  F   UNL A   1      44.084  34.185  27.449  1.00  0.00    -0.205 F 
ATOM     68  C   UNL A   1      46.116  35.939  29.941  1.00  0.00     0.022 A 
BRANCH  66  69
ATOM     69  S   UNL A   1      45.470  36.944  27.477  1.00  0.00     0.127 S 
ATOM     70  O   UNL A   1      44.062  37.331  27.393  1.00  0.00    -0.237 OA
ATOM     71  O   UNL A   1      46.345  37.951  28.080  1.00  0.00    -0.237 OA
ATOM     72  O   UNL A   1      46.010  36.306  26.284  1.00  0.00    -0.744 OA
ENDBRANCH  66  69
ENDBRANCH  39  62
ENDBRANCH  13  14
ENDBRANCH   6   8
ENDBRANCH   3   4
ENDBRANCH   2   3
ENDBRANCH   1   2
BRANCH   1  73
ATOM     73  C   UNL A   1      35.363  23.151  24.176  1.00  0.00     0.002 C 
BRANCH  73  74
ATOM     74  C   UNL A   1      33.999  22.858  23.534  1.00  0.00     0.021 C 
BRANCH  74  75
ATOM     75  C   UNL A   1      32.871  23.780  23.984  1.00  0.00     0.116 C 
BRANCH  75  76
ATOM     76  N   UNL A   1      32.592  24.749  22.957  1.00  0.00    -0.353 N 
ATOM     77  C   UNL A   1      31.490  25.517  22.793  1.00  0.00     0.262 C 
ATOM     78  H   UNL A   1      33.298  24.870  22.282  1.00  0.00     0.163 HD
ATOM     79  O   UNL A   1      31.387  26.105  21.716  1.00  0.00    -0.271 OA
BRANCH  77  80
ATOM     80  C   UNL A   1      30.413  25.560  23.890  1.00  0.00     0.281 C 
ATOM     81  C   UNL A   1      29.360  26.597  23.538  1.00  0.00     0.181 C 
ATOM     82  O   UNL A   1      30.876  25.795  25.212  1.00  0.00    -0.477 OA
ATOM     83  N   UNL A   1      29.923  27.946  23.505  1.00  0.00    -0.304 N 
ATOM     84  C   UNL A   1      31.223  27.105  25.438  1.00  0.00     0.144 A 
ATOM     85  C   UNL A   1      30.820  28.189  24.620  1.00  0.00     0.086 A 
ATOM     86  C   UNL A   1      32.039  27.287  26.559  1.00  0.00     0.049 A 
ATOM     87  C   UNL A   1      31.306  29.455  24.968  1.00  0.00     0.030 A 
ATOM     88  C   UNL A   1      32.504  28.555  26.880  1.00  0.00     0.004 A 
ATOM     89  C   UNL A   1      32.143  29.635  26.081  1.00  0.00     0.002 A 
BRANCH  83  90
ATOM     90  C   UNL A   1      29.717  28.848  22.459  1.00  0.00     0.230 C 
ATOM     91  O   UNL A   1      30.604  29.120  21.636  1.00  0.00    -0.274 OA
BRANCH  90  92
ATOM     92  C   UNL A   1      28.370  29.606  22.257  1.00  0.00     0.083 C 
ATOM     93  C   UNL A   1      27.555  29.988  23.501  1.00  0.00     0.040 C 
ATOM     94  C   UNL A   1      28.367  30.675  21.158  1.00  0.00     0.018 C 
ATOM     95  C   UNL A   1      27.458  31.462  23.792  1.00  0.00    -0.030 C 
ATOM     96  C   UNL A   1      28.525  32.120  21.627  1.00  0.00     0.028 C 
ATOM     97  C   UNL A   1      27.897  32.414  22.956  1.00  0.00    -0.031 C 
ENDBRANCH  90  92
ENDBRANCH  83  90
ENDBRANCH  77  80
ENDBRANCH  75  76
ENDBRANCH  74  75
ENDBRANCH  73  74
ENDBRANCH   1  73
TORSDOF 18
ENDMDL
