MODEL 1
REMARK VINA RESULT:     -12.5      0.000      0.000
REMARK SMILES Cc1ccc(NC(=O)C[C@@H](C(=O)NCCCCCCNC(=O)c2ccc(-c3c4nc(c(-c5cccc(S(=O)(=O)[O-])c5F)c5ccc([nH]5)c(-c5cccc(S(=O)(=O)[O-])c5F)c5nc(c(-c6cccc(S(=O)(=O)[O-])c6F)c6ccc3[nH]6)C=C5)C=C4)cc2)[C@@H](C)c2ccccc2)cc1Br
REMARK SMILES IDX 16 1 15 2 14 3 13 4 11 5 12 6 10 8 9 9 7 10 6 11 8 13 5 14
REMARK SMILES IDX 1 15 2 16 3 17 95 18 4 19 94 20 96 21 86 22 87 23 88 24
REMARK SMILES IDX 89 25 93 26 90 27 92 28 91 29 17 30 18 31 19 32 20 33 21 34
REMARK SMILES IDX 22 36 23 37 24 38 85 39 25 40 84 41 26 42 27 43 28 44 78 45
REMARK SMILES IDX 29 46 83 47 77 48 79 49 30 50 82 51 76 52 75 53 31 55 63 56
REMARK SMILES IDX 43 57 62 58 44 59 47 60 61 61 80 62 45 63 46 64 60 66 81 67
REMARK SMILES IDX 48 68 32 69 33 70 41 71 34 72 36 73 42 74 35 75 37 76 38 77
REMARK SMILES IDX 39 78 40 79 64 80 65 81 73 82 66 83 68 84 74 85 67 86 69 87
REMARK SMILES IDX 70 88 71 89 72 90 49 91 50 92 58 93 51 94 53 95 59 96 52 97
REMARK SMILES IDX 54 98 55 99 56 100 57 101
REMARK H PARENT 13 7 6 12 20 35 79 54 47 65
REMARK Flexibility Score: inf
ROOT
ATOM      1  C   UNL A   1      33.385  30.069  26.523  1.00  0.00     0.002 C 
ENDROOT
BRANCH   1   2
ATOM      2  C   UNL A   1      33.871  28.720  27.081  1.00  0.00     0.021 C 
BRANCH   2   3
ATOM      3  C   UNL A   1      33.820  27.530  26.115  1.00  0.00     0.116 C 
BRANCH   3   4
ATOM      4  N   UNL A   1      32.609  26.760  26.306  1.00  0.00    -0.356 N 
ATOM      5  C   UNL A   1      31.491  26.558  25.572  1.00  0.00     0.224 C 
ATOM      6  O   UNL A   1      30.593  25.975  26.180  1.00  0.00    -0.275 OA
ATOM      7  H   UNL A   1      32.597  26.274  27.163  1.00  0.00     0.163 HD
BRANCH   5   8
ATOM      8  C   UNL A   1      31.361  26.989  24.108  1.00  0.00     0.095 C 
BRANCH   8   9
ATOM      9  C   UNL A   1      32.416  26.396  23.132  1.00  0.00     0.114 C 
BRANCH   9  10
ATOM     10  C   UNL A   1      32.078  25.593  21.901  1.00  0.00     0.225 C 
ATOM     11  N   UNL A   1      32.457  24.301  21.702  1.00  0.00    -0.326 N 
ATOM     12  H   UNL A   1      32.303  23.968  20.790  1.00  0.00     0.169 HD
ATOM     13  O   UNL A   1      31.425  26.130  20.997  1.00  0.00    -0.275 OA
BRANCH  11  14
ATOM     14  C   UNL A   1      33.028  23.364  22.569  1.00  0.00     0.042 A 
ATOM     15  C   UNL A   1      34.275  20.886  25.859  1.00  0.00     0.045 C 
ATOM     16  C   UNL A   1      33.895  21.662  24.631  1.00  0.00    -0.037 A 
ATOM     17  C   UNL A   1      32.567  21.624  24.189  1.00  0.00     0.007 A 
ATOM     18  C   UNL A   1      34.805  22.480  23.942  1.00  0.00     0.022 A 
ATOM     19  C   UNL A   1      32.148  22.440  23.140  1.00  0.00     0.026 A 
ATOM     20  C   UNL A   1      34.371  23.339  22.923  1.00  0.00     0.042 A 
ATOM     21  Br  UNL A   1      36.658  22.498  24.371  1.00  0.00    -0.050 Br
ENDBRANCH  11  14
ENDBRANCH   9  10
ENDBRANCH   8   9
BRANCH   8  22
ATOM     22  C   UNL A   1      31.375  28.566  23.895  1.00  0.00     0.029 C 
ATOM     23  C   UNL A   1      32.488  28.970  22.893  1.00  0.00     0.013 C 
BRANCH  22  24
ATOM     24  C   UNL A   1      30.068  29.279  23.531  1.00  0.00    -0.044 A 
ATOM     25  C   UNL A   1      29.777  30.601  23.898  1.00  0.00     0.004 A 
ATOM     26  C   UNL A   1      29.046  28.551  22.895  1.00  0.00     0.004 A 
ATOM     27  C   UNL A   1      28.521  31.163  23.635  1.00  0.00     0.000 A 
ATOM     28  C   UNL A   1      27.809  29.122  22.588  1.00  0.00     0.000 A 
ATOM     29  C   UNL A   1      27.543  30.429  22.967  1.00  0.00     0.000 A 
ENDBRANCH  22  24
ENDBRANCH   8  22
ENDBRANCH   5   8
ENDBRANCH   3   4
ENDBRANCH   2   3
ENDBRANCH   1   2
BRANCH   1  30
ATOM     30  C   UNL A   1      31.918  30.388  26.790  1.00  0.00     0.002 C 
BRANCH  30  31
ATOM     31  C   UNL A   1      31.644  31.847  27.149  1.00  0.00     0.021 C 
BRANCH  31  32
ATOM     32  C   UNL A   1      32.891  32.677  27.438  1.00  0.00     0.116 C 
BRANCH  32  33
ATOM     33  N   UNL A   1      32.581  34.082  27.653  1.00  0.00    -0.352 N 
ATOM     34  C   UNL A   1      33.099  34.924  28.606  1.00  0.00     0.251 C 
ATOM     35  H   UNL A   1      31.920  34.478  27.039  1.00  0.00     0.163 HD
ATOM     36  O   UNL A   1      32.615  36.037  28.796  1.00  0.00    -0.269 OA
BRANCH  34  37
ATOM     37  C   UNL A   1      34.239  34.452  29.417  1.00  0.00     0.039 A 
ATOM     38  C   UNL A   1      33.994  33.845  30.648  1.00  0.00     0.014 A 
ATOM     39  C   UNL A   1      35.539  34.546  28.912  1.00  0.00     0.014 A 
ATOM     40  C   UNL A   1      35.057  33.280  31.354  1.00  0.00     0.010 A 
ATOM     41  C   UNL A   1      36.580  33.908  29.577  1.00  0.00     0.010 A 
ATOM     42  C   UNL A   1      36.353  33.279  30.810  1.00  0.00    -0.014 A 
BRANCH  42  43
ATOM     43  C   UNL A   1      37.484  32.630  31.521  1.00  0.00     0.031 A 
ATOM     44  C   UNL A   1      38.205  31.472  30.885  1.00  0.00     0.074 A 
ATOM     45  C   UNL A   1      37.815  33.032  32.764  1.00  0.00     0.049 A 
ATOM     46  N   UNL A   1      39.193  30.757  31.358  1.00  0.00    -0.248 NA
ATOM     47  C   UNL A   1      37.738  31.042  29.557  1.00  0.00     0.031 C 
ATOM     48  C   UNL A   1      37.137  34.088  33.520  1.00  0.00     0.029 A 
ATOM     49  N   UNL A   1      38.789  32.585  33.621  1.00  0.00    -0.354 N 
ATOM     50  C   UNL A   1      39.440  29.775  30.406  1.00  0.00     0.074 A 
ATOM     51  C   UNL A   1      38.473  29.959  29.346  1.00  0.00     0.031 C 
ATOM     52  C   UNL A   1      37.724  34.213  34.722  1.00  0.00     0.029 A 
ATOM     53  C   UNL A   1      38.795  33.229  34.836  1.00  0.00     0.049 A 
ATOM     54  H   UNL A   1      39.425  31.871  33.388  1.00  0.00     0.167 HD
ATOM     55  C   UNL A   1      40.405  28.826  30.396  1.00  0.00     0.034 A 
ATOM     56  C   UNL A   1      39.572  33.044  35.922  1.00  0.00     0.034 A 
ATOM     57  C   UNL A   1      41.388  28.670  31.433  1.00  0.00     0.049 A 
ATOM     58  C   UNL A   1      40.659  32.005  35.871  1.00  0.00     0.074 A 
ATOM     59  C   UNL A   1      42.462  27.799  31.475  1.00  0.00     0.029 A 
ATOM     60  N   UNL A   1      41.410  29.393  32.615  1.00  0.00    -0.354 N 
ATOM     61  N   UNL A   1      40.983  31.196  34.892  1.00  0.00    -0.248 NA
ATOM     62  C   UNL A   1      41.513  31.877  37.062  1.00  0.00     0.031 C 
ATOM     63  C   UNL A   1      43.115  27.973  32.700  1.00  0.00     0.029 A 
ATOM     64  C   UNL A   1      42.471  28.979  33.403  1.00  0.00     0.049 A 
ATOM     65  H   UNL A   1      40.767  30.096  32.859  1.00  0.00     0.167 HD
ATOM     66  C   UNL A   1      42.097  30.489  35.332  1.00  0.00     0.074 A 
ATOM     67  C   UNL A   1      42.405  30.982  36.658  1.00  0.00     0.031 C 
ATOM     68  C   UNL A   1      42.793  29.511  34.702  1.00  0.00     0.034 A 
BRANCH  55  69
ATOM     69  C   UNL A   1      40.471  27.909  29.201  1.00  0.00     0.023 A 
ATOM     70  C   UNL A   1      39.577  26.822  29.104  1.00  0.00     0.012 A 
ATOM     71  C   UNL A   1      41.379  28.151  28.152  1.00  0.00     0.148 A 
ATOM     72  C   UNL A   1      39.613  25.966  28.004  1.00  0.00     0.002 A 
ATOM     73  C   UNL A   1      41.375  27.324  27.035  1.00  0.00     0.091 A 
ATOM     74  F   UNL A   1      42.234  29.176  28.270  1.00  0.00    -0.205 F 
ATOM     75  C   UNL A   1      40.503  26.224  26.965  1.00  0.00     0.022 A 
BRANCH  73  76
ATOM     76  S   UNL A   1      42.425  27.617  25.608  1.00  0.00     0.127 S 
ATOM     77  O   UNL A   1      41.924  28.906  25.133  1.00  0.00    -0.237 OA
ATOM     78  O   UNL A   1      43.757  27.666  26.212  1.00  0.00    -0.237 OA
ATOM     79  O   UNL A   1      42.205  26.493  24.709  1.00  0.00    -0.744 OA
ENDBRANCH  73  76
ENDBRANCH  55  69
BRANCH  56  80
ATOM     80  C   UNL A   1      39.389  33.902  37.127  1.00  0.00     0.023 A 
ATOM     81  C   UNL A   1      39.805  35.247  37.091  1.00  0.00     0.012 A 
ATOM     82  C   UNL A   1      38.786  33.401  38.297  1.00  0.00     0.148 A 
ATOM     83  C   UNL A   1      39.657  36.069  38.209  1.00  0.00     0.002 A 
ATOM     84  C   UNL A   1      38.590  34.241  39.387  1.00  0.00     0.091 A 
ATOM     85  F   UNL A   1      38.406  32.117  38.315  1.00  0.00    -0.205 F 
ATOM     86  C   UNL A   1      39.042  35.569  39.353  1.00  0.00     0.022 A 
BRANCH  84  87
ATOM     87  S   UNL A   1      37.690  33.722  40.853  1.00  0.00     0.127 S 
ATOM     88  O   UNL A   1      38.600  32.736  41.430  1.00  0.00    -0.237 OA
ATOM     89  O   UNL A   1      37.585  34.976  41.601  1.00  0.00    -0.237 OA
ATOM     90  O   UNL A   1      36.417  33.202  40.371  1.00  0.00    -0.744 OA
ENDBRANCH  84  87
ENDBRANCH  56  80
BRANCH  68  91
ATOM     91  C   UNL A   1      43.985  28.930  35.416  1.00  0.00     0.023 A 
ATOM     92  C   UNL A   1      45.259  29.509  35.248  1.00  0.00     0.012 A 
ATOM     93  C   UNL A   1      43.827  27.855  36.313  1.00  0.00     0.148 A 
ATOM     94  C   UNL A   1      46.363  29.005  35.935  1.00  0.00     0.002 A 
ATOM     95  C   UNL A   1      44.921  27.392  37.034  1.00  0.00     0.091 A 
ATOM     96  F   UNL A   1      42.611  27.307  36.447  1.00  0.00    -0.205 F 
ATOM     97  C   UNL A   1      46.192  27.956  36.836  1.00  0.00     0.022 A 
BRANCH  95  98
ATOM     98  S   UNL A   1      44.779  26.115  38.289  1.00  0.00     0.127 S 
ATOM     99  O   UNL A   1      46.172  25.943  38.699  1.00  0.00    -0.237 OA
ATOM    100  O   UNL A   1      43.923  26.756  39.288  1.00  0.00    -0.237 OA
ATOM    101  O   UNL A   1      44.177  24.965  37.627  1.00  0.00    -0.744 OA
ENDBRANCH  95  98
ENDBRANCH  68  91
ENDBRANCH  42  43
ENDBRANCH  34  37
ENDBRANCH  32  33
ENDBRANCH  31  32
ENDBRANCH  30  31
ENDBRANCH   1  30
TORSDOF 21
ENDMDL
MODEL 2
REMARK VINA RESULT:     -12.1      1.527      7.508
REMARK SMILES Cc1ccc(NC(=O)C[C@@H](C(=O)NCCCCCCNC(=O)c2ccc(-c3c4nc(c(-c5cccc(S(=O)(=O)[O-])c5F)c5ccc([nH]5)c(-c5cccc(S(=O)(=O)[O-])c5F)c5nc(c(-c6cccc(S(=O)(=O)[O-])c6F)c6ccc3[nH]6)C=C5)C=C4)cc2)[C@@H](C)c2ccccc2)cc1Br
REMARK SMILES IDX 16 1 15 2 14 3 13 4 11 5 12 6 10 8 9 9 7 10 6 11 8 13 5 14
REMARK SMILES IDX 1 15 2 16 3 17 95 18 4 19 94 20 96 21 86 22 87 23 88 24
REMARK SMILES IDX 89 25 93 26 90 27 92 28 91 29 17 30 18 31 19 32 20 33 21 34
REMARK SMILES IDX 22 36 23 37 24 38 85 39 25 40 84 41 26 42 27 43 28 44 78 45
REMARK SMILES IDX 29 46 83 47 77 48 79 49 30 50 82 51 76 52 75 53 31 55 63 56
REMARK SMILES IDX 43 57 62 58 44 59 47 60 61 61 80 62 45 63 46 64 60 66 81 67
REMARK SMILES IDX 48 68 32 69 33 70 41 71 34 72 36 73 42 74 35 75 37 76 38 77
REMARK SMILES IDX 39 78 40 79 64 80 65 81 73 82 66 83 68 84 74 85 67 86 69 87
REMARK SMILES IDX 70 88 71 89 72 90 49 91 50 92 58 93 51 94 53 95 59 96 52 97
REMARK SMILES IDX 54 98 55 99 56 100 57 101
REMARK H PARENT 13 7 6 12 20 35 79 54 47 65
REMARK Flexibility Score: inf
ROOT
ATOM      1  C   UNL A   1      33.145  29.573  26.471  1.00  0.00     0.002 C 
ENDROOT
BRANCH   1   2
ATOM      2  C   UNL A   1      33.515  28.136  26.874  1.00  0.00     0.021 C 
BRANCH   2   3
ATOM      3  C   UNL A   1      33.692  27.134  25.726  1.00  0.00     0.116 C 
BRANCH   3   4
ATOM      4  N   UNL A   1      32.559  26.237  25.644  1.00  0.00    -0.356 N 
ATOM      5  C   UNL A   1      31.499  26.127  24.810  1.00  0.00     0.224 C 
ATOM      6  O   UNL A   1      30.640  25.334  25.197  1.00  0.00    -0.275 OA
ATOM      7  H   UNL A   1      32.560  25.553  26.353  1.00  0.00     0.163 HD
BRANCH   5   8
ATOM      8  C   UNL A   1      31.387  26.897  23.490  1.00  0.00     0.095 C 
BRANCH   8   9
ATOM      9  C   UNL A   1      32.499  26.609  22.444  1.00  0.00     0.114 C 
BRANCH   9  10
ATOM     10  C   UNL A   1      32.465  25.467  21.459  1.00  0.00     0.225 C 
ATOM     11  N   UNL A   1      32.922  24.214  21.725  1.00  0.00    -0.326 N 
ATOM     12  H   UNL A   1      32.982  23.627  20.938  1.00  0.00     0.169 HD
ATOM     13  O   UNL A   1      32.008  25.669  20.326  1.00  0.00    -0.275 OA
BRANCH  11  14
ATOM     14  C   UNL A   1      33.321  23.612  22.923  1.00  0.00     0.042 A 
ATOM     15  C   UNL A   1      33.871  22.238  26.963  1.00  0.00     0.045 C 
ATOM     16  C   UNL A   1      33.759  22.620  25.516  1.00  0.00    -0.037 A 
ATOM     17  C   UNL A   1      32.593  22.289  24.815  1.00  0.00     0.007 A 
ATOM     18  C   UNL A   1      34.752  23.357  24.850  1.00  0.00     0.022 A 
ATOM     19  C   UNL A   1      32.395  22.749  23.514  1.00  0.00     0.026 A 
ATOM     20  C   UNL A   1      34.529  23.863  23.561  1.00  0.00     0.042 A 
ATOM     21  Br  UNL A   1      36.429  23.738  25.661  1.00  0.00    -0.050 Br
ENDBRANCH  11  14
ENDBRANCH   9  10
ENDBRANCH   8   9
BRANCH   8  22
ATOM     22  C   UNL A   1      31.321  28.476  23.668  1.00  0.00     0.029 C 
ATOM     23  C   UNL A   1      32.438  29.164  22.841  1.00  0.00     0.013 C 
BRANCH  22  24
ATOM     24  C   UNL A   1      29.988  29.196  23.435  1.00  0.00    -0.044 A 
ATOM     25  C   UNL A   1      29.780  30.555  23.712  1.00  0.00     0.004 A 
ATOM     26  C   UNL A   1      28.868  28.447  23.029  1.00  0.00     0.004 A 
ATOM     27  C   UNL A   1      28.510  31.131  23.585  1.00  0.00     0.000 A 
ATOM     28  C   UNL A   1      27.610  29.028  22.856  1.00  0.00     0.000 A 
ATOM     29  C   UNL A   1      27.429  30.373  23.143  1.00  0.00     0.000 A 
ENDBRANCH  22  24
ENDBRANCH   8  22
ENDBRANCH   5   8
ENDBRANCH   3   4
ENDBRANCH   2   3
ENDBRANCH   1   2
BRANCH   1  30
ATOM     30  C   UNL A   1      31.851  30.103  27.080  1.00  0.00     0.002 C 
BRANCH  30  31
ATOM     31  C   UNL A   1      31.542  31.559  26.738  1.00  0.00     0.021 C 
BRANCH  31  32
ATOM     32  C   UNL A   1      32.763  32.471  26.672  1.00  0.00     0.116 C 
BRANCH  32  33
ATOM     33  N   UNL A   1      32.567  33.710  27.410  1.00  0.00    -0.352 N 
ATOM     34  C   UNL A   1      33.243  34.145  28.523  1.00  0.00     0.251 C 
ATOM     35  H   UNL A   1      31.865  34.310  27.068  1.00  0.00     0.163 HD
ATOM     36  O   UNL A   1      32.854  35.122  29.156  1.00  0.00    -0.269 OA
BRANCH  34  37
ATOM     37  C   UNL A   1      34.438  33.395  28.959  1.00  0.00     0.039 A 
ATOM     38  C   UNL A   1      35.703  33.928  28.717  1.00  0.00     0.014 A 
ATOM     39  C   UNL A   1      34.289  32.204  29.677  1.00  0.00     0.014 A 
ATOM     40  C   UNL A   1      36.826  33.289  29.244  1.00  0.00     0.010 A 
ATOM     41  C   UNL A   1      35.401  31.618  30.271  1.00  0.00     0.010 A 
ATOM     42  C   UNL A   1      36.682  32.146  30.051  1.00  0.00    -0.014 A 
BRANCH  42  43
ATOM     43  C   UNL A   1      37.862  31.489  30.668  1.00  0.00     0.031 A 
ATOM     44  C   UNL A   1      38.247  31.815  32.086  1.00  0.00     0.074 A 
ATOM     45  C   UNL A   1      38.627  30.657  29.935  1.00  0.00     0.049 A 
ATOM     46  N   UNL A   1      39.257  31.371  32.789  1.00  0.00    -0.248 NA
ATOM     47  C   UNL A   1      37.406  32.791  32.800  1.00  0.00     0.031 C 
ATOM     48  C   UNL A   1      38.405  30.326  28.526  1.00  0.00     0.029 A 
ATOM     49  N   UNL A   1      39.759  29.955  30.265  1.00  0.00    -0.354 N 
ATOM     50  C   UNL A   1      39.193  32.035  34.008  1.00  0.00     0.074 A 
ATOM     51  C   UNL A   1      38.070  32.944  33.937  1.00  0.00     0.031 C 
ATOM     52  C   UNL A   1      39.364  29.478  28.117  1.00  0.00     0.029 A 
ATOM     53  C   UNL A   1      40.285  29.230  29.221  1.00  0.00     0.049 A 
ATOM     54  H   UNL A   1      40.158  29.970  31.165  1.00  0.00     0.167 HD
ATOM     55  C   UNL A   1      39.976  31.881  35.102  1.00  0.00     0.034 A 
ATOM     56  C   UNL A   1      41.387  28.457  29.159  1.00  0.00     0.034 A 
ATOM     57  C   UNL A   1      41.067  30.948  35.182  1.00  0.00     0.049 A 
ATOM     58  C   UNL A   1      42.221  28.276  30.399  1.00  0.00     0.074 A 
ATOM     59  C   UNL A   1      41.864  30.651  36.272  1.00  0.00     0.029 A 
ATOM     60  N   UNL A   1      41.522  30.174  34.127  1.00  0.00    -0.354 N 
ATOM     61  N   UNL A   1      42.046  28.787  31.593  1.00  0.00    -0.248 NA
ATOM     62  C   UNL A   1      43.384  27.383  30.293  1.00  0.00     0.031 C 
ATOM     63  C   UNL A   1      42.824  29.718  35.867  1.00  0.00     0.029 A 
ATOM     64  C   UNL A   1      42.600  29.406  34.536  1.00  0.00     0.049 A 
ATOM     65  H   UNL A   1      41.137  30.168  33.222  1.00  0.00     0.167 HD
ATOM     66  C   UNL A   1      43.052  28.251  32.389  1.00  0.00     0.074 A 
ATOM     67  C   UNL A   1      43.820  27.358  31.546  1.00  0.00     0.031 C 
ATOM     68  C   UNL A   1      43.326  28.487  33.697  1.00  0.00     0.034 A 
BRANCH  55  69
ATOM     69  C   UNL A   1      39.649  32.710  36.317  1.00  0.00     0.023 A 
ATOM     70  C   UNL A   1      40.276  33.959  36.500  1.00  0.00     0.012 A 
ATOM     71  C   UNL A   1      38.686  32.278  37.251  1.00  0.00     0.148 A 
ATOM     72  C   UNL A   1      39.983  34.748  37.612  1.00  0.00     0.002 A 
ATOM     73  C   UNL A   1      38.362  33.092  38.330  1.00  0.00     0.091 A 
ATOM     74  F   UNL A   1      38.115  31.079  37.072  1.00  0.00    -0.205 F 
ATOM     75  C   UNL A   1      39.018  34.320  38.520  1.00  0.00     0.022 A 
BRANCH  73  76
ATOM     76  S   UNL A   1      37.076  32.670  39.510  1.00  0.00     0.127 S 
ATOM     77  O   UNL A   1      37.531  31.365  39.989  1.00  0.00    -0.237 OA
ATOM     78  O   UNL A   1      37.192  33.752  40.489  1.00  0.00    -0.237 OA
ATOM     79  O   UNL A   1      35.829  32.659  38.760  1.00  0.00    -0.744 OA
ENDBRANCH  73  76
ENDBRANCH  55  69
BRANCH  56  80
ATOM     80  C   UNL A   1      41.733  27.748  27.895  1.00  0.00     0.023 A 
ATOM     81  C   UNL A   1      42.253  28.479  26.808  1.00  0.00     0.012 A 
ATOM     82  C   UNL A   1      41.572  26.354  27.770  1.00  0.00     0.148 A 
ATOM     83  C   UNL A   1      42.573  27.841  25.609  1.00  0.00     0.002 A 
ATOM     84  C   UNL A   1      41.946  25.718  26.593  1.00  0.00     0.091 A 
ATOM     85  F   UNL A   1      41.068  25.679  28.811  1.00  0.00    -0.205 F 
ATOM     86  C   UNL A   1      42.429  26.461  25.504  1.00  0.00     0.022 A 
BRANCH  84  87
ATOM     87  S   UNL A   1      41.919  23.930  26.414  1.00  0.00     0.127 S 
ATOM     88  O   UNL A   1      42.590  23.747  25.129  1.00  0.00    -0.237 OA
ATOM     89  O   UNL A   1      42.693  23.500  27.580  1.00  0.00    -0.237 OA
ATOM     90  O   UNL A   1      40.514  23.550  26.454  1.00  0.00    -0.744 OA
ENDBRANCH  84  87
ENDBRANCH  56  80
BRANCH  68  91
ATOM     91  C   UNL A   1      44.480  27.742  34.316  1.00  0.00     0.023 A 
ATOM     92  C   UNL A   1      45.771  28.307  34.302  1.00  0.00     0.012 A 
ATOM     93  C   UNL A   1      44.268  26.516  34.976  1.00  0.00     0.148 A 
ATOM     94  C   UNL A   1      46.839  27.645  34.907  1.00  0.00     0.002 A 
ATOM     95  C   UNL A   1      45.326  25.889  35.622  1.00  0.00     0.091 A 
ATOM     96  F   UNL A   1      43.035  25.988  34.964  1.00  0.00    -0.205 F 
ATOM     97  C   UNL A   1      46.615  26.444  35.576  1.00  0.00     0.022 A 
BRANCH  95  98
ATOM     98  S   UNL A   1      45.114  24.393  36.594  1.00  0.00     0.127 S 
ATOM     99  O   UNL A   1      46.478  24.139  37.052  1.00  0.00    -0.237 OA
ATOM    100  O   UNL A   1      44.190  24.832  37.640  1.00  0.00    -0.237 OA
ATOM    101  O   UNL A   1      44.565  23.396  35.684  1.00  0.00    -0.744 OA
ENDBRANCH  95  98
ENDBRANCH  68  91
ENDBRANCH  42  43
ENDBRANCH  34  37
ENDBRANCH  32  33
ENDBRANCH  31  32
ENDBRANCH  30  31
ENDBRANCH   1  30
TORSDOF 21
ENDMDL
MODEL 3
REMARK VINA RESULT:     -12.0      1.389      8.046
REMARK SMILES Cc1ccc(NC(=O)C[C@@H](C(=O)NCCCCCCNC(=O)c2ccc(-c3c4nc(c(-c5cccc(S(=O)(=O)[O-])c5F)c5ccc([nH]5)c(-c5cccc(S(=O)(=O)[O-])c5F)c5nc(c(-c6cccc(S(=O)(=O)[O-])c6F)c6ccc3[nH]6)C=C5)C=C4)cc2)[C@@H](C)c2ccccc2)cc1Br
REMARK SMILES IDX 16 1 15 2 14 3 13 4 11 5 12 6 10 8 9 9 7 10 6 11 8 13 5 14
REMARK SMILES IDX 1 15 2 16 3 17 95 18 4 19 94 20 96 21 86 22 87 23 88 24
REMARK SMILES IDX 89 25 93 26 90 27 92 28 91 29 17 30 18 31 19 32 20 33 21 34
REMARK SMILES IDX 22 36 23 37 24 38 85 39 25 40 84 41 26 42 27 43 28 44 78 45
REMARK SMILES IDX 29 46 83 47 77 48 79 49 30 50 82 51 76 52 75 53 31 55 63 56
REMARK SMILES IDX 43 57 62 58 44 59 47 60 61 61 80 62 45 63 46 64 60 66 81 67
REMARK SMILES IDX 48 68 32 69 33 70 41 71 34 72 36 73 42 74 35 75 37 76 38 77
REMARK SMILES IDX 39 78 40 79 64 80 65 81 73 82 66 83 68 84 74 85 67 86 69 87
REMARK SMILES IDX 70 88 71 89 72 90 49 91 50 92 58 93 51 94 53 95 59 96 52 97
REMARK SMILES IDX 54 98 55 99 56 100 57 101
REMARK H PARENT 13 7 6 12 20 35 79 54 47 65
REMARK Flexibility Score: inf
ROOT
ATOM      1  C   UNL A   1      31.038  30.402  25.300  1.00  0.00     0.002 C 
ENDROOT
BRANCH   1   2
ATOM      2  C   UNL A   1      31.601  29.153  24.604  1.00  0.00     0.021 C 
BRANCH   2   3
ATOM      3  C   UNL A   1      33.032  29.265  24.061  1.00  0.00     0.116 C 
BRANCH   3   4
ATOM      4  N   UNL A   1      33.180  28.510  22.835  1.00  0.00    -0.356 N 
ATOM      5  C   UNL A   1      33.267  27.192  22.541  1.00  0.00     0.224 C 
ATOM      6  O   UNL A   1      33.583  26.961  21.374  1.00  0.00    -0.275 OA
ATOM      7  H   UNL A   1      33.230  29.084  22.036  1.00  0.00     0.163 HD
BRANCH   5   8
ATOM      8  C   UNL A   1      32.971  26.085  23.558  1.00  0.00     0.095 C 
BRANCH   8   9
ATOM      9  C   UNL A   1      31.630  26.220  24.333  1.00  0.00     0.114 C 
BRANCH   9  10
ATOM     10  C   UNL A   1      30.401  25.392  24.054  1.00  0.00     0.225 C 
ATOM     11  N   UNL A   1      30.286  24.070  24.356  1.00  0.00    -0.326 N 
ATOM     12  H   UNL A   1      29.494  23.633  23.970  1.00  0.00     0.169 HD
ATOM     13  O   UNL A   1      29.430  25.928  23.506  1.00  0.00    -0.275 OA
BRANCH  11  14
ATOM     14  C   UNL A   1      31.096  23.224  25.120  1.00  0.00     0.042 A 
ATOM     15  C   UNL A   1      34.114  21.347  27.546  1.00  0.00     0.045 C 
ATOM     16  C   UNL A   1      32.985  21.898  26.724  1.00  0.00    -0.037 A 
ATOM     17  C   UNL A   1      32.204  22.934  27.253  1.00  0.00     0.007 A 
ATOM     18  C   UNL A   1      32.718  21.461  25.417  1.00  0.00     0.022 A 
ATOM     19  C   UNL A   1      31.240  23.563  26.467  1.00  0.00     0.026 A 
ATOM     20  C   UNL A   1      31.785  22.130  24.611  1.00  0.00     0.042 A 
ATOM     21  Br  UNL A   1      33.623  19.972  24.656  1.00  0.00    -0.050 Br
ENDBRANCH  11  14
ENDBRANCH   9  10
ENDBRANCH   8   9
BRANCH   8  22
ATOM     22  C   UNL A   1      34.113  25.888  24.648  1.00  0.00     0.029 C 
ATOM     23  C   UNL A   1      33.531  26.028  26.078  1.00  0.00     0.013 C 
BRANCH  22  24
ATOM     24  C   UNL A   1      35.006  24.644  24.573  1.00  0.00    -0.044 A 
ATOM     25  C   UNL A   1      35.046  23.782  23.467  1.00  0.00     0.004 A 
ATOM     26  C   UNL A   1      35.747  24.264  25.707  1.00  0.00     0.004 A 
ATOM     27  C   UNL A   1      35.795  22.599  23.502  1.00  0.00     0.000 A 
ATOM     28  C   UNL A   1      36.533  23.111  25.729  1.00  0.00     0.000 A 
ATOM     29  C   UNL A   1      36.550  22.271  24.625  1.00  0.00     0.000 A 
ENDBRANCH  22  24
ENDBRANCH   8  22
ENDBRANCH   5   8
ENDBRANCH   3   4
ENDBRANCH   2   3
ENDBRANCH   1   2
BRANCH   1  30
ATOM     30  C   UNL A   1      31.885  30.938  26.451  1.00  0.00     0.002 C 
BRANCH  30  31
ATOM     31  C   UNL A   1      31.765  32.444  26.675  1.00  0.00     0.021 C 
BRANCH  31  32
ATOM     32  C   UNL A   1      32.815  33.035  27.609  1.00  0.00     0.116 C 
BRANCH  32  33
ATOM     33  N   UNL A   1      32.512  34.409  27.983  1.00  0.00    -0.352 N 
ATOM     34  C   UNL A   1      33.069  35.150  28.995  1.00  0.00     0.251 C 
ATOM     35  H   UNL A   1      31.825  34.862  27.442  1.00  0.00     0.163 HD
ATOM     36  O   UNL A   1      32.592  36.234  29.320  1.00  0.00    -0.269 OA
BRANCH  34  37
ATOM     37  C   UNL A   1      34.243  34.604  29.704  1.00  0.00     0.039 A 
ATOM     38  C   UNL A   1      34.063  33.969  30.932  1.00  0.00     0.014 A 
ATOM     39  C   UNL A   1      35.505  34.657  29.104  1.00  0.00     0.014 A 
ATOM     40  C   UNL A   1      35.149  33.335  31.539  1.00  0.00     0.010 A 
ATOM     41  C   UNL A   1      36.563  33.953  29.670  1.00  0.00     0.010 A 
ATOM     42  C   UNL A   1      36.400  33.296  30.899  1.00  0.00    -0.014 A 
BRANCH  42  43
ATOM     43  C   UNL A   1      37.549  32.576  31.503  1.00  0.00     0.031 A 
ATOM     44  C   UNL A   1      38.126  33.046  32.811  1.00  0.00     0.074 A 
ATOM     45  C   UNL A   1      38.120  31.549  30.843  1.00  0.00     0.049 A 
ATOM     46  N   UNL A   1      39.144  32.570  33.481  1.00  0.00    -0.248 NA
ATOM     47  C   UNL A   1      37.496  34.221  33.436  1.00  0.00     0.031 C 
ATOM     48  C   UNL A   1      37.705  31.053  29.529  1.00  0.00     0.029 A 
ATOM     49  N   UNL A   1      39.186  30.751  31.176  1.00  0.00    -0.354 N 
ATOM     50  C   UNL A   1      39.298  33.406  34.581  1.00  0.00     0.074 A 
ATOM     51  C   UNL A   1      38.295  34.442  34.470  1.00  0.00     0.031 C 
ATOM     52  C   UNL A   1      38.500  30.030  29.174  1.00  0.00     0.029 A 
ATOM     53  C   UNL A   1      39.499  29.817  30.216  1.00  0.00     0.049 A 
ATOM     54  H   UNL A   1      39.680  30.839  32.023  1.00  0.00     0.167 HD
ATOM     55  C   UNL A   1      40.171  33.302  35.611  1.00  0.00     0.034 A 
ATOM     56  C   UNL A   1      40.483  28.898  30.176  1.00  0.00     0.034 A 
ATOM     57  C   UNL A   1      41.140  32.248  35.738  1.00  0.00     0.049 A 
ATOM     58  C   UNL A   1      41.420  28.782  31.349  1.00  0.00     0.074 A 
ATOM     59  C   UNL A   1      42.009  32.002  36.785  1.00  0.00     0.029 A 
ATOM     60  N   UNL A   1      41.377  31.274  34.781  1.00  0.00    -0.354 N 
ATOM     61  N   UNL A   1      41.442  29.478  32.460  1.00  0.00    -0.248 NA
ATOM     62  C   UNL A   1      42.443  27.729  31.281  1.00  0.00     0.031 C 
ATOM     63  C   UNL A   1      42.796  30.896  36.447  1.00  0.00     0.029 A 
ATOM     64  C   UNL A   1      42.390  30.431  35.206  1.00  0.00     0.049 A 
ATOM     65  H   UNL A   1      40.896  31.192  33.926  1.00  0.00     0.167 HD
ATOM     66  C   UNL A   1      42.455  28.928  33.236  1.00  0.00     0.074 A 
ATOM     67  C   UNL A   1      43.008  27.824  32.478  1.00  0.00     0.031 C 
ATOM     68  C   UNL A   1      42.898  29.308  34.460  1.00  0.00     0.034 A 
BRANCH  55  69
ATOM     69  C   UNL A   1      40.086  34.334  36.705  1.00  0.00     0.023 A 
ATOM     70  C   UNL A   1      40.498  35.659  36.451  1.00  0.00     0.012 A 
ATOM     71  C   UNL A   1      39.551  34.009  37.968  1.00  0.00     0.148 A 
ATOM     72  C   UNL A   1      40.420  36.633  37.446  1.00  0.00     0.002 A 
ATOM     73  C   UNL A   1      39.429  34.997  38.938  1.00  0.00     0.091 A 
ATOM     74  F   UNL A   1      39.182  32.741  38.199  1.00  0.00    -0.205 F 
ATOM     75  C   UNL A   1      39.875  36.305  38.684  1.00  0.00     0.022 A 
BRANCH  73  76
ATOM     76  S   UNL A   1      38.666  34.697  40.536  1.00  0.00     0.127 S 
ATOM     77  O   UNL A   1      38.359  36.058  40.976  1.00  0.00    -0.237 OA
ATOM     78  O   UNL A   1      37.496  33.896  40.172  1.00  0.00    -0.237 OA
ATOM     79  O   UNL A   1      39.662  33.993  41.332  1.00  0.00    -0.744 OA
ENDBRANCH  73  76
ENDBRANCH  55  69
BRANCH  56  80
ATOM     80  C   UNL A   1      40.597  27.973  29.013  1.00  0.00     0.023 A 
ATOM     81  C   UNL A   1      39.740  26.859  28.925  1.00  0.00     0.012 A 
ATOM     82  C   UNL A   1      41.531  28.204  27.984  1.00  0.00     0.148 A 
ATOM     83  C   UNL A   1      39.834  25.971  27.852  1.00  0.00     0.002 A 
ATOM     84  C   UNL A   1      41.580  27.347  26.890  1.00  0.00     0.091 A 
ATOM     85  F   UNL A   1      42.343  29.263  28.090  1.00  0.00    -0.205 F 
ATOM     86  C   UNL A   1      40.746  26.220  26.832  1.00  0.00     0.022 A 
BRANCH  84  87
ATOM     87  S   UNL A   1      42.631  27.661  25.467  1.00  0.00     0.127 S 
ATOM     88  O   UNL A   1      42.354  26.499  24.628  1.00  0.00    -0.237 OA
ATOM     89  O   UNL A   1      42.089  28.926  24.967  1.00  0.00    -0.237 OA
ATOM     90  O   UNL A   1      43.987  27.755  25.991  1.00  0.00    -0.744 OA
ENDBRANCH  84  87
ENDBRANCH  56  80
BRANCH  68  91
ATOM     91  C   UNL A   1      44.012  28.506  35.082  1.00  0.00     0.023 A 
ATOM     92  C   UNL A   1      45.353  28.797  34.761  1.00  0.00     0.012 A 
ATOM     93  C   UNL A   1      43.730  27.514  36.041  1.00  0.00     0.148 A 
ATOM     94  C   UNL A   1      46.394  28.088  35.360  1.00  0.00     0.002 A 
ATOM     95  C   UNL A   1      44.773  26.849  36.673  1.00  0.00     0.091 A 
ATOM     96  F   UNL A   1      42.447  27.241  36.320  1.00  0.00    -0.205 F 
ATOM     97  C   UNL A   1      46.105  27.124  36.323  1.00  0.00     0.022 A 
BRANCH  95  98
ATOM     98  S   UNL A   1      44.502  25.665  37.996  1.00  0.00     0.127 S 
ATOM     99  O   UNL A   1      43.710  26.450  38.941  1.00  0.00    -0.237 OA
ATOM    100  O   UNL A   1      43.763  24.602  37.315  1.00  0.00    -0.237 OA
ATOM    101  O   UNL A   1      45.826  25.274  38.465  1.00  0.00    -0.744 OA
ENDBRANCH  95  98
ENDBRANCH  68  91
ENDBRANCH  42  43
ENDBRANCH  34  37
ENDBRANCH  32  33
ENDBRANCH  31  32
ENDBRANCH  30  31
ENDBRANCH   1  30
TORSDOF 21
ENDMDL
