MODEL 1
REMARK VINA RESULT:     -11.6      0.000      0.000
REMARK SMILES O=C(NCCCCCCNC(=O)c1cncc(Oc2cc(F)ccc2F)n1)c1ccc(-c2c3nc(c(-c4cccc(S(=O)(=O)[O-])c4F)c4ccc([nH]4)c(-c4cccc(S(=O)(=O)[O-])c4F)c4nc(c(-c5cccc(S(=O)(=O)[O-])c5F)c5ccc2[nH]5)C=C4)C=C3)cc1
REMARK SMILES IDX 6 1 5 2 4 3 3 4 1 5 2 6 28 8 29 9 90 10 30 11 89 12 31 13
REMARK SMILES IDX 32 14 33 15 83 16 34 17 88 18 82 19 84 20 35 21 87 22 81 23
REMARK SMILES IDX 80 24 36 26 68 27 48 28 67 29 49 30 52 31 66 32 85 33 50 34
REMARK SMILES IDX 51 35 65 37 86 38 53 39 37 40 38 41 46 42 39 43 41 44 47 45
REMARK SMILES IDX 40 46 42 47 43 48 44 49 45 50 69 51 70 52 78 53 71 54 73 55
REMARK SMILES IDX 79 56 72 57 74 58 75 59 76 60 77 61 54 62 55 63 63 64 56 65
REMARK SMILES IDX 58 66 64 67 57 68 59 69 60 70 61 71 62 72 7 73 8 74 9 75
REMARK SMILES IDX 10 76 11 77 12 79 13 80 14 81 27 82 15 83 17 84 16 85 18 86
REMARK SMILES IDX 19 87 20 88 25 89 21 90 24 91 26 92 22 93 23 94
REMARK H PARENT 3 7 84 25 52 36 10 78
REMARK Flexibility Score: inf
ROOT
ATOM      1  C   UNL A   1      35.032  23.788  23.925  1.00  0.00     0.002 C 
ENDROOT
BRANCH   1   2
ATOM      2  C   UNL A   1      35.826  22.495  24.114  1.00  0.00     0.021 C 
BRANCH   2   3
ATOM      3  C   UNL A   1      36.334  22.245  25.529  1.00  0.00     0.116 C 
BRANCH   3   4
ATOM      4  N   UNL A   1      37.255  21.125  25.605  1.00  0.00    -0.352 N 
ATOM      5  O   UNL A   1      39.252  20.095  25.761  1.00  0.00    -0.269 OA
ATOM      6  C   UNL A   1      38.598  21.125  25.898  1.00  0.00     0.251 C 
ATOM      7  H   UNL A   1      36.863  20.241  25.419  1.00  0.00     0.163 HD
BRANCH   6   8
ATOM      8  C   UNL A   1      39.255  22.373  26.351  1.00  0.00     0.039 A 
ATOM      9  C   UNL A   1      38.822  23.618  25.885  1.00  0.00     0.014 A 
ATOM     10  C   UNL A   1      40.316  22.296  27.258  1.00  0.00     0.014 A 
ATOM     11  C   UNL A   1      39.532  24.768  26.219  1.00  0.00     0.010 A 
ATOM     12  C   UNL A   1      40.977  23.461  27.655  1.00  0.00     0.010 A 
ATOM     13  C   UNL A   1      40.611  24.705  27.117  1.00  0.00    -0.014 A 
BRANCH  13  14
ATOM     14  C   UNL A   1      41.288  25.958  27.535  1.00  0.00     0.031 A 
ATOM     15  C   UNL A   1      42.713  26.247  27.150  1.00  0.00     0.074 A 
ATOM     16  C   UNL A   1      40.599  26.843  28.283  1.00  0.00     0.049 A 
ATOM     17  N   UNL A   1      43.436  27.305  27.416  1.00  0.00    -0.248 NA
ATOM     18  C   UNL A   1      43.423  25.218  26.374  1.00  0.00     0.031 C 
ATOM     19  C   UNL A   1      39.227  26.649  28.760  1.00  0.00     0.029 A 
ATOM     20  N   UNL A   1      40.950  28.074  28.774  1.00  0.00    -0.354 N 
ATOM     21  C   UNL A   1      44.693  27.059  26.876  1.00  0.00     0.074 A 
ATOM     22  C   UNL A   1      44.637  25.744  26.271  1.00  0.00     0.031 C 
ATOM     23  C   UNL A   1      38.847  27.728  29.458  1.00  0.00     0.029 A 
ATOM     24  C   UNL A   1      39.959  28.671  29.517  1.00  0.00     0.049 A 
ATOM     25  H   UNL A   1      41.828  28.490  28.612  1.00  0.00     0.167 HD
ATOM     26  C   UNL A   1      45.785  27.860  26.870  1.00  0.00     0.034 A 
ATOM     27  C   UNL A   1      39.946  29.840  30.186  1.00  0.00     0.034 A 
ATOM     28  C   UNL A   1      45.823  29.181  27.442  1.00  0.00     0.049 A 
ATOM     29  C   UNL A   1      41.163  30.719  30.137  1.00  0.00     0.074 A 
ATOM     30  C   UNL A   1      46.861  30.096  27.424  1.00  0.00     0.029 A 
ATOM     31  N   UNL A   1      44.783  29.773  28.142  1.00  0.00    -0.354 N 
ATOM     32  N   UNL A   1      42.292  30.526  29.500  1.00  0.00    -0.248 NA
ATOM     33  C   UNL A   1      41.094  31.987  30.874  1.00  0.00     0.031 C 
ATOM     34  C   UNL A   1      46.454  31.235  28.128  1.00  0.00     0.029 A 
ATOM     35  C   UNL A   1      45.156  31.036  28.569  1.00  0.00     0.049 A 
ATOM     36  H   UNL A   1      43.907  29.357  28.310  1.00  0.00     0.167 HD
ATOM     37  C   UNL A   1      43.061  31.656  29.741  1.00  0.00     0.074 A 
ATOM     38  C   UNL A   1      42.256  32.542  30.558  1.00  0.00     0.031 C 
ATOM     39  C   UNL A   1      44.328  31.927  29.341  1.00  0.00     0.034 A 
BRANCH  26  40
ATOM     40  C   UNL A   1      47.027  27.354  26.181  1.00  0.00     0.023 A 
ATOM     41  C   UNL A   1      47.227  27.639  24.815  1.00  0.00     0.012 A 
ATOM     42  C   UNL A   1      48.029  26.670  26.897  1.00  0.00     0.148 A 
ATOM     43  C   UNL A   1      48.391  27.229  24.166  1.00  0.00     0.002 A 
ATOM     44  C   UNL A   1      49.203  26.296  26.252  1.00  0.00     0.091 A 
ATOM     45  F   UNL A   1      47.814  26.390  28.191  1.00  0.00    -0.205 F 
ATOM     46  C   UNL A   1      49.382  26.568  24.886  1.00  0.00     0.022 A 
BRANCH  44  47
ATOM     47  S   UNL A   1      50.570  25.505  27.111  1.00  0.00     0.127 S 
ATOM     48  O   UNL A   1      51.495  25.240  26.011  1.00  0.00    -0.237 OA
ATOM     49  O   UNL A   1      51.005  26.555  28.034  1.00  0.00    -0.237 OA
ATOM     50  O   UNL A   1      50.007  24.328  27.757  1.00  0.00    -0.744 OA
ENDBRANCH  44  47
ENDBRANCH  26  40
BRANCH  27  51
ATOM     51  C   UNL A   1      38.714  30.260  30.909  1.00  0.00     0.023 A 
ATOM     52  C   UNL A   1      38.602  30.006  32.289  1.00  0.00     0.012 A 
ATOM     53  C   UNL A   1      37.685  30.963  30.252  1.00  0.00     0.148 A 
ATOM     54  C   UNL A   1      37.476  30.424  32.998  1.00  0.00     0.002 A 
ATOM     55  C   UNL A   1      36.594  31.428  30.976  1.00  0.00     0.091 A 
ATOM     56  F   UNL A   1      37.802  31.179  28.935  1.00  0.00    -0.205 F 
ATOM     57  C   UNL A   1      36.479  31.147  32.345  1.00  0.00     0.022 A 
BRANCH  55  58
ATOM     58  S   UNL A   1      35.345  32.491  30.242  1.00  0.00     0.127 S 
ATOM     59  O   UNL A   1      36.135  33.655  29.852  1.00  0.00    -0.237 OA
ATOM     60  O   UNL A   1      34.863  31.672  29.128  1.00  0.00    -0.237 OA
ATOM     61  O   UNL A   1      34.359  32.710  31.291  1.00  0.00    -0.744 OA
ENDBRANCH  55  58
ENDBRANCH  27  51
BRANCH  39  62
ATOM     62  C   UNL A   1      44.920  33.244  29.766  1.00  0.00     0.023 A 
ATOM     63  C   UNL A   1      45.668  33.319  30.957  1.00  0.00     0.012 A 
ATOM     64  C   UNL A   1      44.790  34.390  28.956  1.00  0.00     0.148 A 
ATOM     65  C   UNL A   1      46.250  34.521  31.353  1.00  0.00     0.002 A 
ATOM     66  C   UNL A   1      45.412  35.574  29.334  1.00  0.00     0.091 A 
ATOM     67  F   UNL A   1      44.055  34.305  27.838  1.00  0.00    -0.205 F 
ATOM     68  C   UNL A   1      46.133  35.644  30.538  1.00  0.00     0.022 A 
BRANCH  66  69
ATOM     69  S   UNL A   1      45.385  37.043  28.301  1.00  0.00     0.127 S 
ATOM     70  O   UNL A   1      43.956  37.343  28.246  1.00  0.00    -0.237 OA
ATOM     71  O   UNL A   1      46.177  37.991  29.085  1.00  0.00    -0.237 OA
ATOM     72  O   UNL A   1      45.996  36.651  27.037  1.00  0.00    -0.744 OA
ENDBRANCH  66  69
ENDBRANCH  39  62
ENDBRANCH  13  14
ENDBRANCH   6   8
ENDBRANCH   3   4
ENDBRANCH   2   3
ENDBRANCH   1   2
BRANCH   1  73
ATOM     73  C   UNL A   1      34.754  24.589  25.200  1.00  0.00     0.002 C 
BRANCH  73  74
ATOM     74  C   UNL A   1      33.559  25.549  25.143  1.00  0.00     0.021 C 
BRANCH  74  75
ATOM     75  C   UNL A   1      32.259  24.949  24.609  1.00  0.00     0.116 C 
BRANCH  75  76
ATOM     76  N   UNL A   1      31.260  24.784  25.651  1.00  0.00    -0.351 N 
ATOM     77  C   UNL A   1      31.031  23.706  26.474  1.00  0.00     0.271 C 
ATOM     78  H   UNL A   1      30.661  25.554  25.786  1.00  0.00     0.163 HD
ATOM     79  O   UNL A   1      30.067  23.712  27.236  1.00  0.00    -0.267 OA
BRANCH  77  80
ATOM     80  C   UNL A   1      31.963  22.555  26.460  1.00  0.00     0.150 A 
ATOM     81  C   UNL A   1      32.848  22.375  27.515  1.00  0.00     0.145 A 
ATOM     82  N   UNL A   1      31.893  21.706  25.401  1.00  0.00    -0.205 NA
ATOM     83  N   UNL A   1      33.739  21.355  27.545  1.00  0.00    -0.257 NA
ATOM     84  C   UNL A   1      32.771  20.679  25.440  1.00  0.00     0.238 A 
ATOM     85  C   UNL A   1      33.681  20.515  26.481  1.00  0.00     0.179 A 
BRANCH  84  86
ATOM     86  O   UNL A   1      32.831  19.745  24.413  1.00  0.00    -0.434 OA
BRANCH  86  87
ATOM     87  C   UNL A   1      33.191  18.465  24.751  1.00  0.00     0.168 A 
ATOM     88  C   UNL A   1      32.241  17.508  25.108  1.00  0.00     0.089 A 
ATOM     89  C   UNL A   1      34.531  18.096  24.612  1.00  0.00     0.166 A 
ATOM     90  C   UNL A   1      32.656  16.204  25.358  1.00  0.00     0.127 A 
ATOM     91  C   UNL A   1      34.940  16.787  24.857  1.00  0.00     0.046 A 
ATOM     92  F   UNL A   1      35.442  19.001  24.225  1.00  0.00    -0.203 F 
ATOM     93  F   UNL A   1      31.752  15.280  25.706  1.00  0.00    -0.207 F 
ATOM     94  C   UNL A   1      33.994  15.834  25.235  1.00  0.00     0.042 A 
ENDBRANCH  86  87
ENDBRANCH  84  86
ENDBRANCH  77  80
ENDBRANCH  75  76
ENDBRANCH  74  75
ENDBRANCH  73  74
ENDBRANCH   1  73
TORSDOF 18
ENDMDL
MODEL 2
REMARK VINA RESULT:     -11.6      2.081      7.948
REMARK SMILES O=C(NCCCCCCNC(=O)c1cncc(Oc2cc(F)ccc2F)n1)c1ccc(-c2c3nc(c(-c4cccc(S(=O)(=O)[O-])c4F)c4ccc([nH]4)c(-c4cccc(S(=O)(=O)[O-])c4F)c4nc(c(-c5cccc(S(=O)(=O)[O-])c5F)c5ccc2[nH]5)C=C4)C=C3)cc1
REMARK SMILES IDX 6 1 5 2 4 3 3 4 1 5 2 6 28 8 29 9 90 10 30 11 89 12 31 13
REMARK SMILES IDX 32 14 33 15 83 16 34 17 88 18 82 19 84 20 35 21 87 22 81 23
REMARK SMILES IDX 80 24 36 26 68 27 48 28 67 29 49 30 52 31 66 32 85 33 50 34
REMARK SMILES IDX 51 35 65 37 86 38 53 39 37 40 38 41 46 42 39 43 41 44 47 45
REMARK SMILES IDX 40 46 42 47 43 48 44 49 45 50 69 51 70 52 78 53 71 54 73 55
REMARK SMILES IDX 79 56 72 57 74 58 75 59 76 60 77 61 54 62 55 63 63 64 56 65
REMARK SMILES IDX 58 66 64 67 57 68 59 69 60 70 61 71 62 72 7 73 8 74 9 75
REMARK SMILES IDX 10 76 11 77 12 79 13 80 14 81 27 82 15 83 17 84 16 85 18 86
REMARK SMILES IDX 19 87 20 88 25 89 21 90 24 91 26 92 22 93 23 94
REMARK H PARENT 3 7 84 25 52 36 10 78
REMARK Flexibility Score: inf
ROOT
ATOM      1  C   UNL A   1      36.963  20.606  24.651  1.00  0.00     0.002 C 
ENDROOT
BRANCH   1   2
ATOM      2  C   UNL A   1      38.078  19.610  24.965  1.00  0.00     0.021 C 
BRANCH   2   3
ATOM      3  C   UNL A   1      39.113  20.088  25.976  1.00  0.00     0.116 C 
BRANCH   3   4
ATOM      4  N   UNL A   1      40.252  19.194  26.081  1.00  0.00    -0.352 N 
ATOM      5  O   UNL A   1      42.428  18.614  26.153  1.00  0.00    -0.269 OA
ATOM      6  C   UNL A   1      41.583  19.500  26.244  1.00  0.00     0.251 C 
ATOM      7  H   UNL A   1      40.043  18.234  26.025  1.00  0.00     0.163 HD
BRANCH   6   8
ATOM      8  C   UNL A   1      41.992  20.900  26.501  1.00  0.00     0.039 A 
ATOM      9  C   UNL A   1      42.279  21.335  27.797  1.00  0.00     0.014 A 
ATOM     10  C   UNL A   1      42.096  21.788  25.426  1.00  0.00     0.014 A 
ATOM     11  C   UNL A   1      42.536  22.682  28.035  1.00  0.00     0.010 A 
ATOM     12  C   UNL A   1      42.434  23.124  25.658  1.00  0.00     0.010 A 
ATOM     13  C   UNL A   1      42.627  23.591  26.968  1.00  0.00    -0.014 A 
BRANCH  13  14
ATOM     14  C   UNL A   1      43.002  25.002  27.239  1.00  0.00     0.031 A 
ATOM     15  C   UNL A   1      42.046  25.953  27.905  1.00  0.00     0.074 A 
ATOM     16  C   UNL A   1      44.226  25.426  26.868  1.00  0.00     0.049 A 
ATOM     17  N   UNL A   1      42.232  27.207  28.233  1.00  0.00    -0.248 NA
ATOM     18  C   UNL A   1      40.709  25.440  28.242  1.00  0.00     0.031 C 
ATOM     19  C   UNL A   1      45.221  24.607  26.168  1.00  0.00     0.029 A 
ATOM     20  N   UNL A   1      44.843  26.640  27.019  1.00  0.00    -0.354 N 
ATOM     21  C   UNL A   1      41.031  27.645  28.779  1.00  0.00     0.074 A 
ATOM     22  C   UNL A   1      40.117  26.522  28.732  1.00  0.00     0.031 C 
ATOM     23  C   UNL A   1      46.328  25.335  25.969  1.00  0.00     0.029 A 
ATOM     24  C   UNL A   1      46.110  26.683  26.483  1.00  0.00     0.049 A 
ATOM     25  H   UNL A   1      44.421  27.409  27.467  1.00  0.00     0.167 HD
ATOM     26  C   UNL A   1      40.724  28.863  29.286  1.00  0.00     0.034 A 
ATOM     27  C   UNL A   1      46.994  27.694  26.400  1.00  0.00     0.034 A 
ATOM     28  C   UNL A   1      41.648  29.964  29.363  1.00  0.00     0.049 A 
ATOM     29  C   UNL A   1      46.635  29.025  26.997  1.00  0.00     0.074 A 
ATOM     30  C   UNL A   1      41.452  31.214  29.923  1.00  0.00     0.029 A 
ATOM     31  N   UNL A   1      42.939  29.953  28.856  1.00  0.00    -0.354 N 
ATOM     32  N   UNL A   1      45.544  29.373  27.634  1.00  0.00    -0.248 NA
ATOM     33  C   UNL A   1      47.638  30.092  26.888  1.00  0.00     0.031 C 
ATOM     34  C   UNL A   1      42.619  31.965  29.740  1.00  0.00     0.029 A 
ATOM     35  C   UNL A   1      43.548  31.176  29.081  1.00  0.00     0.049 A 
ATOM     36  H   UNL A   1      43.361  29.189  28.403  1.00  0.00     0.167 HD
ATOM     37  C   UNL A   1      45.737  30.693  28.022  1.00  0.00     0.074 A 
ATOM     38  C   UNL A   1      47.062  31.071  27.573  1.00  0.00     0.031 C 
ATOM     39  C   UNL A   1      44.885  31.524  28.672  1.00  0.00     0.034 A 
BRANCH  26  40
ATOM     40  C   UNL A   1      39.339  29.064  29.848  1.00  0.00     0.023 A 
ATOM     41  C   UNL A   1      39.059  28.647  31.165  1.00  0.00     0.012 A 
ATOM     42  C   UNL A   1      38.344  29.733  29.110  1.00  0.00     0.148 A 
ATOM     43  C   UNL A   1      37.803  28.869  31.729  1.00  0.00     0.002 A 
ATOM     44  C   UNL A   1      37.106  29.983  29.691  1.00  0.00     0.091 A 
ATOM     45  F   UNL A   1      38.622  30.106  27.851  1.00  0.00    -0.205 F 
ATOM     46  C   UNL A   1      36.831  29.545  30.997  1.00  0.00     0.022 A 
BRANCH  44  47
ATOM     47  S   UNL A   1      35.813  30.912  28.855  1.00  0.00     0.127 S 
ATOM     48  O   UNL A   1      35.118  29.855  28.122  1.00  0.00    -0.237 OA
ATOM     49  O   UNL A   1      35.059  31.473  29.977  1.00  0.00    -0.237 OA
ATOM     50  O   UNL A   1      36.500  31.899  28.034  1.00  0.00    -0.744 OA
ENDBRANCH  44  47
ENDBRANCH  26  40
BRANCH  27  51
ATOM     51  C   UNL A   1      48.323  27.460  25.771  1.00  0.00     0.023 A 
ATOM     52  C   UNL A   1      49.396  27.011  26.565  1.00  0.00     0.012 A 
ATOM     53  C   UNL A   1      48.513  27.618  24.384  1.00  0.00     0.148 A 
ATOM     54  C   UNL A   1      50.640  26.746  25.992  1.00  0.00     0.002 A 
ATOM     55  C   UNL A   1      49.736  27.295  23.811  1.00  0.00     0.091 A 
ATOM     56  F   UNL A   1      47.484  28.063  23.648  1.00  0.00    -0.205 F 
ATOM     57  C   UNL A   1      50.806  26.874  24.615  1.00  0.00     0.022 A 
BRANCH  55  58
ATOM     58  S   UNL A   1      49.986  27.291  22.032  1.00  0.00     0.127 S 
ATOM     59  O   UNL A   1      49.779  28.696  21.698  1.00  0.00    -0.237 OA
ATOM     60  O   UNL A   1      51.370  26.827  21.919  1.00  0.00    -0.237 OA
ATOM     61  O   UNL A   1      49.000  26.357  21.506  1.00  0.00    -0.744 OA
ENDBRANCH  55  58
ENDBRANCH  27  51
BRANCH  39  62
ATOM     62  C   UNL A   1      45.364  32.922  28.954  1.00  0.00     0.023 A 
ATOM     63  C   UNL A   1      46.066  33.190  30.145  1.00  0.00     0.012 A 
ATOM     64  C   UNL A   1      45.178  33.954  28.013  1.00  0.00     0.148 A 
ATOM     65  C   UNL A   1      46.547  34.470  30.412  1.00  0.00     0.002 A 
ATOM     66  C   UNL A   1      45.699  35.218  28.265  1.00  0.00     0.091 A 
ATOM     67  F   UNL A   1      44.488  33.686  26.895  1.00  0.00    -0.205 F 
ATOM     68  C   UNL A   1      46.374  35.480  29.468  1.00  0.00     0.022 A 
BRANCH  66  69
ATOM     69  S   UNL A   1      45.599  36.552  27.067  1.00  0.00     0.127 S 
ATOM     70  O   UNL A   1      46.403  37.590  27.708  1.00  0.00    -0.237 OA
ATOM     71  O   UNL A   1      46.211  35.954  25.880  1.00  0.00    -0.237 OA
ATOM     72  O   UNL A   1      44.180  36.853  26.925  1.00  0.00    -0.744 OA
ENDBRANCH  66  69
ENDBRANCH  39  62
ENDBRANCH  13  14
ENDBRANCH   6   8
ENDBRANCH   3   4
ENDBRANCH   2   3
ENDBRANCH   1   2
BRANCH   1  73
ATOM     73  C   UNL A   1      37.309  22.082  24.870  1.00  0.00     0.002 C 
BRANCH  73  74
ATOM     74  C   UNL A   1      36.465  22.821  25.915  1.00  0.00     0.021 C 
BRANCH  74  75
ATOM     75  C   UNL A   1      35.817  24.119  25.437  1.00  0.00     0.116 C 
BRANCH  75  76
ATOM     76  N   UNL A   1      35.506  24.089  24.018  1.00  0.00    -0.351 N 
ATOM     77  C   UNL A   1      34.416  23.546  23.377  1.00  0.00     0.271 C 
ATOM     78  H   UNL A   1      36.170  24.518  23.431  1.00  0.00     0.163 HD
ATOM     79  O   UNL A   1      34.373  23.529  22.150  1.00  0.00    -0.267 OA
BRANCH  77  80
ATOM     80  C   UNL A   1      33.286  23.008  24.170  1.00  0.00     0.150 A 
ATOM     81  C   UNL A   1      32.285  23.867  24.607  1.00  0.00     0.145 A 
ATOM     82  N   UNL A   1      33.277  21.673  24.422  1.00  0.00    -0.205 NA
ATOM     83  N   UNL A   1      31.240  23.437  25.355  1.00  0.00    -0.257 NA
ATOM     84  C   UNL A   1      32.225  21.243  25.155  1.00  0.00     0.238 A 
ATOM     85  C   UNL A   1      31.237  22.106  25.620  1.00  0.00     0.179 A 
BRANCH  84  86
ATOM     86  O   UNL A   1      32.097  19.906  25.510  1.00  0.00    -0.434 OA
BRANCH  86  87
ATOM     87  C   UNL A   1      32.403  18.971  24.552  1.00  0.00     0.168 A 
ATOM     88  C   UNL A   1      32.214  19.227  23.195  1.00  0.00     0.089 A 
ATOM     89  C   UNL A   1      33.029  17.791  24.958  1.00  0.00     0.166 A 
ATOM     90  C   UNL A   1      32.622  18.275  22.266  1.00  0.00     0.127 A 
ATOM     91  C   UNL A   1      33.441  16.844  24.023  1.00  0.00     0.046 A 
ATOM     92  F   UNL A   1      33.254  17.560  26.260  1.00  0.00    -0.203 F 
ATOM     93  F   UNL A   1      32.441  18.509  20.960  1.00  0.00    -0.207 F 
ATOM     94  C   UNL A   1      33.233  17.088  22.665  1.00  0.00     0.042 A 
ENDBRANCH  86  87
ENDBRANCH  84  86
ENDBRANCH  77  80
ENDBRANCH  75  76
ENDBRANCH  74  75
ENDBRANCH  73  74
ENDBRANCH   1  73
TORSDOF 18
ENDMDL
MODEL 3
REMARK VINA RESULT:     -11.5      5.791     10.602
REMARK SMILES O=C(NCCCCCCNC(=O)c1cncc(Oc2cc(F)ccc2F)n1)c1ccc(-c2c3nc(c(-c4cccc(S(=O)(=O)[O-])c4F)c4ccc([nH]4)c(-c4cccc(S(=O)(=O)[O-])c4F)c4nc(c(-c5cccc(S(=O)(=O)[O-])c5F)c5ccc2[nH]5)C=C4)C=C3)cc1
REMARK SMILES IDX 6 1 5 2 4 3 3 4 1 5 2 6 28 8 29 9 90 10 30 11 89 12 31 13
REMARK SMILES IDX 32 14 33 15 83 16 34 17 88 18 82 19 84 20 35 21 87 22 81 23
REMARK SMILES IDX 80 24 36 26 68 27 48 28 67 29 49 30 52 31 66 32 85 33 50 34
REMARK SMILES IDX 51 35 65 37 86 38 53 39 37 40 38 41 46 42 39 43 41 44 47 45
REMARK SMILES IDX 40 46 42 47 43 48 44 49 45 50 69 51 70 52 78 53 71 54 73 55
REMARK SMILES IDX 79 56 72 57 74 58 75 59 76 60 77 61 54 62 55 63 63 64 56 65
REMARK SMILES IDX 58 66 64 67 57 68 59 69 60 70 61 71 62 72 7 73 8 74 9 75
REMARK SMILES IDX 10 76 11 77 12 79 13 80 14 81 27 82 15 83 17 84 16 85 18 86
REMARK SMILES IDX 19 87 20 88 25 89 21 90 24 91 26 92 22 93 23 94
REMARK H PARENT 3 7 84 25 52 36 10 78
REMARK Flexibility Score: inf
ROOT
ATOM      1  C   UNL A   1      36.853  33.704  29.631  1.00  0.00     0.002 C 
ENDROOT
BRANCH   1   2
ATOM      2  C   UNL A   1      35.585  32.870  29.449  1.00  0.00     0.021 C 
BRANCH   2   3
ATOM      3  C   UNL A   1      35.089  32.745  28.013  1.00  0.00     0.116 C 
BRANCH   3   4
ATOM      4  N   UNL A   1      34.297  31.548  27.794  1.00  0.00    -0.352 N 
ATOM      5  O   UNL A   1      33.914  29.358  27.426  1.00  0.00    -0.269 OA
ATOM      6  C   UNL A   1      34.697  30.232  27.786  1.00  0.00     0.251 C 
ATOM      7  H   UNL A   1      33.339  31.699  27.627  1.00  0.00     0.163 HD
BRANCH   6   8
ATOM      8  C   UNL A   1      36.080  29.879  28.185  1.00  0.00     0.039 A 
ATOM      9  C   UNL A   1      37.150  30.083  27.310  1.00  0.00     0.014 A 
ATOM     10  C   UNL A   1      36.307  29.342  29.455  1.00  0.00     0.014 A 
ATOM     11  C   UNL A   1      38.421  29.627  27.651  1.00  0.00     0.010 A 
ATOM     12  C   UNL A   1      37.598  28.958  29.827  1.00  0.00     0.010 A 
ATOM     13  C   UNL A   1      38.662  29.069  28.918  1.00  0.00    -0.014 A 
BRANCH  13  14
ATOM     14  C   UNL A   1      40.046  28.684  29.295  1.00  0.00     0.031 A 
ATOM     15  C   UNL A   1      40.755  27.544  28.616  1.00  0.00     0.074 A 
ATOM     16  C   UNL A   1      40.663  29.374  30.273  1.00  0.00     0.049 A 
ATOM     17  N   UNL A   1      41.970  27.100  28.813  1.00  0.00    -0.248 NA
ATOM     18  C   UNL A   1      40.007  26.801  27.589  1.00  0.00     0.031 C 
ATOM     19  C   UNL A   1      40.057  30.468  31.039  1.00  0.00     0.029 A 
ATOM     20  N   UNL A   1      41.926  29.265  30.795  1.00  0.00    -0.354 N 
ATOM     21  C   UNL A   1      42.124  26.008  27.968  1.00  0.00     0.074 A 
ATOM     22  C   UNL A   1      40.872  25.850  27.258  1.00  0.00     0.031 C 
ATOM     23  C   UNL A   1      40.952  30.940  31.917  1.00  0.00     0.029 A 
ATOM     24  C   UNL A   1      42.179  30.157  31.811  1.00  0.00     0.049 A 
ATOM     25  H   UNL A   1      42.587  28.610  30.475  1.00  0.00     0.167 HD
ATOM     26  C   UNL A   1      43.212  25.221  27.789  1.00  0.00     0.034 A 
ATOM     27  C   UNL A   1      43.270  30.322  32.583  1.00  0.00     0.034 A 
ATOM     28  C   UNL A   1      44.466  25.406  28.471  1.00  0.00     0.049 A 
ATOM     29  C   UNL A   1      44.470  29.453  32.340  1.00  0.00     0.074 A 
ATOM     30  C   UNL A   1      45.647  24.704  28.305  1.00  0.00     0.029 A 
ATOM     31  N   UNL A   1      44.701  26.353  29.456  1.00  0.00    -0.354 N 
ATOM     32  N   UNL A   1      44.640  28.518  31.438  1.00  0.00    -0.248 NA
ATOM     33  C   UNL A   1      45.637  29.679  33.203  1.00  0.00     0.031 C 
ATOM     34  C   UNL A   1      46.592  25.216  29.202  1.00  0.00     0.029 A 
ATOM     35  C   UNL A   1      46.004  26.248  29.914  1.00  0.00     0.049 A 
ATOM     36  H   UNL A   1      44.040  27.004  29.782  1.00  0.00     0.167 HD
ATOM     37  C   UNL A   1      45.939  28.058  31.608  1.00  0.00     0.074 A 
ATOM     38  C   UNL A   1      46.521  28.839  32.681  1.00  0.00     0.031 C 
ATOM     39  C   UNL A   1      46.585  27.063  30.950  1.00  0.00     0.034 A 
BRANCH  26  40
ATOM     40  C   UNL A   1      43.118  24.108  26.776  1.00  0.00     0.023 A 
ATOM     41  C   UNL A   1      43.774  24.243  25.535  1.00  0.00     0.012 A 
ATOM     42  C   UNL A   1      42.454  22.903  27.077  1.00  0.00     0.148 A 
ATOM     43  C   UNL A   1      43.748  23.208  24.601  1.00  0.00     0.002 A 
ATOM     44  C   UNL A   1      42.463  21.862  26.155  1.00  0.00     0.091 A 
ATOM     45  F   UNL A   1      41.819  22.799  28.254  1.00  0.00    -0.205 F 
ATOM     46  C   UNL A   1      43.103  22.016  24.915  1.00  0.00     0.022 A 
BRANCH  44  47
ATOM     47  S   UNL A   1      41.722  20.260  26.497  1.00  0.00     0.127 S 
ATOM     48  O   UNL A   1      42.325  19.925  27.785  1.00  0.00    -0.237 OA
ATOM     49  O   UNL A   1      40.296  20.585  26.558  1.00  0.00    -0.237 OA
ATOM     50  O   UNL A   1      42.099  19.401  25.383  1.00  0.00    -0.744 OA
ENDBRANCH  44  47
ENDBRANCH  26  40
BRANCH  27  51
ATOM     51  C   UNL A   1      43.284  31.393  33.618  1.00  0.00     0.023 A 
ATOM     52  C   UNL A   1      43.730  32.683  33.273  1.00  0.00     0.012 A 
ATOM     53  C   UNL A   1      42.801  31.156  34.920  1.00  0.00     0.148 A 
ATOM     54  C   UNL A   1      43.715  33.713  34.214  1.00  0.00     0.002 A 
ATOM     55  C   UNL A   1      42.733  32.200  35.833  1.00  0.00     0.091 A 
ATOM     56  F   UNL A   1      42.397  29.916  35.233  1.00  0.00    -0.205 F 
ATOM     57  C   UNL A   1      43.204  33.476  35.488  1.00  0.00     0.022 A 
BRANCH  55  58
ATOM     58  S   UNL A   1      41.953  32.013  37.441  1.00  0.00     0.127 S 
ATOM     59  O   UNL A   1      42.121  33.346  38.012  1.00  0.00    -0.237 OA
ATOM     60  O   UNL A   1      40.579  31.666  37.076  1.00  0.00    -0.237 OA
ATOM     61  O   UNL A   1      42.683  30.938  38.101  1.00  0.00    -0.744 OA
ENDBRANCH  55  58
ENDBRANCH  27  51
BRANCH  39  62
ATOM     62  C   UNL A   1      48.004  26.773  31.360  1.00  0.00     0.023 A 
ATOM     63  C   UNL A   1      48.252  25.886  32.426  1.00  0.00     0.012 A 
ATOM     64  C   UNL A   1      49.089  27.325  30.651  1.00  0.00     0.148 A 
ATOM     65  C   UNL A   1      49.559  25.579  32.802  1.00  0.00     0.002 A 
ATOM     66  C   UNL A   1      50.388  26.979  31.002  1.00  0.00     0.091 A 
ATOM     67  F   UNL A   1      48.833  28.185  29.654  1.00  0.00    -0.205 F 
ATOM     68  C   UNL A   1      50.625  26.114  32.083  1.00  0.00     0.022 A 
BRANCH  66  69
ATOM     69  S   UNL A   1      51.817  27.553  30.076  1.00  0.00     0.127 S 
ATOM     70  O   UNL A   1      51.701  29.003  30.217  1.00  0.00    -0.237 OA
ATOM     71  O   UNL A   1      52.929  26.956  30.815  1.00  0.00    -0.237 OA
ATOM     72  O   UNL A   1      51.648  27.037  28.724  1.00  0.00    -0.744 OA
ENDBRANCH  66  69
ENDBRANCH  39  62
ENDBRANCH  13  14
ENDBRANCH   6   8
ENDBRANCH   3   4
ENDBRANCH   2   3
ENDBRANCH   1   2
BRANCH   1  73
ATOM     73  C   UNL A   1      38.174  32.940  29.503  1.00  0.00     0.002 C 
BRANCH  73  74
ATOM     74  C   UNL A   1      39.441  33.725  29.863  1.00  0.00     0.021 C 
BRANCH  74  75
ATOM     75  C   UNL A   1      39.250  34.852  30.876  1.00  0.00     0.116 C 
BRANCH  75  76
ATOM     76  N   UNL A   1      39.892  34.563  32.148  1.00  0.00    -0.351 N 
ATOM     77  C   UNL A   1      39.341  34.070  33.308  1.00  0.00     0.271 C 
ATOM     78  H   UNL A   1      40.859  34.747  32.184  1.00  0.00     0.163 HD
ATOM     79  O   UNL A   1      40.027  33.983  34.323  1.00  0.00    -0.267 OA
BRANCH  77  80
ATOM     80  C   UNL A   1      37.930  33.619  33.322  1.00  0.00     0.150 A 
ATOM     81  C   UNL A   1      37.637  32.276  33.122  1.00  0.00     0.145 A 
ATOM     82  N   UNL A   1      36.974  34.558  33.550  1.00  0.00    -0.205 NA
ATOM     83  N   UNL A   1      36.365  31.809  33.100  1.00  0.00    -0.257 NA
ATOM     84  C   UNL A   1      35.707  34.088  33.544  1.00  0.00     0.238 A 
ATOM     85  C   UNL A   1      35.409  32.748  33.313  1.00  0.00     0.179 A 
BRANCH  84  86
ATOM     86  O   UNL A   1      34.625  34.937  33.740  1.00  0.00    -0.434 OA
BRANCH  86  87
ATOM     87  C   UNL A   1      34.168  35.631  32.647  1.00  0.00     0.168 A 
ATOM     88  C   UNL A   1      33.860  34.988  31.449  1.00  0.00     0.089 A 
ATOM     89  C   UNL A   1      33.897  36.993  32.795  1.00  0.00     0.166 A 
ATOM     90  C   UNL A   1      33.320  35.729  30.404  1.00  0.00     0.127 A 
ATOM     91  C   UNL A   1      33.350  37.729  31.747  1.00  0.00     0.046 A 
ATOM     92  F   UNL A   1      34.148  37.608  33.960  1.00  0.00    -0.203 F 
ATOM     93  F   UNL A   1      33.026  35.122  29.248  1.00  0.00    -0.207 F 
ATOM     94  C   UNL A   1      33.061  37.092  30.540  1.00  0.00     0.042 A 
ENDBRANCH  86  87
ENDBRANCH  84  86
ENDBRANCH  77  80
ENDBRANCH  75  76
ENDBRANCH  74  75
ENDBRANCH  73  74
ENDBRANCH   1  73
TORSDOF 18
ENDMDL
