MODEL 1
REMARK VINA RESULT:     -12.0      0.000      0.000
REMARK SMILES C=C(C(=O)NCCCCCCNC(=O)c1ccc(-c2c3nc(c(-c4cccc(S(=O)(=O)[O-])c4F)c4ccc([nH]4)c(-c4cccc(S(=O)(=O)[O-])c4F)c4nc(c(-c5cccc(S(=O)(=O)[O-])c5F)c5ccc2[nH]5)C=C4)C=C3)cc1)[C@@H]1CC[C@]2(C)CCCC(=C)[C@H]2[C@H]1O
REMARK SMILES IDX 9 1 8 2 7 3 6 4 5 5 3 6 4 7 2 9 1 10 78 11 79 12 89 13 80 14
REMARK SMILES IDX 88 15 81 16 86 17 82 18 83 19 85 20 87 21 84 22 90 23 10 25
REMARK SMILES IDX 11 26 12 27 13 28 14 30 15 31 16 32 77 33 17 34 76 35 18 36
REMARK SMILES IDX 19 37 20 38 70 39 21 40 75 41 69 42 71 43 22 44 74 45 68 46
REMARK SMILES IDX 67 47 23 49 55 50 35 51 54 52 36 53 39 54 53 55 72 56 37 57
REMARK SMILES IDX 38 58 52 60 73 61 40 62 24 63 25 64 33 65 26 66 28 67 34 68
REMARK SMILES IDX 27 69 29 70 30 71 31 72 32 73 56 74 57 75 65 76 58 77 60 78
REMARK SMILES IDX 66 79 59 80 61 81 62 82 63 83 64 84 41 85 42 86 50 87 43 88
REMARK SMILES IDX 45 89 51 90 44 91 46 92 47 93 48 94 49 95
REMARK H PARENT 5 8 90 24 12 29 71 48 39 59
REMARK Flexibility Score: inf
ROOT
ATOM      1  C   UNL A   1      36.822  21.125  24.644  1.00  0.00     0.002 C 
ENDROOT
BRANCH   1   2
ATOM      2  C   UNL A   1      35.414  20.827  25.169  1.00  0.00     0.002 C 
BRANCH   2   3
ATOM      3  C   UNL A   1      35.085  21.463  26.530  1.00  0.00     0.021 C 
BRANCH   3   4
ATOM      4  C   UNL A   1      33.925  22.468  26.473  1.00  0.00     0.116 C 
BRANCH   4   5
ATOM      5  N   UNL A   1      32.670  21.741  26.459  1.00  0.00    -0.352 N 
ATOM      6  C   UNL A   1      31.718  21.723  25.487  1.00  0.00     0.246 C 
ATOM      7  O   UNL A   1      30.544  21.777  25.845  1.00  0.00    -0.270 OA
ATOM      8  H   UNL A   1      32.484  21.189  27.253  1.00  0.00     0.163 HD
BRANCH   6   9
ATOM      9  C   UNL A   1      32.083  21.529  24.052  1.00  0.00     0.015 C 
ATOM     10  C   UNL A   1      32.437  20.319  23.580  1.00  0.00     0.019 C 
BRANCH   9  11
ATOM     11  C   UNL A   1      32.225  22.750  23.136  1.00  0.00     0.053 C 
ATOM     12  C   UNL A   1      33.653  23.175  22.723  1.00  0.00     0.012 C 
ATOM     13  C   UNL A   1      31.375  23.969  23.597  1.00  0.00     0.129 C 
ATOM     14  C   UNL A   1      34.355  24.129  23.693  1.00  0.00     0.008 C 
ATOM     15  C   UNL A   1      32.124  24.892  24.600  1.00  0.00     0.050 C 
ATOM     16  C   UNL A   1      33.519  25.369  24.078  1.00  0.00    -0.024 C 
ATOM     17  C   UNL A   1      31.350  26.081  25.181  1.00  0.00    -0.071 C 
ATOM     18  C   UNL A   1      33.435  26.320  22.860  1.00  0.00     0.012 C 
ATOM     19  C   UNL A   1      34.266  26.114  25.227  1.00  0.00     0.008 C 
ATOM     20  C   UNL A   1      32.078  26.788  26.301  1.00  0.00     0.031 C 
ATOM     21  C   UNL A   1      30.144  26.514  24.779  1.00  0.00     0.008 C 
ATOM     22  C   UNL A   1      33.457  27.256  25.844  1.00  0.00     0.005 C 
BRANCH  13  23
ATOM     23  O   UNL A   1      30.922  24.698  22.443  1.00  0.00    -0.392 OA
ATOM     24  H   UNL A   1      30.125  24.275  22.085  1.00  0.00     0.211 HD
ENDBRANCH  13  23
ENDBRANCH   9  11
ENDBRANCH   6   9
ENDBRANCH   4   5
ENDBRANCH   3   4
ENDBRANCH   2   3
ENDBRANCH   1   2
BRANCH   1  25
ATOM     25  C   UNL A   1      37.851  20.026  24.921  1.00  0.00     0.021 C 
BRANCH  25  26
ATOM     26  C   UNL A   1      38.991  20.459  25.836  1.00  0.00     0.116 C 
BRANCH  26  27
ATOM     27  N   UNL A   1      39.989  19.409  25.982  1.00  0.00    -0.352 N 
ATOM     28  C   UNL A   1      41.347  19.534  26.135  1.00  0.00     0.251 C 
ATOM     29  H   UNL A   1      39.644  18.486  25.969  1.00  0.00     0.163 HD
ATOM     30  O   UNL A   1      42.077  18.550  26.012  1.00  0.00    -0.269 OA
BRANCH  28  31
ATOM     31  C   UNL A   1      41.925  20.859  26.433  1.00  0.00     0.039 A 
ATOM     32  C   UNL A   1      42.173  21.746  25.383  1.00  0.00     0.014 A 
ATOM     33  C   UNL A   1      42.204  21.228  27.752  1.00  0.00     0.014 A 
ATOM     34  C   UNL A   1      42.647  23.029  25.662  1.00  0.00     0.010 A 
ATOM     35  C   UNL A   1      42.605  22.530  28.033  1.00  0.00     0.010 A 
ATOM     36  C   UNL A   1      42.836  23.443  26.993  1.00  0.00    -0.014 A 
BRANCH  36  37
ATOM     37  C   UNL A   1      43.253  24.831  27.316  1.00  0.00     0.031 A 
ATOM     38  C   UNL A   1      42.282  25.784  27.957  1.00  0.00     0.074 A 
ATOM     39  C   UNL A   1      44.473  25.260  26.944  1.00  0.00     0.049 A 
ATOM     40  N   UNL A   1      42.443  27.048  28.252  1.00  0.00    -0.248 NA
ATOM     41  C   UNL A   1      40.946  25.257  28.282  1.00  0.00     0.031 C 
ATOM     42  C   UNL A   1      45.472  24.456  26.237  1.00  0.00     0.029 A 
ATOM     43  N   UNL A   1      45.071  26.490  27.075  1.00  0.00    -0.354 N 
ATOM     44  C   UNL A   1      41.224  27.476  28.764  1.00  0.00     0.074 A 
ATOM     45  C   UNL A   1      40.321  26.347  28.706  1.00  0.00     0.031 C 
ATOM     46  C   UNL A   1      46.553  25.212  25.992  1.00  0.00     0.029 A 
ATOM     47  C   UNL A   1      46.314  26.563  26.492  1.00  0.00     0.049 A 
ATOM     48  H   UNL A   1      44.648  27.246  27.543  1.00  0.00     0.167 HD
ATOM     49  C   UNL A   1      40.893  28.691  29.263  1.00  0.00     0.034 A 
ATOM     50  C   UNL A   1      47.159  27.602  26.357  1.00  0.00     0.034 A 
ATOM     51  C   UNL A   1      41.802  29.802  29.347  1.00  0.00     0.049 A 
ATOM     52  C   UNL A   1      46.783  28.934  26.950  1.00  0.00     0.074 A 
ATOM     53  C   UNL A   1      41.593  31.042  29.922  1.00  0.00     0.029 A 
ATOM     54  N   UNL A   1      43.087  29.813  28.827  1.00  0.00    -0.354 N 
ATOM     55  N   UNL A   1      45.688  29.271  27.585  1.00  0.00    -0.248 NA
ATOM     56  C   UNL A   1      47.772  30.015  26.838  1.00  0.00     0.031 C 
ATOM     57  C   UNL A   1      42.742  31.817  29.720  1.00  0.00     0.029 A 
ATOM     58  C   UNL A   1      43.678  31.045  29.050  1.00  0.00     0.049 A 
ATOM     59  H   UNL A   1      43.517  29.056  28.366  1.00  0.00     0.167 HD
ATOM     60  C   UNL A   1      45.865  30.594  27.974  1.00  0.00     0.074 A 
ATOM     61  C   UNL A   1      47.185  30.987  27.524  1.00  0.00     0.031 C 
ATOM     62  C   UNL A   1      45.008  31.412  28.633  1.00  0.00     0.034 A 
BRANCH  49  63
ATOM     63  C   UNL A   1      39.494  28.868  29.798  1.00  0.00     0.023 A 
ATOM     64  C   UNL A   1      39.193  28.461  31.115  1.00  0.00     0.012 A 
ATOM     65  C   UNL A   1      38.490  29.474  29.018  1.00  0.00     0.148 A 
ATOM     66  C   UNL A   1      37.908  28.615  31.631  1.00  0.00     0.002 A 
ATOM     67  C   UNL A   1      37.223  29.667  29.557  1.00  0.00     0.091 A 
ATOM     68  F   UNL A   1      38.785  29.835  27.762  1.00  0.00    -0.205 F 
ATOM     69  C   UNL A   1      36.926  29.226  30.857  1.00  0.00     0.022 A 
BRANCH  67  70
ATOM     70  S   UNL A   1      35.913  30.518  28.670  1.00  0.00     0.127 S 
ATOM     71  O   UNL A   1      35.102  29.398  28.196  1.00  0.00    -0.237 OA
ATOM     72  O   UNL A   1      35.293  31.317  29.727  1.00  0.00    -0.237 OA
ATOM     73  O   UNL A   1      36.573  31.297  27.631  1.00  0.00    -0.744 OA
ENDBRANCH  67  70
ENDBRANCH  49  63
BRANCH  50  74
ATOM     74  C   UNL A   1      48.465  27.408  25.665  1.00  0.00     0.023 A 
ATOM     75  C   UNL A   1      49.594  27.013  26.407  1.00  0.00     0.012 A 
ATOM     76  C   UNL A   1      48.579  27.569  24.271  1.00  0.00     0.148 A 
ATOM     77  C   UNL A   1      50.822  26.809  25.776  1.00  0.00     0.002 A 
ATOM     78  C   UNL A   1      49.789  27.307  23.641  1.00  0.00     0.091 A 
ATOM     79  F   UNL A   1      47.494  27.954  23.586  1.00  0.00    -0.205 F 
ATOM     80  C   UNL A   1      50.917  26.945  24.394  1.00  0.00     0.022 A 
BRANCH  78  81
ATOM     81  S   UNL A   1      49.967  27.321  21.854  1.00  0.00     0.127 S 
ATOM     82  O   UNL A   1      51.346  26.869  21.686  1.00  0.00    -0.237 OA
ATOM     83  O   UNL A   1      48.948  26.354  21.443  1.00  0.00    -0.237 OA
ATOM     84  O   UNL A   1      49.696  28.691  21.441  1.00  0.00    -0.744 OA
ENDBRANCH  78  81
ENDBRANCH  50  74
BRANCH  62  85
ATOM     85  C   UNL A   1      45.472  32.813  28.939  1.00  0.00     0.023 A 
ATOM     86  C   UNL A   1      46.199  33.070  30.119  1.00  0.00     0.012 A 
ATOM     87  C   UNL A   1      45.257  33.857  28.018  1.00  0.00     0.148 A 
ATOM     88  C   UNL A   1      46.676  34.351  30.392  1.00  0.00     0.002 A 
ATOM     89  C   UNL A   1      45.779  35.120  28.273  1.00  0.00     0.091 A 
ATOM     90  F   UNL A   1      44.548  33.597  26.910  1.00  0.00    -0.205 F 
ATOM     91  C   UNL A   1      46.478  35.371  29.465  1.00  0.00     0.022 A 
BRANCH  89  92
ATOM     92  S   UNL A   1      45.658  36.471  27.095  1.00  0.00     0.127 S 
ATOM     93  O   UNL A   1      46.431  37.517  27.761  1.00  0.00    -0.237 OA
ATOM     94  O   UNL A   1      46.296  35.902  25.907  1.00  0.00    -0.237 OA
ATOM     95  O   UNL A   1      44.236  36.748  26.944  1.00  0.00    -0.744 OA
ENDBRANCH  89  92
ENDBRANCH  62  85
ENDBRANCH  36  37
ENDBRANCH  28  31
ENDBRANCH  26  27
ENDBRANCH  25  26
ENDBRANCH   1  25
TORSDOF 18
ENDMDL
MODEL 2
REMARK VINA RESULT:     -11.8      6.383     11.549
REMARK SMILES C=C(C(=O)NCCCCCCNC(=O)c1ccc(-c2c3nc(c(-c4cccc(S(=O)(=O)[O-])c4F)c4ccc([nH]4)c(-c4cccc(S(=O)(=O)[O-])c4F)c4nc(c(-c5cccc(S(=O)(=O)[O-])c5F)c5ccc2[nH]5)C=C4)C=C3)cc1)[C@@H]1CC[C@]2(C)CCCC(=C)[C@H]2[C@H]1O
REMARK SMILES IDX 9 1 8 2 7 3 6 4 5 5 3 6 4 7 2 9 1 10 78 11 79 12 89 13 80 14
REMARK SMILES IDX 88 15 81 16 86 17 82 18 83 19 85 20 87 21 84 22 90 23 10 25
REMARK SMILES IDX 11 26 12 27 13 28 14 30 15 31 16 32 77 33 17 34 76 35 18 36
REMARK SMILES IDX 19 37 20 38 70 39 21 40 75 41 69 42 71 43 22 44 74 45 68 46
REMARK SMILES IDX 67 47 23 49 55 50 35 51 54 52 36 53 39 54 53 55 72 56 37 57
REMARK SMILES IDX 38 58 52 60 73 61 40 62 24 63 25 64 33 65 26 66 28 67 34 68
REMARK SMILES IDX 27 69 29 70 30 71 31 72 32 73 56 74 57 75 65 76 58 77 60 78
REMARK SMILES IDX 66 79 59 80 61 81 62 82 63 83 64 84 41 85 42 86 50 87 43 88
REMARK SMILES IDX 45 89 51 90 44 91 46 92 47 93 48 94 49 95
REMARK H PARENT 5 8 90 24 12 29 71 48 39 59
REMARK Flexibility Score: inf
ROOT
ATOM      1  C   UNL A   1      31.842  30.639  26.132  1.00  0.00     0.002 C 
ENDROOT
BRANCH   1   2
ATOM      2  C   UNL A   1      31.961  29.411  27.040  1.00  0.00     0.002 C 
BRANCH   2   3
ATOM      3  C   UNL A   1      33.331  28.711  27.002  1.00  0.00     0.021 C 
BRANCH   3   4
ATOM      4  C   UNL A   1      33.468  27.694  25.861  1.00  0.00     0.116 C 
BRANCH   4   5
ATOM      5  N   UNL A   1      32.405  26.714  25.970  1.00  0.00    -0.352 N 
ATOM      6  C   UNL A   1      31.389  26.473  25.098  1.00  0.00     0.246 C 
ATOM      7  O   UNL A   1      30.271  26.279  25.571  1.00  0.00    -0.270 OA
ATOM      8  H   UNL A   1      32.420  26.150  26.778  1.00  0.00     0.163 HD
BRANCH   6   9
ATOM      9  C   UNL A   1      31.645  26.334  23.634  1.00  0.00     0.015 C 
ATOM     10  C   UNL A   1      31.518  27.383  22.800  1.00  0.00     0.019 C 
BRANCH   9  11
ATOM     11  C   UNL A   1      31.889  24.942  23.039  1.00  0.00     0.053 C 
ATOM     12  C   UNL A   1      30.903  23.815  23.424  1.00  0.00     0.012 C 
ATOM     13  C   UNL A   1      33.367  24.473  23.151  1.00  0.00     0.129 C 
ATOM     14  C   UNL A   1      31.249  23.057  24.708  1.00  0.00     0.008 C 
ATOM     15  C   UNL A   1      33.674  23.731  24.483  1.00  0.00     0.050 C 
ATOM     16  C   UNL A   1      32.704  22.537  24.764  1.00  0.00    -0.024 C 
ATOM     17  C   UNL A   1      35.123  23.296  24.733  1.00  0.00    -0.071 C 
ATOM     18  C   UNL A   1      32.859  21.363  23.768  1.00  0.00     0.012 C 
ATOM     19  C   UNL A   1      32.964  21.994  26.202  1.00  0.00     0.008 C 
ATOM     20  C   UNL A   1      35.366  22.782  26.134  1.00  0.00     0.031 C 
ATOM     21  C   UNL A   1      36.126  23.331  23.841  1.00  0.00     0.008 C 
ATOM     22  C   UNL A   1      34.426  21.626  26.462  1.00  0.00     0.005 C 
BRANCH  13  23
ATOM     23  O   UNL A   1      33.701  23.667  22.007  1.00  0.00    -0.392 OA
ATOM     24  H   UNL A   1      34.660  23.694  21.861  1.00  0.00     0.211 HD
ENDBRANCH  13  23
ENDBRANCH   9  11
ENDBRANCH   6   9
ENDBRANCH   4   5
ENDBRANCH   3   4
ENDBRANCH   2   3
ENDBRANCH   1   2
BRANCH   1  25
ATOM     25  C   UNL A   1      31.549  31.949  26.867  1.00  0.00     0.021 C 
BRANCH  25  26
ATOM     26  C   UNL A   1      32.793  32.661  27.387  1.00  0.00     0.116 C 
BRANCH  26  27
ATOM     27  N   UNL A   1      32.530  34.067  27.662  1.00  0.00    -0.352 N 
ATOM     28  C   UNL A   1      33.066  34.862  28.643  1.00  0.00     0.251 C 
ATOM     29  H   UNL A   1      31.882  34.505  27.063  1.00  0.00     0.163 HD
ATOM     30  O   UNL A   1      32.571  35.962  28.887  1.00  0.00    -0.269 OA
BRANCH  28  31
ATOM     31  C   UNL A   1      34.231  34.381  29.411  1.00  0.00     0.039 A 
ATOM     32  C   UNL A   1      34.025  33.770  30.650  1.00  0.00     0.014 A 
ATOM     33  C   UNL A   1      35.523  34.520  28.897  1.00  0.00     0.014 A 
ATOM     34  C   UNL A   1      35.113  33.244  31.348  1.00  0.00     0.010 A 
ATOM     35  C   UNL A   1      36.596  33.929  29.559  1.00  0.00     0.010 A 
ATOM     36  C   UNL A   1      36.404  33.290  30.793  1.00  0.00    -0.014 A 
BRANCH  36  37
ATOM     37  C   UNL A   1      37.560  32.656  31.476  1.00  0.00     0.031 A 
ATOM     38  C   UNL A   1      38.273  31.495  30.840  1.00  0.00     0.074 A 
ATOM     39  C   UNL A   1      37.905  33.065  32.712  1.00  0.00     0.049 A 
ATOM     40  N   UNL A   1      39.257  30.774  31.313  1.00  0.00    -0.248 NA
ATOM     41  C   UNL A   1      37.801  31.068  29.512  1.00  0.00     0.031 C 
ATOM     42  C   UNL A   1      37.233  34.123  33.469  1.00  0.00     0.029 A 
ATOM     43  N   UNL A   1      38.883  32.616  33.564  1.00  0.00    -0.354 N 
ATOM     44  C   UNL A   1      39.498  29.791  30.361  1.00  0.00     0.074 A 
ATOM     45  C   UNL A   1      38.535  29.985  29.300  1.00  0.00     0.031 C 
ATOM     46  C   UNL A   1      37.814  34.237  34.674  1.00  0.00     0.029 A 
ATOM     47  C   UNL A   1      38.875  33.242  34.789  1.00  0.00     0.049 A 
ATOM     48  H   UNL A   1      39.529  31.914  33.321  1.00  0.00     0.167 HD
ATOM     49  C   UNL A   1      40.453  28.830  30.357  1.00  0.00     0.034 A 
ATOM     50  C   UNL A   1      39.622  33.027  35.889  1.00  0.00     0.034 A 
ATOM     51  C   UNL A   1      41.429  28.660  31.400  1.00  0.00     0.049 A 
ATOM     52  C   UNL A   1      40.699  31.976  35.848  1.00  0.00     0.074 A 
ATOM     53  C   UNL A   1      42.495  27.781  31.444  1.00  0.00     0.029 A 
ATOM     54  N   UNL A   1      41.448  29.372  32.589  1.00  0.00    -0.354 N 
ATOM     55  N   UNL A   1      41.025  31.169  34.868  1.00  0.00    -0.248 NA
ATOM     56  C   UNL A   1      41.534  31.833  37.049  1.00  0.00     0.031 C 
ATOM     57  C   UNL A   1      43.140  27.938  32.677  1.00  0.00     0.029 A 
ATOM     58  C   UNL A   1      42.496  28.940  33.384  1.00  0.00     0.049 A 
ATOM     59  H   UNL A   1      40.809  30.082  32.833  1.00  0.00     0.167 HD
ATOM     60  C   UNL A   1      42.118  30.441  35.321  1.00  0.00     0.074 A 
ATOM     61  C   UNL A   1      42.415  30.921  36.655  1.00  0.00     0.031 C 
ATOM     62  C   UNL A   1      42.806  29.455  34.695  1.00  0.00     0.034 A 
BRANCH  49  63
ATOM     63  C   UNL A   1      40.515  27.913  29.162  1.00  0.00     0.023 A 
ATOM     64  C   UNL A   1      39.622  26.824  29.071  1.00  0.00     0.012 A 
ATOM     65  C   UNL A   1      41.421  28.151  28.110  1.00  0.00     0.148 A 
ATOM     66  C   UNL A   1      39.660  25.963  27.976  1.00  0.00     0.002 A 
ATOM     67  C   UNL A   1      41.419  27.316  26.998  1.00  0.00     0.091 A 
ATOM     68  F   UNL A   1      42.276  29.176  28.221  1.00  0.00    -0.205 F 
ATOM     69  C   UNL A   1      40.550  26.214  26.936  1.00  0.00     0.022 A 
BRANCH  67  70
ATOM     70  S   UNL A   1      42.471  27.602  25.571  1.00  0.00     0.127 S 
ATOM     71  O   UNL A   1      43.800  27.609  26.180  1.00  0.00    -0.237 OA
ATOM     72  O   UNL A   1      42.188  26.432  24.739  1.00  0.00    -0.237 OA
ATOM     73  O   UNL A   1      42.036  28.870  25.000  1.00  0.00    -0.744 OA
ENDBRANCH  67  70
ENDBRANCH  49  63
BRANCH  50  74
ATOM     74  C   UNL A   1      39.401  33.857  37.106  1.00  0.00     0.023 A 
ATOM     75  C   UNL A   1      39.798  35.207  37.110  1.00  0.00     0.012 A 
ATOM     76  C   UNL A   1      38.758  33.325  38.241  1.00  0.00     0.148 A 
ATOM     77  C   UNL A   1      39.585  36.007  38.234  1.00  0.00     0.002 A 
ATOM     78  C   UNL A   1      38.496  34.142  39.334  1.00  0.00     0.091 A 
ATOM     79  F   UNL A   1      38.397  32.035  38.219  1.00  0.00    -0.205 F 
ATOM     80  C   UNL A   1      38.925  35.478  39.340  1.00  0.00     0.022 A 
BRANCH  78  81
ATOM     81  S   UNL A   1      37.530  33.584  40.742  1.00  0.00     0.127 S 
ATOM     82  O   UNL A   1      38.429  32.611  41.356  1.00  0.00    -0.237 OA
ATOM     83  O   UNL A   1      37.357  34.826  41.497  1.00  0.00    -0.237 OA
ATOM     84  O   UNL A   1      36.297  33.043  40.185  1.00  0.00    -0.744 OA
ENDBRANCH  78  81
ENDBRANCH  50  74
BRANCH  62  85
ATOM     85  C   UNL A   1      43.971  28.839  35.426  1.00  0.00     0.023 A 
ATOM     86  C   UNL A   1      45.262  29.386  35.278  1.00  0.00     0.012 A 
ATOM     87  C   UNL A   1      43.772  27.769  36.321  1.00  0.00     0.148 A 
ATOM     88  C   UNL A   1      46.341  28.857  35.985  1.00  0.00     0.002 A 
ATOM     89  C   UNL A   1      44.843  27.281  37.061  1.00  0.00     0.091 A 
ATOM     90  F   UNL A   1      42.541  27.251  36.435  1.00  0.00    -0.205 F 
ATOM     91  C   UNL A   1      46.129  27.816  36.884  1.00  0.00     0.022 A 
BRANCH  89  92
ATOM     92  S   UNL A   1      44.651  26.007  38.312  1.00  0.00     0.127 S 
ATOM     93  O   UNL A   1      43.722  25.086  37.660  1.00  0.00    -0.237 OA
ATOM     94  O   UNL A   1      46.017  25.501  38.450  1.00  0.00    -0.237 OA
ATOM     95  O   UNL A   1      44.132  26.679  39.496  1.00  0.00    -0.744 OA
ENDBRANCH  89  92
ENDBRANCH  62  85
ENDBRANCH  36  37
ENDBRANCH  28  31
ENDBRANCH  26  27
ENDBRANCH  25  26
ENDBRANCH   1  25
TORSDOF 18
ENDMDL
MODEL 3
REMARK VINA RESULT:     -11.8      5.340      8.719
REMARK SMILES C=C(C(=O)NCCCCCCNC(=O)c1ccc(-c2c3nc(c(-c4cccc(S(=O)(=O)[O-])c4F)c4ccc([nH]4)c(-c4cccc(S(=O)(=O)[O-])c4F)c4nc(c(-c5cccc(S(=O)(=O)[O-])c5F)c5ccc2[nH]5)C=C4)C=C3)cc1)[C@@H]1CC[C@]2(C)CCCC(=C)[C@H]2[C@H]1O
REMARK SMILES IDX 9 1 8 2 7 3 6 4 5 5 3 6 4 7 2 9 1 10 78 11 79 12 89 13 80 14
REMARK SMILES IDX 88 15 81 16 86 17 82 18 83 19 85 20 87 21 84 22 90 23 10 25
REMARK SMILES IDX 11 26 12 27 13 28 14 30 15 31 16 32 77 33 17 34 76 35 18 36
REMARK SMILES IDX 19 37 20 38 70 39 21 40 75 41 69 42 71 43 22 44 74 45 68 46
REMARK SMILES IDX 67 47 23 49 55 50 35 51 54 52 36 53 39 54 53 55 72 56 37 57
REMARK SMILES IDX 38 58 52 60 73 61 40 62 24 63 25 64 33 65 26 66 28 67 34 68
REMARK SMILES IDX 27 69 29 70 30 71 31 72 32 73 56 74 57 75 65 76 58 77 60 78
REMARK SMILES IDX 66 79 59 80 61 81 62 82 63 83 64 84 41 85 42 86 50 87 43 88
REMARK SMILES IDX 45 89 51 90 44 91 46 92 47 93 48 94 49 95
REMARK H PARENT 5 8 90 24 12 29 71 48 39 59
REMARK Flexibility Score: inf
ROOT
ATOM      1  C   UNL A   1      33.688  27.687  26.409  1.00  0.00     0.002 C 
ENDROOT
BRANCH   1   2
ATOM      2  C   UNL A   1      32.527  26.690  26.504  1.00  0.00     0.002 C 
BRANCH   2   3
ATOM      3  C   UNL A   1      31.135  27.297  26.261  1.00  0.00     0.021 C 
BRANCH   3   4
ATOM      4  C   UNL A   1      31.111  28.349  25.144  1.00  0.00     0.116 C 
BRANCH   4   5
ATOM      5  N   UNL A   1      30.492  27.774  23.966  1.00  0.00    -0.352 N 
ATOM      6  C   UNL A   1      31.070  27.478  22.770  1.00  0.00     0.246 C 
ATOM      7  O   UNL A   1      30.439  27.755  21.752  1.00  0.00    -0.270 OA
ATOM      8  H   UNL A   1      29.531  27.571  24.040  1.00  0.00     0.163 HD
BRANCH   6   9
ATOM      9  C   UNL A   1      32.366  26.740  22.701  1.00  0.00     0.015 C 
ATOM     10  C   UNL A   1      33.541  27.395  22.660  1.00  0.00     0.019 C 
BRANCH   9  11
ATOM     11  C   UNL A   1      32.359  25.220  22.502  1.00  0.00     0.053 C 
ATOM     12  C   UNL A   1      31.192  24.420  23.125  1.00  0.00     0.012 C 
ATOM     13  C   UNL A   1      33.733  24.552  22.794  1.00  0.00     0.129 C 
ATOM     14  C   UNL A   1      31.406  23.981  24.577  1.00  0.00     0.008 C 
ATOM     15  C   UNL A   1      33.911  24.148  24.286  1.00  0.00     0.050 C 
ATOM     16  C   UNL A   1      32.747  23.255  24.828  1.00  0.00    -0.024 C 
ATOM     17  C   UNL A   1      35.261  23.554  24.702  1.00  0.00    -0.071 C 
ATOM     18  C   UNL A   1      32.690  21.850  24.182  1.00  0.00     0.012 C 
ATOM     19  C   UNL A   1      32.915  23.076  26.368  1.00  0.00     0.008 C 
ATOM     20  C   UNL A   1      35.417  23.396  26.197  1.00  0.00     0.031 C 
ATOM     21  C   UNL A   1      36.252  23.180  23.876  1.00  0.00     0.008 C 
ATOM     22  C   UNL A   1      34.290  22.546  26.776  1.00  0.00     0.005 C 
BRANCH  13  23
ATOM     23  O   UNL A   1      33.915  23.427  21.916  1.00  0.00    -0.392 OA
ATOM     24  H   UNL A   1      34.820  23.432  21.568  1.00  0.00     0.211 HD
ENDBRANCH  13  23
ENDBRANCH   9  11
ENDBRANCH   6   9
ENDBRANCH   4   5
ENDBRANCH   3   4
ENDBRANCH   2   3
ENDBRANCH   1   2
BRANCH   1  25
ATOM     25  C   UNL A   1      33.548  28.914  27.312  1.00  0.00     0.021 C 
BRANCH  25  26
ATOM     26  C   UNL A   1      34.154  30.187  26.729  1.00  0.00     0.116 C 
BRANCH  26  27
ATOM     27  N   UNL A   1      33.970  31.324  27.619  1.00  0.00    -0.352 N 
ATOM     28  C   UNL A   1      34.683  31.655  28.743  1.00  0.00     0.251 C 
ATOM     29  H   UNL A   1      33.237  31.938  27.381  1.00  0.00     0.163 HD
ATOM     30  O   UNL A   1      34.259  32.517  29.513  1.00  0.00    -0.269 OA
BRANCH  28  31
ATOM     31  C   UNL A   1      35.953  30.960  29.028  1.00  0.00     0.039 A 
ATOM     32  C   UNL A   1      37.135  31.437  28.456  1.00  0.00     0.014 A 
ATOM     33  C   UNL A   1      35.976  29.848  29.875  1.00  0.00     0.014 A 
ATOM     34  C   UNL A   1      38.350  30.833  28.781  1.00  0.00     0.010 A 
ATOM     35  C   UNL A   1      37.196  29.296  30.255  1.00  0.00     0.010 A 
ATOM     36  C   UNL A   1      38.394  29.777  29.709  1.00  0.00    -0.014 A 
BRANCH  36  37
ATOM     37  C   UNL A   1      39.685  29.181  30.138  1.00  0.00     0.031 A 
ATOM     38  C   UNL A   1      40.487  29.820  31.238  1.00  0.00     0.074 A 
ATOM     39  C   UNL A   1      40.180  28.122  29.470  1.00  0.00     0.049 A 
ATOM     40  N   UNL A   1      41.663  29.482  31.702  1.00  0.00    -0.248 NA
ATOM     41  C   UNL A   1      39.907  31.009  31.883  1.00  0.00     0.031 C 
ATOM     42  C   UNL A   1      39.538  27.469  28.328  1.00  0.00     0.029 A 
ATOM     43  N   UNL A   1      41.355  27.430  29.630  1.00  0.00    -0.354 N 
ATOM     44  C   UNL A   1      41.977  30.433  32.665  1.00  0.00     0.074 A 
ATOM     45  C   UNL A   1      40.886  31.383  32.694  1.00  0.00     0.031 C 
ATOM     46  C   UNL A   1      40.327  26.477  27.887  1.00  0.00     0.029 A 
ATOM     47  C   UNL A   1      41.545  26.443  28.691  1.00  0.00     0.049 A 
ATOM     48  H   UNL A   1      41.999  27.621  30.350  1.00  0.00     0.167 HD
ATOM     49  C   UNL A   1      43.064  30.497  33.472  1.00  0.00     0.034 A 
ATOM     50  C   UNL A   1      42.588  25.617  28.485  1.00  0.00     0.034 A 
ATOM     51  C   UNL A   1      44.132  29.534  33.461  1.00  0.00     0.049 A 
ATOM     52  C   UNL A   1      43.770  25.684  29.416  1.00  0.00     0.074 A 
ATOM     53  C   UNL A   1      45.227  29.455  34.302  1.00  0.00     0.029 A 
ATOM     54  N   UNL A   1      44.248  28.492  32.554  1.00  0.00    -0.354 N 
ATOM     55  N   UNL A   1      43.970  26.485  30.434  1.00  0.00    -0.248 NA
ATOM     56  C   UNL A   1      44.848  24.712  29.193  1.00  0.00     0.031 C 
ATOM     57  C   UNL A   1      46.025  28.384  33.882  1.00  0.00     0.029 A 
ATOM     58  C   UNL A   1      45.406  27.775  32.802  1.00  0.00     0.049 A 
ATOM     59  H   UNL A   1      43.602  28.291  31.839  1.00  0.00     0.167 HD
ATOM     60  C   UNL A   1      45.184  26.097  30.990  1.00  0.00     0.074 A 
ATOM     61  C   UNL A   1      45.659  24.973  30.211  1.00  0.00     0.031 C 
ATOM     62  C   UNL A   1      45.850  26.632  32.044  1.00  0.00     0.034 A 
BRANCH  49  63
ATOM     63  C   UNL A   1      43.128  31.628  34.467  1.00  0.00     0.023 A 
ATOM     64  C   UNL A   1      43.769  32.834  34.113  1.00  0.00     0.012 A 
ATOM     65  C   UNL A   1      42.520  31.517  35.733  1.00  0.00     0.148 A 
ATOM     66  C   UNL A   1      43.841  33.893  35.015  1.00  0.00     0.002 A 
ATOM     67  C   UNL A   1      42.554  32.595  36.609  1.00  0.00     0.091 A 
ATOM     68  F   UNL A   1      41.934  30.358  36.063  1.00  0.00    -0.205 F 
ATOM     69  C   UNL A   1      43.226  33.778  36.258  1.00  0.00     0.022 A 
BRANCH  67  70
ATOM     70  S   UNL A   1      41.722  32.576  38.201  1.00  0.00     0.127 S 
ATOM     71  O   UNL A   1      41.925  33.950  38.656  1.00  0.00    -0.237 OA
ATOM     72  O   UNL A   1      40.345  32.255  37.825  1.00  0.00    -0.237 OA
ATOM     73  O   UNL A   1      42.390  31.550  38.990  1.00  0.00    -0.744 OA
ENDBRANCH  67  70
ENDBRANCH  49  63
BRANCH  50  74
ATOM     74  C   UNL A   1      42.539  24.627  27.373  1.00  0.00     0.023 A 
ATOM     75  C   UNL A   1      43.353  24.812  26.239  1.00  0.00     0.012 A 
ATOM     76  C   UNL A   1      41.724  23.481  27.456  1.00  0.00     0.148 A 
ATOM     77  C   UNL A   1      43.334  23.887  25.194  1.00  0.00     0.002 A 
ATOM     78  C   UNL A   1      41.755  22.535  26.440  1.00  0.00     0.091 A 
ATOM     79  F   UNL A   1      40.951  23.330  28.540  1.00  0.00    -0.205 F 
ATOM     80  C   UNL A   1      42.545  22.744  25.299  1.00  0.00     0.022 A 
BRANCH  78  81
ATOM     81  S   UNL A   1      40.880  20.970  26.554  1.00  0.00     0.127 S 
ATOM     82  O   UNL A   1      41.683  20.113  25.686  1.00  0.00    -0.237 OA
ATOM     83  O   UNL A   1      40.983  20.672  27.983  1.00  0.00    -0.237 OA
ATOM     84  O   UNL A   1      39.525  21.242  26.094  1.00  0.00    -0.744 OA
ENDBRANCH  78  81
ENDBRANCH  50  74
BRANCH  62  85
ATOM     85  C   UNL A   1      47.156  25.995  32.442  1.00  0.00     0.023 A 
ATOM     86  C   UNL A   1      48.360  26.439  31.858  1.00  0.00     0.012 A 
ATOM     87  C   UNL A   1      47.198  25.013  33.451  1.00  0.00     0.148 A 
ATOM     88  C   UNL A   1      49.581  25.893  32.251  1.00  0.00     0.002 A 
ATOM     89  C   UNL A   1      48.423  24.511  33.874  1.00  0.00     0.091 A 
ATOM     90  F   UNL A   1      46.041  24.592  33.981  1.00  0.00    -0.205 F 
ATOM     91  C   UNL A   1      49.614  24.940  33.266  1.00  0.00     0.022 A 
BRANCH  89  92
ATOM     92  S   UNL A   1      48.572  23.352  35.238  1.00  0.00     0.127 S 
ATOM     93  O   UNL A   1      47.978  22.144  34.670  1.00  0.00    -0.237 OA
ATOM     94  O   UNL A   1      50.022  23.287  35.432  1.00  0.00    -0.237 OA
ATOM     95  O   UNL A   1      47.840  23.942  36.351  1.00  0.00    -0.744 OA
ENDBRANCH  89  92
ENDBRANCH  62  85
ENDBRANCH  36  37
ENDBRANCH  28  31
ENDBRANCH  26  27
ENDBRANCH  25  26
ENDBRANCH   1  25
TORSDOF 18
ENDMDL
