MODEL 1
REMARK VINA RESULT:     -12.8      0.000      0.000
REMARK SMILES CCc1ccc(-c2cc(Cl)cc3c2O[C@H](C(F)(F)F)C(C(=O)NCCCCCCNC(=O)c2ccc(-c4c5nc(c(-c6cccc(S(=O)(=O)[O-])c6F)c6ccc([nH]6)c(-c6cccc(S(=O)(=O)[O-])c6F)c6nc(c(-c7cccc(S(=O)(=O)[O-])c7F)c7ccc4[nH]7)C=C6)C=C5)cc2)=C3)cc1
REMARK SMILES IDX 27 1 26 2 25 3 24 4 23 5 21 6 22 7 20 9 7 10 8 11 13 12 9 13
REMARK SMILES IDX 12 14 14 15 10 16 11 17 96 18 15 19 6 20 3 21 4 22 98 23
REMARK SMILES IDX 5 24 97 25 2 26 1 27 16 28 17 29 18 30 19 31 28 32 29 33
REMARK SMILES IDX 30 34 31 35 32 37 33 38 34 39 95 40 35 41 94 42 36 43 37 44
REMARK SMILES IDX 38 45 88 46 39 47 93 48 87 49 89 50 40 51 92 52 86 53 85 54
REMARK SMILES IDX 41 56 73 57 53 58 72 59 54 60 57 61 71 62 90 63 55 64 56 65
REMARK SMILES IDX 70 67 91 68 58 69 42 70 43 71 51 72 44 73 46 74 52 75 45 76
REMARK SMILES IDX 47 77 48 78 49 79 50 80 74 81 75 82 83 83 76 84 78 85 84 86
REMARK SMILES IDX 77 87 79 88 80 89 81 90 82 91 59 92 60 93 68 94 61 95 63 96
REMARK SMILES IDX 69 97 62 98 64 99 65 100 66 101 67 102
REMARK H PARENT 23 8 30 36 89 55 57 66
REMARK Flexibility Score: inf
ROOT
ATOM      1  C   UNL A   1      31.811  30.186  26.410  1.00  0.00     0.002 C 
ENDROOT
BRANCH   1   2
ATOM      2  C   UNL A   1      33.140  29.625  26.923  1.00  0.00     0.002 C 
BRANCH   2   3
ATOM      3  C   UNL A   1      33.963  28.855  25.876  1.00  0.00     0.021 C 
BRANCH   3   4
ATOM      4  C   UNL A   1      33.289  27.585  25.335  1.00  0.00     0.116 C 
BRANCH   4   5
ATOM      5  N   UNL A   1      34.014  26.416  25.794  1.00  0.00    -0.352 N 
ATOM      6  C   UNL A   1      33.574  25.137  25.726  1.00  0.00     0.251 C 
ATOM      7  O   UNL A   1      33.652  24.409  26.709  1.00  0.00    -0.270 OA
ATOM      8  H   UNL A   1      34.903  26.566  26.190  1.00  0.00     0.163 HD
BRANCH   6   9
ATOM      9  C   UNL A   1      33.179  24.643  24.374  1.00  0.00     0.067 C 
ATOM     10  C   UNL A   1      34.548  20.833  24.714  1.00  0.00     0.026 A 
ATOM     11  C   UNL A   1      35.862  20.914  25.250  1.00  0.00     0.033 A 
ATOM     12  C   UNL A   1      33.997  22.036  24.236  1.00  0.00     0.135 A 
ATOM     13  C   UNL A   1      36.638  22.069  25.178  1.00  0.00     0.042 A 
ATOM     14  C   UNL A   1      34.845  23.161  24.062  1.00  0.00     0.019 A 
ATOM     15  O   UNL A   1      32.641  22.206  23.982  1.00  0.00    -0.475 OA
ATOM     16  Cl  UNL A   1      38.199  22.097  25.898  1.00  0.00    -0.084 Cl
ATOM     17  C   UNL A   1      36.160  23.180  24.518  1.00  0.00     0.032 A 
ATOM     18  C   UNL A   1      34.238  24.418  23.573  1.00  0.00     0.025 C 
ATOM     19  C   UNL A   1      32.118  23.554  24.369  1.00  0.00     0.314 C 
BRANCH  10  20
ATOM     20  C   UNL A   1      34.026  19.446  24.577  1.00  0.00    -0.015 A 
ATOM     21  C   UNL A   1      33.565  16.726  25.353  1.00  0.00    -0.048 A 
ATOM     22  C   UNL A   1      32.633  17.731  25.646  1.00  0.00     0.004 A 
ATOM     23  C   UNL A   1      34.654  17.073  24.545  1.00  0.00     0.004 A 
ATOM     24  C   UNL A   1      32.849  19.061  25.251  1.00  0.00     0.009 A 
ATOM     25  C   UNL A   1      34.880  18.412  24.161  1.00  0.00     0.009 A 
BRANCH  21  26
ATOM     26  C   UNL A   1      33.327  15.329  25.888  1.00  0.00     0.032 C 
ATOM     27  C   UNL A   1      31.960  14.705  25.614  1.00  0.00     0.009 C 
ENDBRANCH  21  26
ENDBRANCH  10  20
BRANCH  19  28
ATOM     28  C   UNL A   1      30.967  24.020  23.447  1.00  0.00     0.429 C 
ATOM     29  F   UNL A   1      31.405  24.779  22.416  1.00  0.00    -0.167 F 
ATOM     30  F   UNL A   1      30.297  22.965  22.927  1.00  0.00    -0.167 F 
ATOM     31  F   UNL A   1      30.045  24.766  24.110  1.00  0.00    -0.167 F 
ENDBRANCH  19  28
ENDBRANCH   6   9
ENDBRANCH   4   5
ENDBRANCH   3   4
ENDBRANCH   2   3
ENDBRANCH   1   2
BRANCH   1  32
ATOM     32  C   UNL A   1      31.622  31.683  26.653  1.00  0.00     0.021 C 
BRANCH  32  33
ATOM     33  C   UNL A   1      32.822  32.377  27.283  1.00  0.00     0.116 C 
BRANCH  33  34
ATOM     34  N   UNL A   1      32.573  33.788  27.547  1.00  0.00    -0.352 N 
ATOM     35  C   UNL A   1      33.154  34.601  28.486  1.00  0.00     0.251 C 
ATOM     36  H   UNL A   1      31.896  34.214  26.973  1.00  0.00     0.163 HD
ATOM     37  O   UNL A   1      32.710  35.730  28.688  1.00  0.00    -0.269 OA
BRANCH  35  38
ATOM     38  C   UNL A   1      34.302  34.101  29.268  1.00  0.00     0.039 A 
ATOM     39  C   UNL A   1      34.061  33.307  30.392  1.00  0.00     0.014 A 
ATOM     40  C   UNL A   1      35.611  34.398  28.880  1.00  0.00     0.014 A 
ATOM     41  C   UNL A   1      35.138  32.763  31.094  1.00  0.00     0.010 A 
ATOM     42  C   UNL A   1      36.679  33.789  29.532  1.00  0.00     0.010 A 
ATOM     43  C   UNL A   1      36.454  32.975  30.652  1.00  0.00    -0.014 A 
BRANCH  43  44
ATOM     44  C   UNL A   1      37.605  32.338  31.340  1.00  0.00     0.031 A 
ATOM     45  C   UNL A   1      38.349  31.203  30.692  1.00  0.00     0.074 A 
ATOM     46  C   UNL A   1      37.922  32.719  32.593  1.00  0.00     0.049 A 
ATOM     47  N   UNL A   1      39.351  30.504  31.157  1.00  0.00    -0.248 NA
ATOM     48  C   UNL A   1      37.885  30.778  29.362  1.00  0.00     0.031 C 
ATOM     49  C   UNL A   1      37.212  33.737  33.369  1.00  0.00     0.029 A 
ATOM     50  N   UNL A   1      38.899  32.271  33.446  1.00  0.00    -0.354 N 
ATOM     51  C   UNL A   1      39.610  29.531  30.200  1.00  0.00     0.074 A 
ATOM     52  C   UNL A   1      38.636  29.709  29.144  1.00  0.00     0.031 C 
ATOM     53  C   UNL A   1      37.774  33.834  34.584  1.00  0.00     0.029 A 
ATOM     54  C   UNL A   1      38.861  32.865  34.685  1.00  0.00     0.049 A 
ATOM     55  H   UNL A   1      39.563  31.588  33.195  1.00  0.00     0.167 HD
ATOM     56  C   UNL A   1      40.585  28.589  30.186  1.00  0.00     0.034 A 
ATOM     57  C   UNL A   1      39.607  32.648  35.786  1.00  0.00     0.034 A 
ATOM     58  C   UNL A   1      41.569  28.438  31.223  1.00  0.00     0.049 A 
ATOM     59  C   UNL A   1      40.720  31.640  35.731  1.00  0.00     0.074 A 
ATOM     60  C   UNL A   1      42.667  27.597  31.250  1.00  0.00     0.029 A 
ATOM     61  N   UNL A   1      41.563  29.126  32.427  1.00  0.00    -0.354 N 
ATOM     62  N   UNL A   1      41.071  30.855  34.741  1.00  0.00    -0.248 NA
ATOM     63  C   UNL A   1      41.565  31.514  36.927  1.00  0.00     0.031 C 
ATOM     64  C   UNL A   1      43.300  27.746  32.490  1.00  0.00     0.029 A 
ATOM     65  C   UNL A   1      42.622  28.711  33.217  1.00  0.00     0.049 A 
ATOM     66  H   UNL A   1      40.902  29.809  32.684  1.00  0.00     0.167 HD
ATOM     67  C   UNL A   1      42.191  30.160  35.183  1.00  0.00     0.074 A 
ATOM     68  C   UNL A   1      42.473  30.635  36.522  1.00  0.00     0.031 C 
ATOM     69  C   UNL A   1      42.914  29.210  34.538  1.00  0.00     0.034 A 
BRANCH  56  70
ATOM     70  C   UNL A   1      40.643  27.668  28.993  1.00  0.00     0.023 A 
ATOM     71  C   UNL A   1      39.748  26.583  28.897  1.00  0.00     0.012 A 
ATOM     72  C   UNL A   1      41.569  27.890  27.956  1.00  0.00     0.148 A 
ATOM     73  C   UNL A   1      39.809  25.701  27.817  1.00  0.00     0.002 A 
ATOM     74  C   UNL A   1      41.591  27.038  26.857  1.00  0.00     0.091 A 
ATOM     75  F   UNL A   1      42.429  28.912  28.071  1.00  0.00    -0.205 F 
ATOM     76  C   UNL A   1      40.724  25.935  26.794  1.00  0.00     0.022 A 
BRANCH  74  77
ATOM     77  S   UNL A   1      42.674  27.307  25.451  1.00  0.00     0.127 S 
ATOM     78  O   UNL A   1      43.969  27.482  26.105  1.00  0.00    -0.237 OA
ATOM     79  O   UNL A   1      42.531  26.054  24.707  1.00  0.00    -0.237 OA
ATOM     80  O   UNL A   1      42.152  28.479  24.763  1.00  0.00    -0.744 OA
ENDBRANCH  74  77
ENDBRANCH  56  70
BRANCH  57  81
ATOM     81  C   UNL A   1      39.341  33.447  37.014  1.00  0.00     0.023 A 
ATOM     82  C   UNL A   1      38.467  32.947  37.997  1.00  0.00     0.012 A 
ATOM     83  C   UNL A   1      40.013  34.663  37.242  1.00  0.00     0.148 A 
ATOM     84  C   UNL A   1      38.254  33.652  39.182  1.00  0.00     0.002 A 
ATOM     85  C   UNL A   1      39.842  35.331  38.448  1.00  0.00     0.091 A 
ATOM     86  F   UNL A   1      40.837  35.121  36.289  1.00  0.00    -0.205 F 
ATOM     87  C   UNL A   1      38.951  34.837  39.413  1.00  0.00     0.022 A 
BRANCH  85  88
ATOM     88  S   UNL A   1      40.803  36.782  38.894  1.00  0.00     0.127 S 
ATOM     89  O   UNL A   1      41.633  36.968  37.705  1.00  0.00    -0.237 OA
ATOM     90  O   UNL A   1      39.757  37.787  39.081  1.00  0.00    -0.237 OA
ATOM     91  O   UNL A   1      41.521  36.424  40.110  1.00  0.00    -0.744 OA
ENDBRANCH  85  88
ENDBRANCH  57  81
BRANCH  69  92
ATOM     92  C   UNL A   1      44.102  28.626  35.260  1.00  0.00     0.023 A 
ATOM     93  C   UNL A   1      45.385  29.177  35.066  1.00  0.00     0.012 A 
ATOM     94  C   UNL A   1      43.933  27.579  36.187  1.00  0.00     0.148 A 
ATOM     95  C   UNL A   1      46.486  28.671  35.758  1.00  0.00     0.002 A 
ATOM     96  C   UNL A   1      45.025  27.117  36.912  1.00  0.00     0.091 A 
ATOM     97  F   UNL A   1      42.708  27.056  36.344  1.00  0.00    -0.205 F 
ATOM     98  C   UNL A   1      46.303  27.651  36.689  1.00  0.00     0.022 A 
BRANCH  96  99
ATOM     99  S   UNL A   1      44.869  25.876  38.202  1.00  0.00     0.127 S 
ATOM    100  O   UNL A   1      44.055  26.577  39.194  1.00  0.00    -0.237 OA
ATOM    101  O   UNL A   1      44.180  24.790  37.504  1.00  0.00    -0.237 OA
ATOM    102  O   UNL A   1      46.227  25.558  38.622  1.00  0.00    -0.744 OA
ENDBRANCH  96  99
ENDBRANCH  69  92
ENDBRANCH  43  44
ENDBRANCH  35  38
ENDBRANCH  33  34
ENDBRANCH  32  33
ENDBRANCH   1  32
TORSDOF 19
ENDMDL
MODEL 2
REMARK VINA RESULT:     -12.7      1.343      1.675
REMARK SMILES CCc1ccc(-c2cc(Cl)cc3c2O[C@H](C(F)(F)F)C(C(=O)NCCCCCCNC(=O)c2ccc(-c4c5nc(c(-c6cccc(S(=O)(=O)[O-])c6F)c6ccc([nH]6)c(-c6cccc(S(=O)(=O)[O-])c6F)c6nc(c(-c7cccc(S(=O)(=O)[O-])c7F)c7ccc4[nH]7)C=C6)C=C5)cc2)=C3)cc1
REMARK SMILES IDX 27 1 26 2 25 3 24 4 23 5 21 6 22 7 20 9 7 10 8 11 13 12 9 13
REMARK SMILES IDX 12 14 14 15 10 16 11 17 96 18 15 19 6 20 3 21 4 22 98 23
REMARK SMILES IDX 5 24 97 25 2 26 1 27 16 28 17 29 18 30 19 31 28 32 29 33
REMARK SMILES IDX 30 34 31 35 32 37 33 38 34 39 95 40 35 41 94 42 36 43 37 44
REMARK SMILES IDX 38 45 88 46 39 47 93 48 87 49 89 50 40 51 92 52 86 53 85 54
REMARK SMILES IDX 41 56 73 57 53 58 72 59 54 60 57 61 71 62 90 63 55 64 56 65
REMARK SMILES IDX 70 67 91 68 58 69 42 70 43 71 51 72 44 73 46 74 52 75 45 76
REMARK SMILES IDX 47 77 48 78 49 79 50 80 74 81 75 82 83 83 76 84 78 85 84 86
REMARK SMILES IDX 77 87 79 88 80 89 81 90 82 91 59 92 60 93 68 94 61 95 63 96
REMARK SMILES IDX 69 97 62 98 64 99 65 100 66 101 67 102
REMARK H PARENT 23 8 30 36 89 55 57 66
REMARK Flexibility Score: inf
ROOT
ATOM      1  C   UNL A   1      31.356  30.825  26.130  1.00  0.00     0.002 C 
ENDROOT
BRANCH   1   2
ATOM      2  C   UNL A   1      32.555  30.011  26.625  1.00  0.00     0.002 C 
BRANCH   2   3
ATOM      3  C   UNL A   1      33.333  29.272  25.523  1.00  0.00     0.021 C 
BRANCH   3   4
ATOM      4  C   UNL A   1      32.785  27.881  25.170  1.00  0.00     0.116 C 
BRANCH   4   5
ATOM      5  N   UNL A   1      33.846  26.898  25.279  1.00  0.00    -0.352 N 
ATOM      6  C   UNL A   1      33.690  25.555  25.192  1.00  0.00     0.251 C 
ATOM      7  O   UNL A   1      34.207  24.822  26.027  1.00  0.00    -0.270 OA
ATOM      8  H   UNL A   1      34.758  27.237  25.430  1.00  0.00     0.163 HD
BRANCH   6   9
ATOM      9  C   UNL A   1      33.032  25.043  23.954  1.00  0.00     0.067 C 
ATOM     10  C   UNL A   1      33.859  21.094  24.434  1.00  0.00     0.026 A 
ATOM     11  C   UNL A   1      35.235  21.001  24.777  1.00  0.00     0.033 A 
ATOM     12  C   UNL A   1      33.427  22.336  23.933  1.00  0.00     0.135 A 
ATOM     13  C   UNL A   1      36.153  22.011  24.502  1.00  0.00     0.042 A 
ATOM     14  C   UNL A   1      34.396  23.299  23.548  1.00  0.00     0.019 A 
ATOM     15  O   UNL A   1      32.088  22.702  23.850  1.00  0.00    -0.475 OA
ATOM     16  Cl  UNL A   1      37.790  21.838  24.998  1.00  0.00    -0.084 Cl
ATOM     17  C   UNL A   1      35.753  23.139  23.818  1.00  0.00     0.032 A 
ATOM     18  C   UNL A   1      33.916  24.602  23.039  1.00  0.00     0.025 C 
ATOM     19  C   UNL A   1      31.832  24.139  24.186  1.00  0.00     0.314 C 
BRANCH  10  20
ATOM     20  C   UNL A   1      33.123  19.802  24.489  1.00  0.00    -0.015 A 
ATOM     21  C   UNL A   1      32.822  16.961  24.713  1.00  0.00    -0.048 A 
ATOM     22  C   UNL A   1      32.739  17.789  25.840  1.00  0.00     0.004 A 
ATOM     23  C   UNL A   1      32.912  17.583  23.461  1.00  0.00     0.004 A 
ATOM     24  C   UNL A   1      32.868  19.183  25.729  1.00  0.00     0.009 A 
ATOM     25  C   UNL A   1      33.058  18.982  23.351  1.00  0.00     0.009 A 
BRANCH  21  26
ATOM     26  C   UNL A   1      32.772  15.459  24.903  1.00  0.00     0.032 C 
ATOM     27  C   UNL A   1      32.340  14.948  26.276  1.00  0.00     0.009 C 
ENDBRANCH  21  26
ENDBRANCH  10  20
BRANCH  19  28
ATOM     28  C   UNL A   1      30.640  24.720  23.392  1.00  0.00     0.429 C 
ATOM     29  F   UNL A   1      29.875  23.757  22.827  1.00  0.00    -0.167 F 
ATOM     30  F   UNL A   1      29.841  25.471  24.185  1.00  0.00    -0.167 F 
ATOM     31  F   UNL A   1      31.043  25.534  22.380  1.00  0.00    -0.167 F 
ENDBRANCH  19  28
ENDBRANCH   6   9
ENDBRANCH   4   5
ENDBRANCH   3   4
ENDBRANCH   2   3
ENDBRANCH   1   2
BRANCH   1  32
ATOM     32  C   UNL A   1      31.403  32.307  26.502  1.00  0.00     0.021 C 
BRANCH  32  33
ATOM     33  C   UNL A   1      32.683  32.741  27.206  1.00  0.00     0.116 C 
BRANCH  33  34
ATOM     34  N   UNL A   1      32.585  34.087  27.754  1.00  0.00    -0.352 N 
ATOM     35  C   UNL A   1      33.316  34.656  28.766  1.00  0.00     0.251 C 
ATOM     36  H   UNL A   1      31.902  34.666  27.343  1.00  0.00     0.163 HD
ATOM     37  O   UNL A   1      32.994  35.752  29.221  1.00  0.00    -0.269 OA
BRANCH  35  38
ATOM     38  C   UNL A   1      34.476  33.931  29.320  1.00  0.00     0.039 A 
ATOM     39  C   UNL A   1      35.763  34.340  28.964  1.00  0.00     0.014 A 
ATOM     40  C   UNL A   1      34.293  32.865  30.205  1.00  0.00     0.014 A 
ATOM     41  C   UNL A   1      36.869  33.714  29.542  1.00  0.00     0.010 A 
ATOM     42  C   UNL A   1      35.393  32.299  30.841  1.00  0.00     0.010 A 
ATOM     43  C   UNL A   1      36.692  32.709  30.508  1.00  0.00    -0.014 A 
BRANCH  43  44
ATOM     44  C   UNL A   1      37.856  32.089  31.190  1.00  0.00     0.031 A 
ATOM     45  C   UNL A   1      38.596  30.948  30.550  1.00  0.00     0.074 A 
ATOM     46  C   UNL A   1      38.188  32.492  32.432  1.00  0.00     0.049 A 
ATOM     47  N   UNL A   1      39.609  30.261  31.012  1.00  0.00    -0.248 NA
ATOM     48  C   UNL A   1      38.117  30.499  29.233  1.00  0.00     0.031 C 
ATOM     49  C   UNL A   1      37.484  33.519  33.202  1.00  0.00     0.029 A 
ATOM     50  N   UNL A   1      39.179  32.062  33.279  1.00  0.00    -0.354 N 
ATOM     51  C   UNL A   1      39.859  29.275  30.066  1.00  0.00     0.074 A 
ATOM     52  C   UNL A   1      38.870  29.431  29.021  1.00  0.00     0.031 C 
ATOM     53  C   UNL A   1      38.062  33.637  34.407  1.00  0.00     0.029 A 
ATOM     54  C   UNL A   1      39.156  32.676  34.508  1.00  0.00     0.049 A 
ATOM     55  H   UNL A   1      39.843  31.380  33.029  1.00  0.00     0.167 HD
ATOM     56  C   UNL A   1      40.839  28.338  30.054  1.00  0.00     0.034 A 
ATOM     57  C   UNL A   1      39.918  32.480  35.601  1.00  0.00     0.034 A 
ATOM     58  C   UNL A   1      41.838  28.209  31.079  1.00  0.00     0.049 A 
ATOM     59  C   UNL A   1      41.036  31.477  35.547  1.00  0.00     0.074 A 
ATOM     60  C   UNL A   1      42.942  27.374  31.104  1.00  0.00     0.029 A 
ATOM     61  N   UNL A   1      41.846  28.916  32.272  1.00  0.00    -0.354 N 
ATOM     62  N   UNL A   1      41.377  30.679  34.565  1.00  0.00    -0.248 NA
ATOM     63  C   UNL A   1      41.897  31.374  36.733  1.00  0.00     0.031 C 
ATOM     64  C   UNL A   1      43.591  27.546  32.332  1.00  0.00     0.029 A 
ATOM     65  C   UNL A   1      42.918  28.519  33.053  1.00  0.00     0.049 A 
ATOM     66  H   UNL A   1      41.185  29.599  32.527  1.00  0.00     0.167 HD
ATOM     67  C   UNL A   1      42.507  29.996  35.002  1.00  0.00     0.074 A 
ATOM     68  C   UNL A   1      42.804  30.494  36.330  1.00  0.00     0.031 C 
ATOM     69  C   UNL A   1      43.226  29.041  34.362  1.00  0.00     0.034 A 
BRANCH  56  70
ATOM     70  C   UNL A   1      40.886  27.398  28.875  1.00  0.00     0.023 A 
ATOM     71  C   UNL A   1      39.982  26.319  28.798  1.00  0.00     0.012 A 
ATOM     72  C   UNL A   1      41.810  27.597  27.831  1.00  0.00     0.148 A 
ATOM     73  C   UNL A   1      40.032  25.421  27.732  1.00  0.00     0.002 A 
ATOM     74  C   UNL A   1      41.821  26.729  26.745  1.00  0.00     0.091 A 
ATOM     75  F   UNL A   1      42.678  28.614  27.928  1.00  0.00    -0.205 F 
ATOM     76  C   UNL A   1      40.945  25.632  26.702  1.00  0.00     0.022 A 
BRANCH  74  77
ATOM     77  S   UNL A   1      42.901  26.967  25.331  1.00  0.00     0.127 S 
ATOM     78  O   UNL A   1      44.201  27.134  25.978  1.00  0.00    -0.237 OA
ATOM     79  O   UNL A   1      42.740  25.707  24.604  1.00  0.00    -0.237 OA
ATOM     80  O   UNL A   1      42.390  28.137  24.632  1.00  0.00    -0.744 OA
ENDBRANCH  74  77
ENDBRANCH  56  70
BRANCH  57  81
ATOM     81  C   UNL A   1      39.664  33.298  36.821  1.00  0.00     0.023 A 
ATOM     82  C   UNL A   1      40.124  34.627  36.879  1.00  0.00     0.012 A 
ATOM     83  C   UNL A   1      38.900  32.785  37.886  1.00  0.00     0.148 A 
ATOM     84  C   UNL A   1      39.842  35.427  37.986  1.00  0.00     0.002 A 
ATOM     85  C   UNL A   1      38.573  33.604  38.959  1.00  0.00     0.091 A 
ATOM     86  F   UNL A   1      38.477  31.515  37.809  1.00  0.00    -0.205 F 
ATOM     87  C   UNL A   1      39.056  34.921  39.020  1.00  0.00     0.022 A 
BRANCH  85  88
ATOM     88  S   UNL A   1      37.448  33.088  40.261  1.00  0.00     0.127 S 
ATOM     89  O   UNL A   1      36.232  32.793  39.506  1.00  0.00    -0.237 OA
ATOM     90  O   UNL A   1      38.137  31.917  40.804  1.00  0.00    -0.237 OA
ATOM     91  O   UNL A   1      37.359  34.216  41.179  1.00  0.00    -0.744 OA
ENDBRANCH  85  88
ENDBRANCH  57  81
BRANCH  69  92
ATOM     92  C   UNL A   1      44.427  28.474  35.076  1.00  0.00     0.023 A 
ATOM     93  C   UNL A   1      45.683  29.100  34.947  1.00  0.00     0.012 A 
ATOM     94  C   UNL A   1      44.293  27.365  35.934  1.00  0.00     0.148 A 
ATOM     95  C   UNL A   1      46.794  28.609  35.634  1.00  0.00     0.002 A 
ATOM     96  C   UNL A   1      45.391  26.915  36.657  1.00  0.00     0.091 A 
ATOM     97  F   UNL A   1      43.094  26.772  36.030  1.00  0.00    -0.205 F 
ATOM     98  C   UNL A   1      46.645  27.526  36.498  1.00  0.00     0.022 A 
BRANCH  96  99
ATOM     99  S   UNL A   1      45.272  25.591  37.866  1.00  0.00     0.127 S 
ATOM    100  O   UNL A   1      46.630  25.558  38.407  1.00  0.00    -0.237 OA
ATOM    101  O   UNL A   1      44.260  26.105  38.788  1.00  0.00    -0.237 OA
ATOM    102  O   UNL A   1      44.868  24.404  37.124  1.00  0.00    -0.744 OA
ENDBRANCH  96  99
ENDBRANCH  69  92
ENDBRANCH  43  44
ENDBRANCH  35  38
ENDBRANCH  33  34
ENDBRANCH  32  33
ENDBRANCH   1  32
TORSDOF 19
ENDMDL
MODEL 3
REMARK VINA RESULT:     -12.2      2.373      3.346
REMARK SMILES CCc1ccc(-c2cc(Cl)cc3c2O[C@H](C(F)(F)F)C(C(=O)NCCCCCCNC(=O)c2ccc(-c4c5nc(c(-c6cccc(S(=O)(=O)[O-])c6F)c6ccc([nH]6)c(-c6cccc(S(=O)(=O)[O-])c6F)c6nc(c(-c7cccc(S(=O)(=O)[O-])c7F)c7ccc4[nH]7)C=C6)C=C5)cc2)=C3)cc1
REMARK SMILES IDX 27 1 26 2 25 3 24 4 23 5 21 6 22 7 20 9 7 10 8 11 13 12 9 13
REMARK SMILES IDX 12 14 14 15 10 16 11 17 96 18 15 19 6 20 3 21 4 22 98 23
REMARK SMILES IDX 5 24 97 25 2 26 1 27 16 28 17 29 18 30 19 31 28 32 29 33
REMARK SMILES IDX 30 34 31 35 32 37 33 38 34 39 95 40 35 41 94 42 36 43 37 44
REMARK SMILES IDX 38 45 88 46 39 47 93 48 87 49 89 50 40 51 92 52 86 53 85 54
REMARK SMILES IDX 41 56 73 57 53 58 72 59 54 60 57 61 71 62 90 63 55 64 56 65
REMARK SMILES IDX 70 67 91 68 58 69 42 70 43 71 51 72 44 73 46 74 52 75 45 76
REMARK SMILES IDX 47 77 48 78 49 79 50 80 74 81 75 82 83 83 76 84 78 85 84 86
REMARK SMILES IDX 77 87 79 88 80 89 81 90 82 91 59 92 60 93 68 94 61 95 63 96
REMARK SMILES IDX 69 97 62 98 64 99 65 100 66 101 67 102
REMARK H PARENT 23 8 30 36 89 55 57 66
REMARK Flexibility Score: inf
ROOT
ATOM      1  C   UNL A   1      30.900  32.557  25.913  1.00  0.00     0.002 C 
ENDROOT
BRANCH   1   2
ATOM      2  C   UNL A   1      29.998  31.484  25.298  1.00  0.00     0.002 C 
BRANCH   2   3
ATOM      3  C   UNL A   1      29.860  31.556  23.767  1.00  0.00     0.021 C 
BRANCH   3   4
ATOM      4  C   UNL A   1      29.622  30.204  23.078  1.00  0.00     0.116 C 
BRANCH   4   5
ATOM      5  N   UNL A   1      30.896  29.577  22.786  1.00  0.00    -0.352 N 
ATOM      6  C   UNL A   1      31.783  29.125  23.705  1.00  0.00     0.251 C 
ATOM      7  O   UNL A   1      32.970  29.415  23.606  1.00  0.00    -0.270 OA
ATOM      8  H   UNL A   1      31.138  29.470  21.837  1.00  0.00     0.163 HD
BRANCH   6   9
ATOM      9  C   UNL A   1      31.265  28.137  24.697  1.00  0.00     0.067 C 
ATOM     10  C   UNL A   1      33.602  24.979  23.662  1.00  0.00     0.026 A 
ATOM     11  C   UNL A   1      33.555  24.880  22.244  1.00  0.00     0.033 A 
ATOM     12  C   UNL A   1      32.637  25.811  24.258  1.00  0.00     0.135 A 
ATOM     13  C   UNL A   1      32.534  25.439  21.480  1.00  0.00     0.042 A 
ATOM     14  C   UNL A   1      31.541  26.265  23.477  1.00  0.00     0.019 A 
ATOM     15  O   UNL A   1      32.729  26.270  25.566  1.00  0.00    -0.475 OA
ATOM     16  Cl  UNL A   1      32.582  25.316  19.766  1.00  0.00    -0.084 Cl
ATOM     17  C   UNL A   1      31.479  26.074  22.100  1.00  0.00     0.032 A 
ATOM     18  C   UNL A   1      30.549  27.151  24.123  1.00  0.00     0.025 C 
ATOM     19  C   UNL A   1      32.270  27.685  25.744  1.00  0.00     0.314 C 
BRANCH  10  20
ATOM     20  C   UNL A   1      34.556  24.040  24.312  1.00  0.00    -0.015 A 
ATOM     21  C   UNL A   1      35.784  21.511  24.865  1.00  0.00    -0.048 A 
ATOM     22  C   UNL A   1      36.302  22.368  23.886  1.00  0.00     0.004 A 
ATOM     23  C   UNL A   1      34.737  21.996  25.659  1.00  0.00     0.004 A 
ATOM     24  C   UNL A   1      35.713  23.616  23.626  1.00  0.00     0.009 A 
ATOM     25  C   UNL A   1      34.134  23.242  25.387  1.00  0.00     0.009 A 
BRANCH  21  26
ATOM     26  C   UNL A   1      36.401  20.138  25.036  1.00  0.00     0.032 C 
ATOM     27  C   UNL A   1      37.892  20.005  24.732  1.00  0.00     0.009 C 
ENDBRANCH  21  26
ENDBRANCH  10  20
BRANCH  19  28
ATOM     28  C   UNL A   1      31.641  27.923  27.137  1.00  0.00     0.429 C 
ATOM     29  F   UNL A   1      32.535  27.773  28.141  1.00  0.00    -0.167 F 
ATOM     30  F   UNL A   1      31.117  29.167  27.232  1.00  0.00    -0.167 F 
ATOM     31  F   UNL A   1      30.622  27.061  27.396  1.00  0.00    -0.167 F 
ENDBRANCH  19  28
ENDBRANCH   6   9
ENDBRANCH   4   5
ENDBRANCH   3   4
ENDBRANCH   2   3
ENDBRANCH   1   2
BRANCH   1  32
ATOM     32  C   UNL A   1      31.759  32.067  27.079  1.00  0.00     0.021 C 
BRANCH  32  33
ATOM     33  C   UNL A   1      32.988  32.921  27.362  1.00  0.00     0.116 C 
BRANCH  33  34
ATOM     34  N   UNL A   1      32.641  34.274  27.775  1.00  0.00    -0.352 N 
ATOM     35  C   UNL A   1      33.149  35.011  28.815  1.00  0.00     0.251 C 
ATOM     36  H   UNL A   1      31.948  34.719  27.234  1.00  0.00     0.163 HD
ATOM     37  O   UNL A   1      32.627  36.078  29.129  1.00  0.00    -0.269 OA
BRANCH  35  38
ATOM     38  C   UNL A   1      34.311  34.499  29.567  1.00  0.00     0.039 A 
ATOM     39  C   UNL A   1      34.094  33.821  30.769  1.00  0.00     0.014 A 
ATOM     40  C   UNL A   1      35.608  34.668  29.075  1.00  0.00     0.014 A 
ATOM     41  C   UNL A   1      35.178  33.264  31.450  1.00  0.00     0.010 A 
ATOM     42  C   UNL A   1      36.675  34.042  29.712  1.00  0.00     0.010 A 
ATOM     43  C   UNL A   1      36.473  33.344  30.911  1.00  0.00    -0.014 A 
BRANCH  43  44
ATOM     44  C   UNL A   1      37.623  32.687  31.582  1.00  0.00     0.031 A 
ATOM     45  C   UNL A   1      38.327  31.529  30.930  1.00  0.00     0.074 A 
ATOM     46  C   UNL A   1      37.974  33.073  32.824  1.00  0.00     0.049 A 
ATOM     47  N   UNL A   1      39.322  30.811  31.382  1.00  0.00    -0.248 NA
ATOM     48  C   UNL A   1      37.826  31.101  29.615  1.00  0.00     0.031 C 
ATOM     49  C   UNL A   1      37.305  34.115  33.604  1.00  0.00     0.029 A 
ATOM     50  N   UNL A   1      38.959  32.611  33.662  1.00  0.00    -0.354 N 
ATOM     51  C   UNL A   1      39.539  29.823  30.429  1.00  0.00     0.074 A 
ATOM     52  C   UNL A   1      38.547  30.013  29.392  1.00  0.00     0.031 C 
ATOM     53  C   UNL A   1      37.894  34.211  34.806  1.00  0.00     0.029 A 
ATOM     54  C   UNL A   1      38.961  33.218  34.894  1.00  0.00     0.049 A 
ATOM     55  H   UNL A   1      39.602  31.911  33.404  1.00  0.00     0.167 HD
ATOM     56  C   UNL A   1      40.491  28.859  30.406  1.00  0.00     0.034 A 
ATOM     57  C   UNL A   1      39.725  32.995  35.981  1.00  0.00     0.034 A 
ATOM     58  C   UNL A   1      41.493  28.697  31.423  1.00  0.00     0.049 A 
ATOM     59  C   UNL A   1      40.813  31.961  35.914  1.00  0.00     0.074 A 
ATOM     60  C   UNL A   1      42.573  27.830  31.436  1.00  0.00     0.029 A 
ATOM     61  N   UNL A   1      41.529  29.396  32.620  1.00  0.00    -0.354 N 
ATOM     62  N   UNL A   1      41.125  31.159  34.925  1.00  0.00    -0.248 NA
ATOM     63  C   UNL A   1      41.679  31.827  37.094  1.00  0.00     0.031 C 
ATOM     64  C   UNL A   1      43.235  27.977  32.661  1.00  0.00     0.029 A 
ATOM     65  C   UNL A   1      42.595  28.965  33.392  1.00  0.00     0.049 A 
ATOM     66  H   UNL A   1      40.889  30.096  32.883  1.00  0.00     0.167 HD
ATOM     67  C   UNL A   1      42.238  30.443  35.351  1.00  0.00     0.074 A 
ATOM     68  C   UNL A   1      42.558  30.924  36.679  1.00  0.00     0.031 C 
ATOM     69  C   UNL A   1      42.925  29.470  34.701  1.00  0.00     0.034 A 
BRANCH  56  70
ATOM     70  C   UNL A   1      40.503  27.925  29.221  1.00  0.00     0.023 A 
ATOM     71  C   UNL A   1      39.615  26.831  29.178  1.00  0.00     0.012 A 
ATOM     72  C   UNL A   1      41.379  28.144  28.140  1.00  0.00     0.148 A 
ATOM     73  C   UNL A   1      39.635  25.938  28.107  1.00  0.00     0.002 A 
ATOM     74  C   UNL A   1      41.358  27.281  27.051  1.00  0.00     0.091 A 
ATOM     75  F   UNL A   1      42.233  29.176  28.204  1.00  0.00    -0.205 F 
ATOM     76  C   UNL A   1      40.500  26.168  27.040  1.00  0.00     0.022 A 
BRANCH  74  77
ATOM     77  S   UNL A   1      42.373  27.543  25.593  1.00  0.00     0.127 S 
ATOM     78  O   UNL A   1      43.718  27.531  26.163  1.00  0.00    -0.237 OA
ATOM     79  O   UNL A   1      42.046  26.373  24.775  1.00  0.00    -0.237 OA
ATOM     80  O   UNL A   1      41.938  28.813  25.028  1.00  0.00    -0.744 OA
ENDBRANCH  74  77
ENDBRANCH  56  70
BRANCH  57  81
ATOM     81  C   UNL A   1      39.502  33.813  37.207  1.00  0.00     0.023 A 
ATOM     82  C   UNL A   1      39.907  35.161  37.230  1.00  0.00     0.012 A 
ATOM     83  C   UNL A   1      38.820  33.278  38.316  1.00  0.00     0.148 A 
ATOM     84  C   UNL A   1      39.650  35.959  38.345  1.00  0.00     0.002 A 
ATOM     85  C   UNL A   1      38.516  34.093  39.399  1.00  0.00     0.091 A 
ATOM     86  F   UNL A   1      38.449  31.991  38.271  1.00  0.00    -0.205 F 
ATOM     87  C   UNL A   1      38.944  35.429  39.424  1.00  0.00     0.022 A 
BRANCH  85  88
ATOM     88  S   UNL A   1      37.487  33.541  40.764  1.00  0.00     0.127 S 
ATOM     89  O   UNL A   1      38.347  32.549  41.405  1.00  0.00    -0.237 OA
ATOM     90  O   UNL A   1      37.305  34.781  41.520  1.00  0.00    -0.237 OA
ATOM     91  O   UNL A   1      36.270  33.019  40.158  1.00  0.00    -0.744 OA
ENDBRANCH  85  88
ENDBRANCH  57  81
BRANCH  69  92
ATOM     92  C   UNL A   1      44.115  28.866  35.404  1.00  0.00     0.023 A 
ATOM     93  C   UNL A   1      45.397  29.425  35.227  1.00  0.00     0.012 A 
ATOM     94  C   UNL A   1      43.948  27.790  36.298  1.00  0.00     0.148 A 
ATOM     95  C   UNL A   1      46.498  28.900  35.903  1.00  0.00     0.002 A 
ATOM     96  C   UNL A   1      45.041  27.307  37.009  1.00  0.00     0.091 A 
ATOM     97  F   UNL A   1      42.724  27.261  36.440  1.00  0.00    -0.205 F 
ATOM     98  C   UNL A   1      46.318  27.851  36.802  1.00  0.00     0.022 A 
BRANCH  96  99
ATOM     99  S   UNL A   1      44.887  26.027  38.259  1.00  0.00     0.127 S 
ATOM    100  O   UNL A   1      46.284  25.799  38.625  1.00  0.00    -0.237 OA
ATOM    101  O   UNL A   1      44.087  26.692  39.286  1.00  0.00    -0.237 OA
ATOM    102  O   UNL A   1      44.223  24.906  37.607  1.00  0.00    -0.744 OA
ENDBRANCH  96  99
ENDBRANCH  69  92
ENDBRANCH  43  44
ENDBRANCH  35  38
ENDBRANCH  33  34
ENDBRANCH  32  33
ENDBRANCH   1  32
TORSDOF 19
ENDMDL
