MODEL 1
REMARK VINA RESULT:     -12.6      0.000      0.000
REMARK SMILES COc1ccccc1[C@@H]1C[N@@H+](Cc2cn3cc(C)ccc3n2)C[C@H]1C(=O)NCCCCCCNC(=O)c1ccc(-c2c3nc(c(-c4cccc(S(=O)(=O)[O-])c4F)c4ccc([nH]4)c(-c4cccc(S(=O)(=O)[O-])c4F)c4nc(c(-c5cccc(S(=O)(=O)[O-])c5F)c5ccc2[nH]5)C=C4)C=C3)cc1
REMARK SMILES IDX 31 1 30 2 29 3 28 4 27 5 25 6 26 7 24 9 9 10 10 11 11 12
REMARK SMILES IDX 23 13 8 15 3 16 4 17 5 18 7 19 6 20 2 21 1 22 12 23 13 24
REMARK SMILES IDX 14 25 22 26 15 27 21 28 16 29 20 30 17 31 19 32 18 33 32 34
REMARK SMILES IDX 33 35 34 36 35 37 36 39 37 40 38 41 99 42 39 43 98 44 40 45
REMARK SMILES IDX 41 46 42 47 92 48 43 49 97 50 91 51 93 52 44 53 96 54 90 55
REMARK SMILES IDX 89 56 45 58 77 59 57 60 76 61 58 62 61 63 75 64 94 65 59 66
REMARK SMILES IDX 60 67 74 69 95 70 62 71 46 72 47 73 55 74 48 75 50 76 56 77
REMARK SMILES IDX 49 78 51 79 52 80 53 81 54 82 78 83 79 84 87 85 80 86 82 87
REMARK SMILES IDX 88 88 81 89 83 90 84 91 85 92 86 93 63 94 64 95 72 96 65 97
REMARK SMILES IDX 67 98 73 99 66 100 68 101 69 102 70 103 71 104
REMARK H PARENT 27 8 11 14 34 38 93 57 61 68
REMARK Flexibility Score: inf
ROOT
ATOM      1  C   UNL A   1      32.683  30.782  27.158  1.00  0.00     0.002 C 
ENDROOT
BRANCH   1   2
ATOM      2  C   UNL A   1      32.019  29.718  26.288  1.00  0.00     0.002 C 
BRANCH   2   3
ATOM      3  C   UNL A   1      32.129  28.280  26.779  1.00  0.00     0.021 C 
BRANCH   3   4
ATOM      4  C   UNL A   1      30.899  27.357  26.726  1.00  0.00     0.116 C 
BRANCH   4   5
ATOM      5  N   UNL A   1      31.242  25.956  27.037  1.00  0.00    -0.356 N 
ATOM      6  C   UNL A   1      31.201  24.749  26.402  1.00  0.00     0.229 C 
ATOM      7  O   UNL A   1      31.274  23.785  27.188  1.00  0.00    -0.275 OA
ATOM      8  H   UNL A   1      31.596  25.868  27.952  1.00  0.00     0.163 HD
BRANCH   6   9
ATOM      9  C   UNL A   1      31.235  24.429  24.888  1.00  0.00     0.146 C 
ATOM     10  C   UNL A   1      32.362  25.099  24.042  1.00  0.00     0.096 C 
ATOM     11  C   UNL A   1      32.680  24.086  22.932  1.00  0.00     0.272 C 
ATOM     12  N   UNL A   1      32.401  22.760  23.515  1.00  0.00    -0.329 N 
ATOM     13  C   UNL A   1      31.256  22.973  24.416  1.00  0.00     0.276 C 
ATOM     14  H   UNL A   1      32.159  22.074  22.800  1.00  0.00     0.348 HD
BRANCH  10  15
ATOM     15  C   UNL A   1      32.493  26.566  23.657  1.00  0.00     0.004 A 
ATOM     16  C   UNL A   1      31.530  27.430  23.127  1.00  0.00     0.122 A 
ATOM     17  C   UNL A   1      31.903  28.725  22.702  1.00  0.00     0.047 A 
ATOM     18  C   UNL A   1      33.225  29.172  22.751  1.00  0.00     0.004 A 
ATOM     19  C   UNL A   1      33.836  27.054  23.663  1.00  0.00     0.008 A 
ATOM     20  C   UNL A   1      34.203  28.319  23.214  1.00  0.00     0.001 A 
BRANCH  16  21
ATOM     21  O   UNL A   1      30.247  27.110  22.775  1.00  0.00    -0.496 OA
ATOM     22  C   UNL A   1      29.273  28.104  23.022  1.00  0.00     0.278 C 
ENDBRANCH  16  21
ENDBRANCH  10  15
BRANCH  12  23
ATOM     23  C   UNL A   1      33.590  22.076  24.108  1.00  0.00     0.321 C 
BRANCH  23  24
ATOM     24  C   UNL A   1      33.483  20.593  24.360  1.00  0.00     0.114 A 
ATOM     25  C   UNL A   1      32.402  19.721  24.388  1.00  0.00     0.122 A 
ATOM     26  N   UNL A   1      34.617  19.885  24.636  1.00  0.00    -0.228 NA
ATOM     27  N   UNL A   1      32.930  18.456  24.587  1.00  0.00    -0.306 N 
ATOM     28  C   UNL A   1      34.298  18.616  24.564  1.00  0.00     0.137 A 
ATOM     29  C   UNL A   1      32.342  17.220  24.864  1.00  0.00     0.096 A 
ATOM     30  C   UNL A   1      35.121  17.460  24.579  1.00  0.00     0.048 A 
ATOM     31  C   UNL A   1      33.136  16.146  25.090  1.00  0.00    -0.034 A 
ATOM     32  C   UNL A   1      34.571  16.272  24.860  1.00  0.00     0.009 A 
ATOM     33  C   UNL A   1      32.684  14.810  25.577  1.00  0.00     0.046 C 
ENDBRANCH  23  24
ENDBRANCH  12  23
ENDBRANCH   6   9
ENDBRANCH   4   5
ENDBRANCH   3   4
ENDBRANCH   2   3
ENDBRANCH   1   2
BRANCH   1  34
ATOM     34  C   UNL A   1      34.212  30.710  27.301  1.00  0.00     0.021 C 
BRANCH  34  35
ATOM     35  C   UNL A   1      34.898  32.018  27.692  1.00  0.00     0.116 C 
BRANCH  35  36
ATOM     36  N   UNL A   1      34.558  32.443  29.044  1.00  0.00    -0.352 N 
ATOM     37  C   UNL A   1      35.090  32.011  30.242  1.00  0.00     0.251 C 
ATOM     38  H   UNL A   1      33.857  33.129  29.111  1.00  0.00     0.163 HD
ATOM     39  O   UNL A   1      34.505  32.234  31.289  1.00  0.00    -0.269 OA
BRANCH  37  40
ATOM     40  C   UNL A   1      36.383  31.295  30.252  1.00  0.00     0.039 A 
ATOM     41  C   UNL A   1      36.408  29.894  30.244  1.00  0.00     0.014 A 
ATOM     42  C   UNL A   1      37.568  32.021  30.329  1.00  0.00     0.014 A 
ATOM     43  C   UNL A   1      37.634  29.230  30.278  1.00  0.00     0.010 A 
ATOM     44  C   UNL A   1      38.776  31.361  30.279  1.00  0.00     0.010 A 
ATOM     45  C   UNL A   1      38.818  29.974  30.300  1.00  0.00    -0.014 A 
BRANCH  45  46
ATOM     46  C   UNL A   1      40.118  29.323  30.178  1.00  0.00     0.031 A 
ATOM     47  C   UNL A   1      40.772  29.034  31.479  1.00  0.00     0.074 A 
ATOM     48  C   UNL A   1      40.591  28.796  29.028  1.00  0.00     0.049 A 
ATOM     49  N   UNL A   1      41.839  29.583  31.953  1.00  0.00    -0.248 NA
ATOM     50  C   UNL A   1      40.084  28.144  32.426  1.00  0.00     0.031 C 
ATOM     51  C   UNL A   1      39.906  28.709  27.736  1.00  0.00     0.029 A 
ATOM     52  N   UNL A   1      41.732  28.084  28.810  1.00  0.00    -0.354 N 
ATOM     53  C   UNL A   1      42.097  28.923  33.151  1.00  0.00     0.074 A 
ATOM     54  C   UNL A   1      40.886  28.225  33.491  1.00  0.00     0.031 C 
ATOM     55  C   UNL A   1      40.506  27.771  26.969  1.00  0.00     0.029 A 
ATOM     56  C   UNL A   1      41.715  27.329  27.640  1.00  0.00     0.049 A 
ATOM     57  H   UNL A   1      42.501  28.102  29.425  1.00  0.00     0.167 HD
ATOM     58  C   UNL A   1      43.369  28.791  33.619  1.00  0.00     0.034 A 
ATOM     59  C   UNL A   1      42.608  26.378  27.272  1.00  0.00     0.034 A 
ATOM     60  C   UNL A   1      44.278  29.654  32.906  1.00  0.00     0.049 A 
ATOM     61  C   UNL A   1      43.845  26.618  28.046  1.00  0.00     0.074 A 
ATOM     62  C   UNL A   1      44.372  31.011  32.671  1.00  0.00     0.029 A 
ATOM     63  N   UNL A   1      45.088  29.048  31.975  1.00  0.00    -0.354 N 
ATOM     64  N   UNL A   1      44.605  27.663  27.881  1.00  0.00    -0.248 NA
ATOM     65  C   UNL A   1      44.033  25.896  29.293  1.00  0.00     0.031 C 
ATOM     66  C   UNL A   1      44.861  31.119  31.335  1.00  0.00     0.029 A 
ATOM     67  C   UNL A   1      45.097  29.831  30.853  1.00  0.00     0.049 A 
ATOM     68  H   UNL A   1      45.576  28.202  32.095  1.00  0.00     0.167 HD
ATOM     69  C   UNL A   1      45.004  28.000  29.167  1.00  0.00     0.074 A 
ATOM     70  C   UNL A   1      44.740  26.806  29.967  1.00  0.00     0.031 C 
ATOM     71  C   UNL A   1      45.221  29.303  29.512  1.00  0.00     0.034 A 
BRANCH  58  72
ATOM     72  C   UNL A   1      43.895  27.618  34.421  1.00  0.00     0.023 A 
ATOM     73  C   UNL A   1      44.545  27.922  35.641  1.00  0.00     0.012 A 
ATOM     74  C   UNL A   1      44.054  26.304  33.926  1.00  0.00     0.148 A 
ATOM     75  C   UNL A   1      45.375  26.999  36.285  1.00  0.00     0.002 A 
ATOM     76  C   UNL A   1      44.816  25.364  34.612  1.00  0.00     0.091 A 
ATOM     77  F   UNL A   1      43.589  25.979  32.719  1.00  0.00    -0.205 F 
ATOM     78  C   UNL A   1      45.509  25.716  35.771  1.00  0.00     0.022 A 
BRANCH  76  79
ATOM     79  S   UNL A   1      44.983  23.676  34.019  1.00  0.00     0.127 S 
ATOM     80  O   UNL A   1      46.367  23.379  34.374  1.00  0.00    -0.237 OA
ATOM     81  O   UNL A   1      43.972  22.979  34.816  1.00  0.00    -0.237 OA
ATOM     82  O   UNL A   1      44.684  23.731  32.593  1.00  0.00    -0.744 OA
ENDBRANCH  76  79
ENDBRANCH  58  72
BRANCH  59  83
ATOM     83  C   UNL A   1      42.426  25.154  26.460  1.00  0.00     0.023 A 
ATOM     84  C   UNL A   1      43.331  24.866  25.417  1.00  0.00     0.012 A 
ATOM     85  C   UNL A   1      41.552  24.129  26.886  1.00  0.00     0.148 A 
ATOM     86  C   UNL A   1      43.396  23.588  24.851  1.00  0.00     0.002 A 
ATOM     87  C   UNL A   1      41.619  22.860  26.317  1.00  0.00     0.091 A 
ATOM     88  F   UNL A   1      40.727  24.371  27.914  1.00  0.00    -0.205 F 
ATOM     89  C   UNL A   1      42.551  22.582  25.308  1.00  0.00     0.022 A 
BRANCH  87  90
ATOM     90  S   UNL A   1      40.585  21.503  26.886  1.00  0.00     0.127 S 
ATOM     91  O   UNL A   1      39.248  21.963  26.510  1.00  0.00    -0.237 OA
ATOM     92  O   UNL A   1      41.097  20.387  26.097  1.00  0.00    -0.237 OA
ATOM     93  O   UNL A   1      40.805  21.414  28.325  1.00  0.00    -0.744 OA
ENDBRANCH  87  90
ENDBRANCH  59  83
BRANCH  71  94
ATOM     94  C   UNL A   1      45.343  30.321  28.406  1.00  0.00     0.023 A 
ATOM     95  C   UNL A   1      44.223  30.914  27.789  1.00  0.00     0.012 A 
ATOM     96  C   UNL A   1      46.625  30.807  28.098  1.00  0.00     0.148 A 
ATOM     97  C   UNL A   1      44.380  31.950  26.864  1.00  0.00     0.002 A 
ATOM     98  C   UNL A   1      46.774  31.870  27.217  1.00  0.00     0.091 A 
ATOM     99  F   UNL A   1      47.682  30.233  28.693  1.00  0.00    -0.205 F 
ATOM    100  C   UNL A   1      45.655  32.438  26.589  1.00  0.00     0.022 A 
BRANCH  98 101
ATOM    101  S   UNL A   1      48.378  32.621  26.929  1.00  0.00     0.127 S 
ATOM    102  O   UNL A   1      48.729  33.110  28.261  1.00  0.00    -0.237 OA
ATOM    103  O   UNL A   1      49.179  31.487  26.463  1.00  0.00    -0.237 OA
ATOM    104  O   UNL A   1      48.160  33.646  25.917  1.00  0.00    -0.744 OA
ENDBRANCH  98 101
ENDBRANCH  71  94
ENDBRANCH  45  46
ENDBRANCH  37  40
ENDBRANCH  35  36
ENDBRANCH  34  35
ENDBRANCH   1  34
TORSDOF 20
ENDMDL
MODEL 2
REMARK VINA RESULT:     -12.5      2.863      7.827
REMARK SMILES COc1ccccc1[C@@H]1C[N@@H+](Cc2cn3cc(C)ccc3n2)C[C@H]1C(=O)NCCCCCCNC(=O)c1ccc(-c2c3nc(c(-c4cccc(S(=O)(=O)[O-])c4F)c4ccc([nH]4)c(-c4cccc(S(=O)(=O)[O-])c4F)c4nc(c(-c5cccc(S(=O)(=O)[O-])c5F)c5ccc2[nH]5)C=C4)C=C3)cc1
REMARK SMILES IDX 31 1 30 2 29 3 28 4 27 5 25 6 26 7 24 9 9 10 10 11 11 12
REMARK SMILES IDX 23 13 8 15 3 16 4 17 5 18 7 19 6 20 2 21 1 22 12 23 13 24
REMARK SMILES IDX 14 25 22 26 15 27 21 28 16 29 20 30 17 31 19 32 18 33 32 34
REMARK SMILES IDX 33 35 34 36 35 37 36 39 37 40 38 41 99 42 39 43 98 44 40 45
REMARK SMILES IDX 41 46 42 47 92 48 43 49 97 50 91 51 93 52 44 53 96 54 90 55
REMARK SMILES IDX 89 56 45 58 77 59 57 60 76 61 58 62 61 63 75 64 94 65 59 66
REMARK SMILES IDX 60 67 74 69 95 70 62 71 46 72 47 73 55 74 48 75 50 76 56 77
REMARK SMILES IDX 49 78 51 79 52 80 53 81 54 82 78 83 79 84 87 85 80 86 82 87
REMARK SMILES IDX 88 88 81 89 83 90 84 91 85 92 86 93 63 94 64 95 72 96 65 97
REMARK SMILES IDX 67 98 73 99 66 100 68 101 69 102 70 103 71 104
REMARK H PARENT 27 8 11 14 34 38 93 57 61 68
REMARK Flexibility Score: inf
ROOT
ATOM      1  C   UNL A   1      36.664  23.327  23.896  1.00  0.00     0.002 C 
ENDROOT
BRANCH   1   2
ATOM      2  C   UNL A   1      35.205  23.777  23.924  1.00  0.00     0.002 C 
BRANCH   2   3
ATOM      3  C   UNL A   1      34.759  24.544  25.162  1.00  0.00     0.021 C 
BRANCH   3   4
ATOM      4  C   UNL A   1      34.145  25.947  25.013  1.00  0.00     0.116 C 
BRANCH   4   5
ATOM      5  N   UNL A   1      33.286  26.302  26.159  1.00  0.00    -0.356 N 
ATOM      6  C   UNL A   1      31.950  26.428  26.411  1.00  0.00     0.229 C 
ATOM      7  O   UNL A   1      31.711  27.086  27.441  1.00  0.00    -0.275 OA
ATOM      8  H   UNL A   1      33.822  26.503  26.960  1.00  0.00     0.163 HD
BRANCH   6   9
ATOM      9  C   UNL A   1      30.746  25.756  25.707  1.00  0.00     0.146 C 
ATOM     10  C   UNL A   1      30.456  26.177  24.233  1.00  0.00     0.096 C 
ATOM     11  C   UNL A   1      29.870  24.921  23.570  1.00  0.00     0.272 C 
ATOM     12  N   UNL A   1      30.484  23.779  24.275  1.00  0.00    -0.329 N 
ATOM     13  C   UNL A   1      30.640  24.230  25.667  1.00  0.00     0.276 C 
ATOM     14  H   UNL A   1      29.892  22.950  24.241  1.00  0.00     0.348 HD
BRANCH  10  15
ATOM     15  C   UNL A   1      29.909  27.506  23.732  1.00  0.00     0.004 A 
ATOM     16  C   UNL A   1      30.518  28.765  23.722  1.00  0.00     0.122 A 
ATOM     17  C   UNL A   1      29.773  29.905  23.343  1.00  0.00     0.047 A 
ATOM     18  C   UNL A   1      28.420  29.831  23.010  1.00  0.00     0.004 A 
ATOM     19  C   UNL A   1      28.517  27.482  23.412  1.00  0.00     0.008 A 
ATOM     20  C   UNL A   1      27.780  28.612  23.069  1.00  0.00     0.001 A 
BRANCH  16  21
ATOM     21  O   UNL A   1      31.745  29.085  24.235  1.00  0.00    -0.496 OA
ATOM     22  C   UNL A   1      31.740  29.957  25.347  1.00  0.00     0.278 C 
ENDBRANCH  16  21
ENDBRANCH  10  15
BRANCH  12  23
ATOM     23  C   UNL A   1      31.707  23.226  23.618  1.00  0.00     0.321 C 
BRANCH  23  24
ATOM     24  C   UNL A   1      32.057  21.787  23.903  1.00  0.00     0.114 A 
ATOM     25  C   UNL A   1      32.182  21.068  25.084  1.00  0.00     0.122 A 
ATOM     26  N   UNL A   1      32.331  20.953  22.857  1.00  0.00    -0.228 NA
ATOM     27  N   UNL A   1      32.439  19.757  24.715  1.00  0.00    -0.306 N 
ATOM     28  C   UNL A   1      32.352  19.735  23.340  1.00  0.00     0.137 A 
ATOM     29  C   UNL A   1      32.817  18.628  25.443  1.00  0.00     0.096 A 
ATOM     30  C   UNL A   1      32.408  18.483  22.673  1.00  0.00     0.048 A 
ATOM     31  C   UNL A   1      33.079  17.473  24.784  1.00  0.00    -0.034 A 
ATOM     32  C   UNL A   1      32.785  17.396  23.357  1.00  0.00     0.009 A 
ATOM     33  C   UNL A   1      33.667  16.238  25.380  1.00  0.00     0.046 C 
ENDBRANCH  23  24
ENDBRANCH  12  23
ENDBRANCH   6   9
ENDBRANCH   4   5
ENDBRANCH   3   4
ENDBRANCH   2   3
ENDBRANCH   1   2
BRANCH   1  34
ATOM     34  C   UNL A   1      36.994  21.993  24.583  1.00  0.00     0.021 C 
BRANCH  34  35
ATOM     35  C   UNL A   1      37.795  22.101  25.880  1.00  0.00     0.116 C 
BRANCH  35  36
ATOM     36  N   UNL A   1      38.981  21.256  25.875  1.00  0.00    -0.352 N 
ATOM     37  C   UNL A   1      40.293  21.611  26.115  1.00  0.00     0.251 C 
ATOM     38  H   UNL A   1      38.827  20.305  25.673  1.00  0.00     0.163 HD
ATOM     39  O   UNL A   1      41.201  20.866  25.785  1.00  0.00    -0.269 OA
BRANCH  37  40
ATOM     40  C   UNL A   1      40.591  22.889  26.795  1.00  0.00     0.039 A 
ATOM     41  C   UNL A   1      41.561  22.937  27.804  1.00  0.00     0.014 A 
ATOM     42  C   UNL A   1      39.860  24.027  26.465  1.00  0.00     0.014 A 
ATOM     43  C   UNL A   1      41.816  24.145  28.453  1.00  0.00     0.010 A 
ATOM     44  C   UNL A   1      40.174  25.233  27.052  1.00  0.00     0.010 A 
ATOM     45  C   UNL A   1      41.112  25.291  28.073  1.00  0.00    -0.014 A 
BRANCH  45  46
ATOM     46  C   UNL A   1      41.457  26.601  28.616  1.00  0.00     0.031 A 
ATOM     47  C   UNL A   1      42.717  27.166  28.072  1.00  0.00     0.074 A 
ATOM     48  C   UNL A   1      40.612  27.359  29.347  1.00  0.00     0.049 A 
ATOM     49  N   UNL A   1      43.825  27.354  28.706  1.00  0.00    -0.248 NA
ATOM     50  C   UNL A   1      42.806  27.413  26.625  1.00  0.00     0.031 C 
ATOM     51  C   UNL A   1      39.214  27.074  29.679  1.00  0.00     0.029 A 
ATOM     52  N   UNL A   1      40.779  28.626  29.821  1.00  0.00    -0.354 N 
ATOM     53  C   UNL A   1      44.674  27.978  27.797  1.00  0.00     0.074 A 
ATOM     54  C   UNL A   1      44.083  27.785  26.500  1.00  0.00     0.031 C 
ATOM     55  C   UNL A   1      38.595  28.218  30.046  1.00  0.00     0.029 A 
ATOM     56  C   UNL A   1      39.589  29.269  30.151  1.00  0.00     0.049 A 
ATOM     57  H   UNL A   1      41.663  29.048  29.922  1.00  0.00     0.167 HD
ATOM     58  C   UNL A   1      45.647  28.831  28.220  1.00  0.00     0.034 A 
ATOM     59  C   UNL A   1      39.430  30.583  30.446  1.00  0.00     0.034 A 
ATOM     60  C   UNL A   1      45.847  28.729  29.645  1.00  0.00     0.049 A 
ATOM     61  C   UNL A   1      40.754  31.105  30.846  1.00  0.00     0.074 A 
ATOM     62  C   UNL A   1      46.176  27.719  30.525  1.00  0.00     0.029 A 
ATOM     63  N   UNL A   1      45.320  29.744  30.408  1.00  0.00    -0.354 N 
ATOM     64  N   UNL A   1      41.372  30.742  31.934  1.00  0.00    -0.248 NA
ATOM     65  C   UNL A   1      41.585  31.735  29.833  1.00  0.00     0.031 C 
ATOM     66  C   UNL A   1      45.411  27.990  31.698  1.00  0.00     0.029 A 
ATOM     67  C   UNL A   1      44.709  29.179  31.493  1.00  0.00     0.049 A 
ATOM     68  H   UNL A   1      45.373  30.706  30.208  1.00  0.00     0.167 HD
ATOM     69  C   UNL A   1      42.705  30.656  31.556  1.00  0.00     0.074 A 
ATOM     70  C   UNL A   1      42.790  31.408  30.306  1.00  0.00     0.031 C 
ATOM     71  C   UNL A   1      43.535  29.736  32.129  1.00  0.00     0.034 A 
BRANCH  58  72
ATOM     72  C   UNL A   1      46.146  30.045  27.461  1.00  0.00     0.023 A 
ATOM     73  C   UNL A   1      47.535  30.309  27.524  1.00  0.00     0.012 A 
ATOM     74  C   UNL A   1      45.325  31.078  26.957  1.00  0.00     0.148 A 
ATOM     75  C   UNL A   1      48.065  31.558  27.188  1.00  0.00     0.002 A 
ATOM     76  C   UNL A   1      45.866  32.292  26.547  1.00  0.00     0.091 A 
ATOM     77  F   UNL A   1      43.996  30.961  26.992  1.00  0.00    -0.205 F 
ATOM     78  C   UNL A   1      47.229  32.551  26.695  1.00  0.00     0.022 A 
BRANCH  76  79
ATOM     79  S   UNL A   1      44.839  33.594  25.855  1.00  0.00     0.127 S 
ATOM     80  O   UNL A   1      44.241  32.915  24.709  1.00  0.00    -0.237 OA
ATOM     81  O   UNL A   1      43.923  33.872  26.962  1.00  0.00    -0.237 OA
ATOM     82  O   UNL A   1      45.751  34.690  25.547  1.00  0.00    -0.744 OA
ENDBRANCH  76  79
ENDBRANCH  58  72
BRANCH  59  83
ATOM     83  C   UNL A   1      38.276  31.483  30.221  1.00  0.00     0.023 A 
ATOM     84  C   UNL A   1      37.636  31.499  28.964  1.00  0.00     0.012 A 
ATOM     85  C   UNL A   1      37.623  32.103  31.309  1.00  0.00     0.148 A 
ATOM     86  C   UNL A   1      36.368  32.071  28.807  1.00  0.00     0.002 A 
ATOM     87  C   UNL A   1      36.364  32.674  31.147  1.00  0.00     0.091 A 
ATOM     88  F   UNL A   1      38.194  32.046  32.520  1.00  0.00    -0.205 F 
ATOM     89  C   UNL A   1      35.727  32.647  29.899  1.00  0.00     0.022 A 
BRANCH  87  90
ATOM     90  S   UNL A   1      35.460  33.400  32.522  1.00  0.00     0.127 S 
ATOM     91  O   UNL A   1      35.569  32.356  33.540  1.00  0.00    -0.237 OA
ATOM     92  O   UNL A   1      36.240  34.605  32.788  1.00  0.00    -0.237 OA
ATOM     93  O   UNL A   1      34.105  33.620  32.033  1.00  0.00    -0.744 OA
ENDBRANCH  87  90
ENDBRANCH  59  83
BRANCH  71  94
ATOM     94  C   UNL A   1      43.075  29.052  33.392  1.00  0.00     0.023 A 
ATOM     95  C   UNL A   1      42.132  28.004  33.391  1.00  0.00     0.012 A 
ATOM     96  C   UNL A   1      43.737  29.370  34.590  1.00  0.00     0.148 A 
ATOM     97  C   UNL A   1      41.836  27.307  34.566  1.00  0.00     0.002 A 
ATOM     98  C   UNL A   1      43.477  28.643  35.744  1.00  0.00     0.091 A 
ATOM     99  F   UNL A   1      44.632  30.370  34.575  1.00  0.00    -0.205 F 
ATOM    100  C   UNL A   1      42.519  27.617  35.740  1.00  0.00     0.022 A 
BRANCH  98 101
ATOM    101  S   UNL A   1      44.420  28.913  37.246  1.00  0.00     0.127 S 
ATOM    102  O   UNL A   1      45.794  28.916  36.747  1.00  0.00    -0.237 OA
ATOM    103  O   UNL A   1      43.931  30.218  37.696  1.00  0.00    -0.237 OA
ATOM    104  O   UNL A   1      44.075  27.812  38.135  1.00  0.00    -0.744 OA
ENDBRANCH  98 101
ENDBRANCH  71  94
ENDBRANCH  45  46
ENDBRANCH  37  40
ENDBRANCH  35  36
ENDBRANCH  34  35
ENDBRANCH   1  34
TORSDOF 20
ENDMDL
MODEL 3
REMARK VINA RESULT:     -12.3      1.395      4.655
REMARK SMILES COc1ccccc1[C@@H]1C[N@@H+](Cc2cn3cc(C)ccc3n2)C[C@H]1C(=O)NCCCCCCNC(=O)c1ccc(-c2c3nc(c(-c4cccc(S(=O)(=O)[O-])c4F)c4ccc([nH]4)c(-c4cccc(S(=O)(=O)[O-])c4F)c4nc(c(-c5cccc(S(=O)(=O)[O-])c5F)c5ccc2[nH]5)C=C4)C=C3)cc1
REMARK SMILES IDX 31 1 30 2 29 3 28 4 27 5 25 6 26 7 24 9 9 10 10 11 11 12
REMARK SMILES IDX 23 13 8 15 3 16 4 17 5 18 7 19 6 20 2 21 1 22 12 23 13 24
REMARK SMILES IDX 14 25 22 26 15 27 21 28 16 29 20 30 17 31 19 32 18 33 32 34
REMARK SMILES IDX 33 35 34 36 35 37 36 39 37 40 38 41 99 42 39 43 98 44 40 45
REMARK SMILES IDX 41 46 42 47 92 48 43 49 97 50 91 51 93 52 44 53 96 54 90 55
REMARK SMILES IDX 89 56 45 58 77 59 57 60 76 61 58 62 61 63 75 64 94 65 59 66
REMARK SMILES IDX 60 67 74 69 95 70 62 71 46 72 47 73 55 74 48 75 50 76 56 77
REMARK SMILES IDX 49 78 51 79 52 80 53 81 54 82 78 83 79 84 87 85 80 86 82 87
REMARK SMILES IDX 88 88 81 89 83 90 84 91 85 92 86 93 63 94 64 95 72 96 65 97
REMARK SMILES IDX 67 98 73 99 66 100 68 101 69 102 70 103 71 104
REMARK H PARENT 27 8 11 14 34 38 93 57 61 68
REMARK Flexibility Score: inf
ROOT
ATOM      1  C   UNL A   1      32.128  29.600  27.249  1.00  0.00     0.002 C 
ENDROOT
BRANCH   1   2
ATOM      2  C   UNL A   1      31.452  28.570  26.346  1.00  0.00     0.002 C 
BRANCH   2   3
ATOM      3  C   UNL A   1      31.388  27.145  26.879  1.00  0.00     0.021 C 
BRANCH   3   4
ATOM      4  C   UNL A   1      30.612  26.069  26.098  1.00  0.00     0.116 C 
BRANCH   4   5
ATOM      5  N   UNL A   1      30.944  24.705  26.552  1.00  0.00    -0.356 N 
ATOM      6  C   UNL A   1      31.705  23.660  26.115  1.00  0.00     0.229 C 
ATOM      7  O   UNL A   1      31.404  22.581  26.659  1.00  0.00    -0.275 OA
ATOM      8  H   UNL A   1      30.494  24.491  27.401  1.00  0.00     0.163 HD
BRANCH   6   9
ATOM      9  C   UNL A   1      32.946  23.662  25.189  1.00  0.00     0.146 C 
ATOM     10  C   UNL A   1      33.038  22.531  24.118  1.00  0.00     0.096 C 
ATOM     11  C   UNL A   1      33.777  23.169  22.931  1.00  0.00     0.272 C 
ATOM     12  N   UNL A   1      33.428  24.602  22.973  1.00  0.00    -0.329 N 
ATOM     13  C   UNL A   1      33.310  24.924  24.405  1.00  0.00     0.276 C 
ATOM     14  H   UNL A   1      34.150  25.181  22.544  1.00  0.00     0.348 HD
BRANCH  10  15
ATOM     15  C   UNL A   1      33.305  21.050  24.344  1.00  0.00     0.004 A 
ATOM     16  C   UNL A   1      34.379  20.434  24.995  1.00  0.00     0.122 A 
ATOM     17  C   UNL A   1      34.507  19.027  24.966  1.00  0.00     0.047 A 
ATOM     18  C   UNL A   1      33.613  18.213  24.268  1.00  0.00     0.004 A 
ATOM     19  C   UNL A   1      32.431  20.181  23.620  1.00  0.00     0.008 A 
ATOM     20  C   UNL A   1      32.580  18.799  23.569  1.00  0.00     0.001 A 
BRANCH  16  21
ATOM     21  O   UNL A   1      35.478  21.052  25.524  1.00  0.00    -0.496 OA
ATOM     22  C   UNL A   1      36.606  21.137  24.676  1.00  0.00     0.278 C 
ENDBRANCH  16  21
ENDBRANCH  10  15
BRANCH  12  23
ATOM     23  C   UNL A   1      32.270  24.988  22.112  1.00  0.00     0.321 C 
BRANCH  23  24
ATOM     24  C   UNL A   1      31.561  26.278  22.440  1.00  0.00     0.114 A 
ATOM     25  C   UNL A   1      31.944  27.609  22.349  1.00  0.00     0.122 A 
ATOM     26  N   UNL A   1      30.292  26.226  22.942  1.00  0.00    -0.228 NA
ATOM     27  N   UNL A   1      30.836  28.358  22.714  1.00  0.00    -0.306 N 
ATOM     28  C   UNL A   1      29.819  27.447  22.903  1.00  0.00     0.137 A 
ATOM     29  C   UNL A   1      30.659  29.718  22.973  1.00  0.00     0.096 A 
ATOM     30  C   UNL A   1      28.503  27.931  23.127  1.00  0.00     0.048 A 
ATOM     31  C   UNL A   1      29.449  30.159  23.395  1.00  0.00    -0.034 A 
ATOM     32  C   UNL A   1      28.323  29.230  23.393  1.00  0.00     0.009 A 
ATOM     33  C   UNL A   1      29.141  31.532  23.889  1.00  0.00     0.046 C 
ENDBRANCH  23  24
ENDBRANCH  12  23
ENDBRANCH   6   9
ENDBRANCH   4   5
ENDBRANCH   3   4
ENDBRANCH   2   3
ENDBRANCH   1   2
BRANCH   1  34
ATOM     34  C   UNL A   1      33.658  29.520  27.374  1.00  0.00     0.021 C 
BRANCH  34  35
ATOM     35  C   UNL A   1      34.400  30.846  27.221  1.00  0.00     0.116 C 
BRANCH  35  36
ATOM     36  N   UNL A   1      34.194  31.734  28.358  1.00  0.00    -0.352 N 
ATOM     37  C   UNL A   1      34.876  31.772  29.556  1.00  0.00     0.251 C 
ATOM     38  H   UNL A   1      33.472  32.395  28.257  1.00  0.00     0.163 HD
ATOM     39  O   UNL A   1      34.402  32.360  30.514  1.00  0.00    -0.269 OA
BRANCH  37  40
ATOM     40  C   UNL A   1      36.195  31.114  29.668  1.00  0.00     0.039 A 
ATOM     41  C   UNL A   1      36.273  29.741  29.936  1.00  0.00     0.014 A 
ATOM     42  C   UNL A   1      37.353  31.879  29.563  1.00  0.00     0.014 A 
ATOM     43  C   UNL A   1      37.524  29.137  30.062  1.00  0.00     0.010 A 
ATOM     44  C   UNL A   1      38.584  31.262  29.607  1.00  0.00     0.010 A 
ATOM     45  C   UNL A   1      38.679  29.909  29.901  1.00  0.00    -0.014 A 
BRANCH  45  46
ATOM     46  C   UNL A   1      39.999  29.289  29.870  1.00  0.00     0.031 A 
ATOM     47  C   UNL A   1      40.590  29.061  31.212  1.00  0.00     0.074 A 
ATOM     48  C   UNL A   1      40.545  28.736  28.766  1.00  0.00     0.049 A 
ATOM     49  N   UNL A   1      41.617  29.653  31.722  1.00  0.00    -0.248 NA
ATOM     50  C   UNL A   1      39.875  28.185  32.153  1.00  0.00     0.031 C 
ATOM     51  C   UNL A   1      39.933  28.588  27.443  1.00  0.00     0.029 A 
ATOM     52  N   UNL A   1      41.714  28.048  28.632  1.00  0.00    -0.354 N 
ATOM     53  C   UNL A   1      41.826  29.041  32.955  1.00  0.00     0.074 A 
ATOM     54  C   UNL A   1      40.616  28.322  33.255  1.00  0.00     0.031 C 
ATOM     55  C   UNL A   1      40.596  27.641  26.742  1.00  0.00     0.029 A 
ATOM     56  C   UNL A   1      41.778  27.254  27.490  1.00  0.00     0.049 A 
ATOM     57  H   UNL A   1      42.448  28.107  29.286  1.00  0.00     0.167 HD
ATOM     58  C   UNL A   1      43.074  28.958  33.493  1.00  0.00     0.034 A 
ATOM     59  C   UNL A   1      42.713  26.315  27.203  1.00  0.00     0.034 A 
ATOM     60  C   UNL A   1      43.999  29.821  32.799  1.00  0.00     0.049 A 
ATOM     61  C   UNL A   1      43.901  26.614  28.031  1.00  0.00     0.074 A 
ATOM     62  C   UNL A   1      44.071  31.171  32.522  1.00  0.00     0.029 A 
ATOM     63  N   UNL A   1      44.872  29.206  31.934  1.00  0.00    -0.354 N 
ATOM     64  N   UNL A   1      44.642  27.673  27.871  1.00  0.00    -0.248 NA
ATOM     65  C   UNL A   1      44.040  25.939  29.311  1.00  0.00     0.031 C 
ATOM     66  C   UNL A   1      44.628  31.248  31.211  1.00  0.00     0.029 A 
ATOM     67  C   UNL A   1      44.921  29.951  30.787  1.00  0.00     0.049 A 
ATOM     68  H   UNL A   1      45.373  28.378  32.108  1.00  0.00     0.167 HD
ATOM     69  C   UNL A   1      44.963  28.063  29.163  1.00  0.00     0.074 A 
ATOM     70  C   UNL A   1      44.687  26.890  29.989  1.00  0.00     0.031 C 
ATOM     71  C   UNL A   1      45.130  29.382  29.473  1.00  0.00     0.034 A 
BRANCH  58  72
ATOM     72  C   UNL A   1      43.586  27.827  34.362  1.00  0.00     0.023 A 
ATOM     73  C   UNL A   1      44.315  28.193  35.519  1.00  0.00     0.012 A 
ATOM     74  C   UNL A   1      43.654  26.471  33.970  1.00  0.00     0.148 A 
ATOM     75  C   UNL A   1      45.134  27.282  36.194  1.00  0.00     0.002 A 
ATOM     76  C   UNL A   1      44.405  25.550  34.692  1.00  0.00     0.091 A 
ATOM     77  F   UNL A   1      43.108  26.075  32.818  1.00  0.00    -0.205 F 
ATOM     78  C   UNL A   1      45.177  25.957  35.782  1.00  0.00     0.022 A 
BRANCH  76  79
ATOM     79  S   UNL A   1      44.458  23.813  34.233  1.00  0.00     0.127 S 
ATOM     80  O   UNL A   1      44.950  23.890  32.861  1.00  0.00    -0.237 OA
ATOM     81  O   UNL A   1      45.408  23.276  35.208  1.00  0.00    -0.237 OA
ATOM     82  O   UNL A   1      43.094  23.324  34.398  1.00  0.00    -0.744 OA
ENDBRANCH  76  79
ENDBRANCH  58  72
BRANCH  59  83
ATOM     83  C   UNL A   1      42.604  25.061  26.425  1.00  0.00     0.023 A 
ATOM     84  C   UNL A   1      43.593  24.743  25.470  1.00  0.00     0.012 A 
ATOM     85  C   UNL A   1      41.706  24.044  26.817  1.00  0.00     0.148 A 
ATOM     86  C   UNL A   1      43.712  23.445  24.959  1.00  0.00     0.002 A 
ATOM     87  C   UNL A   1      41.827  22.756  26.304  1.00  0.00     0.091 A 
ATOM     88  F   UNL A   1      40.799  24.317  27.766  1.00  0.00    -0.205 F 
ATOM     89  C   UNL A   1      42.838  22.449  25.384  1.00  0.00     0.022 A 
BRANCH  87  90
ATOM     90  S   UNL A   1      40.758  21.411  26.838  1.00  0.00     0.127 S 
ATOM     91  O   UNL A   1      39.451  21.853  26.353  1.00  0.00    -0.237 OA
ATOM     92  O   UNL A   1      41.329  20.275  26.122  1.00  0.00    -0.237 OA
ATOM     93  O   UNL A   1      40.874  21.367  28.290  1.00  0.00    -0.744 OA
ENDBRANCH  87  90
ENDBRANCH  59  83
BRANCH  71  94
ATOM     94  C   UNL A   1      45.285  30.366  28.341  1.00  0.00     0.023 A 
ATOM     95  C   UNL A   1      44.184  30.941  27.675  1.00  0.00     0.012 A 
ATOM     96  C   UNL A   1      46.577  30.840  28.054  1.00  0.00     0.148 A 
ATOM     97  C   UNL A   1      44.369  31.948  26.724  1.00  0.00     0.002 A 
ATOM     98  C   UNL A   1      46.752  31.875  27.146  1.00  0.00     0.091 A 
ATOM     99  F   UNL A   1      47.615  30.283  28.696  1.00  0.00    -0.205 F 
ATOM    100  C   UNL A   1      45.653  32.426  26.470  1.00  0.00     0.022 A 
BRANCH  98 101
ATOM    101  S   UNL A   1      48.366  32.614  26.880  1.00  0.00     0.127 S 
ATOM    102  O   UNL A   1      48.084  33.592  25.832  1.00  0.00    -0.237 OA
ATOM    103  O   UNL A   1      48.669  33.192  28.191  1.00  0.00    -0.237 OA
ATOM    104  O   UNL A   1      49.247  31.518  26.499  1.00  0.00    -0.744 OA
ENDBRANCH  98 101
ENDBRANCH  71  94
ENDBRANCH  45  46
ENDBRANCH  37  40
ENDBRANCH  35  36
ENDBRANCH  34  35
ENDBRANCH   1  34
TORSDOF 20
ENDMDL
