MODEL 1
REMARK VINA RESULT:     -10.5      0.000      0.000
REMARK SMILES O=C(/C=C/c1cc(F)cc(C[N@@H+]2CCC[C@H]2CO)c1)NCCCCCCNC(=O)c1ccc(-c2c3nc(c(-c4cccc(S(=O)(=O)[O-])c4F)c4ccc([nH]4)c(-c4cccc(S(=O)(=O)[O-])c4F)c4nc(c(-c5cccc(S(=O)(=O)[O-])c5F)c5ccc2[nH]5)C=C4)C=C3)cc1
REMARK SMILES IDX 22 1 21 2 20 3 1 4 2 5 3 7 4 8 5 9 6 10 19 11 7 12 10 13
REMARK SMILES IDX 8 14 9 15 11 16 12 17 13 18 16 19 14 21 15 22 17 23 18 24
REMARK SMILES IDX 23 26 24 27 25 28 26 29 27 30 28 31 29 33 30 34 31 35 92 36
REMARK SMILES IDX 32 37 91 38 33 39 34 40 35 41 85 42 36 43 90 44 84 45 86 46
REMARK SMILES IDX 37 47 89 48 83 49 82 50 38 52 70 53 50 54 69 55 51 56 54 57
REMARK SMILES IDX 68 58 87 59 52 60 53 61 67 63 88 64 55 65 39 66 40 67 48 68
REMARK SMILES IDX 41 69 43 70 49 71 42 72 44 73 45 74 46 75 47 76 71 77 72 78
REMARK SMILES IDX 80 79 73 80 75 81 81 82 74 83 76 84 77 85 78 86 79 87 56 88
REMARK SMILES IDX 57 89 65 90 58 91 60 92 66 93 59 94 61 95 62 96 63 97 64 98
REMARK H PARENT 20 6 12 20 18 25 27 32 86 51 54 62
REMARK Flexibility Score: inf
ROOT
ATOM      1  C   UNL A   1      36.354  21.772  24.332  1.00  0.00     0.021 C 
ENDROOT
BRANCH   1   2
ATOM      2  C   UNL A   1      34.827  21.853  24.322  1.00  0.00     0.116 C 
BRANCH   2   3
ATOM      3  N   UNL A   1      34.366  23.225  24.265  1.00  0.00    -0.353 N 
ATOM      4  O   UNL A   1      33.220  23.223  26.262  1.00  0.00    -0.270 OA
ATOM      5  C   UNL A   1      33.561  23.776  25.227  1.00  0.00     0.243 C 
ATOM      6  H   UNL A   1      34.643  23.785  23.504  1.00  0.00     0.163 HD
BRANCH   5   7
ATOM      7  C   UNL A   1      33.149  25.181  24.978  1.00  0.00     0.072 C 
ATOM      8  C   UNL A   1      32.188  25.813  25.668  1.00  0.00     0.014 C 
BRANCH   8   9
ATOM      9  C   UNL A   1      31.788  27.203  25.422  1.00  0.00    -0.022 A 
ATOM     10  C   UNL A   1      31.857  28.179  26.420  1.00  0.00     0.047 A 
ATOM     11  C   UNL A   1      31.405  27.579  24.125  1.00  0.00     0.018 A 
ATOM     12  C   UNL A   1      31.590  29.505  26.104  1.00  0.00     0.124 A 
ATOM     13  C   UNL A   1      31.097  28.915  23.811  1.00  0.00     0.010 A 
ATOM     14  F   UNL A   1      31.662  30.439  27.061  1.00  0.00    -0.207 F 
ATOM     15  C   UNL A   1      31.248  29.882  24.812  1.00  0.00     0.048 A 
BRANCH  13  16
ATOM     16  C   UNL A   1      30.625  29.286  22.423  1.00  0.00     0.299 C 
BRANCH  16  17
ATOM     17  N   UNL A   1      29.179  29.442  22.211  1.00  0.00    -0.327 N 
ATOM     18  C   UNL A   1      28.791  30.558  21.349  1.00  0.00     0.263 C 
ATOM     19  C   UNL A   1      28.352  29.525  23.433  1.00  0.00     0.210 C 
ATOM     20  H   UNL A   1      28.984  28.558  21.740  1.00  0.00     0.348 HD
ATOM     21  C   UNL A   1      28.334  31.674  22.267  1.00  0.00     0.068 C 
ATOM     22  C   UNL A   1      27.851  30.971  23.521  1.00  0.00     0.073 C 
BRANCH  19  23
ATOM     23  C   UNL A   1      27.170  28.533  23.324  1.00  0.00     0.220 C 
BRANCH  23  24
ATOM     24  O   UNL A   1      27.625  27.192  23.495  1.00  0.00    -0.390 OA
ATOM     25  H   UNL A   1      26.917  26.657  23.886  1.00  0.00     0.210 HD
ENDBRANCH  23  24
ENDBRANCH  19  23
ENDBRANCH  16  17
ENDBRANCH  13  16
ENDBRANCH   8   9
ENDBRANCH   5   7
ENDBRANCH   2   3
ENDBRANCH   1   2
BRANCH   1  26
ATOM     26  C   UNL A   1      36.994  21.866  25.724  1.00  0.00     0.002 C 
BRANCH  26  27
ATOM     27  C   UNL A   1      38.525  21.825  25.753  1.00  0.00     0.002 C 
BRANCH  27  28
ATOM     28  C   UNL A   1      39.154  20.501  25.315  1.00  0.00     0.021 C 
BRANCH  28  29
ATOM     29  C   UNL A   1      39.712  19.643  26.447  1.00  0.00     0.116 C 
BRANCH  29  30
ATOM     30  N   UNL A   1      41.054  19.151  26.168  1.00  0.00    -0.352 N 
ATOM     31  C   UNL A   1      42.235  19.849  26.075  1.00  0.00     0.251 C 
ATOM     32  H   UNL A   1      41.126  18.180  26.025  1.00  0.00     0.163 HD
ATOM     33  O   UNL A   1      43.248  19.287  25.666  1.00  0.00    -0.269 OA
BRANCH  31  34
ATOM     34  C   UNL A   1      42.278  21.281  26.444  1.00  0.00     0.039 A 
ATOM     35  C   UNL A   1      42.354  21.631  27.795  1.00  0.00     0.014 A 
ATOM     36  C   UNL A   1      42.257  22.276  25.463  1.00  0.00     0.014 A 
ATOM     37  C   UNL A   1      42.493  22.974  28.155  1.00  0.00     0.010 A 
ATOM     38  C   UNL A   1      42.467  23.606  25.820  1.00  0.00     0.010 A 
ATOM     39  C   UNL A   1      42.597  23.969  27.169  1.00  0.00    -0.014 A 
BRANCH  39  40
ATOM     40  C   UNL A   1      42.893  25.383  27.524  1.00  0.00     0.031 A 
ATOM     41  C   UNL A   1      44.299  25.912  27.453  1.00  0.00     0.074 A 
ATOM     42  C   UNL A   1      41.901  26.169  27.994  1.00  0.00     0.049 A 
ATOM     43  N   UNL A   1      44.752  27.090  27.798  1.00  0.00    -0.248 NA
ATOM     44  C   UNL A   1      45.337  24.998  26.945  1.00  0.00     0.031 C 
ATOM     45  C   UNL A   1      40.506  25.757  28.166  1.00  0.00     0.029 A 
ATOM     46  N   UNL A   1      41.916  27.469  28.435  1.00  0.00    -0.354 N 
ATOM     47  C   UNL A   1      46.124  27.053  27.574  1.00  0.00     0.074 A 
ATOM     48  C   UNL A   1      46.436  25.726  27.091  1.00  0.00     0.031 C 
ATOM     49  C   UNL A   1      39.799  26.783  28.663  1.00  0.00     0.029 A 
ATOM     50  C   UNL A   1      40.694  27.914  28.887  1.00  0.00     0.049 A 
ATOM     51  H   UNL A   1      42.725  28.031  28.429  1.00  0.00     0.167 HD
ATOM     52  C   UNL A   1      47.033  28.043  27.730  1.00  0.00     0.034 A 
ATOM     53  C   UNL A   1      40.333  29.094  29.433  1.00  0.00     0.034 A 
ATOM     54  C   UNL A   1      46.714  29.372  28.176  1.00  0.00     0.049 A 
ATOM     55  C   UNL A   1      41.368  30.176  29.588  1.00  0.00     0.074 A 
ATOM     56  C   UNL A   1      47.563  30.457  28.308  1.00  0.00     0.029 A 
ATOM     57  N   UNL A   1      45.456  29.800  28.566  1.00  0.00    -0.354 N 
ATOM     58  N   UNL A   1      42.635  30.157  29.256  1.00  0.00    -0.248 NA
ATOM     59  C   UNL A   1      40.918  31.453  30.161  1.00  0.00     0.031 C 
ATOM     60  C   UNL A   1      46.825  31.533  28.804  1.00  0.00     0.029 A 
ATOM     61  C   UNL A   1      45.507  31.131  28.941  1.00  0.00     0.049 A 
ATOM     62  H   UNL A   1      44.645  29.240  28.574  1.00  0.00     0.167 HD
ATOM     63  C   UNL A   1      43.123  31.429  29.539  1.00  0.00     0.074 A 
ATOM     64  C   UNL A   1      42.010  32.197  30.055  1.00  0.00     0.031 C 
ATOM     65  C   UNL A   1      44.382  31.909  29.394  1.00  0.00     0.034 A 
BRANCH  52  66
ATOM     66  C   UNL A   1      48.466  27.763  27.356  1.00  0.00     0.023 A 
ATOM     67  C   UNL A   1      49.352  27.273  28.336  1.00  0.00     0.012 A 
ATOM     68  C   UNL A   1      48.896  27.852  26.017  1.00  0.00     0.148 A 
ATOM     69  C   UNL A   1      50.647  26.887  27.994  1.00  0.00     0.002 A 
ATOM     70  C   UNL A   1      50.172  27.421  25.675  1.00  0.00     0.091 A 
ATOM     71  F   UNL A   1      48.042  28.334  25.102  1.00  0.00    -0.205 F 
ATOM     72  C   UNL A   1      51.051  26.946  26.663  1.00  0.00     0.022 A 
BRANCH  70  73
ATOM     73  S   UNL A   1      50.762  27.369  23.978  1.00  0.00     0.127 S 
ATOM     74  O   UNL A   1      50.979  28.788  23.698  1.00  0.00    -0.237 OA
ATOM     75  O   UNL A   1      51.986  26.579  24.105  1.00  0.00    -0.237 OA
ATOM     76  O   UNL A   1      49.703  26.741  23.200  1.00  0.00    -0.744 OA
ENDBRANCH  70  73
ENDBRANCH  52  66
BRANCH  53  77
ATOM     77  C   UNL A   1      38.911  29.337  29.813  1.00  0.00     0.023 A 
ATOM     78  C   UNL A   1      38.479  29.012  31.114  1.00  0.00     0.012 A 
ATOM     79  C   UNL A   1      37.996  29.913  28.911  1.00  0.00     0.148 A 
ATOM     80  C   UNL A   1      37.155  29.224  31.499  1.00  0.00     0.002 A 
ATOM     81  C   UNL A   1      36.694  30.179  29.321  1.00  0.00     0.091 A 
ATOM     82  F   UNL A   1      38.421  30.205  27.673  1.00  0.00    -0.205 F 
ATOM     83  C   UNL A   1      36.266  29.817  30.607  1.00  0.00     0.022 A 
BRANCH  81  84
ATOM     84  S   UNL A   1      35.522  31.067  28.289  1.00  0.00     0.127 S 
ATOM     85  O   UNL A   1      36.360  32.123  27.726  1.00  0.00    -0.237 OA
ATOM     86  O   UNL A   1      35.113  30.031  27.339  1.00  0.00    -0.237 OA
ATOM     87  O   UNL A   1      34.464  31.510  29.186  1.00  0.00    -0.744 OA
ENDBRANCH  81  84
ENDBRANCH  53  77
BRANCH  65  88
ATOM     88  C   UNL A   1      44.638  33.352  29.744  1.00  0.00     0.023 A 
ATOM     89  C   UNL A   1      45.196  33.686  30.994  1.00  0.00     0.012 A 
ATOM     90  C   UNL A   1      44.429  34.365  28.786  1.00  0.00     0.148 A 
ATOM     91  C   UNL A   1      45.518  35.009  31.294  1.00  0.00     0.002 A 
ATOM     92  C   UNL A   1      44.804  35.672  29.072  1.00  0.00     0.091 A 
ATOM     93  F   UNL A   1      43.882  34.029  27.609  1.00  0.00    -0.205 F 
ATOM     94  C   UNL A   1      45.337  35.998  30.330  1.00  0.00     0.022 A 
BRANCH  92  95
ATOM     95  S   UNL A   1      44.711  36.991  27.856  1.00  0.00     0.127 S 
ATOM     96  O   UNL A   1      44.775  38.182  28.704  1.00  0.00    -0.237 OA
ATOM     97  O   UNL A   1      45.907  36.752  27.049  1.00  0.00    -0.237 OA
ATOM     98  O   UNL A   1      43.453  36.800  27.147  1.00  0.00    -0.744 OA
ENDBRANCH  92  95
ENDBRANCH  65  88
ENDBRANCH  39  40
ENDBRANCH  31  34
ENDBRANCH  29  30
ENDBRANCH  28  29
ENDBRANCH  27  28
ENDBRANCH  26  27
ENDBRANCH   1  26
TORSDOF 21
ENDMDL
MODEL 2
REMARK VINA RESULT:      -9.6      5.187      9.527
REMARK SMILES O=C(/C=C/c1cc(F)cc(C[N@@H+]2CCC[C@H]2CO)c1)NCCCCCCNC(=O)c1ccc(-c2c3nc(c(-c4cccc(S(=O)(=O)[O-])c4F)c4ccc([nH]4)c(-c4cccc(S(=O)(=O)[O-])c4F)c4nc(c(-c5cccc(S(=O)(=O)[O-])c5F)c5ccc2[nH]5)C=C4)C=C3)cc1
REMARK SMILES IDX 22 1 21 2 20 3 1 4 2 5 3 7 4 8 5 9 6 10 19 11 7 12 10 13
REMARK SMILES IDX 8 14 9 15 11 16 12 17 13 18 16 19 14 21 15 22 17 23 18 24
REMARK SMILES IDX 23 26 24 27 25 28 26 29 27 30 28 31 29 33 30 34 31 35 92 36
REMARK SMILES IDX 32 37 91 38 33 39 34 40 35 41 85 42 36 43 90 44 84 45 86 46
REMARK SMILES IDX 37 47 89 48 83 49 82 50 38 52 70 53 50 54 69 55 51 56 54 57
REMARK SMILES IDX 68 58 87 59 52 60 53 61 67 63 88 64 55 65 39 66 40 67 48 68
REMARK SMILES IDX 41 69 43 70 49 71 42 72 44 73 45 74 46 75 47 76 71 77 72 78
REMARK SMILES IDX 80 79 73 80 75 81 81 82 74 83 76 84 77 85 78 86 79 87 56 88
REMARK SMILES IDX 57 89 65 90 58 91 60 92 66 93 59 94 61 95 62 96 63 97 64 98
REMARK H PARENT 20 6 12 20 18 25 27 32 86 51 54 62
REMARK Flexibility Score: inf
ROOT
ATOM      1  C   UNL A   1      42.706  22.882  27.357  1.00  0.00     0.021 C 
ENDROOT
BRANCH   1   2
ATOM      2  C   UNL A   1      43.355  24.256  27.537  1.00  0.00     0.116 C 
BRANCH   2   3
ATOM      3  N   UNL A   1      42.569  25.106  28.409  1.00  0.00    -0.353 N 
ATOM      4  O   UNL A   1      41.225  26.020  26.778  1.00  0.00    -0.270 OA
ATOM      5  C   UNL A   1      41.598  25.950  27.940  1.00  0.00     0.243 C 
ATOM      6  H   UNL A   1      42.741  25.075  29.378  1.00  0.00     0.163 HD
BRANCH   5   7
ATOM      7  C   UNL A   1      40.930  26.781  28.974  1.00  0.00     0.072 C 
ATOM      8  C   UNL A   1      41.151  28.094  29.137  1.00  0.00     0.014 C 
BRANCH   8   9
ATOM      9  C   UNL A   1      40.484  28.913  30.156  1.00  0.00    -0.022 A 
ATOM     10  C   UNL A   1      40.340  28.475  31.476  1.00  0.00     0.047 A 
ATOM     11  C   UNL A   1      40.055  30.205  29.815  1.00  0.00     0.018 A 
ATOM     12  C   UNL A   1      39.818  29.336  32.432  1.00  0.00     0.124 A 
ATOM     13  C   UNL A   1      39.492  31.065  30.773  1.00  0.00     0.010 A 
ATOM     14  F   UNL A   1      39.685  28.916  33.697  1.00  0.00    -0.207 F 
ATOM     15  C   UNL A   1      39.428  30.628  32.102  1.00  0.00     0.048 A 
BRANCH  13  16
ATOM     16  C   UNL A   1      38.977  32.430  30.369  1.00  0.00     0.299 C 
BRANCH  16  17
ATOM     17  N   UNL A   1      37.523  32.608  30.261  1.00  0.00    -0.327 N 
ATOM     18  C   UNL A   1      36.921  33.459  31.288  1.00  0.00     0.263 C 
ATOM     19  C   UNL A   1      36.722  31.367  30.198  1.00  0.00     0.210 C 
ATOM     20  H   UNL A   1      37.479  33.076  29.356  1.00  0.00     0.348 HD
ATOM     21  C   UNL A   1      36.291  32.528  32.305  1.00  0.00     0.068 C 
ATOM     22  C   UNL A   1      35.972  31.265  31.530  1.00  0.00     0.073 C 
BRANCH  19  23
ATOM     23  C   UNL A   1      35.736  31.451  29.009  1.00  0.00     0.220 C 
BRANCH  23  24
ATOM     24  O   UNL A   1      36.244  32.319  27.998  1.00  0.00    -0.390 OA
ATOM     25  H   UNL A   1      35.535  32.904  27.687  1.00  0.00     0.210 HD
ENDBRANCH  23  24
ENDBRANCH  19  23
ENDBRANCH  16  17
ENDBRANCH  13  16
ENDBRANCH   8   9
ENDBRANCH   5   7
ENDBRANCH   2   3
ENDBRANCH   1   2
BRANCH   1  26
ATOM     26  C   UNL A   1      42.799  22.308  25.936  1.00  0.00     0.002 C 
BRANCH  26  27
ATOM     27  C   UNL A   1      44.147  21.686  25.560  1.00  0.00     0.002 C 
BRANCH  27  28
ATOM     28  C   UNL A   1      45.062  22.568  24.708  1.00  0.00     0.021 C 
BRANCH  28  29
ATOM     29  C   UNL A   1      45.905  23.572  25.490  1.00  0.00     0.116 C 
BRANCH  29  30
ATOM     30  N   UNL A   1      46.749  24.386  24.627  1.00  0.00    -0.352 N 
ATOM     31  C   UNL A   1      46.949  25.746  24.636  1.00  0.00     0.251 C 
ATOM     32  H   UNL A   1      47.247  23.892  23.936  1.00  0.00     0.163 HD
ATOM     33  O   UNL A   1      47.571  26.281  23.721  1.00  0.00    -0.269 OA
BRANCH  31  34
ATOM     34  C   UNL A   1      46.393  26.567  25.735  1.00  0.00     0.039 A 
ATOM     35  C   UNL A   1      45.045  26.934  25.691  1.00  0.00     0.014 A 
ATOM     36  C   UNL A   1      47.192  26.962  26.811  1.00  0.00     0.014 A 
ATOM     37  C   UNL A   1      44.482  27.626  26.766  1.00  0.00     0.010 A 
ATOM     38  C   UNL A   1      46.612  27.588  27.912  1.00  0.00     0.010 A 
ATOM     39  C   UNL A   1      45.248  27.918  27.907  1.00  0.00    -0.014 A 
BRANCH  39  40
ATOM     40  C   UNL A   1      44.634  28.520  29.120  1.00  0.00     0.031 A 
ATOM     41  C   UNL A   1      44.224  29.968  29.132  1.00  0.00     0.074 A 
ATOM     42  C   UNL A   1      44.523  27.780  30.243  1.00  0.00     0.049 A 
ATOM     43  N   UNL A   1      43.748  30.678  30.122  1.00  0.00    -0.248 NA
ATOM     44  C   UNL A   1      44.385  30.723  27.877  1.00  0.00     0.031 C 
ATOM     45  C   UNL A   1      44.937  26.381  30.376  1.00  0.00     0.029 A 
ATOM     46  N   UNL A   1      44.051  28.104  31.491  1.00  0.00    -0.354 N 
ATOM     47  C   UNL A   1      43.575  31.963  29.622  1.00  0.00     0.074 A 
ATOM     48  C   UNL A   1      44.026  31.945  28.247  1.00  0.00     0.031 C 
ATOM     49  C   UNL A   1      44.692  25.965  31.628  1.00  0.00     0.029 A 
ATOM     50  C   UNL A   1      44.144  27.074  32.402  1.00  0.00     0.049 A 
ATOM     51  H   UNL A   1      43.681  28.988  31.714  1.00  0.00     0.167 HD
ATOM     52  C   UNL A   1      43.062  33.051  30.243  1.00  0.00     0.034 A 
ATOM     53  C   UNL A   1      43.836  27.030  33.714  1.00  0.00     0.034 A 
ATOM     54  C   UNL A   1      42.581  33.057  31.598  1.00  0.00     0.049 A 
ATOM     55  C   UNL A   1      43.262  28.256  34.374  1.00  0.00     0.074 A 
ATOM     56  C   UNL A   1      41.990  34.099  32.292  1.00  0.00     0.029 A 
ATOM     57  N   UNL A   1      42.637  31.980  32.468  1.00  0.00    -0.354 N 
ATOM     58  N   UNL A   1      42.995  29.425  33.847  1.00  0.00    -0.248 NA
ATOM     59  C   UNL A   1      42.915  28.146  35.798  1.00  0.00     0.031 C 
ATOM     60  C   UNL A   1      41.714  33.661  33.588  1.00  0.00     0.029 A 
ATOM     61  C   UNL A   1      42.094  32.333  33.690  1.00  0.00     0.049 A 
ATOM     62  H   UNL A   1      43.007  31.094  32.247  1.00  0.00     0.167 HD
ATOM     63  C   UNL A   1      42.410  30.176  34.862  1.00  0.00     0.074 A 
ATOM     64  C   UNL A   1      42.348  29.322  36.029  1.00  0.00     0.031 C 
ATOM     65  C   UNL A   1      41.977  31.459  34.829  1.00  0.00     0.034 A 
BRANCH  52  66
ATOM     66  C   UNL A   1      42.923  34.326  29.453  1.00  0.00     0.023 A 
ATOM     67  C   UNL A   1      41.656  34.702  28.964  1.00  0.00     0.012 A 
ATOM     68  C   UNL A   1      44.008  35.214  29.314  1.00  0.00     0.148 A 
ATOM     69  C   UNL A   1      41.472  35.933  28.340  1.00  0.00     0.002 A 
ATOM     70  C   UNL A   1      43.808  36.461  28.733  1.00  0.00     0.091 A 
ATOM     71  F   UNL A   1      45.209  34.832  29.774  1.00  0.00    -0.205 F 
ATOM     72  C   UNL A   1      42.542  36.819  28.239  1.00  0.00     0.022 A 
BRANCH  70  73
ATOM     73  S   UNL A   1      45.095  37.710  28.635  1.00  0.00     0.127 S 
ATOM     74  O   UNL A   1      45.531  37.794  30.028  1.00  0.00    -0.237 OA
ATOM     75  O   UNL A   1      46.058  37.085  27.730  1.00  0.00    -0.237 OA
ATOM     76  O   UNL A   1      44.455  38.911  28.115  1.00  0.00    -0.744 OA
ENDBRANCH  70  73
ENDBRANCH  52  66
BRANCH  53  77
ATOM     77  C   UNL A   1      44.001  25.759  34.477  1.00  0.00     0.023 A 
ATOM     78  C   UNL A   1      42.958  24.813  34.476  1.00  0.00     0.012 A 
ATOM     79  C   UNL A   1      45.189  25.468  35.174  1.00  0.00     0.148 A 
ATOM     80  C   UNL A   1      43.081  23.616  35.183  1.00  0.00     0.002 A 
ATOM     81  C   UNL A   1      45.330  24.247  35.826  1.00  0.00     0.091 A 
ATOM     82  F   UNL A   1      46.168  26.386  35.175  1.00  0.00    -0.205 F 
ATOM     83  C   UNL A   1      44.270  23.329  35.848  1.00  0.00     0.022 A 
BRANCH  81  84
ATOM     84  S   UNL A   1      46.873  23.733  36.587  1.00  0.00     0.127 S 
ATOM     85  O   UNL A   1      46.562  22.367  37.000  1.00  0.00    -0.237 OA
ATOM     86  O   UNL A   1      47.810  23.840  35.467  1.00  0.00    -0.237 OA
ATOM     87  O   UNL A   1      47.116  24.681  37.665  1.00  0.00    -0.744 OA
ENDBRANCH  81  84
ENDBRANCH  53  77
BRANCH  65  88
ATOM     88  C   UNL A   1      41.341  32.028  36.071  1.00  0.00     0.023 A 
ATOM     89  C   UNL A   1      42.103  32.817  36.956  1.00  0.00     0.012 A 
ATOM     90  C   UNL A   1      39.959  31.871  36.300  1.00  0.00     0.148 A 
ATOM     91  C   UNL A   1      41.504  33.420  38.061  1.00  0.00     0.002 A 
ATOM     92  C   UNL A   1      39.359  32.519  37.372  1.00  0.00     0.091 A 
ATOM     93  F   UNL A   1      39.254  31.102  35.457  1.00  0.00    -0.205 F 
ATOM     94  C   UNL A   1      40.132  33.284  38.260  1.00  0.00     0.022 A 
BRANCH  92  95
ATOM     95  S   UNL A   1      37.583  32.493  37.646  1.00  0.00     0.127 S 
ATOM     96  O   UNL A   1      37.436  33.467  38.728  1.00  0.00    -0.237 OA
ATOM     97  O   UNL A   1      37.065  32.937  36.352  1.00  0.00    -0.237 OA
ATOM     98  O   UNL A   1      37.248  31.120  37.995  1.00  0.00    -0.744 OA
ENDBRANCH  92  95
ENDBRANCH  65  88
ENDBRANCH  39  40
ENDBRANCH  31  34
ENDBRANCH  29  30
ENDBRANCH  28  29
ENDBRANCH  27  28
ENDBRANCH  26  27
ENDBRANCH   1  26
TORSDOF 21
ENDMDL
MODEL 3
REMARK VINA RESULT:      -9.5      5.126     11.193
REMARK SMILES O=C(/C=C/c1cc(F)cc(C[N@@H+]2CCC[C@H]2CO)c1)NCCCCCCNC(=O)c1ccc(-c2c3nc(c(-c4cccc(S(=O)(=O)[O-])c4F)c4ccc([nH]4)c(-c4cccc(S(=O)(=O)[O-])c4F)c4nc(c(-c5cccc(S(=O)(=O)[O-])c5F)c5ccc2[nH]5)C=C4)C=C3)cc1
REMARK SMILES IDX 22 1 21 2 20 3 1 4 2 5 3 7 4 8 5 9 6 10 19 11 7 12 10 13
REMARK SMILES IDX 8 14 9 15 11 16 12 17 13 18 16 19 14 21 15 22 17 23 18 24
REMARK SMILES IDX 23 26 24 27 25 28 26 29 27 30 28 31 29 33 30 34 31 35 92 36
REMARK SMILES IDX 32 37 91 38 33 39 34 40 35 41 85 42 36 43 90 44 84 45 86 46
REMARK SMILES IDX 37 47 89 48 83 49 82 50 38 52 70 53 50 54 69 55 51 56 54 57
REMARK SMILES IDX 68 58 87 59 52 60 53 61 67 63 88 64 55 65 39 66 40 67 48 68
REMARK SMILES IDX 41 69 43 70 49 71 42 72 44 73 45 74 46 75 47 76 71 77 72 78
REMARK SMILES IDX 80 79 73 80 75 81 81 82 74 83 76 84 77 85 78 86 79 87 56 88
REMARK SMILES IDX 57 89 65 90 58 91 60 92 66 93 59 94 61 95 62 96 63 97 64 98
REMARK H PARENT 20 6 12 20 18 25 27 32 86 51 54 62
REMARK Flexibility Score: inf
ROOT
ATOM      1  C   UNL A   1      37.392  30.945  28.628  1.00  0.00     0.021 C 
ENDROOT
BRANCH   1   2
ATOM      2  C   UNL A   1      38.727  30.418  29.157  1.00  0.00     0.116 C 
BRANCH   2   3
ATOM      3  N   UNL A   1      39.007  29.085  28.663  1.00  0.00    -0.353 N 
ATOM      4  O   UNL A   1      41.296  29.299  28.550  1.00  0.00    -0.270 OA
ATOM      5  C   UNL A   1      40.273  28.659  28.360  1.00  0.00     0.243 C 
ATOM      6  H   UNL A   1      38.256  28.460  28.540  1.00  0.00     0.163 HD
BRANCH   5   7
ATOM      7  C   UNL A   1      40.363  27.277  27.820  1.00  0.00     0.072 C 
ATOM      8  C   UNL A   1      39.912  26.191  28.465  1.00  0.00     0.014 C 
BRANCH   8   9
ATOM      9  C   UNL A   1      39.997  24.829  27.925  1.00  0.00    -0.022 A 
ATOM     10  C   UNL A   1      38.988  24.289  27.121  1.00  0.00     0.047 A 
ATOM     11  C   UNL A   1      41.162  24.080  28.154  1.00  0.00     0.018 A 
ATOM     12  C   UNL A   1      39.173  23.047  26.529  1.00  0.00     0.124 A 
ATOM     13  C   UNL A   1      41.335  22.806  27.587  1.00  0.00     0.010 A 
ATOM     14  F   UNL A   1      38.208  22.534  25.756  1.00  0.00    -0.207 F 
ATOM     15  C   UNL A   1      40.342  22.322  26.726  1.00  0.00     0.048 A 
BRANCH  13  16
ATOM     16  C   UNL A   1      42.570  21.990  27.899  1.00  0.00     0.299 C 
BRANCH  16  17
ATOM     17  N   UNL A   1      43.712  22.099  26.981  1.00  0.00    -0.327 N 
ATOM     18  C   UNL A   1      44.365  23.408  26.950  1.00  0.00     0.263 C 
ATOM     19  C   UNL A   1      43.455  21.705  25.580  1.00  0.00     0.210 C 
ATOM     20  H   UNL A   1      44.335  21.413  27.408  1.00  0.00     0.348 HD
ATOM     21  C   UNL A   1      43.859  24.113  25.708  1.00  0.00     0.068 C 
ATOM     22  C   UNL A   1      43.482  22.996  24.754  1.00  0.00     0.073 C 
BRANCH  19  23
ATOM     23  C   UNL A   1      44.554  20.722  25.111  1.00  0.00     0.220 C 
BRANCH  23  24
ATOM     24  O   UNL A   1      43.971  19.592  24.465  1.00  0.00    -0.390 OA
ATOM     25  H   UNL A   1      44.281  18.779  24.894  1.00  0.00     0.210 HD
ENDBRANCH  23  24
ENDBRANCH  19  23
ENDBRANCH  16  17
ENDBRANCH  13  16
ENDBRANCH   8   9
ENDBRANCH   5   7
ENDBRANCH   2   3
ENDBRANCH   1   2
BRANCH   1  26
ATOM     26  C   UNL A   1      36.505  31.623  29.681  1.00  0.00     0.002 C 
BRANCH  26  27
ATOM     27  C   UNL A   1      36.808  33.100  29.951  1.00  0.00     0.002 C 
BRANCH  27  28
ATOM     28  C   UNL A   1      35.767  33.841  30.792  1.00  0.00     0.021 C 
BRANCH  28  29
ATOM     29  C   UNL A   1      34.894  32.950  31.672  1.00  0.00     0.116 C 
BRANCH  29  30
ATOM     30  N   UNL A   1      34.852  33.400  33.057  1.00  0.00    -0.352 N 
ATOM     31  C   UNL A   1      35.762  33.196  34.067  1.00  0.00     0.251 C 
ATOM     32  H   UNL A   1      34.058  33.927  33.305  1.00  0.00     0.163 HD
ATOM     33  O   UNL A   1      35.478  33.511  35.220  1.00  0.00    -0.269 OA
BRANCH  31  34
ATOM     34  C   UNL A   1      37.071  32.574  33.768  1.00  0.00     0.039 A 
ATOM     35  C   UNL A   1      37.099  31.304  33.184  1.00  0.00     0.014 A 
ATOM     36  C   UNL A   1      38.265  33.244  34.047  1.00  0.00     0.014 A 
ATOM     37  C   UNL A   1      38.322  30.744  32.806  1.00  0.00     0.010 A 
ATOM     38  C   UNL A   1      39.476  32.715  33.606  1.00  0.00     0.010 A 
ATOM     39  C   UNL A   1      39.518  31.464  32.971  1.00  0.00    -0.014 A 
BRANCH  39  40
ATOM     40  C   UNL A   1      40.810  30.952  32.443  1.00  0.00     0.031 A 
ATOM     41  C   UNL A   1      41.480  29.765  33.080  1.00  0.00     0.074 A 
ATOM     42  C   UNL A   1      41.423  31.612  31.439  1.00  0.00     0.049 A 
ATOM     43  N   UNL A   1      42.643  29.232  32.804  1.00  0.00    -0.248 NA
ATOM     44  C   UNL A   1      40.763  29.099  34.182  1.00  0.00     0.031 C 
ATOM     45  C   UNL A   1      40.905  32.810  30.774  1.00  0.00     0.029 A 
ATOM     46  N   UNL A   1      42.626  31.385  30.815  1.00  0.00    -0.354 N 
ATOM     47  C   UNL A   1      42.809  28.188  33.707  1.00  0.00     0.074 A 
ATOM     48  C   UNL A   1      41.642  28.180  34.562  1.00  0.00     0.031 C 
ATOM     49  C   UNL A   1      41.774  33.206  29.833  1.00  0.00     0.029 A 
ATOM     50  C   UNL A   1      42.933  32.318  29.850  1.00  0.00     0.049 A 
ATOM     51  H   UNL A   1      43.213  30.626  31.036  1.00  0.00     0.167 HD
ATOM     52  C   UNL A   1      43.827  27.301  33.797  1.00  0.00     0.034 A 
ATOM     53  C   UNL A   1      44.029  32.455  29.076  1.00  0.00     0.034 A 
ATOM     54  C   UNL A   1      44.969  27.289  32.923  1.00  0.00     0.049 A 
ATOM     55  C   UNL A   1      45.142  31.449  29.196  1.00  0.00     0.074 A 
ATOM     56  C   UNL A   1      46.022  26.391  32.903  1.00  0.00     0.029 A 
ATOM     57  N   UNL A   1      45.215  28.214  31.921  1.00  0.00    -0.354 N 
ATOM     58  N   UNL A   1      45.221  30.399  29.976  1.00  0.00    -0.248 NA
ATOM     59  C   UNL A   1      46.301  31.626  28.309  1.00  0.00     0.031 C 
ATOM     60  C   UNL A   1      46.917  26.788  31.908  1.00  0.00     0.029 A 
ATOM     61  C   UNL A   1      46.402  27.909  31.279  1.00  0.00     0.049 A 
ATOM     62  H   UNL A   1      44.629  28.974  31.697  1.00  0.00     0.167 HD
ATOM     63  C   UNL A   1      46.415  29.767  29.643  1.00  0.00     0.074 A 
ATOM     64  C   UNL A   1      47.017  30.544  28.581  1.00  0.00     0.031 C 
ATOM     65  C   UNL A   1      46.964  28.650  30.180  1.00  0.00     0.034 A 
BRANCH  52  66
ATOM     66  C   UNL A   1      43.739  26.214  34.836  1.00  0.00     0.023 A 
ATOM     67  C   UNL A   1      43.288  24.933  34.460  1.00  0.00     0.012 A 
ATOM     68  C   UNL A   1      44.229  26.419  36.142  1.00  0.00     0.148 A 
ATOM     69  C   UNL A   1      43.314  23.876  35.367  1.00  0.00     0.002 A 
ATOM     70  C   UNL A   1      44.296  25.349  37.027  1.00  0.00     0.091 A 
ATOM     71  F   UNL A   1      44.640  27.648  36.484  1.00  0.00    -0.205 F 
ATOM     72  C   UNL A   1      43.832  24.079  36.643  1.00  0.00     0.022 A 
BRANCH  70  73
ATOM     73  S   UNL A   1      45.028  25.480  38.662  1.00  0.00     0.127 S 
ATOM     74  O   UNL A   1      44.086  26.373  39.335  1.00  0.00    -0.237 OA
ATOM     75  O   UNL A   1      44.991  24.094  39.125  1.00  0.00    -0.237 OA
ATOM     76  O   UNL A   1      46.364  26.025  38.465  1.00  0.00    -0.744 OA
ENDBRANCH  70  73
ENDBRANCH  52  66
BRANCH  53  77
ATOM     77  C   UNL A   1      44.098  33.553  28.068  1.00  0.00     0.023 A 
ATOM     78  C   UNL A   1      43.773  33.279  26.725  1.00  0.00     0.012 A 
ATOM     79  C   UNL A   1      44.451  34.866  28.432  1.00  0.00     0.148 A 
ATOM     80  C   UNL A   1      43.832  34.282  25.758  1.00  0.00     0.002 A 
ATOM     81  C   UNL A   1      44.448  35.876  27.475  1.00  0.00     0.091 A 
ATOM     82  F   UNL A   1      44.770  35.107  29.713  1.00  0.00    -0.205 F 
ATOM     83  C   UNL A   1      44.158  35.582  26.135  1.00  0.00     0.022 A 
BRANCH  81  84
ATOM     84  S   UNL A   1      44.716  37.602  27.895  1.00  0.00     0.127 S 
ATOM     85  O   UNL A   1      43.656  37.841  28.871  1.00  0.00    -0.237 OA
ATOM     86  O   UNL A   1      46.070  37.568  28.450  1.00  0.00    -0.237 OA
ATOM     87  O   UNL A   1      44.600  38.335  26.642  1.00  0.00    -0.744 OA
ENDBRANCH  81  84
ENDBRANCH  53  77
BRANCH  65  88
ATOM     88  C   UNL A   1      48.264  28.150  29.605  1.00  0.00     0.023 A 
ATOM     89  C   UNL A   1      49.488  28.532  30.190  1.00  0.00     0.012 A 
ATOM     90  C   UNL A   1      48.264  27.210  28.554  1.00  0.00     0.148 A 
ATOM     91  C   UNL A   1      50.691  28.006  29.722  1.00  0.00     0.002 A 
ATOM     92  C   UNL A   1      49.461  26.649  28.129  1.00  0.00     0.091 A 
ATOM     93  F   UNL A   1      47.090  26.872  27.999  1.00  0.00    -0.205 F 
ATOM     94  C   UNL A   1      50.677  27.054  28.704  1.00  0.00     0.022 A 
BRANCH  92  95
ATOM     95  S   UNL A   1      49.532  25.338  26.902  1.00  0.00     0.127 S 
ATOM     96  O   UNL A   1      50.953  24.988  26.924  1.00  0.00    -0.237 OA
ATOM     97  O   UNL A   1      48.647  24.327  27.479  1.00  0.00    -0.237 OA
ATOM     98  O   UNL A   1      49.056  25.923  25.658  1.00  0.00    -0.744 OA
ENDBRANCH  92  95
ENDBRANCH  65  88
ENDBRANCH  39  40
ENDBRANCH  31  34
ENDBRANCH  29  30
ENDBRANCH  28  29
ENDBRANCH  27  28
ENDBRANCH  26  27
ENDBRANCH   1  26
TORSDOF 21
ENDMDL
