MODEL 1
REMARK VINA RESULT:     -11.9      0.000      0.000
REMARK SMILES Cc1nsc(NC(=O)C2([NH3+])CCCCC2)c1C(=O)NCCCCCCNC(=O)c1ccc(-c2c3nc(c(-c4cccc(S(=O)(=O)[O-])c4F)c4ccc([nH]4)c(-c4cccc(S(=O)(=O)[O-])c4F)c4nc(c(-c5cccc(S(=O)(=O)[O-])c5F)c5ccc2[nH]5)C=C4)C=C3)cc1
REMARK SMILES IDX 22 1 21 2 20 3 19 4 17 5 18 6 16 8 1 9 2 10 3 11 4 12 5 13
REMARK SMILES IDX 6 14 7 15 8 17 9 18 11 19 15 20 12 21 14 22 13 23 10 24
REMARK SMILES IDX 23 28 24 29 25 30 26 31 27 32 28 34 29 35 30 36 91 37 31 38
REMARK SMILES IDX 90 39 32 40 33 41 34 42 84 43 35 44 89 45 83 46 85 47 36 48
REMARK SMILES IDX 88 49 82 50 81 51 37 53 69 54 49 55 68 56 50 57 53 58 67 59
REMARK SMILES IDX 86 60 51 61 52 62 66 64 87 65 54 66 38 67 39 68 47 69 40 70
REMARK SMILES IDX 42 71 48 72 41 73 43 74 44 75 45 76 46 77 70 78 71 79 79 80
REMARK SMILES IDX 72 81 74 82 80 83 73 84 75 85 76 86 77 87 78 88 55 89 56 90
REMARK SMILES IDX 64 91 57 92 59 93 65 94 58 95 60 96 61 97 62 98 63 99
REMARK H PARENT 19 7 6 16 10 25 10 26 10 27 26 33 85 52 53 63
REMARK Flexibility Score: inf
ROOT
ATOM      1  C   UNL A   1      37.707  21.825  25.094  1.00  0.00     0.002 C 
ENDROOT
BRANCH   1   2
ATOM      2  C   UNL A   1      36.534  22.653  25.629  1.00  0.00     0.021 C 
BRANCH   2   3
ATOM      3  C   UNL A   1      35.307  21.813  25.980  1.00  0.00     0.116 C 
BRANCH   3   4
ATOM      4  N   UNL A   1      34.289  22.623  26.580  1.00  0.00    -0.352 N 
ATOM      5  C   UNL A   1      33.380  23.516  26.100  1.00  0.00     0.256 C 
ATOM      6  O   UNL A   1      32.612  23.931  26.980  1.00  0.00    -0.269 OA
ATOM      7  H   UNL A   1      34.233  22.509  27.556  1.00  0.00     0.163 HD
BRANCH   5   8
ATOM      8  C   UNL A   1      33.201  23.944  24.699  1.00  0.00     0.097 A 
ATOM      9  C   UNL A   1      32.211  21.943  23.157  1.00  0.00     0.069 C 
ATOM     10  C   UNL A   1      32.713  23.310  23.465  1.00  0.00     0.066 A 
ATOM     11  N   UNL A   1      32.694  24.093  22.385  1.00  0.00    -0.195 NA
ATOM     12  S   UNL A   1      33.417  25.499  22.718  1.00  0.00    -0.017 S 
ATOM     13  C   UNL A   1      33.574  25.267  24.375  1.00  0.00     0.129 A 
BRANCH  13  14
ATOM     14  N   UNL A   1      33.986  26.253  25.263  1.00  0.00    -0.310 N 
ATOM     15  C   UNL A   1      33.408  27.135  26.129  1.00  0.00     0.286 C 
ATOM     16  H   UNL A   1      34.967  26.340  25.270  1.00  0.00     0.171 HD
ATOM     17  O   UNL A   1      34.206  27.734  26.868  1.00  0.00    -0.267 OA
BRANCH  15  18
ATOM     18  C   UNL A   1      31.882  27.459  26.213  1.00  0.00     0.174 C 
ATOM     19  C   UNL A   1      31.575  28.508  27.313  1.00  0.00     0.079 C 
ATOM     20  C   UNL A   1      31.393  27.976  24.842  1.00  0.00     0.079 C 
ATOM     21  C   UNL A   1      31.975  29.943  26.979  1.00  0.00     0.007 C 
ATOM     22  C   UNL A   1      31.899  29.388  24.533  1.00  0.00     0.007 C 
ATOM     23  C   UNL A   1      31.470  30.372  25.610  1.00  0.00     0.001 C 
BRANCH  18  24
ATOM     24  N   UNL A   1      31.130  26.277  26.707  1.00  0.00    -0.345 N 
ATOM     25  H   UNL A   1      30.247  26.201  26.202  1.00  0.00     0.345 HD
ATOM     26  H   UNL A   1      30.943  26.386  27.704  1.00  0.00     0.345 HD
ATOM     27  H   UNL A   1      31.683  25.435  26.554  1.00  0.00     0.345 HD
ENDBRANCH  18  24
ENDBRANCH  15  18
ENDBRANCH  13  14
ENDBRANCH   5   8
ENDBRANCH   3   4
ENDBRANCH   2   3
ENDBRANCH   1   2
BRANCH   1  28
ATOM     28  C   UNL A   1      37.351  20.397  24.651  1.00  0.00     0.002 C 
BRANCH  28  29
ATOM     29  C   UNL A   1      38.360  19.300  25.033  1.00  0.00     0.021 C 
BRANCH  29  30
ATOM     30  C   UNL A   1      39.428  19.786  25.998  1.00  0.00     0.116 C 
BRANCH  30  31
ATOM     31  N   UNL A   1      40.654  18.996  25.875  1.00  0.00    -0.352 N 
ATOM     32  C   UNL A   1      41.973  19.411  25.922  1.00  0.00     0.251 C 
ATOM     33  H   UNL A   1      40.521  18.029  25.737  1.00  0.00     0.163 HD
ATOM     34  O   UNL A   1      42.868  18.709  25.492  1.00  0.00    -0.269 OA
BRANCH  32  35
ATOM     35  C   UNL A   1      42.260  20.727  26.513  1.00  0.00     0.039 A 
ATOM     36  C   UNL A   1      42.687  21.802  25.729  1.00  0.00     0.014 A 
ATOM     37  C   UNL A   1      42.038  20.875  27.875  1.00  0.00     0.014 A 
ATOM     38  C   UNL A   1      42.818  23.052  26.326  1.00  0.00     0.010 A 
ATOM     39  C   UNL A   1      41.964  22.132  28.405  1.00  0.00     0.010 A 
ATOM     40  C   UNL A   1      42.441  23.209  27.666  1.00  0.00    -0.014 A 
BRANCH  40  41
ATOM     41  C   UNL A   1      42.469  24.510  28.320  1.00  0.00     0.031 A 
ATOM     42  C   UNL A   1      41.252  25.342  28.131  1.00  0.00     0.074 A 
ATOM     43  C   UNL A   1      43.421  24.821  29.227  1.00  0.00     0.049 A 
ATOM     44  N   UNL A   1      41.153  26.462  27.496  1.00  0.00    -0.248 NA
ATOM     45  C   UNL A   1      39.964  24.800  28.591  1.00  0.00     0.031 C 
ATOM     46  C   UNL A   1      44.501  23.963  29.741  1.00  0.00     0.029 A 
ATOM     47  N   UNL A   1      43.521  25.923  30.014  1.00  0.00    -0.354 N 
ATOM     48  C   UNL A   1      39.843  26.891  27.702  1.00  0.00     0.074 A 
ATOM     49  C   UNL A   1      39.116  25.744  28.179  1.00  0.00     0.031 C 
ATOM     50  C   UNL A   1      44.944  24.452  30.917  1.00  0.00     0.029 A 
ATOM     51  C   UNL A   1      44.335  25.747  31.128  1.00  0.00     0.049 A 
ATOM     52  H   UNL A   1      43.059  26.770  29.815  1.00  0.00     0.167 HD
ATOM     53  C   UNL A   1      39.533  28.217  27.742  1.00  0.00     0.034 A 
ATOM     54  C   UNL A   1      44.469  26.592  32.175  1.00  0.00     0.034 A 
ATOM     55  C   UNL A   1      40.596  29.026  27.197  1.00  0.00     0.049 A 
ATOM     56  C   UNL A   1      44.037  27.926  31.705  1.00  0.00     0.074 A 
ATOM     57  C   UNL A   1      41.266  29.089  25.993  1.00  0.00     0.029 A 
ATOM     58  N   UNL A   1      41.386  29.697  28.100  1.00  0.00    -0.354 N 
ATOM     59  N   UNL A   1      44.657  28.590  30.768  1.00  0.00    -0.248 NA
ATOM     60  C   UNL A   1      42.666  28.334  31.959  1.00  0.00     0.031 C 
ATOM     61  C   UNL A   1      42.624  29.358  26.344  1.00  0.00     0.029 A 
ATOM     62  C   UNL A   1      42.690  29.503  27.732  1.00  0.00     0.049 A 
ATOM     63  H   UNL A   1      41.071  30.222  28.871  1.00  0.00     0.167 HD
ATOM     64  C   UNL A   1      43.637  29.160  30.016  1.00  0.00     0.074 A 
ATOM     65  C   UNL A   1      42.452  29.075  30.868  1.00  0.00     0.031 C 
ATOM     66  C   UNL A   1      43.784  29.373  28.672  1.00  0.00     0.034 A 
BRANCH  53  67
ATOM     67  C   UNL A   1      38.463  28.830  28.624  1.00  0.00     0.023 A 
ATOM     68  C   UNL A   1      37.491  29.640  27.992  1.00  0.00     0.012 A 
ATOM     69  C   UNL A   1      38.526  28.896  30.034  1.00  0.00     0.148 A 
ATOM     70  C   UNL A   1      36.678  30.516  28.719  1.00  0.00     0.002 A 
ATOM     71  C   UNL A   1      37.660  29.707  30.758  1.00  0.00     0.091 A 
ATOM     72  F   UNL A   1      39.516  28.290  30.694  1.00  0.00    -0.205 F 
ATOM     73  C   UNL A   1      36.757  30.546  30.105  1.00  0.00     0.022 A 
BRANCH  71  74
ATOM     74  S   UNL A   1      37.698  29.740  32.556  1.00  0.00     0.127 S 
ATOM     75  O   UNL A   1      39.084  30.116  32.809  1.00  0.00    -0.237 OA
ATOM     76  O   UNL A   1      36.706  30.772  32.858  1.00  0.00    -0.237 OA
ATOM     77  O   UNL A   1      37.304  28.400  32.971  1.00  0.00    -0.744 OA
ENDBRANCH  71  74
ENDBRANCH  53  67
BRANCH  54  78
ATOM     78  C   UNL A   1      44.706  26.265  33.596  1.00  0.00     0.023 A 
ATOM     79  C   UNL A   1      46.020  26.199  34.095  1.00  0.00     0.012 A 
ATOM     80  C   UNL A   1      43.636  26.267  34.522  1.00  0.00     0.148 A 
ATOM     81  C   UNL A   1      46.262  26.162  35.474  1.00  0.00     0.002 A 
ATOM     82  C   UNL A   1      43.882  26.221  35.891  1.00  0.00     0.091 A 
ATOM     83  F   UNL A   1      42.385  26.399  34.061  1.00  0.00    -0.205 F 
ATOM     84  C   UNL A   1      45.196  26.181  36.371  1.00  0.00     0.022 A 
BRANCH  82  85
ATOM     85  S   UNL A   1      42.557  26.255  37.107  1.00  0.00     0.127 S 
ATOM     86  O   UNL A   1      41.849  27.484  36.748  1.00  0.00    -0.237 OA
ATOM     87  O   UNL A   1      41.835  25.022  36.804  1.00  0.00    -0.237 OA
ATOM     88  O   UNL A   1      43.209  26.298  38.411  1.00  0.00    -0.744 OA
ENDBRANCH  82  85
ENDBRANCH  54  78
BRANCH  66  89
ATOM     89  C   UNL A   1      45.157  29.184  28.066  1.00  0.00     0.023 A 
ATOM     90  C   UNL A   1      46.186  30.134  28.240  1.00  0.00     0.012 A 
ATOM     91  C   UNL A   1      45.474  27.945  27.485  1.00  0.00     0.148 A 
ATOM     92  C   UNL A   1      47.494  29.865  27.826  1.00  0.00     0.002 A 
ATOM     93  C   UNL A   1      46.785  27.665  27.112  1.00  0.00     0.091 A 
ATOM     94  F   UNL A   1      44.490  27.044  27.343  1.00  0.00    -0.205 F 
ATOM     95  C   UNL A   1      47.796  28.625  27.273  1.00  0.00     0.022 A 
BRANCH  93  96
ATOM     96  S   UNL A   1      47.272  26.047  26.508  1.00  0.00     0.127 S 
ATOM     97  O   UNL A   1      48.699  26.020  26.825  1.00  0.00    -0.237 OA
ATOM     98  O   UNL A   1      46.448  25.150  27.322  1.00  0.00    -0.237 OA
ATOM     99  O   UNL A   1      46.948  26.030  25.088  1.00  0.00    -0.744 OA
ENDBRANCH  93  96
ENDBRANCH  66  89
ENDBRANCH  40  41
ENDBRANCH  32  35
ENDBRANCH  30  31
ENDBRANCH  29  30
ENDBRANCH  28  29
ENDBRANCH   1  28
TORSDOF 19
ENDMDL
MODEL 2
REMARK VINA RESULT:     -11.8      1.801      3.625
REMARK SMILES Cc1nsc(NC(=O)C2([NH3+])CCCCC2)c1C(=O)NCCCCCCNC(=O)c1ccc(-c2c3nc(c(-c4cccc(S(=O)(=O)[O-])c4F)c4ccc([nH]4)c(-c4cccc(S(=O)(=O)[O-])c4F)c4nc(c(-c5cccc(S(=O)(=O)[O-])c5F)c5ccc2[nH]5)C=C4)C=C3)cc1
REMARK SMILES IDX 22 1 21 2 20 3 19 4 17 5 18 6 16 8 1 9 2 10 3 11 4 12 5 13
REMARK SMILES IDX 6 14 7 15 8 17 9 18 11 19 15 20 12 21 14 22 13 23 10 24
REMARK SMILES IDX 23 28 24 29 25 30 26 31 27 32 28 34 29 35 30 36 91 37 31 38
REMARK SMILES IDX 90 39 32 40 33 41 34 42 84 43 35 44 89 45 83 46 85 47 36 48
REMARK SMILES IDX 88 49 82 50 81 51 37 53 69 54 49 55 68 56 50 57 53 58 67 59
REMARK SMILES IDX 86 60 51 61 52 62 66 64 87 65 54 66 38 67 39 68 47 69 40 70
REMARK SMILES IDX 42 71 48 72 41 73 43 74 44 75 45 76 46 77 70 78 71 79 79 80
REMARK SMILES IDX 72 81 74 82 80 83 73 84 75 85 76 86 77 87 78 88 55 89 56 90
REMARK SMILES IDX 64 91 57 92 59 93 65 94 58 95 60 96 61 97 62 98 63 99
REMARK H PARENT 19 7 6 16 10 25 10 26 10 27 26 33 85 52 53 63
REMARK Flexibility Score: inf
ROOT
ATOM      1  C   UNL A   1      38.154  22.556  25.884  1.00  0.00     0.002 C 
ENDROOT
BRANCH   1   2
ATOM      2  C   UNL A   1      37.416  22.525  24.541  1.00  0.00     0.021 C 
BRANCH   2   3
ATOM      3  C   UNL A   1      36.470  23.707  24.341  1.00  0.00     0.116 C 
BRANCH   3   4
ATOM      4  N   UNL A   1      35.301  23.308  23.614  1.00  0.00    -0.352 N 
ATOM      5  C   UNL A   1      34.048  22.915  23.974  1.00  0.00     0.256 C 
ATOM      6  O   UNL A   1      33.306  22.741  22.996  1.00  0.00    -0.269 OA
ATOM      7  H   UNL A   1      35.433  23.320  22.639  1.00  0.00     0.163 HD
BRANCH   5   8
ATOM      8  C   UNL A   1      33.517  22.761  25.342  1.00  0.00     0.097 A 
ATOM      9  C   UNL A   1      31.795  24.758  25.981  1.00  0.00     0.069 C 
ATOM     10  C   UNL A   1      32.579  23.510  26.190  1.00  0.00     0.066 A 
ATOM     11  N   UNL A   1      32.353  22.989  27.397  1.00  0.00    -0.195 NA
ATOM     12  S   UNL A   1      33.358  21.749  27.652  1.00  0.00    -0.017 S 
ATOM     13  C   UNL A   1      33.978  21.657  26.094  1.00  0.00     0.129 A 
BRANCH  13  14
ATOM     14  N   UNL A   1      34.795  20.629  25.640  1.00  0.00    -0.310 N 
ATOM     15  C   UNL A   1      34.646  19.365  25.150  1.00  0.00     0.286 C 
ATOM     16  H   UNL A   1      35.746  20.882  25.686  1.00  0.00     0.171 HD
ATOM     17  O   UNL A   1      35.686  18.857  24.699  1.00  0.00    -0.267 OA
BRANCH  15  18
ATOM     18  C   UNL A   1      33.322  18.536  25.160  1.00  0.00     0.174 C 
ATOM     19  C   UNL A   1      32.156  19.301  24.481  1.00  0.00     0.079 C 
ATOM     20  C   UNL A   1      33.556  17.189  24.441  1.00  0.00     0.079 C 
ATOM     21  C   UNL A   1      32.226  19.381  22.958  1.00  0.00     0.007 C 
ATOM     22  C   UNL A   1      33.701  17.351  22.925  1.00  0.00     0.007 C 
ATOM     23  C   UNL A   1      32.474  18.020  22.326  1.00  0.00     0.001 C 
BRANCH  18  24
ATOM     24  N   UNL A   1      32.815  18.389  26.549  1.00  0.00    -0.345 N 
ATOM     25  H   UNL A   1      32.668  19.312  26.957  1.00  0.00     0.345 HD
ATOM     26  H   UNL A   1      33.498  17.876  27.107  1.00  0.00     0.345 HD
ATOM     27  H   UNL A   1      31.933  17.878  26.537  1.00  0.00     0.345 HD
ENDBRANCH  18  24
ENDBRANCH  15  18
ENDBRANCH  13  14
ENDBRANCH   5   8
ENDBRANCH   3   4
ENDBRANCH   2   3
ENDBRANCH   1   2
BRANCH   1  28
ATOM     28  C   UNL A   1      39.498  21.810  25.909  1.00  0.00     0.002 C 
BRANCH  28  29
ATOM     29  C   UNL A   1      39.457  20.329  25.499  1.00  0.00     0.021 C 
BRANCH  29  30
ATOM     30  C   UNL A   1      40.053  19.406  26.548  1.00  0.00     0.116 C 
BRANCH  30  31
ATOM     31  N   UNL A   1      41.329  18.845  26.098  1.00  0.00    -0.352 N 
ATOM     32  C   UNL A   1      42.538  19.480  25.882  1.00  0.00     0.251 C 
ATOM     33  H   UNL A   1      41.325  17.876  25.923  1.00  0.00     0.163 HD
ATOM     34  O   UNL A   1      43.410  18.960  25.213  1.00  0.00    -0.269 OA
BRANCH  32  35
ATOM     35  C   UNL A   1      42.739  20.805  26.489  1.00  0.00     0.039 A 
ATOM     36  C   UNL A   1      43.151  21.902  25.728  1.00  0.00     0.014 A 
ATOM     37  C   UNL A   1      42.450  20.936  27.840  1.00  0.00     0.014 A 
ATOM     38  C   UNL A   1      43.198  23.154  26.334  1.00  0.00     0.010 A 
ATOM     39  C   UNL A   1      42.295  22.186  28.370  1.00  0.00     0.010 A 
ATOM     40  C   UNL A   1      42.754  23.287  27.656  1.00  0.00    -0.014 A 
BRANCH  40  41
ATOM     41  C   UNL A   1      42.694  24.584  28.315  1.00  0.00     0.031 A 
ATOM     42  C   UNL A   1      41.454  25.364  28.069  1.00  0.00     0.074 A 
ATOM     43  C   UNL A   1      43.587  24.932  29.268  1.00  0.00     0.049 A 
ATOM     44  N   UNL A   1      41.337  26.483  27.433  1.00  0.00    -0.248 NA
ATOM     45  C   UNL A   1      40.169  24.765  28.464  1.00  0.00     0.031 C 
ATOM     46  C   UNL A   1      44.677  24.119  29.831  1.00  0.00     0.029 A 
ATOM     47  N   UNL A   1      43.600  26.034  30.063  1.00  0.00    -0.354 N 
ATOM     48  C   UNL A   1      40.001  26.853  27.577  1.00  0.00     0.074 A 
ATOM     49  C   UNL A   1      39.302  25.673  28.013  1.00  0.00     0.031 C 
ATOM     50  C   UNL A   1      45.041  24.620  31.030  1.00  0.00     0.029 A 
ATOM     51  C   UNL A   1      44.366  25.887  31.214  1.00  0.00     0.049 A 
ATOM     52  H   UNL A   1      43.113  26.861  29.843  1.00  0.00     0.167 HD
ATOM     53  C   UNL A   1      39.632  28.165  27.605  1.00  0.00     0.034 A 
ATOM     54  C   UNL A   1      44.412  26.732  32.269  1.00  0.00     0.034 A 
ATOM     55  C   UNL A   1      40.684  29.021  27.115  1.00  0.00     0.049 A 
ATOM     56  C   UNL A   1      43.946  28.048  31.783  1.00  0.00     0.074 A 
ATOM     57  C   UNL A   1      41.409  29.119  25.945  1.00  0.00     0.029 A 
ATOM     58  N   UNL A   1      41.399  29.722  28.058  1.00  0.00    -0.354 N 
ATOM     59  N   UNL A   1      44.581  28.743  30.878  1.00  0.00    -0.248 NA
ATOM     60  C   UNL A   1      42.549  28.395  31.971  1.00  0.00     0.031 C 
ATOM     61  C   UNL A   1      42.735  29.445  26.363  1.00  0.00     0.029 A 
ATOM     62  C   UNL A   1      42.727  29.586  27.753  1.00  0.00     0.049 A 
ATOM     63  H   UNL A   1      41.025  30.228  28.814  1.00  0.00     0.167 HD
ATOM     64  C   UNL A   1      43.576  29.272  30.079  1.00  0.00     0.074 A 
ATOM     65  C   UNL A   1      42.356  29.132  30.873  1.00  0.00     0.031 C 
ATOM     66  C   UNL A   1      43.779  29.498  28.746  1.00  0.00     0.034 A 
BRANCH  53  67
ATOM     67  C   UNL A   1      38.495  28.726  28.436  1.00  0.00     0.023 A 
ATOM     68  C   UNL A   1      37.521  29.497  27.759  1.00  0.00     0.012 A 
ATOM     69  C   UNL A   1      38.486  28.787  29.848  1.00  0.00     0.148 A 
ATOM     70  C   UNL A   1      36.636  30.334  28.449  1.00  0.00     0.002 A 
ATOM     71  C   UNL A   1      37.551  29.556  30.531  1.00  0.00     0.091 A 
ATOM     72  F   UNL A   1      39.468  28.220  30.553  1.00  0.00    -0.205 F 
ATOM     73  C   UNL A   1      36.646  30.359  29.837  1.00  0.00     0.022 A 
BRANCH  71  74
ATOM     74  S   UNL A   1      37.500  29.581  32.328  1.00  0.00     0.127 S 
ATOM     75  O   UNL A   1      38.735  30.291  32.642  1.00  0.00    -0.237 OA
ATOM     76  O   UNL A   1      36.268  30.328  32.583  1.00  0.00    -0.237 OA
ATOM     77  O   UNL A   1      37.437  28.181  32.729  1.00  0.00    -0.744 OA
ENDBRANCH  71  74
ENDBRANCH  53  67
BRANCH  54  78
ATOM     78  C   UNL A   1      44.593  26.408  33.699  1.00  0.00     0.023 A 
ATOM     79  C   UNL A   1      45.876  26.453  34.275  1.00  0.00     0.012 A 
ATOM     80  C   UNL A   1      43.475  26.301  34.559  1.00  0.00     0.148 A 
ATOM     81  C   UNL A   1      46.040  26.420  35.666  1.00  0.00     0.002 A 
ATOM     82  C   UNL A   1      43.643  26.259  35.940  1.00  0.00     0.091 A 
ATOM     83  F   UNL A   1      42.247  26.326  34.026  1.00  0.00    -0.205 F 
ATOM     84  C   UNL A   1      44.925  26.330  36.497  1.00  0.00     0.022 A 
BRANCH  82  85
ATOM     85  S   UNL A   1      42.251  26.156  37.075  1.00  0.00     0.127 S 
ATOM     86  O   UNL A   1      42.923  26.147  38.375  1.00  0.00    -0.237 OA
ATOM     87  O   UNL A   1      41.521  27.384  36.772  1.00  0.00    -0.237 OA
ATOM     88  O   UNL A   1      41.558  24.915  36.750  1.00  0.00    -0.744 OA
ENDBRANCH  82  85
ENDBRANCH  54  78
BRANCH  66  89
ATOM     89  C   UNL A   1      45.186  29.372  28.207  1.00  0.00     0.023 A 
ATOM     90  C   UNL A   1      46.146  30.392  28.380  1.00  0.00     0.012 A 
ATOM     91  C   UNL A   1      45.605  28.132  27.695  1.00  0.00     0.148 A 
ATOM     92  C   UNL A   1      47.485  30.190  28.034  1.00  0.00     0.002 A 
ATOM     93  C   UNL A   1      46.946  27.921  27.390  1.00  0.00     0.091 A 
ATOM     94  F   UNL A   1      44.686  27.165  27.553  1.00  0.00    -0.205 F 
ATOM     95  C   UNL A   1      47.888  28.949  27.551  1.00  0.00     0.022 A 
BRANCH  93  96
ATOM     96  S   UNL A   1      47.559  26.313  26.881  1.00  0.00     0.127 S 
ATOM     97  O   UNL A   1      46.820  26.084  25.640  1.00  0.00    -0.237 OA
ATOM     98  O   UNL A   1      48.990  26.568  26.702  1.00  0.00    -0.237 OA
ATOM     99  O   UNL A   1      47.247  25.397  27.970  1.00  0.00    -0.744 OA
ENDBRANCH  93  96
ENDBRANCH  66  89
ENDBRANCH  40  41
ENDBRANCH  32  35
ENDBRANCH  30  31
ENDBRANCH  29  30
ENDBRANCH  28  29
ENDBRANCH   1  28
TORSDOF 19
ENDMDL
MODEL 3
REMARK VINA RESULT:     -11.5      3.886      9.501
REMARK SMILES Cc1nsc(NC(=O)C2([NH3+])CCCCC2)c1C(=O)NCCCCCCNC(=O)c1ccc(-c2c3nc(c(-c4cccc(S(=O)(=O)[O-])c4F)c4ccc([nH]4)c(-c4cccc(S(=O)(=O)[O-])c4F)c4nc(c(-c5cccc(S(=O)(=O)[O-])c5F)c5ccc2[nH]5)C=C4)C=C3)cc1
REMARK SMILES IDX 22 1 21 2 20 3 19 4 17 5 18 6 16 8 1 9 2 10 3 11 4 12 5 13
REMARK SMILES IDX 6 14 7 15 8 17 9 18 11 19 15 20 12 21 14 22 13 23 10 24
REMARK SMILES IDX 23 28 24 29 25 30 26 31 27 32 28 34 29 35 30 36 91 37 31 38
REMARK SMILES IDX 90 39 32 40 33 41 34 42 84 43 35 44 89 45 83 46 85 47 36 48
REMARK SMILES IDX 88 49 82 50 81 51 37 53 69 54 49 55 68 56 50 57 53 58 67 59
REMARK SMILES IDX 86 60 51 61 52 62 66 64 87 65 54 66 38 67 39 68 47 69 40 70
REMARK SMILES IDX 42 71 48 72 41 73 43 74 44 75 45 76 46 77 70 78 71 79 79 80
REMARK SMILES IDX 72 81 74 82 80 83 73 84 75 85 76 86 77 87 78 88 55 89 56 90
REMARK SMILES IDX 64 91 57 92 59 93 65 94 58 95 60 96 61 97 62 98 63 99
REMARK H PARENT 19 7 6 16 10 25 10 26 10 27 26 33 85 52 53 63
REMARK Flexibility Score: inf
ROOT
ATOM      1  C   UNL A   1      31.803  29.782  26.883  1.00  0.00     0.002 C 
ENDROOT
BRANCH   1   2
ATOM      2  C   UNL A   1      33.170  29.144  26.617  1.00  0.00     0.021 C 
BRANCH   2   3
ATOM      3  C   UNL A   1      33.115  27.623  26.480  1.00  0.00     0.116 C 
BRANCH   3   4
ATOM      4  N   UNL A   1      31.816  27.196  26.052  1.00  0.00    -0.352 N 
ATOM      5  C   UNL A   1      31.340  26.579  24.936  1.00  0.00     0.256 C 
ATOM      6  O   UNL A   1      30.132  26.311  25.020  1.00  0.00    -0.269 OA
ATOM      7  H   UNL A   1      31.111  27.393  26.710  1.00  0.00     0.163 HD
BRANCH   5   8
ATOM      8  C   UNL A   1      32.109  26.165  23.746  1.00  0.00     0.097 A 
ATOM      9  C   UNL A   1      33.446  28.249  22.639  1.00  0.00     0.069 C 
ATOM     10  C   UNL A   1      32.991  26.839  22.784  1.00  0.00     0.066 A 
ATOM     11  N   UNL A   1      33.517  26.058  21.839  1.00  0.00    -0.195 NA
ATOM     12  S   UNL A   1      32.856  24.586  21.920  1.00  0.00    -0.017 S 
ATOM     13  C   UNL A   1      32.023  24.808  23.362  1.00  0.00     0.129 A 
BRANCH  13  14
ATOM     14  N   UNL A   1      31.381  23.790  24.055  1.00  0.00    -0.310 N 
ATOM     15  C   UNL A   1      31.731  22.690  24.783  1.00  0.00     0.286 C 
ATOM     16  H   UNL A   1      30.403  23.888  24.008  1.00  0.00     0.171 HD
ATOM     17  O   UNL A   1      30.790  22.142  25.379  1.00  0.00    -0.267 OA
BRANCH  15  18
ATOM     18  C   UNL A   1      33.165  22.077  24.872  1.00  0.00     0.174 C 
ATOM     19  C   UNL A   1      34.262  23.173  24.895  1.00  0.00     0.079 C 
ATOM     20  C   UNL A   1      33.269  21.202  26.142  1.00  0.00     0.079 C 
ATOM     21  C   UNL A   1      34.387  23.944  26.207  1.00  0.00     0.007 C 
ATOM     22  C   UNL A   1      33.307  22.035  27.426  1.00  0.00     0.007 C 
ATOM     23  C   UNL A   1      34.469  23.016  27.409  1.00  0.00     0.001 C 
BRANCH  18  24
ATOM     24  N   UNL A   1      33.495  21.349  23.619  1.00  0.00    -0.345 N 
ATOM     25  H   UNL A   1      34.129  20.578  23.831  1.00  0.00     0.345 HD
ATOM     26  H   UNL A   1      33.944  21.988  22.964  1.00  0.00     0.345 HD
ATOM     27  H   UNL A   1      32.639  20.982  23.205  1.00  0.00     0.345 HD
ENDBRANCH  18  24
ENDBRANCH  15  18
ENDBRANCH  13  14
ENDBRANCH   5   8
ENDBRANCH   3   4
ENDBRANCH   2   3
ENDBRANCH   1   2
BRANCH   1  28
ATOM     28  C   UNL A   1      31.395  30.888  25.897  1.00  0.00     0.002 C 
BRANCH  28  29
ATOM     29  C   UNL A   1      31.246  32.300  26.489  1.00  0.00     0.021 C 
BRANCH  29  30
ATOM     30  C   UNL A   1      32.447  32.727  27.314  1.00  0.00     0.116 C 
BRANCH  30  31
ATOM     31  N   UNL A   1      32.314  34.112  27.770  1.00  0.00    -0.352 N 
ATOM     32  C   UNL A   1      33.037  34.791  28.735  1.00  0.00     0.251 C 
ATOM     33  H   UNL A   1      31.607  34.636  27.327  1.00  0.00     0.163 HD
ATOM     34  O   UNL A   1      32.615  35.819  29.228  1.00  0.00    -0.269 OA
BRANCH  32  35
ATOM     35  C   UNL A   1      34.335  34.232  29.144  1.00  0.00     0.039 A 
ATOM     36  C   UNL A   1      34.476  33.506  30.329  1.00  0.00     0.014 A 
ATOM     37  C   UNL A   1      35.405  34.408  28.277  1.00  0.00     0.014 A 
ATOM     38  C   UNL A   1      35.699  32.896  30.594  1.00  0.00     0.010 A 
ATOM     39  C   UNL A   1      36.524  33.642  28.435  1.00  0.00     0.010 A 
ATOM     40  C   UNL A   1      36.715  32.960  29.632  1.00  0.00    -0.014 A 
BRANCH  40  41
ATOM     41  C   UNL A   1      37.982  32.266  29.813  1.00  0.00     0.031 A 
ATOM     42  C   UNL A   1      38.024  30.874  29.293  1.00  0.00     0.074 A 
ATOM     43  C   UNL A   1      39.098  32.925  30.196  1.00  0.00     0.049 A 
ATOM     44  N   UNL A   1      38.149  29.781  29.971  1.00  0.00    -0.248 NA
ATOM     45  C   UNL A   1      37.764  30.662  27.860  1.00  0.00     0.031 C 
ATOM     46  C   UNL A   1      39.262  34.369  30.433  1.00  0.00     0.029 A 
ATOM     47  N   UNL A   1      40.372  32.464  30.286  1.00  0.00    -0.354 N 
ATOM     48  C   UNL A   1      38.246  28.766  29.022  1.00  0.00     0.074 A 
ATOM     49  C   UNL A   1      37.783  29.330  27.781  1.00  0.00     0.031 C 
ATOM     50  C   UNL A   1      40.570  34.692  30.354  1.00  0.00     0.029 A 
ATOM     51  C   UNL A   1      41.335  33.467  30.271  1.00  0.00     0.049 A 
ATOM     52  H   UNL A   1      40.594  31.507  30.357  1.00  0.00     0.167 HD
ATOM     53  C   UNL A   1      38.966  27.636  29.268  1.00  0.00     0.034 A 
ATOM     54  C   UNL A   1      42.672  33.304  30.156  1.00  0.00     0.034 A 
ATOM     55  C   UNL A   1      39.260  27.491  30.673  1.00  0.00     0.049 A 
ATOM     56  C   UNL A   1      42.971  31.918  30.575  1.00  0.00     0.074 A 
ATOM     57  C   UNL A   1      38.515  27.421  31.832  1.00  0.00     0.029 A 
ATOM     58  N   UNL A   1      40.541  27.793  31.071  1.00  0.00    -0.354 N 
ATOM     59  N   UNL A   1      42.769  31.477  31.787  1.00  0.00    -0.248 NA
ATOM     60  C   UNL A   1      43.078  30.898  29.547  1.00  0.00     0.031 C 
ATOM     61  C   UNL A   1      39.268  28.157  32.796  1.00  0.00     0.029 A 
ATOM     62  C   UNL A   1      40.452  28.579  32.188  1.00  0.00     0.049 A 
ATOM     63  H   UNL A   1      41.372  27.498  30.631  1.00  0.00     0.167 HD
ATOM     64  C   UNL A   1      42.266  30.194  31.608  1.00  0.00     0.074 A 
ATOM     65  C   UNL A   1      42.601  29.850  30.227  1.00  0.00     0.031 C 
ATOM     66  C   UNL A   1      41.374  29.655  32.494  1.00  0.00     0.034 A 
BRANCH  53  67
ATOM     67  C   UNL A   1      39.754  26.867  28.226  1.00  0.00     0.023 A 
ATOM     68  C   UNL A   1      39.627  25.458  28.230  1.00  0.00     0.012 A 
ATOM     69  C   UNL A   1      40.809  27.408  27.456  1.00  0.00     0.148 A 
ATOM     70  C   UNL A   1      40.541  24.635  27.562  1.00  0.00     0.002 A 
ATOM     71  C   UNL A   1      41.664  26.590  26.728  1.00  0.00     0.091 A 
ATOM     72  F   UNL A   1      41.096  28.710  27.527  1.00  0.00    -0.205 F 
ATOM     73  C   UNL A   1      41.558  25.200  26.805  1.00  0.00     0.022 A 
BRANCH  71  74
ATOM     74  S   UNL A   1      42.964  27.282  25.697  1.00  0.00     0.127 S 
ATOM     75  O   UNL A   1      43.793  27.955  26.691  1.00  0.00    -0.237 OA
ATOM     76  O   UNL A   1      43.551  26.080  25.105  1.00  0.00    -0.237 OA
ATOM     77  O   UNL A   1      42.277  28.140  24.739  1.00  0.00    -0.744 OA
ENDBRANCH  71  74
ENDBRANCH  53  67
BRANCH  54  78
ATOM     78  C   UNL A   1      43.652  34.181  29.482  1.00  0.00     0.023 A 
ATOM     79  C   UNL A   1      44.395  35.114  30.228  1.00  0.00     0.012 A 
ATOM     80  C   UNL A   1      44.040  33.930  28.145  1.00  0.00     0.148 A 
ATOM     81  C   UNL A   1      45.507  35.756  29.670  1.00  0.00     0.002 A 
ATOM     82  C   UNL A   1      45.140  34.578  27.591  1.00  0.00     0.091 A 
ATOM     83  F   UNL A   1      43.383  32.994  27.447  1.00  0.00    -0.205 F 
ATOM     84  C   UNL A   1      45.884  35.484  28.357  1.00  0.00     0.022 A 
BRANCH  82  85
ATOM     85  S   UNL A   1      45.693  34.267  25.908  1.00  0.00     0.127 S 
ATOM     86  O   UNL A   1      44.483  34.550  25.137  1.00  0.00    -0.237 OA
ATOM     87  O   UNL A   1      46.762  35.249  25.753  1.00  0.00    -0.237 OA
ATOM     88  O   UNL A   1      46.112  32.870  25.874  1.00  0.00    -0.744 OA
ENDBRANCH  82  85
ENDBRANCH  54  78
BRANCH  66  89
ATOM     89  C   UNL A   1      41.118  30.395  33.788  1.00  0.00     0.023 A 
ATOM     90  C   UNL A   1      42.077  30.441  34.823  1.00  0.00     0.012 A 
ATOM     91  C   UNL A   1      39.984  31.217  33.883  1.00  0.00     0.148 A 
ATOM     92  C   UNL A   1      41.900  31.269  35.935  1.00  0.00     0.002 A 
ATOM     93  C   UNL A   1      39.831  32.072  34.971  1.00  0.00     0.091 A 
ATOM     94  F   UNL A   1      39.089  31.178  32.884  1.00  0.00    -0.205 F 
ATOM     95  C   UNL A   1      40.783  32.095  36.002  1.00  0.00     0.022 A 
BRANCH  93  96
ATOM     96  S   UNL A   1      38.483  33.252  35.066  1.00  0.00     0.127 S 
ATOM     97  O   UNL A   1      38.791  33.968  36.303  1.00  0.00    -0.237 OA
ATOM     98  O   UNL A   1      38.668  34.036  33.843  1.00  0.00    -0.237 OA
ATOM     99  O   UNL A   1      37.257  32.465  35.090  1.00  0.00    -0.744 OA
ENDBRANCH  93  96
ENDBRANCH  66  89
ENDBRANCH  40  41
ENDBRANCH  32  35
ENDBRANCH  30  31
ENDBRANCH  29  30
ENDBRANCH  28  29
ENDBRANCH   1  28
TORSDOF 19
ENDMDL
