MODEL 1
REMARK VINA RESULT:     -12.3      0.000      0.000
REMARK SMILES CS(=O)(=O)c1ccc(/C=C(/C(=O)NCCCCCCNC(=O)c2ccc(-c3c4nc(c(-c5cccc(S(=O)(=O)[O-])c5F)c5ccc([nH]5)c(-c5cccc(S(=O)(=O)[O-])c5F)c5nc(c(-c6cccc(S(=O)(=O)[O-])c6F)c6ccc3[nH]6)C=C5)C=C4)cc2)c2ccc(F)cc2)cc1
REMARK SMILES IDX 17 1 16 2 15 3 14 4 13 5 11 6 12 7 10 9 9 10 8 11 5 12 6 13
REMARK SMILES IDX 94 14 7 15 93 16 2 17 1 18 3 19 4 20 86 21 87 22 92 23 88 24
REMARK SMILES IDX 91 25 89 26 90 27 18 28 19 29 20 30 21 31 22 33 23 34 24 35
REMARK SMILES IDX 85 36 25 37 84 38 26 39 27 40 28 41 78 42 29 43 83 44 77 45
REMARK SMILES IDX 79 46 30 47 82 48 76 49 75 50 31 52 63 53 43 54 62 55 44 56
REMARK SMILES IDX 47 57 61 58 80 59 45 60 46 61 60 63 81 64 48 65 32 66 33 67
REMARK SMILES IDX 41 68 34 69 36 70 42 71 35 72 37 73 38 74 39 75 40 76 64 77
REMARK SMILES IDX 65 78 73 79 66 80 68 81 74 82 67 83 69 84 70 85 71 86 72 87
REMARK SMILES IDX 49 88 50 89 58 90 51 91 53 92 59 93 52 94 54 95 55 96 56 97
REMARK SMILES IDX 57 98
REMARK H PARENT 13 8 20 32 79 51 47 62
REMARK Flexibility Score: inf
ROOT
ATOM      1  C   UNL A   1      31.940  28.034  27.091  1.00  0.00     0.002 C 
ENDROOT
BRANCH   1   2
ATOM      2  C   UNL A   1      31.050  27.405  26.014  1.00  0.00     0.002 C 
BRANCH   2   3
ATOM      3  C   UNL A   1      31.291  25.906  25.772  1.00  0.00     0.021 C 
BRANCH   3   4
ATOM      4  C   UNL A   1      30.570  25.371  24.530  1.00  0.00     0.116 C 
BRANCH   4   5
ATOM      5  N   UNL A   1      31.417  25.557  23.368  1.00  0.00    -0.352 N 
ATOM      6  C   UNL A   1      32.479  24.891  22.849  1.00  0.00     0.251 C 
ATOM      7  O   UNL A   1      33.030  25.427  21.883  1.00  0.00    -0.269 OA
ATOM      8  H   UNL A   1      31.165  26.345  22.835  1.00  0.00     0.163 HD
BRANCH   6   9
ATOM      9  C   UNL A   1      32.932  23.526  23.321  1.00  0.00     0.047 C 
ATOM     10  C   UNL A   1      32.123  22.440  23.309  1.00  0.00     0.022 C 
BRANCH  10  11
ATOM     11  C   UNL A   1      32.450  21.020  23.578  1.00  0.00    -0.025 A 
ATOM     12  C   UNL A   1      33.179  18.323  23.862  1.00  0.00     0.067 A 
ATOM     13  C   UNL A   1      33.463  19.232  24.881  1.00  0.00     0.021 A 
ATOM     14  C   UNL A   1      32.507  18.733  22.713  1.00  0.00     0.021 A 
ATOM     15  C   UNL A   1      33.060  20.563  24.753  1.00  0.00     0.009 A 
ATOM     16  C   UNL A   1      32.150  20.080  22.575  1.00  0.00     0.009 A 
BRANCH  12  17
ATOM     17  S   UNL A   1      33.695  16.635  24.054  1.00  0.00     0.175 S 
ATOM     18  C   UNL A   1      35.123  16.758  25.100  1.00  0.00     0.163 C 
ATOM     19  O   UNL A   1      34.130  16.176  22.747  1.00  0.00    -0.224 OA
ATOM     20  O   UNL A   1      32.669  15.930  24.793  1.00  0.00    -0.224 OA
ENDBRANCH  12  17
ENDBRANCH  10  11
BRANCH   9  21
ATOM     21  C   UNL A   1      34.266  23.472  23.971  1.00  0.00    -0.013 A 
ATOM     22  C   UNL A   1      35.365  23.056  23.193  1.00  0.00     0.012 A 
ATOM     23  C   UNL A   1      34.486  23.902  25.288  1.00  0.00     0.012 A 
ATOM     24  C   UNL A   1      36.660  23.105  23.703  1.00  0.00     0.040 A 
ATOM     25  C   UNL A   1      35.790  23.966  25.790  1.00  0.00     0.040 A 
ATOM     26  C   UNL A   1      36.861  23.574  24.993  1.00  0.00     0.123 A 
ATOM     27  F   UNL A   1      38.110  23.664  25.470  1.00  0.00    -0.207 F 
ENDBRANCH   9  21
ENDBRANCH   6   9
ENDBRANCH   4   5
ENDBRANCH   3   4
ENDBRANCH   2   3
ENDBRANCH   1   2
BRANCH   1  28
ATOM     28  C   UNL A   1      33.444  27.891  26.843  1.00  0.00     0.021 C 
BRANCH  28  29
ATOM     29  C   UNL A   1      34.042  28.996  25.979  1.00  0.00     0.116 C 
BRANCH  29  30
ATOM     30  N   UNL A   1      33.842  30.309  26.574  1.00  0.00    -0.352 N 
ATOM     31  C   UNL A   1      34.521  30.899  27.610  1.00  0.00     0.251 C 
ATOM     32  H   UNL A   1      33.119  30.848  26.179  1.00  0.00     0.163 HD
ATOM     33  O   UNL A   1      34.078  31.915  28.138  1.00  0.00    -0.269 OA
BRANCH  31  34
ATOM     34  C   UNL A   1      35.784  30.300  28.091  1.00  0.00     0.039 A 
ATOM     35  C   UNL A   1      36.935  30.423  27.310  1.00  0.00     0.014 A 
ATOM     36  C   UNL A   1      35.826  29.612  29.308  1.00  0.00     0.014 A 
ATOM     37  C   UNL A   1      38.141  29.892  27.771  1.00  0.00     0.010 A 
ATOM     38  C   UNL A   1      37.042  29.151  29.799  1.00  0.00     0.010 A 
ATOM     39  C   UNL A   1      38.209  29.272  29.031  1.00  0.00    -0.014 A 
BRANCH  39  40
ATOM     40  C   UNL A   1      39.490  28.740  29.558  1.00  0.00     0.031 A 
ATOM     41  C   UNL A   1      40.193  29.442  30.689  1.00  0.00     0.074 A 
ATOM     42  C   UNL A   1      40.067  27.679  28.962  1.00  0.00     0.049 A 
ATOM     43  N   UNL A   1      41.340  29.158  31.248  1.00  0.00    -0.248 NA
ATOM     44  C   UNL A   1      39.537  30.637  31.241  1.00  0.00     0.031 C 
ATOM     45  C   UNL A   1      39.528  26.967  27.801  1.00  0.00     0.029 A 
ATOM     46  N   UNL A   1      41.247  27.034  29.229  1.00  0.00    -0.354 N 
ATOM     47  C   UNL A   1      41.562  30.157  32.188  1.00  0.00     0.074 A 
ATOM     48  C   UNL A   1      40.448  31.076  32.096  1.00  0.00     0.031 C 
ATOM     49  C   UNL A   1      40.375  25.984  27.457  1.00  0.00     0.029 A 
ATOM     50  C   UNL A   1      41.527  26.012  28.353  1.00  0.00     0.049 A 
ATOM     51  H   UNL A   1      41.838  27.278  29.979  1.00  0.00     0.167 HD
ATOM     52  C   UNL A   1      42.582  30.284  33.071  1.00  0.00     0.034 A 
ATOM     53  C   UNL A   1      42.596  25.195  28.272  1.00  0.00     0.034 A 
ATOM     54  C   UNL A   1      43.666  29.347  33.185  1.00  0.00     0.049 A 
ATOM     55  C   UNL A   1      43.691  25.321  29.293  1.00  0.00     0.074 A 
ATOM     56  C   UNL A   1      44.695  29.328  34.109  1.00  0.00     0.029 A 
ATOM     57  N   UNL A   1      43.869  28.266  32.340  1.00  0.00    -0.354 N 
ATOM     58  N   UNL A   1      43.800  26.172  30.284  1.00  0.00    -0.248 NA
ATOM     59  C   UNL A   1      44.792  24.351  29.211  1.00  0.00     0.031 C 
ATOM     60  C   UNL A   1      45.537  28.253  33.803  1.00  0.00     0.029 A 
ATOM     61  C   UNL A   1      45.014  27.581  32.710  1.00  0.00     0.049 A 
ATOM     62  H   UNL A   1      43.284  28.022  31.586  1.00  0.00     0.167 HD
ATOM     63  C   UNL A   1      44.962  25.821  30.963  1.00  0.00     0.074 A 
ATOM     64  C   UNL A   1      45.510  24.667  30.281  1.00  0.00     0.031 C 
ATOM     65  C   UNL A   1      45.527  26.408  32.048  1.00  0.00     0.034 A 
BRANCH  52  66
ATOM     66  C   UNL A   1      42.543  31.462  34.012  1.00  0.00     0.023 A 
ATOM     67  C   UNL A   1      43.248  32.640  33.687  1.00  0.00     0.012 A 
ATOM     68  C   UNL A   1      41.791  31.416  35.202  1.00  0.00     0.148 A 
ATOM     69  C   UNL A   1      43.245  33.733  34.553  1.00  0.00     0.002 A 
ATOM     70  C   UNL A   1      41.754  32.527  36.036  1.00  0.00     0.091 A 
ATOM     71  F   UNL A   1      41.144  30.282  35.509  1.00  0.00    -0.205 F 
ATOM     72  C   UNL A   1      42.492  33.681  35.722  1.00  0.00     0.022 A 
BRANCH  70  73
ATOM     73  S   UNL A   1      40.746  32.585  37.523  1.00  0.00     0.127 S 
ATOM     74  O   UNL A   1      39.535  31.894  37.084  1.00  0.00    -0.237 OA
ATOM     75  O   UNL A   1      41.562  31.836  38.479  1.00  0.00    -0.237 OA
ATOM     76  O   UNL A   1      40.586  33.996  37.840  1.00  0.00    -0.744 OA
ENDBRANCH  70  73
ENDBRANCH  52  66
BRANCH  53  77
ATOM     77  C   UNL A   1      42.634  24.142  27.219  1.00  0.00     0.023 A 
ATOM     78  C   UNL A   1      43.375  24.364  26.043  1.00  0.00     0.012 A 
ATOM     79  C   UNL A   1      41.994  22.902  27.406  1.00  0.00     0.148 A 
ATOM     80  C   UNL A   1      43.460  23.377  25.060  1.00  0.00     0.002 A 
ATOM     81  C   UNL A   1      42.130  21.903  26.450  1.00  0.00     0.091 A 
ATOM     82  F   UNL A   1      41.289  22.716  28.531  1.00  0.00    -0.205 F 
ATOM     83  C   UNL A   1      42.849  22.144  25.269  1.00  0.00     0.022 A 
BRANCH  81  84
ATOM     84  S   UNL A   1      41.497  20.239  26.695  1.00  0.00     0.127 S 
ATOM     85  O   UNL A   1      41.842  19.599  25.429  1.00  0.00    -0.237 OA
ATOM     86  O   UNL A   1      42.279  19.789  27.848  1.00  0.00    -0.237 OA
ATOM     87  O   UNL A   1      40.072  20.392  26.958  1.00  0.00    -0.744 OA
ENDBRANCH  81  84
ENDBRANCH  53  77
BRANCH  65  88
ATOM     88  C   UNL A   1      46.794  25.799  32.592  1.00  0.00     0.023 A 
ATOM     89  C   UNL A   1      48.046  26.250  32.129  1.00  0.00     0.012 A 
ATOM     90  C   UNL A   1      46.742  24.834  33.616  1.00  0.00     0.148 A 
ATOM     91  C   UNL A   1      49.227  25.726  32.655  1.00  0.00     0.002 A 
ATOM     92  C   UNL A   1      47.922  24.352  34.171  1.00  0.00     0.091 A 
ATOM     93  F   UNL A   1      45.541  24.403  34.029  1.00  0.00    -0.205 F 
ATOM     94  C   UNL A   1      49.165  24.788  33.683  1.00  0.00     0.022 A 
BRANCH  92  95
ATOM     95  S   UNL A   1      47.938  23.219  35.564  1.00  0.00     0.127 S 
ATOM     96  O   UNL A   1      46.979  23.847  36.470  1.00  0.00    -0.237 OA
ATOM     97  O   UNL A   1      47.475  21.971  34.955  1.00  0.00    -0.237 OA
ATOM     98  O   UNL A   1      49.316  23.184  36.037  1.00  0.00    -0.744 OA
ENDBRANCH  92  95
ENDBRANCH  65  88
ENDBRANCH  39  40
ENDBRANCH  31  34
ENDBRANCH  29  30
ENDBRANCH  28  29
ENDBRANCH   1  28
TORSDOF 19
ENDMDL
MODEL 2
REMARK VINA RESULT:     -12.0      1.642      2.186
REMARK SMILES CS(=O)(=O)c1ccc(/C=C(/C(=O)NCCCCCCNC(=O)c2ccc(-c3c4nc(c(-c5cccc(S(=O)(=O)[O-])c5F)c5ccc([nH]5)c(-c5cccc(S(=O)(=O)[O-])c5F)c5nc(c(-c6cccc(S(=O)(=O)[O-])c6F)c6ccc3[nH]6)C=C5)C=C4)cc2)c2ccc(F)cc2)cc1
REMARK SMILES IDX 17 1 16 2 15 3 14 4 13 5 11 6 12 7 10 9 9 10 8 11 5 12 6 13
REMARK SMILES IDX 94 14 7 15 93 16 2 17 1 18 3 19 4 20 86 21 87 22 92 23 88 24
REMARK SMILES IDX 91 25 89 26 90 27 18 28 19 29 20 30 21 31 22 33 23 34 24 35
REMARK SMILES IDX 85 36 25 37 84 38 26 39 27 40 28 41 78 42 29 43 83 44 77 45
REMARK SMILES IDX 79 46 30 47 82 48 76 49 75 50 31 52 63 53 43 54 62 55 44 56
REMARK SMILES IDX 47 57 61 58 80 59 45 60 46 61 60 63 81 64 48 65 32 66 33 67
REMARK SMILES IDX 41 68 34 69 36 70 42 71 35 72 37 73 38 74 39 75 40 76 64 77
REMARK SMILES IDX 65 78 73 79 66 80 68 81 74 82 67 83 69 84 70 85 71 86 72 87
REMARK SMILES IDX 49 88 50 89 58 90 51 91 53 92 59 93 52 94 54 95 55 96 56 97
REMARK SMILES IDX 57 98
REMARK H PARENT 13 8 20 32 79 51 47 62
REMARK Flexibility Score: inf
ROOT
ATOM      1  C   UNL A   1      31.426  27.333  26.568  1.00  0.00     0.002 C 
ENDROOT
BRANCH   1   2
ATOM      2  C   UNL A   1      31.379  27.311  25.036  1.00  0.00     0.002 C 
BRANCH   2   3
ATOM      3  C   UNL A   1      30.122  26.658  24.437  1.00  0.00     0.021 C 
BRANCH   3   4
ATOM      4  C   UNL A   1      30.404  25.312  23.762  1.00  0.00     0.116 C 
BRANCH   4   5
ATOM      5  N   UNL A   1      31.363  25.505  22.691  1.00  0.00    -0.352 N 
ATOM      6  C   UNL A   1      32.522  24.900  22.333  1.00  0.00     0.251 C 
ATOM      7  O   UNL A   1      33.141  25.427  21.404  1.00  0.00    -0.269 OA
ATOM      8  H   UNL A   1      31.117  26.243  22.087  1.00  0.00     0.163 HD
BRANCH   6   9
ATOM      9  C   UNL A   1      33.016  23.601  22.934  1.00  0.00     0.047 C 
ATOM     10  C   UNL A   1      32.239  22.497  23.034  1.00  0.00     0.022 C 
BRANCH  10  11
ATOM     11  C   UNL A   1      32.607  21.120  23.438  1.00  0.00    -0.025 A 
ATOM     12  C   UNL A   1      33.382  18.473  23.969  1.00  0.00     0.067 A 
ATOM     13  C   UNL A   1      33.796  19.503  24.813  1.00  0.00     0.021 A 
ATOM     14  C   UNL A   1      32.560  18.739  22.877  1.00  0.00     0.021 A 
ATOM     15  C   UNL A   1      33.372  20.811  24.569  1.00  0.00     0.009 A 
ATOM     16  C   UNL A   1      32.179  20.061  22.615  1.00  0.00     0.009 A 
BRANCH  12  17
ATOM     17  S   UNL A   1      33.930  16.818  24.306  1.00  0.00     0.175 S 
ATOM     18  C   UNL A   1      32.649  16.165  25.345  1.00  0.00     0.163 C 
ATOM     19  O   UNL A   1      35.143  16.929  25.097  1.00  0.00    -0.224 OA
ATOM     20  O   UNL A   1      33.910  16.074  23.065  1.00  0.00    -0.224 OA
ENDBRANCH  12  17
ENDBRANCH  10  11
BRANCH   9  21
ATOM     21  C   UNL A   1      34.355  23.647  23.575  1.00  0.00    -0.013 A 
ATOM     22  C   UNL A   1      34.458  24.238  24.850  1.00  0.00     0.012 A 
ATOM     23  C   UNL A   1      35.489  23.049  23.007  1.00  0.00     0.012 A 
ATOM     24  C   UNL A   1      35.655  24.200  25.560  1.00  0.00     0.040 A 
ATOM     25  C   UNL A   1      36.685  22.997  23.730  1.00  0.00     0.040 A 
ATOM     26  C   UNL A   1      36.754  23.566  24.999  1.00  0.00     0.123 A 
ATOM     27  F   UNL A   1      37.894  23.488  25.699  1.00  0.00    -0.207 F 
ENDBRANCH   9  21
ENDBRANCH   6   9
ENDBRANCH   4   5
ENDBRANCH   3   4
ENDBRANCH   2   3
ENDBRANCH   1   2
BRANCH   1  28
ATOM     28  C   UNL A   1      31.849  28.673  27.175  1.00  0.00     0.021 C 
BRANCH  28  29
ATOM     29  C   UNL A   1      32.853  29.450  26.332  1.00  0.00     0.116 C 
BRANCH  29  30
ATOM     30  N   UNL A   1      32.718  30.887  26.525  1.00  0.00    -0.352 N 
ATOM     31  C   UNL A   1      33.454  31.722  27.326  1.00  0.00     0.251 C 
ATOM     32  H   UNL A   1      31.999  31.318  26.009  1.00  0.00     0.163 HD
ATOM     33  O   UNL A   1      33.064  32.865  27.548  1.00  0.00    -0.269 OA
BRANCH  31  34
ATOM     34  C   UNL A   1      34.714  31.236  27.927  1.00  0.00     0.039 A 
ATOM     35  C   UNL A   1      35.809  32.100  28.003  1.00  0.00     0.014 A 
ATOM     36  C   UNL A   1      34.814  29.927  28.407  1.00  0.00     0.014 A 
ATOM     37  C   UNL A   1      36.993  31.663  28.600  1.00  0.00     0.010 A 
ATOM     38  C   UNL A   1      35.966  29.519  29.069  1.00  0.00     0.010 A 
ATOM     39  C   UNL A   1      37.073  30.376  29.159  1.00  0.00    -0.014 A 
BRANCH  39  40
ATOM     40  C   UNL A   1      38.307  29.908  29.838  1.00  0.00     0.031 A 
ATOM     41  C   UNL A   1      38.703  30.482  31.171  1.00  0.00     0.074 A 
ATOM     42  C   UNL A   1      39.119  29.033  29.214  1.00  0.00     0.049 A 
ATOM     43  N   UNL A   1      39.766  30.237  31.891  1.00  0.00    -0.248 NA
ATOM     44  C   UNL A   1      37.802  31.488  31.756  1.00  0.00     0.031 C 
ATOM     45  C   UNL A   1      38.890  28.471  27.881  1.00  0.00     0.029 A 
ATOM     46  N   UNL A   1      40.315  28.486  29.604  1.00  0.00    -0.354 N 
ATOM     47  C   UNL A   1      39.683  31.082  32.991  1.00  0.00     0.074 A 
ATOM     48  C   UNL A   1      38.485  31.875  32.823  1.00  0.00     0.031 C 
ATOM     49  C   UNL A   1      39.911  27.660  27.565  1.00  0.00     0.029 A 
ATOM     50  C   UNL A   1      40.879  27.664  28.657  1.00  0.00     0.049 A 
ATOM     51  H   UNL A   1      40.729  28.665  30.480  1.00  0.00     0.167 HD
ATOM     52  C   UNL A   1      40.511  31.170  34.061  1.00  0.00     0.034 A 
ATOM     53  C   UNL A   1      42.049  26.995  28.664  1.00  0.00     0.034 A 
ATOM     54  C   UNL A   1      41.679  30.353  34.241  1.00  0.00     0.049 A 
ATOM     55  C   UNL A   1      42.927  27.067  29.882  1.00  0.00     0.074 A 
ATOM     56  C   UNL A   1      42.528  30.292  35.331  1.00  0.00     0.029 A 
ATOM     57  N   UNL A   1      42.171  29.459  33.302  1.00  0.00    -0.354 N 
ATOM     58  N   UNL A   1      42.746  27.746  30.989  1.00  0.00    -0.248 NA
ATOM     59  C   UNL A   1      44.150  26.252  29.870  1.00  0.00     0.031 C 
ATOM     60  C   UNL A   1      43.551  29.383  35.038  1.00  0.00     0.029 A 
ATOM     61  C   UNL A   1      43.320  28.852  33.779  1.00  0.00     0.049 A 
ATOM     62  H   UNL A   1      41.763  29.282  32.424  1.00  0.00     0.167 HD
ATOM     63  C   UNL A   1      43.812  27.416  31.818  1.00  0.00     0.074 A 
ATOM     64  C   UNL A   1      44.624  26.461  31.092  1.00  0.00     0.031 C 
ATOM     65  C   UNL A   1      44.097  27.871  33.064  1.00  0.00     0.034 A 
BRANCH  52  66
ATOM     66  C   UNL A   1      40.148  32.161  35.138  1.00  0.00     0.023 A 
ATOM     67  C   UNL A   1      40.770  33.427  35.161  1.00  0.00     0.012 A 
ATOM     68  C   UNL A   1      39.177  31.853  36.111  1.00  0.00     0.148 A 
ATOM     69  C   UNL A   1      40.468  34.350  36.161  1.00  0.00     0.002 A 
ATOM     70  C   UNL A   1      38.846  32.798  37.076  1.00  0.00     0.091 A 
ATOM     71  F   UNL A   1      38.611  30.638  36.090  1.00  0.00    -0.205 F 
ATOM     72  C   UNL A   1      39.501  34.040  37.113  1.00  0.00     0.022 A 
BRANCH  70  73
ATOM     73  S   UNL A   1      37.554  32.521  38.294  1.00  0.00     0.127 S 
ATOM     74  O   UNL A   1      37.677  31.084  38.532  1.00  0.00    -0.237 OA
ATOM     75  O   UNL A   1      37.992  33.363  39.407  1.00  0.00    -0.237 OA
ATOM     76  O   UNL A   1      36.314  32.950  37.662  1.00  0.00    -0.744 OA
ENDBRANCH  70  73
ENDBRANCH  52  66
BRANCH  53  77
ATOM     77  C   UNL A   1      42.412  26.145  27.495  1.00  0.00     0.023 A 
ATOM     78  C   UNL A   1      43.223  26.678  26.475  1.00  0.00     0.012 A 
ATOM     79  C   UNL A   1      42.012  24.797  27.424  1.00  0.00     0.148 A 
ATOM     80  C   UNL A   1      43.611  25.890  25.391  1.00  0.00     0.002 A 
ATOM     81  C   UNL A   1      42.449  24.002  26.371  1.00  0.00     0.091 A 
ATOM     82  F   UNL A   1      41.236  24.313  28.403  1.00  0.00    -0.205 F 
ATOM     83  C   UNL A   1      43.235  24.550  25.345  1.00  0.00     0.022 A 
BRANCH  81  84
ATOM     84  S   UNL A   1      42.132  22.235  26.300  1.00  0.00     0.127 S 
ATOM     85  O   UNL A   1      40.676  22.196  26.199  1.00  0.00    -0.237 OA
ATOM     86  O   UNL A   1      42.846  21.852  25.081  1.00  0.00    -0.237 OA
ATOM     87  O   UNL A   1      42.696  21.682  27.525  1.00  0.00    -0.744 OA
ENDBRANCH  81  84
ENDBRANCH  53  77
BRANCH  65  88
ATOM     88  C   UNL A   1      45.325  27.323  33.745  1.00  0.00     0.023 A 
ATOM     89  C   UNL A   1      46.557  27.995  33.619  1.00  0.00     0.012 A 
ATOM     90  C   UNL A   1      45.239  26.184  34.568  1.00  0.00     0.148 A 
ATOM     91  C   UNL A   1      47.692  27.522  34.279  1.00  0.00     0.002 A 
ATOM     92  C   UNL A   1      46.361  25.748  35.262  1.00  0.00     0.091 A 
ATOM     93  F   UNL A   1      44.063  25.546  34.658  1.00  0.00    -0.205 F 
ATOM     94  C   UNL A   1      47.591  26.408  35.109  1.00  0.00     0.022 A 
BRANCH  92  95
ATOM     95  S   UNL A   1      46.302  24.383  36.429  1.00  0.00     0.127 S 
ATOM     96  O   UNL A   1      46.107  23.240  35.539  1.00  0.00    -0.237 OA
ATOM     97  O   UNL A   1      47.623  24.452  37.055  1.00  0.00    -0.237 OA
ATOM     98  O   UNL A   1      45.193  24.673  37.328  1.00  0.00    -0.744 OA
ENDBRANCH  92  95
ENDBRANCH  65  88
ENDBRANCH  39  40
ENDBRANCH  31  34
ENDBRANCH  29  30
ENDBRANCH  28  29
ENDBRANCH   1  28
TORSDOF 19
ENDMDL
MODEL 3
REMARK VINA RESULT:     -12.0      3.587      8.742
REMARK SMILES CS(=O)(=O)c1ccc(/C=C(/C(=O)NCCCCCCNC(=O)c2ccc(-c3c4nc(c(-c5cccc(S(=O)(=O)[O-])c5F)c5ccc([nH]5)c(-c5cccc(S(=O)(=O)[O-])c5F)c5nc(c(-c6cccc(S(=O)(=O)[O-])c6F)c6ccc3[nH]6)C=C5)C=C4)cc2)c2ccc(F)cc2)cc1
REMARK SMILES IDX 17 1 16 2 15 3 14 4 13 5 11 6 12 7 10 9 9 10 8 11 5 12 6 13
REMARK SMILES IDX 94 14 7 15 93 16 2 17 1 18 3 19 4 20 86 21 87 22 92 23 88 24
REMARK SMILES IDX 91 25 89 26 90 27 18 28 19 29 20 30 21 31 22 33 23 34 24 35
REMARK SMILES IDX 85 36 25 37 84 38 26 39 27 40 28 41 78 42 29 43 83 44 77 45
REMARK SMILES IDX 79 46 30 47 82 48 76 49 75 50 31 52 63 53 43 54 62 55 44 56
REMARK SMILES IDX 47 57 61 58 80 59 45 60 46 61 60 63 81 64 48 65 32 66 33 67
REMARK SMILES IDX 41 68 34 69 36 70 42 71 35 72 37 73 38 74 39 75 40 76 64 77
REMARK SMILES IDX 65 78 73 79 66 80 68 81 74 82 67 83 69 84 70 85 71 86 72 87
REMARK SMILES IDX 49 88 50 89 58 90 51 91 53 92 59 93 52 94 54 95 55 96 56 97
REMARK SMILES IDX 57 98
REMARK H PARENT 13 8 20 32 79 51 47 62
REMARK Flexibility Score: inf
ROOT
ATOM      1  C   UNL A   1      31.223  31.018  26.780  1.00  0.00     0.002 C 
ENDROOT
BRANCH   1   2
ATOM      2  C   UNL A   1      32.021  30.008  25.947  1.00  0.00     0.002 C 
BRANCH   2   3
ATOM      3  C   UNL A   1      32.844  29.002  26.768  1.00  0.00     0.021 C 
BRANCH   3   4
ATOM      4  C   UNL A   1      34.239  28.747  26.187  1.00  0.00     0.116 C 
BRANCH   4   5
ATOM      5  N   UNL A   1      34.227  29.038  24.766  1.00  0.00    -0.352 N 
ATOM      6  C   UNL A   1      33.988  28.308  23.649  1.00  0.00     0.251 C 
ATOM      7  O   UNL A   1      34.188  28.884  22.576  1.00  0.00    -0.269 OA
ATOM      8  H   UNL A   1      34.442  29.978  24.568  1.00  0.00     0.163 HD
BRANCH   6   9
ATOM      9  C   UNL A   1      33.411  26.908  23.663  1.00  0.00     0.047 C 
ATOM     10  C   UNL A   1      34.113  25.822  23.263  1.00  0.00     0.022 C 
BRANCH  10  11
ATOM     11  C   UNL A   1      33.763  24.386  23.363  1.00  0.00    -0.025 A 
ATOM     12  C   UNL A   1      33.100  21.692  23.803  1.00  0.00     0.067 A 
ATOM     13  C   UNL A   1      32.362  22.452  22.896  1.00  0.00     0.021 A 
ATOM     14  C   UNL A   1      34.186  22.248  24.474  1.00  0.00     0.021 A 
ATOM     15  C   UNL A   1      32.723  23.779  22.649  1.00  0.00     0.009 A 
ATOM     16  C   UNL A   1      34.510  23.593  24.254  1.00  0.00     0.009 A 
BRANCH  12  17
ATOM     17  S   UNL A   1      32.624  20.007  24.092  1.00  0.00     0.175 S 
ATOM     18  C   UNL A   1      34.146  19.223  24.558  1.00  0.00     0.163 C 
ATOM     19  O   UNL A   1      32.207  19.461  22.813  1.00  0.00    -0.224 OA
ATOM     20  O   UNL A   1      31.745  19.976  25.242  1.00  0.00    -0.224 OA
ENDBRANCH  12  17
ENDBRANCH  10  11
BRANCH   9  21
ATOM     21  C   UNL A   1      31.962  26.804  23.973  1.00  0.00    -0.013 A 
ATOM     22  C   UNL A   1      31.046  27.337  23.044  1.00  0.00     0.012 A 
ATOM     23  C   UNL A   1      31.475  26.121  25.096  1.00  0.00     0.012 A 
ATOM     24  C   UNL A   1      29.675  27.159  23.211  1.00  0.00     0.040 A 
ATOM     25  C   UNL A   1      30.098  25.930  25.252  1.00  0.00     0.040 A 
ATOM     26  C   UNL A   1      29.215  26.443  24.307  1.00  0.00     0.123 A 
ATOM     27  F   UNL A   1      27.899  26.232  24.446  1.00  0.00    -0.207 F 
ENDBRANCH   9  21
ENDBRANCH   6   9
ENDBRANCH   4   5
ENDBRANCH   3   4
ENDBRANCH   2   3
ENDBRANCH   1   2
BRANCH   1  28
ATOM     28  C   UNL A   1      31.602  32.483  26.543  1.00  0.00     0.021 C 
BRANCH  28  29
ATOM     29  C   UNL A   1      32.736  32.984  27.430  1.00  0.00     0.116 C 
BRANCH  29  30
ATOM     30  N   UNL A   1      32.546  34.377  27.807  1.00  0.00    -0.352 N 
ATOM     31  C   UNL A   1      33.127  35.080  28.832  1.00  0.00     0.251 C 
ATOM     32  H   UNL A   1      31.913  34.885  27.250  1.00  0.00     0.163 HD
ATOM     33  O   UNL A   1      32.686  36.181  29.152  1.00  0.00    -0.269 OA
BRANCH  31  34
ATOM     34  C   UNL A   1      34.280  34.502  29.553  1.00  0.00     0.039 A 
ATOM     35  C   UNL A   1      34.066  33.859  30.775  1.00  0.00     0.014 A 
ATOM     36  C   UNL A   1      35.572  34.603  29.026  1.00  0.00     0.014 A 
ATOM     37  C   UNL A   1      35.143  33.279  31.447  1.00  0.00     0.010 A 
ATOM     38  C   UNL A   1      36.629  33.959  29.659  1.00  0.00     0.010 A 
ATOM     39  C   UNL A   1      36.430  33.304  30.883  1.00  0.00    -0.014 A 
BRANCH  39  40
ATOM     40  C   UNL A   1      37.579  32.655  31.561  1.00  0.00     0.031 A 
ATOM     41  C   UNL A   1      38.298  31.509  30.902  1.00  0.00     0.074 A 
ATOM     42  C   UNL A   1      37.919  33.035  32.807  1.00  0.00     0.049 A 
ATOM     43  N   UNL A   1      39.287  30.785  31.357  1.00  0.00    -0.248 NA
ATOM     44  C   UNL A   1      37.822  31.102  29.570  1.00  0.00     0.031 C 
ATOM     45  C   UNL A   1      37.242  34.073  33.587  1.00  0.00     0.029 A 
ATOM     46  N   UNL A   1      38.899  32.573  33.649  1.00  0.00    -0.354 N 
ATOM     47  C   UNL A   1      39.526  29.817  30.390  1.00  0.00     0.074 A 
ATOM     48  C   UNL A   1      38.552  30.021  29.339  1.00  0.00     0.031 C 
ATOM     49  C   UNL A   1      37.826  34.168  34.792  1.00  0.00     0.029 A 
ATOM     50  C   UNL A   1      38.899  33.183  34.881  1.00  0.00     0.049 A 
ATOM     51  H   UNL A   1      39.541  31.871  33.394  1.00  0.00     0.167 HD
ATOM     52  C   UNL A   1      40.488  28.863  30.360  1.00  0.00     0.034 A 
ATOM     53  C   UNL A   1      39.671  32.967  35.964  1.00  0.00     0.034 A 
ATOM     54  C   UNL A   1      41.478  28.689  31.388  1.00  0.00     0.049 A 
ATOM     55  C   UNL A   1      40.765  31.939  35.891  1.00  0.00     0.074 A 
ATOM     56  C   UNL A   1      42.554  27.820  31.409  1.00  0.00     0.029 A 
ATOM     57  N   UNL A   1      41.507  29.390  32.584  1.00  0.00    -0.354 N 
ATOM     58  N   UNL A   1      41.084  31.145  34.899  1.00  0.00    -0.248 NA
ATOM     59  C   UNL A   1      41.631  31.804  37.071  1.00  0.00     0.031 C 
ATOM     60  C   UNL A   1      43.217  27.976  32.632  1.00  0.00     0.029 A 
ATOM     61  C   UNL A   1      42.573  28.966  33.358  1.00  0.00     0.049 A 
ATOM     62  H   UNL A   1      40.864  30.088  32.844  1.00  0.00     0.167 HD
ATOM     63  C   UNL A   1      42.205  30.439  35.319  1.00  0.00     0.074 A 
ATOM     64  C   UNL A   1      42.521  30.915  36.650  1.00  0.00     0.031 C 
ATOM     65  C   UNL A   1      42.903  29.476  34.665  1.00  0.00     0.034 A 
BRANCH  52  66
ATOM     66  C   UNL A   1      40.537  27.964  29.150  1.00  0.00     0.023 A 
ATOM     67  C   UNL A   1      39.645  26.876  29.052  1.00  0.00     0.012 A 
ATOM     68  C   UNL A   1      41.443  28.208  28.100  1.00  0.00     0.148 A 
ATOM     69  C   UNL A   1      39.687  26.017  27.954  1.00  0.00     0.002 A 
ATOM     70  C   UNL A   1      41.446  27.375  26.987  1.00  0.00     0.091 A 
ATOM     71  F   UNL A   1      42.300  29.232  28.217  1.00  0.00    -0.205 F 
ATOM     72  C   UNL A   1      40.580  26.271  26.918  1.00  0.00     0.022 A 
BRANCH  70  73
ATOM     73  S   UNL A   1      42.504  27.671  25.564  1.00  0.00     0.127 S 
ATOM     74  O   UNL A   1      42.253  26.477  24.758  1.00  0.00    -0.237 OA
ATOM     75  O   UNL A   1      41.945  28.906  25.014  1.00  0.00    -0.237 OA
ATOM     76  O   UNL A   1      43.854  27.800  26.093  1.00  0.00    -0.744 OA
ENDBRANCH  70  73
ENDBRANCH  52  66
BRANCH  53  77
ATOM     77  C   UNL A   1      39.469  33.800  37.183  1.00  0.00     0.023 A 
ATOM     78  C   UNL A   1      39.915  35.136  37.193  1.00  0.00     0.012 A 
ATOM     79  C   UNL A   1      38.783  33.295  38.304  1.00  0.00     0.148 A 
ATOM     80  C   UNL A   1      39.700  35.948  38.307  1.00  0.00     0.002 A 
ATOM     81  C   UNL A   1      38.523  34.126  39.387  1.00  0.00     0.091 A 
ATOM     82  F   UNL A   1      38.373  32.019  38.275  1.00  0.00    -0.205 F 
ATOM     83  C   UNL A   1      38.995  35.448  39.398  1.00  0.00     0.022 A 
BRANCH  81  84
ATOM     84  S   UNL A   1      37.503  33.613  40.774  1.00  0.00     0.127 S 
ATOM     85  O   UNL A   1      36.310  33.111  40.098  1.00  0.00    -0.237 OA
ATOM     86  O   UNL A   1      38.339  32.584  41.395  1.00  0.00    -0.237 OA
ATOM     87  O   UNL A   1      37.313  34.806  41.589  1.00  0.00    -0.744 OA
ENDBRANCH  81  84
ENDBRANCH  53  77
BRANCH  65  88
ATOM     88  C   UNL A   1      44.103  28.887  35.362  1.00  0.00     0.023 A 
ATOM     89  C   UNL A   1      45.381  29.442  35.149  1.00  0.00     0.012 A 
ATOM     90  C   UNL A   1      43.951  27.834  36.284  1.00  0.00     0.148 A 
ATOM     91  C   UNL A   1      46.494  28.934  35.820  1.00  0.00     0.002 A 
ATOM     92  C   UNL A   1      45.055  27.367  36.986  1.00  0.00     0.091 A 
ATOM     93  F   UNL A   1      42.730  27.306  36.457  1.00  0.00    -0.205 F 
ATOM     94  C   UNL A   1      46.329  27.907  36.747  1.00  0.00     0.022 A 
BRANCH  92  95
ATOM     95  S   UNL A   1      44.922  26.116  38.268  1.00  0.00     0.127 S 
ATOM     96  O   UNL A   1      46.322  25.926  38.645  1.00  0.00    -0.237 OA
ATOM     97  O   UNL A   1      44.105  26.792  39.278  1.00  0.00    -0.237 OA
ATOM     98  O   UNL A   1      44.280  24.967  37.643  1.00  0.00    -0.744 OA
ENDBRANCH  92  95
ENDBRANCH  65  88
ENDBRANCH  39  40
ENDBRANCH  31  34
ENDBRANCH  29  30
ENDBRANCH  28  29
ENDBRANCH   1  28
TORSDOF 19
ENDMDL
