MODEL 1
REMARK VINA RESULT:     -11.3      0.000      0.000
REMARK SMILES O=C(NCCCCCCNC(=O)c1ccc(-c2c3nc(c(-c4cccc(S(=O)(=O)[O-])c4F)c4ccc([nH]4)c(-c4cccc(S(=O)(=O)[O-])c4F)c4nc(c(-c5cccc(S(=O)(=O)[O-])c5F)c5ccc2[nH]5)C=C4)C=C3)cc1)/C(=C/c1ccsc1)c1ccccc1
REMARK SMILES IDX 7 1 6 2 5 3 4 4 3 5 1 6 2 7 76 9 77 10 83 11 84 12 88 13
REMARK SMILES IDX 85 14 87 15 86 16 78 17 79 18 82 19 80 20 81 21 8 22 9 23
REMARK SMILES IDX 10 24 11 25 12 27 13 28 14 29 75 30 15 31 74 32 16 33 17 34
REMARK SMILES IDX 18 35 68 36 19 37 73 38 67 39 69 40 20 41 72 42 66 43 65 44
REMARK SMILES IDX 21 46 53 47 33 48 52 49 34 50 37 51 51 52 70 53 35 54 36 55
REMARK SMILES IDX 50 57 71 58 38 59 22 60 23 61 31 62 24 63 26 64 32 65 25 66
REMARK SMILES IDX 27 67 28 68 29 69 30 70 54 71 55 72 63 73 56 74 58 75 64 76
REMARK SMILES IDX 57 77 59 78 60 79 61 80 62 81 39 82 40 83 48 84 41 85 43 86
REMARK SMILES IDX 49 87 42 88 44 89 45 90 46 91 47 92
REMARK H PARENT 3 8 10 26 69 45 37 56
REMARK Flexibility Score: inf
ROOT
ATOM      1  C   UNL A   1      35.527  22.155  23.887  1.00  0.00     0.002 C 
ENDROOT
BRANCH   1   2
ATOM      2  C   UNL A   1      34.130  21.895  24.457  1.00  0.00     0.002 C 
BRANCH   2   3
ATOM      3  C   UNL A   1      33.125  23.037  24.328  1.00  0.00     0.021 C 
BRANCH   3   4
ATOM      4  C   UNL A   1      32.245  23.021  23.085  1.00  0.00     0.116 C 
BRANCH   4   5
ATOM      5  N   UNL A   1      32.730  23.858  22.004  1.00  0.00    -0.352 N 
ATOM      6  O   UNL A   1      33.354  25.648  20.856  1.00  0.00    -0.269 OA
ATOM      7  C   UNL A   1      32.889  25.211  21.913  1.00  0.00     0.251 C 
ATOM      8  H   UNL A   1      32.990  23.365  21.192  1.00  0.00     0.163 HD
BRANCH   7   9
ATOM      9  C   UNL A   1      32.490  26.154  23.026  1.00  0.00     0.047 C 
ATOM     10  C   UNL A   1      33.488  26.507  23.872  1.00  0.00     0.023 C 
BRANCH   9  11
ATOM     11  C   UNL A   1      31.126  26.690  23.194  1.00  0.00    -0.013 A 
ATOM     12  C   UNL A   1      30.768  27.917  22.606  1.00  0.00     0.009 A 
ATOM     13  C   UNL A   1      30.156  25.969  23.904  1.00  0.00     0.009 A 
ATOM     14  C   UNL A   1      29.466  28.401  22.708  1.00  0.00     0.001 A 
ATOM     15  C   UNL A   1      28.847  26.448  23.988  1.00  0.00     0.001 A 
ATOM     16  C   UNL A   1      28.503  27.660  23.390  1.00  0.00     0.000 A 
ENDBRANCH   9  11
BRANCH  10  17
ATOM     17  C   UNL A   1      33.405  27.419  24.979  1.00  0.00    -0.014 A 
ATOM     18  C   UNL A   1      32.988  27.106  26.310  1.00  0.00     0.020 A 
ATOM     19  C   UNL A   1      33.701  28.759  24.843  1.00  0.00     0.073 A 
ATOM     20  C   UNL A   1      32.880  28.230  27.099  1.00  0.00     0.065 A 
ATOM     21  S   UNL A   1      33.374  29.643  26.273  1.00  0.00    -0.152 S 
ENDBRANCH  10  17
ENDBRANCH   7   9
ENDBRANCH   4   5
ENDBRANCH   3   4
ENDBRANCH   2   3
ENDBRANCH   1   2
BRANCH   1  22
ATOM     22  C   UNL A   1      36.268  23.379  24.429  1.00  0.00     0.021 C 
BRANCH  22  23
ATOM     23  C   UNL A   1      36.703  23.305  25.889  1.00  0.00     0.116 C 
BRANCH  23  24
ATOM     24  N   UNL A   1      37.838  22.421  26.094  1.00  0.00    -0.352 N 
ATOM     25  C   UNL A   1      39.113  22.718  26.510  1.00  0.00     0.251 C 
ATOM     26  H   UNL A   1      37.668  21.469  25.910  1.00  0.00     0.163 HD
ATOM     27  O   UNL A   1      39.980  21.850  26.488  1.00  0.00    -0.269 OA
BRANCH  25  28
ATOM     28  C   UNL A   1      39.449  24.088  26.959  1.00  0.00     0.039 A 
ATOM     29  C   UNL A   1      39.257  24.421  28.303  1.00  0.00     0.014 A 
ATOM     30  C   UNL A   1      39.942  25.043  26.066  1.00  0.00     0.014 A 
ATOM     31  C   UNL A   1      39.613  25.691  28.762  1.00  0.00     0.010 A 
ATOM     32  C   UNL A   1      40.368  26.283  26.540  1.00  0.00     0.010 A 
ATOM     33  C   UNL A   1      40.204  26.623  27.892  1.00  0.00    -0.014 A 
BRANCH  33  34
ATOM     34  C   UNL A   1      40.665  27.949  28.382  1.00  0.00     0.031 A 
ATOM     35  C   UNL A   1      42.136  28.258  28.475  1.00  0.00     0.074 A 
ATOM     36  C   UNL A   1      39.759  28.848  28.818  1.00  0.00     0.049 A 
ATOM     37  N   UNL A   1      42.723  29.340  28.917  1.00  0.00    -0.248 NA
ATOM     38  C   UNL A   1      43.070  27.206  28.041  1.00  0.00     0.031 C 
ATOM     39  C   UNL A   1      38.309  28.645  28.844  1.00  0.00     0.029 A 
ATOM     40  N   UNL A   1      39.925  30.106  29.343  1.00  0.00    -0.354 N 
ATOM     41  C   UNL A   1      44.088  29.087  28.853  1.00  0.00     0.074 A 
ATOM     42  C   UNL A   1      44.243  27.738  28.353  1.00  0.00     0.031 C 
ATOM     43  C   UNL A   1      37.719  29.740  29.349  1.00  0.00     0.029 A 
ATOM     44  C   UNL A   1      38.745  30.709  29.716  1.00  0.00     0.049 A 
ATOM     45  H   UNL A   1      40.805  30.536  29.446  1.00  0.00     0.167 HD
ATOM     46  C   UNL A   1      45.119  29.907  29.162  1.00  0.00     0.034 A 
ATOM     47  C   UNL A   1      38.516  31.905  30.295  1.00  0.00     0.034 A 
ATOM     48  C   UNL A   1      44.963  31.264  29.615  1.00  0.00     0.049 A 
ATOM     49  C   UNL A   1      39.683  32.806  30.599  1.00  0.00     0.074 A 
ATOM     50  C   UNL A   1      45.946  32.208  29.855  1.00  0.00     0.029 A 
ATOM     51  N   UNL A   1      43.751  31.864  29.915  1.00  0.00    -0.354 N 
ATOM     52  N   UNL A   1      40.959  32.610  30.374  1.00  0.00    -0.248 NA
ATOM     53  C   UNL A   1      39.375  34.110  31.208  1.00  0.00     0.031 C 
ATOM     54  C   UNL A   1      45.331  33.367  30.338  1.00  0.00     0.029 A 
ATOM     55  C   UNL A   1      43.962  33.159  30.357  1.00  0.00     0.049 A 
ATOM     56  H   UNL A   1      42.870  31.434  29.826  1.00  0.00     0.167 HD
ATOM     57  C   UNL A   1      41.600  33.779  30.770  1.00  0.00     0.074 A 
ATOM     58  C   UNL A   1      40.569  34.685  31.233  1.00  0.00     0.031 C 
ATOM     59  C   UNL A   1      42.924  34.072  30.762  1.00  0.00     0.034 A 
BRANCH  46  60
ATOM     60  C   UNL A   1      46.521  29.381  28.988  1.00  0.00     0.023 A 
ATOM     61  C   UNL A   1      47.273  28.998  30.118  1.00  0.00     0.012 A 
ATOM     62  C   UNL A   1      47.061  29.188  27.702  1.00  0.00     0.148 A 
ATOM     63  C   UNL A   1      48.551  28.461  29.971  1.00  0.00     0.002 A 
ATOM     64  C   UNL A   1      48.316  28.608  27.562  1.00  0.00     0.091 A 
ATOM     65  F   UNL A   1      46.338  29.576  26.640  1.00  0.00    -0.205 F 
ATOM     66  C   UNL A   1      49.067  28.256  28.695  1.00  0.00     0.022 A 
BRANCH  64  67
ATOM     67  S   UNL A   1      49.034  28.224  25.961  1.00  0.00     0.127 S 
ATOM     68  O   UNL A   1      50.068  29.252  25.847  1.00  0.00    -0.237 OA
ATOM     69  O   UNL A   1      49.542  26.868  26.170  1.00  0.00    -0.237 OA
ATOM     70  O   UNL A   1      47.949  28.325  24.996  1.00  0.00    -0.744 OA
ENDBRANCH  64  67
ENDBRANCH  46  60
BRANCH  47  71
ATOM     71  C   UNL A   1      37.121  32.350  30.577  1.00  0.00     0.023 A 
ATOM     72  C   UNL A   1      36.595  32.195  31.876  1.00  0.00     0.012 A 
ATOM     73  C   UNL A   1      36.314  32.920  29.574  1.00  0.00     0.148 A 
ATOM     74  C   UNL A   1      35.279  32.561  32.159  1.00  0.00     0.002 A 
ATOM     75  C   UNL A   1      35.024  33.337  29.878  1.00  0.00     0.091 A 
ATOM     76  F   UNL A   1      36.828  33.050  28.343  1.00  0.00    -0.205 F 
ATOM     77  C   UNL A   1      34.496  33.139  31.163  1.00  0.00     0.022 A 
BRANCH  75  78
ATOM     78  S   UNL A   1      33.989  34.207  28.695  1.00  0.00     0.127 S 
ATOM     79  O   UNL A   1      34.865  35.299  28.278  1.00  0.00    -0.237 OA
ATOM     80  O   UNL A   1      33.759  33.178  27.680  1.00  0.00    -0.237 OA
ATOM     81  O   UNL A   1      32.795  34.600  29.431  1.00  0.00    -0.744 OA
ENDBRANCH  75  78
ENDBRANCH  47  71
BRANCH  59  82
ATOM     82  C   UNL A   1      43.341  35.445  31.219  1.00  0.00     0.023 A 
ATOM     83  C   UNL A   1      43.620  35.685  32.579  1.00  0.00     0.012 A 
ATOM     84  C   UNL A   1      43.526  36.482  30.283  1.00  0.00     0.148 A 
ATOM     85  C   UNL A   1      44.042  36.944  33.005  1.00  0.00     0.002 A 
ATOM     86  C   UNL A   1      44.000  37.718  30.706  1.00  0.00     0.091 A 
ATOM     87  F   UNL A   1      43.239  36.240  28.996  1.00  0.00    -0.205 F 
ATOM     88  C   UNL A   1      44.244  37.956  32.068  1.00  0.00     0.022 A 
BRANCH  86  89
ATOM     89  S   UNL A   1      44.385  39.047  29.560  1.00  0.00     0.127 S 
ATOM     90  O   UNL A   1      43.095  39.723  29.444  1.00  0.00    -0.237 OA
ATOM     91  O   UNL A   1      45.405  39.798  30.291  1.00  0.00    -0.237 OA
ATOM     92  O   UNL A   1      44.864  38.403  28.344  1.00  0.00    -0.744 OA
ENDBRANCH  86  89
ENDBRANCH  59  82
ENDBRANCH  33  34
ENDBRANCH  25  28
ENDBRANCH  23  24
ENDBRANCH  22  23
ENDBRANCH   1  22
TORSDOF 18
ENDMDL
MODEL 2
REMARK VINA RESULT:     -11.0      5.342      7.837
REMARK SMILES O=C(NCCCCCCNC(=O)c1ccc(-c2c3nc(c(-c4cccc(S(=O)(=O)[O-])c4F)c4ccc([nH]4)c(-c4cccc(S(=O)(=O)[O-])c4F)c4nc(c(-c5cccc(S(=O)(=O)[O-])c5F)c5ccc2[nH]5)C=C4)C=C3)cc1)/C(=C/c1ccsc1)c1ccccc1
REMARK SMILES IDX 7 1 6 2 5 3 4 4 3 5 1 6 2 7 76 9 77 10 83 11 84 12 88 13
REMARK SMILES IDX 85 14 87 15 86 16 78 17 79 18 82 19 80 20 81 21 8 22 9 23
REMARK SMILES IDX 10 24 11 25 12 27 13 28 14 29 75 30 15 31 74 32 16 33 17 34
REMARK SMILES IDX 18 35 68 36 19 37 73 38 67 39 69 40 20 41 72 42 66 43 65 44
REMARK SMILES IDX 21 46 53 47 33 48 52 49 34 50 37 51 51 52 70 53 35 54 36 55
REMARK SMILES IDX 50 57 71 58 38 59 22 60 23 61 31 62 24 63 26 64 32 65 25 66
REMARK SMILES IDX 27 67 28 68 29 69 30 70 54 71 55 72 63 73 56 74 58 75 64 76
REMARK SMILES IDX 57 77 59 78 60 79 61 80 62 81 39 82 40 83 48 84 41 85 43 86
REMARK SMILES IDX 49 87 42 88 44 89 45 90 46 91 47 92
REMARK H PARENT 3 8 10 26 69 45 37 56
REMARK Flexibility Score: inf
ROOT
ATOM      1  C   UNL A   1      31.437  27.188  25.479  1.00  0.00     0.002 C 
ENDROOT
BRANCH   1   2
ATOM      2  C   UNL A   1      30.748  27.705  24.214  1.00  0.00     0.002 C 
BRANCH   2   3
ATOM      3  C   UNL A   1      31.265  27.151  22.889  1.00  0.00     0.021 C 
BRANCH   3   4
ATOM      4  C   UNL A   1      31.235  25.636  22.735  1.00  0.00     0.116 C 
BRANCH   4   5
ATOM      5  N   UNL A   1      31.985  25.141  21.596  1.00  0.00    -0.352 N 
ATOM      6  O   UNL A   1      33.320  23.885  20.350  1.00  0.00    -0.269 OA
ATOM      7  C   UNL A   1      32.837  24.081  21.469  1.00  0.00     0.251 C 
ATOM      8  H   UNL A   1      31.858  25.659  20.769  1.00  0.00     0.163 HD
BRANCH   7   9
ATOM      9  C   UNL A   1      33.215  23.196  22.636  1.00  0.00     0.047 C 
ATOM     10  C   UNL A   1      32.400  22.134  22.844  1.00  0.00     0.023 C 
BRANCH   9  11
ATOM     11  C   UNL A   1      34.393  23.431  23.492  1.00  0.00    -0.013 A 
ATOM     12  C   UNL A   1      34.308  24.304  24.592  1.00  0.00     0.009 A 
ATOM     13  C   UNL A   1      35.598  22.757  23.251  1.00  0.00     0.009 A 
ATOM     14  C   UNL A   1      35.397  24.484  25.442  1.00  0.00     0.001 A 
ATOM     15  C   UNL A   1      36.681  22.925  24.116  1.00  0.00     0.001 A 
ATOM     16  C   UNL A   1      36.580  23.786  25.209  1.00  0.00     0.000 A 
ENDBRANCH   9  11
BRANCH  10  17
ATOM     17  C   UNL A   1      32.547  21.110  23.842  1.00  0.00    -0.014 A 
ATOM     18  C   UNL A   1      32.743  21.310  25.243  1.00  0.00     0.020 A 
ATOM     19  C   UNL A   1      32.549  19.770  23.515  1.00  0.00     0.073 A 
ATOM     20  C   UNL A   1      32.993  20.129  25.907  1.00  0.00     0.065 A 
ATOM     21  S   UNL A   1      32.893  18.775  24.867  1.00  0.00    -0.152 S 
ENDBRANCH  10  17
ENDBRANCH   7   9
ENDBRANCH   4   5
ENDBRANCH   3   4
ENDBRANCH   2   3
ENDBRANCH   1   2
BRANCH   1  22
ATOM     22  C   UNL A   1      32.183  28.226  26.321  1.00  0.00     0.021 C 
BRANCH  22  23
ATOM     23  C   UNL A   1      32.860  29.351  25.547  1.00  0.00     0.116 C 
BRANCH  23  24
ATOM     24  N   UNL A   1      32.425  30.670  25.972  1.00  0.00    -0.352 N 
ATOM     25  C   UNL A   1      32.958  31.500  26.929  1.00  0.00     0.251 C 
ATOM     26  H   UNL A   1      31.633  31.022  25.506  1.00  0.00     0.163 HD
ATOM     27  O   UNL A   1      32.362  32.524  27.249  1.00  0.00    -0.269 OA
BRANCH  25  28
ATOM     28  C   UNL A   1      34.233  31.147  27.593  1.00  0.00     0.039 A 
ATOM     29  C   UNL A   1      35.200  32.143  27.763  1.00  0.00     0.014 A 
ATOM     30  C   UNL A   1      34.483  29.846  28.039  1.00  0.00     0.014 A 
ATOM     31  C   UNL A   1      36.390  31.848  28.431  1.00  0.00     0.010 A 
ATOM     32  C   UNL A   1      35.637  29.573  28.772  1.00  0.00     0.010 A 
ATOM     33  C   UNL A   1      36.607  30.569  28.972  1.00  0.00    -0.014 A 
BRANCH  33  34
ATOM     34  C   UNL A   1      37.831  30.261  29.757  1.00  0.00     0.031 A 
ATOM     35  C   UNL A   1      38.888  29.349  29.196  1.00  0.00     0.074 A 
ATOM     36  C   UNL A   1      37.953  30.743  31.011  1.00  0.00     0.049 A 
ATOM     37  N   UNL A   1      39.997  28.935  29.751  1.00  0.00    -0.248 NA
ATOM     38  C   UNL A   1      38.659  28.809  27.845  1.00  0.00     0.031 C 
ATOM     39  C   UNL A   1      36.968  31.582  31.697  1.00  0.00     0.029 A 
ATOM     40  N   UNL A   1      38.950  30.577  31.942  1.00  0.00    -0.354 N 
ATOM     41  C   UNL A   1      40.577  28.059  28.840  1.00  0.00     0.074 A 
ATOM     42  C   UNL A   1      39.683  27.980  27.705  1.00  0.00     0.031 C 
ATOM     43  C   UNL A   1      37.412  31.865  32.932  1.00  0.00     0.029 A 
ATOM     44  C   UNL A   1      38.694  31.201  33.142  1.00  0.00     0.049 A 
ATOM     45  H   UNL A   1      39.769  30.061  31.768  1.00  0.00     0.167 HD
ATOM     46  C   UNL A   1      41.753  27.396  28.930  1.00  0.00     0.034 A 
ATOM     47  C   UNL A   1      39.406  31.228  34.286  1.00  0.00     0.034 A 
ATOM     48  C   UNL A   1      42.661  27.511  30.040  1.00  0.00     0.049 A 
ATOM     49  C   UNL A   1      40.725  30.504  34.344  1.00  0.00     0.074 A 
ATOM     50  C   UNL A   1      43.923  26.961  30.178  1.00  0.00     0.029 A 
ATOM     51  N   UNL A   1      42.400  28.207  31.209  1.00  0.00    -0.354 N 
ATOM     52  N   UNL A   1      41.332  29.817  33.407  1.00  0.00    -0.248 NA
ATOM     53  C   UNL A   1      41.474  30.587  35.607  1.00  0.00     0.031 C 
ATOM     54  C   UNL A   1      44.409  27.292  31.446  1.00  0.00     0.029 A 
ATOM     55  C   UNL A   1      43.467  28.084  32.082  1.00  0.00     0.049 A 
ATOM     56  H   UNL A   1      41.576  28.715  31.391  1.00  0.00     0.167 HD
ATOM     57  C   UNL A   1      42.551  29.425  33.951  1.00  0.00     0.074 A 
ATOM     58  C   UNL A   1      42.603  29.967  35.293  1.00  0.00     0.031 C 
ATOM     59  C   UNL A   1      43.532  28.674  33.394  1.00  0.00     0.034 A 
BRANCH  46  60
ATOM     60  C   UNL A   1      42.156  26.507  27.782  1.00  0.00     0.023 A 
ATOM     61  C   UNL A   1      43.027  26.995  26.787  1.00  0.00     0.012 A 
ATOM     62  C   UNL A   1      41.737  25.163  27.733  1.00  0.00     0.148 A 
ATOM     63  C   UNL A   1      43.449  26.170  25.745  1.00  0.00     0.002 A 
ATOM     64  C   UNL A   1      42.200  24.333  26.718  1.00  0.00     0.091 A 
ATOM     65  F   UNL A   1      40.893  24.722  28.677  1.00  0.00    -0.205 F 
ATOM     66  C   UNL A   1      43.046  24.838  25.718  1.00  0.00     0.022 A 
BRANCH  64  67
ATOM     67  S   UNL A   1      41.806  22.583  26.641  1.00  0.00     0.127 S 
ATOM     68  O   UNL A   1      40.344  22.610  26.641  1.00  0.00    -0.237 OA
ATOM     69  O   UNL A   1      42.409  22.189  25.367  1.00  0.00    -0.237 OA
ATOM     70  O   UNL A   1      42.416  21.978  27.817  1.00  0.00    -0.744 OA
ENDBRANCH  64  67
ENDBRANCH  46  60
BRANCH  47  71
ATOM     71  C   UNL A   1      38.921  32.012  35.458  1.00  0.00     0.023 A 
ATOM     72  C   UNL A   1      39.087  33.412  35.469  1.00  0.00     0.012 A 
ATOM     73  C   UNL A   1      38.301  31.387  36.556  1.00  0.00     0.148 A 
ATOM     74  C   UNL A   1      38.684  34.169  36.569  1.00  0.00     0.002 A 
ATOM     75  C   UNL A   1      37.848  32.153  37.623  1.00  0.00     0.091 A 
ATOM     76  F   UNL A   1      38.161  30.054  36.532  1.00  0.00    -0.205 F 
ATOM     77  C   UNL A   1      38.057  33.541  37.643  1.00  0.00     0.022 A 
BRANCH  75  78
ATOM     78  S   UNL A   1      36.917  31.447  38.988  1.00  0.00     0.127 S 
ATOM     79  O   UNL A   1      37.918  31.419  40.050  1.00  0.00    -0.237 OA
ATOM     80  O   UNL A   1      35.852  32.434  39.170  1.00  0.00    -0.237 OA
ATOM     81  O   UNL A   1      36.455  30.147  38.519  1.00  0.00    -0.744 OA
ENDBRANCH  75  78
ENDBRANCH  47  71
BRANCH  59  82
ATOM     82  C   UNL A   1      44.777  28.431  34.207  1.00  0.00     0.023 A 
ATOM     83  C   UNL A   1      45.850  29.343  34.150  1.00  0.00     0.012 A 
ATOM     84  C   UNL A   1      44.851  27.332  35.085  1.00  0.00     0.148 A 
ATOM     85  C   UNL A   1      46.991  29.144  34.926  1.00  0.00     0.002 A 
ATOM     86  C   UNL A   1      45.968  27.170  35.896  1.00  0.00     0.091 A 
ATOM     87  F   UNL A   1      43.829  26.465  35.113  1.00  0.00    -0.205 F 
ATOM     88  C   UNL A   1      47.045  28.067  35.808  1.00  0.00     0.022 A 
BRANCH  86  89
ATOM     89  S   UNL A   1      46.082  25.872  37.133  1.00  0.00     0.127 S 
ATOM     90  O   UNL A   1      46.007  24.668  36.307  1.00  0.00    -0.237 OA
ATOM     91  O   UNL A   1      47.395  26.125  37.726  1.00  0.00    -0.237 OA
ATOM     92  O   UNL A   1      44.959  26.078  38.037  1.00  0.00    -0.744 OA
ENDBRANCH  86  89
ENDBRANCH  59  82
ENDBRANCH  33  34
ENDBRANCH  25  28
ENDBRANCH  23  24
ENDBRANCH  22  23
ENDBRANCH   1  22
TORSDOF 18
ENDMDL
MODEL 3
REMARK VINA RESULT:     -11.0      2.017      7.807
REMARK SMILES O=C(NCCCCCCNC(=O)c1ccc(-c2c3nc(c(-c4cccc(S(=O)(=O)[O-])c4F)c4ccc([nH]4)c(-c4cccc(S(=O)(=O)[O-])c4F)c4nc(c(-c5cccc(S(=O)(=O)[O-])c5F)c5ccc2[nH]5)C=C4)C=C3)cc1)/C(=C/c1ccsc1)c1ccccc1
REMARK SMILES IDX 7 1 6 2 5 3 4 4 3 5 1 6 2 7 76 9 77 10 83 11 84 12 88 13
REMARK SMILES IDX 85 14 87 15 86 16 78 17 79 18 82 19 80 20 81 21 8 22 9 23
REMARK SMILES IDX 10 24 11 25 12 27 13 28 14 29 75 30 15 31 74 32 16 33 17 34
REMARK SMILES IDX 18 35 68 36 19 37 73 38 67 39 69 40 20 41 72 42 66 43 65 44
REMARK SMILES IDX 21 46 53 47 33 48 52 49 34 50 37 51 51 52 70 53 35 54 36 55
REMARK SMILES IDX 50 57 71 58 38 59 22 60 23 61 31 62 24 63 26 64 32 65 25 66
REMARK SMILES IDX 27 67 28 68 29 69 30 70 54 71 55 72 63 73 56 74 58 75 64 76
REMARK SMILES IDX 57 77 59 78 60 79 61 80 62 81 39 82 40 83 48 84 41 85 43 86
REMARK SMILES IDX 49 87 42 88 44 89 45 90 46 91 47 92
REMARK H PARENT 3 8 10 26 69 45 37 56
REMARK Flexibility Score: inf
ROOT
ATOM      1  C   UNL A   1      35.573  23.169  24.019  1.00  0.00     0.002 C 
ENDROOT
BRANCH   1   2
ATOM      2  C   UNL A   1      34.471  22.815  23.016  1.00  0.00     0.002 C 
BRANCH   2   3
ATOM      3  C   UNL A   1      33.053  22.724  23.574  1.00  0.00     0.021 C 
BRANCH   3   4
ATOM      4  C   UNL A   1      31.980  23.490  22.811  1.00  0.00     0.116 C 
BRANCH   4   5
ATOM      5  N   UNL A   1      32.497  24.362  21.773  1.00  0.00    -0.352 N 
ATOM      6  O   UNL A   1      33.131  26.191  20.695  1.00  0.00    -0.269 OA
ATOM      7  C   UNL A   1      32.625  25.721  21.718  1.00  0.00     0.251 C 
ATOM      8  H   UNL A   1      32.810  23.893  20.967  1.00  0.00     0.163 HD
BRANCH   7   9
ATOM      9  C   UNL A   1      32.145  26.629  22.828  1.00  0.00     0.047 C 
ATOM     10  C   UNL A   1      33.084  26.969  23.744  1.00  0.00     0.023 C 
BRANCH   9  11
ATOM     11  C   UNL A   1      30.767  27.147  22.923  1.00  0.00    -0.013 A 
ATOM     12  C   UNL A   1      29.782  26.419  23.615  1.00  0.00     0.009 A 
ATOM     13  C   UNL A   1      30.429  28.387  22.365  1.00  0.00     0.009 A 
ATOM     14  C   UNL A   1      28.494  26.929  23.763  1.00  0.00     0.001 A 
ATOM     15  C   UNL A   1      29.142  28.904  22.531  1.00  0.00     0.001 A 
ATOM     16  C   UNL A   1      28.178  28.177  23.230  1.00  0.00     0.000 A 
ENDBRANCH   9  11
BRANCH  10  17
ATOM     17  C   UNL A   1      32.921  27.850  24.868  1.00  0.00    -0.014 A 
ATOM     18  C   UNL A   1      33.111  29.266  24.873  1.00  0.00     0.020 A 
ATOM     19  C   UNL A   1      32.582  27.378  26.119  1.00  0.00     0.073 A 
ATOM     20  C   UNL A   1      33.017  29.798  26.140  1.00  0.00     0.065 A 
ATOM     21  S   UNL A   1      32.603  28.616  27.304  1.00  0.00    -0.152 S 
ENDBRANCH  10  17
ENDBRANCH   7   9
ENDBRANCH   4   5
ENDBRANCH   3   4
ENDBRANCH   2   3
ENDBRANCH   1   2
BRANCH   1  22
ATOM     22  C   UNL A   1      36.671  22.123  24.221  1.00  0.00     0.021 C 
BRANCH  22  23
ATOM     23  C   UNL A   1      36.939  21.705  25.663  1.00  0.00     0.116 C 
BRANCH  23  24
ATOM     24  N   UNL A   1      37.964  20.682  25.773  1.00  0.00    -0.352 N 
ATOM     25  C   UNL A   1      39.290  20.805  26.113  1.00  0.00     0.251 C 
ATOM     26  H   UNL A   1      37.665  19.765  25.577  1.00  0.00     0.163 HD
ATOM     27  O   UNL A   1      40.037  19.837  26.013  1.00  0.00    -0.269 OA
BRANCH  25  28
ATOM     28  C   UNL A   1      39.822  22.107  26.572  1.00  0.00     0.039 A 
ATOM     29  C   UNL A   1      40.829  22.117  27.542  1.00  0.00     0.014 A 
ATOM     30  C   UNL A   1      39.331  23.312  26.061  1.00  0.00     0.014 A 
ATOM     31  C   UNL A   1      41.383  23.331  27.955  1.00  0.00     0.010 A 
ATOM     32  C   UNL A   1      39.937  24.516  26.418  1.00  0.00     0.010 A 
ATOM     33  C   UNL A   1      40.966  24.540  27.373  1.00  0.00    -0.014 A 
BRANCH  33  34
ATOM     34  C   UNL A   1      41.603  25.832  27.740  1.00  0.00     0.031 A 
ATOM     35  C   UNL A   1      40.831  26.872  28.507  1.00  0.00     0.074 A 
ATOM     36  C   UNL A   1      42.855  26.101  27.314  1.00  0.00     0.049 A 
ATOM     37  N   UNL A   1      41.206  28.069  28.878  1.00  0.00    -0.248 NA
ATOM     38  C   UNL A   1      39.448  26.536  28.886  1.00  0.00     0.031 C 
ATOM     39  C   UNL A   1      43.684  25.205  26.505  1.00  0.00     0.029 A 
ATOM     40  N   UNL A   1      43.639  27.215  27.483  1.00  0.00    -0.354 N 
ATOM     41  C   UNL A   1      40.100  28.642  29.494  1.00  0.00     0.074 A 
ATOM     42  C   UNL A   1      39.030  27.671  29.425  1.00  0.00     0.031 C 
ATOM     43  C   UNL A   1      44.862  25.799  26.256  1.00  0.00     0.029 A 
ATOM     44  C   UNL A   1      44.862  27.130  26.855  1.00  0.00     0.049 A 
ATOM     45  H   UNL A   1      43.355  28.001  28.002  1.00  0.00     0.167 HD
ATOM     46  C   UNL A   1      39.990  29.857  30.081  1.00  0.00     0.034 A 
ATOM     47  C   UNL A   1      45.865  28.025  26.765  1.00  0.00     0.034 A 
ATOM     48  C   UNL A   1      41.069  30.802  30.187  1.00  0.00     0.049 A 
ATOM     49  C   UNL A   1      45.723  29.356  27.453  1.00  0.00     0.074 A 
ATOM     50  C   UNL A   1      41.085  32.015  30.853  1.00  0.00     0.029 A 
ATOM     51  N   UNL A   1      42.314  30.653  29.600  1.00  0.00    -0.354 N 
ATOM     52  N   UNL A   1      44.727  29.811  28.174  1.00  0.00    -0.248 NA
ATOM     53  C   UNL A   1      46.858  30.286  27.344  1.00  0.00     0.031 C 
ATOM     54  C   UNL A   1      42.328  32.617  30.635  1.00  0.00     0.029 A 
ATOM     55  C   UNL A   1      43.100  31.760  29.869  1.00  0.00     0.049 A 
ATOM     56  H   UNL A   1      42.598  29.874  29.069  1.00  0.00     0.167 HD
ATOM     57  C   UNL A   1      45.132  31.057  28.641  1.00  0.00     0.074 A 
ATOM     58  C   UNL A   1      46.471  31.277  28.135  1.00  0.00     0.031 C 
ATOM     59  C   UNL A   1      44.452  31.944  29.408  1.00  0.00     0.034 A 
BRANCH  46  60
ATOM     60  C   UNL A   1      38.664  30.231  30.692  1.00  0.00     0.023 A 
ATOM     61  C   UNL A   1      38.374  29.863  32.022  1.00  0.00     0.012 A 
ATOM     62  C   UNL A   1      37.740  31.018  29.977  1.00  0.00     0.148 A 
ATOM     63  C   UNL A   1      37.173  30.245  32.618  1.00  0.00     0.002 A 
ATOM     64  C   UNL A   1      36.567  31.436  30.594  1.00  0.00     0.091 A 
ATOM     65  F   UNL A   1      38.025  31.343  28.707  1.00  0.00    -0.205 F 
ATOM     66  C   UNL A   1      36.277  31.040  31.910  1.00  0.00     0.022 A 
BRANCH  64  67
ATOM     67  S   UNL A   1      35.387  32.530  29.797  1.00  0.00     0.127 S 
ATOM     68  O   UNL A   1      34.336  32.618  30.809  1.00  0.00    -0.237 OA
ATOM     69  O   UNL A   1      36.173  33.753  29.625  1.00  0.00    -0.237 OA
ATOM     70  O   UNL A   1      35.002  31.874  28.555  1.00  0.00    -0.744 OA
ENDBRANCH  64  67
ENDBRANCH  46  60
BRANCH  47  71
ATOM     71  C   UNL A   1      47.122  27.677  26.040  1.00  0.00     0.023 A 
ATOM     72  C   UNL A   1      48.219  27.168  26.765  1.00  0.00     0.012 A 
ATOM     73  C   UNL A   1      47.239  27.848  24.648  1.00  0.00     0.148 A 
ATOM     74  C   UNL A   1      49.422  26.876  26.123  1.00  0.00     0.002 A 
ATOM     75  C   UNL A   1      48.421  27.499  24.006  1.00  0.00     0.091 A 
ATOM     76  F   UNL A   1      46.189  28.342  23.978  1.00  0.00    -0.205 F 
ATOM     77  C   UNL A   1      49.521  27.033  24.743  1.00  0.00     0.022 A 
BRANCH  75  78
ATOM     78  S   UNL A   1      48.596  27.546  22.218  1.00  0.00     0.127 S 
ATOM     79  O   UNL A   1      49.832  28.306  22.058  1.00  0.00    -0.237 OA
ATOM     80  O   UNL A   1      48.697  26.125  21.887  1.00  0.00    -0.237 OA
ATOM     81  O   UNL A   1      47.388  28.193  21.722  1.00  0.00    -0.744 OA
ENDBRANCH  75  78
ENDBRANCH  47  71
BRANCH  59  82
ATOM     82  C   UNL A   1      45.156  33.217  29.799  1.00  0.00     0.023 A 
ATOM     83  C   UNL A   1      45.959  33.256  30.956  1.00  0.00     0.012 A 
ATOM     84  C   UNL A   1      45.076  34.358  28.976  1.00  0.00     0.148 A 
ATOM     85  C   UNL A   1      46.642  34.420  31.306  1.00  0.00     0.002 A 
ATOM     86  C   UNL A   1      45.803  35.497  29.301  1.00  0.00     0.091 A 
ATOM     87  F   UNL A   1      44.292  34.308  27.889  1.00  0.00    -0.205 F 
ATOM     88  C   UNL A   1      46.574  35.535  30.473  1.00  0.00     0.022 A 
BRANCH  86  89
ATOM     89  S   UNL A   1      45.857  36.943  28.236  1.00  0.00     0.127 S 
ATOM     90  O   UNL A   1      46.768  37.818  28.970  1.00  0.00    -0.237 OA
ATOM     91  O   UNL A   1      46.404  36.392  26.996  1.00  0.00    -0.237 OA
ATOM     92  O   UNL A   1      44.484  37.418  28.132  1.00  0.00    -0.744 OA
ENDBRANCH  86  89
ENDBRANCH  59  82
ENDBRANCH  33  34
ENDBRANCH  25  28
ENDBRANCH  23  24
ENDBRANCH  22  23
ENDBRANCH   1  22
TORSDOF 18
ENDMDL
