MODEL 1
REMARK VINA RESULT:     -11.2      0.000      0.000
REMARK SMILES O=C1NC(=O)/C(=C/c2ccc(OCc3cn(-c4ccc(C(=O)NCCCCCCNC(=O)c5ccc(-c6c7nc(c(-c8cccc(S(=O)(=O)[O-])c8F)c8ccc([nH]8)c(-c8cccc(S(=O)(=O)[O-])c8F)c8nc(c(-c9cccc(S(=O)(=O)[O-])c9F)c9ccc6[nH]9)C=C8)C=C7)cc5)cc4)nn3)cc2)S1
REMARK SMILES IDX 25 1 24 2 23 3 21 4 22 5 20 7 17 8 18 9 97 10 19 11 96 12
REMARK SMILES IDX 16 13 14 14 15 15 99 16 98 17 13 18 12 19 11 20 8 21 9 22
REMARK SMILES IDX 101 23 10 24 100 25 7 26 1 27 2 28 3 29 102 30 4 31 6 33
REMARK SMILES IDX 5 34 26 35 27 36 28 37 29 38 30 39 31 40 32 42 33 43 34 44
REMARK SMILES IDX 95 45 35 46 94 47 36 48 37 49 38 50 88 51 39 52 93 53 87 54
REMARK SMILES IDX 89 55 40 56 92 57 86 58 85 59 41 61 73 62 53 63 72 64 54 65
REMARK SMILES IDX 57 66 71 67 90 68 55 69 56 70 70 72 91 73 58 74 42 75 43 76
REMARK SMILES IDX 51 77 44 78 46 79 52 80 45 81 47 82 48 83 49 84 50 85 74 86
REMARK SMILES IDX 75 87 83 88 76 89 78 90 84 91 77 92 79 93 80 94 81 95 82 96
REMARK SMILES IDX 59 97 60 98 68 99 61 100 63 101 69 102 62 103 64 104 65 105
REMARK SMILES IDX 66 106 67 107
REMARK H PARENT 23 6 3 32 30 41 89 60 57 71
REMARK Flexibility Score: inf
ROOT
ATOM      1  C   UNL A   1      41.182  32.868  36.724  1.00  0.00     0.021 C 
ENDROOT
BRANCH   1   2
ATOM      2  C   UNL A   1      39.939  33.521  37.332  1.00  0.00     0.116 C 
BRANCH   2   3
ATOM      3  N   UNL A   1      38.994  32.507  37.753  1.00  0.00    -0.352 N 
ATOM      4  C   UNL A   1      37.929  31.909  37.132  1.00  0.00     0.251 C 
ATOM      5  O   UNL A   1      37.328  31.042  37.768  1.00  0.00    -0.269 OA
ATOM      6  H   UNL A   1      39.149  32.182  38.668  1.00  0.00     0.163 HD
BRANCH   4   7
ATOM      7  C   UNL A   1      37.555  32.166  35.710  1.00  0.00     0.039 A 
ATOM      8  C   UNL A   1      36.482  32.647  33.156  1.00  0.00     0.066 A 
ATOM      9  C   UNL A   1      36.237  33.546  34.200  1.00  0.00     0.029 A 
ATOM     10  C   UNL A   1      37.344  31.568  33.359  1.00  0.00     0.029 A 
ATOM     11  C   UNL A   1      36.746  33.286  35.472  1.00  0.00     0.016 A 
ATOM     12  C   UNL A   1      37.927  31.375  34.618  1.00  0.00     0.016 A 
BRANCH   8  13
ATOM     13  N   UNL A   1      35.846  32.846  31.912  1.00  0.00    -0.220 N 
ATOM     14  C   UNL A   1      34.842  32.632  29.983  1.00  0.00     0.120 A 
ATOM     15  C   UNL A   1      35.472  31.907  30.972  1.00  0.00     0.144 A 
ATOM     16  N   UNL A   1      34.802  33.948  30.362  1.00  0.00    -0.131 NA
ATOM     17  N   UNL A   1      35.386  34.063  31.541  1.00  0.00    -0.062 NA
BRANCH  14  18
ATOM     18  C   UNL A   1      34.158  32.201  28.728  1.00  0.00     0.289 C 
BRANCH  18  19
ATOM     19  O   UNL A   1      34.770  31.110  28.022  1.00  0.00    -0.487 OA
BRANCH  19  20
ATOM     20  C   UNL A   1      33.973  30.258  27.308  1.00  0.00     0.119 A 
ATOM     21  C   UNL A   1      32.663  28.439  25.611  1.00  0.00    -0.024 A 
ATOM     22  C   UNL A   1      33.892  28.105  26.184  1.00  0.00     0.012 A 
ATOM     23  C   UNL A   1      32.054  29.644  25.967  1.00  0.00     0.012 A 
ATOM     24  C   UNL A   1      34.544  29.016  27.023  1.00  0.00     0.047 A 
ATOM     25  C   UNL A   1      32.694  30.535  26.830  1.00  0.00     0.047 A 
BRANCH  21  26
ATOM     26  C   UNL A   1      32.017  27.536  24.655  1.00  0.00     0.029 C 
ATOM     27  O   UNL A   1      30.611  23.007  26.366  1.00  0.00    -0.261 OA
ATOM     28  C   UNL A   1      30.806  24.061  25.765  1.00  0.00     0.290 C 
ATOM     29  N   UNL A   1      30.562  24.257  24.449  1.00  0.00    -0.282 N 
ATOM     30  S   UNL A   1      31.520  25.494  26.460  1.00  0.00    -0.022 SA
ATOM     31  C   UNL A   1      30.958  25.437  23.892  1.00  0.00     0.265 C 
ATOM     32  H   UNL A   1      30.114  23.567  23.908  1.00  0.00     0.174 HD
ATOM     33  C   UNL A   1      31.545  26.314  24.940  1.00  0.00     0.083 C 
ATOM     34  O   UNL A   1      30.885  25.703  22.706  1.00  0.00    -0.268 OA
ENDBRANCH  21  26
ENDBRANCH  19  20
ENDBRANCH  18  19
ENDBRANCH  14  18
ENDBRANCH   8  13
ENDBRANCH   4   7
ENDBRANCH   2   3
ENDBRANCH   1   2
BRANCH   1  35
ATOM     35  C   UNL A   1      41.322  33.134  35.220  1.00  0.00     0.002 C 
BRANCH  35  36
ATOM     36  C   UNL A   1      40.821  34.507  34.740  1.00  0.00     0.002 C 
BRANCH  36  37
ATOM     37  C   UNL A   1      39.698  34.492  33.690  1.00  0.00     0.021 C 
BRANCH  37  38
ATOM     38  C   UNL A   1      40.201  34.595  32.260  1.00  0.00     0.116 C 
BRANCH  38  39
ATOM     39  N   UNL A   1      39.109  34.444  31.291  1.00  0.00    -0.352 N 
ATOM     40  C   UNL A   1      38.950  33.512  30.286  1.00  0.00     0.251 C 
ATOM     41  H   UNL A   1      38.383  35.103  31.370  1.00  0.00     0.163 HD
ATOM     42  O   UNL A   1      38.188  33.725  29.349  1.00  0.00    -0.269 OA
BRANCH  40  43
ATOM     43  C   UNL A   1      39.696  32.247  30.367  1.00  0.00     0.039 A 
ATOM     44  C   UNL A   1      39.058  31.004  30.439  1.00  0.00     0.014 A 
ATOM     45  C   UNL A   1      41.082  32.336  30.361  1.00  0.00     0.014 A 
ATOM     46  C   UNL A   1      39.842  29.853  30.455  1.00  0.00     0.010 A 
ATOM     47  C   UNL A   1      41.827  31.221  30.135  1.00  0.00     0.010 A 
ATOM     48  C   UNL A   1      41.227  29.982  30.303  1.00  0.00    -0.014 A 
BRANCH  48  49
ATOM     49  C   UNL A   1      42.122  28.841  30.273  1.00  0.00     0.031 A 
ATOM     50  C   UNL A   1      42.699  28.483  31.590  1.00  0.00     0.074 A 
ATOM     51  C   UNL A   1      42.132  28.008  29.207  1.00  0.00     0.049 A 
ATOM     52  N   UNL A   1      43.929  28.590  31.967  1.00  0.00    -0.248 NA
ATOM     53  C   UNL A   1      41.773  28.126  32.676  1.00  0.00     0.031 C 
ATOM     54  C   UNL A   1      41.269  28.056  28.017  1.00  0.00     0.029 A 
ATOM     55  N   UNL A   1      42.768  26.818  29.062  1.00  0.00    -0.354 N 
ATOM     56  C   UNL A   1      43.964  28.056  33.253  1.00  0.00     0.074 A 
ATOM     57  C   UNL A   1      42.604  28.061  33.719  1.00  0.00     0.031 C 
ATOM     58  C   UNL A   1      41.226  26.832  27.449  1.00  0.00     0.029 A 
ATOM     59  C   UNL A   1      42.173  25.971  28.131  1.00  0.00     0.049 A 
ATOM     60  H   UNL A   1      43.578  26.576  29.567  1.00  0.00     0.167 HD
ATOM     61  C   UNL A   1      45.053  27.372  33.704  1.00  0.00     0.034 A 
ATOM     62  C   UNL A   1      42.380  24.637  28.008  1.00  0.00     0.034 A 
ATOM     63  C   UNL A   1      46.176  27.540  32.809  1.00  0.00     0.049 A 
ATOM     64  C   UNL A   1      43.648  24.327  28.715  1.00  0.00     0.074 A 
ATOM     65  C   UNL A   1      46.841  28.626  32.274  1.00  0.00     0.029 A 
ATOM     66  N   UNL A   1      46.492  26.471  32.000  1.00  0.00    -0.354 N 
ATOM     67  N   UNL A   1      44.815  24.768  28.330  1.00  0.00    -0.248 NA
ATOM     68  C   UNL A   1      43.559  23.932  30.113  1.00  0.00     0.031 C 
ATOM     69  C   UNL A   1      47.084  28.266  30.915  1.00  0.00     0.029 A 
ATOM     70  C   UNL A   1      46.642  26.955  30.729  1.00  0.00     0.049 A 
ATOM     71  H   UNL A   1      46.591  25.533  32.283  1.00  0.00     0.167 HD
ATOM     72  C   UNL A   1      45.443  25.149  29.509  1.00  0.00     0.074 A 
ATOM     73  C   UNL A   1      44.670  24.512  30.576  1.00  0.00     0.031 C 
ATOM     74  C   UNL A   1      46.327  26.193  29.540  1.00  0.00     0.034 A 
BRANCH  61  75
ATOM     75  C   UNL A   1      45.033  26.237  34.712  1.00  0.00     0.023 A 
ATOM     76  C   UNL A   1      44.531  24.996  34.256  1.00  0.00     0.012 A 
ATOM     77  C   UNL A   1      45.211  26.374  36.107  1.00  0.00     0.148 A 
ATOM     78  C   UNL A   1      44.149  23.983  35.143  1.00  0.00     0.002 A 
ATOM     79  C   UNL A   1      44.911  25.333  36.979  1.00  0.00     0.091 A 
ATOM     80  F   UNL A   1      45.543  27.552  36.636  1.00  0.00    -0.205 F 
ATOM     81  C   UNL A   1      44.344  24.150  36.507  1.00  0.00     0.022 A 
BRANCH  79  82
ATOM     82  S   UNL A   1      45.197  25.480  38.749  1.00  0.00     0.127 S 
ATOM     83  O   UNL A   1      45.013  24.101  39.190  1.00  0.00    -0.237 OA
ATOM     84  O   UNL A   1      46.576  25.967  38.789  1.00  0.00    -0.237 OA
ATOM     85  O   UNL A   1      44.212  26.443  39.227  1.00  0.00    -0.744 OA
ENDBRANCH  79  82
ENDBRANCH  61  75
BRANCH  62  86
ATOM     86  C   UNL A   1      41.433  23.584  27.571  1.00  0.00     0.023 A 
ATOM     87  C   UNL A   1      40.118  23.928  27.203  1.00  0.00     0.012 A 
ATOM     88  C   UNL A   1      41.882  22.276  27.277  1.00  0.00     0.148 A 
ATOM     89  C   UNL A   1      39.286  23.008  26.549  1.00  0.00     0.002 A 
ATOM     90  C   UNL A   1      41.046  21.360  26.643  1.00  0.00     0.091 A 
ATOM     91  F   UNL A   1      43.159  21.957  27.525  1.00  0.00    -0.205 F 
ATOM     92  C   UNL A   1      39.749  21.726  26.268  1.00  0.00     0.022 A 
BRANCH  90  93
ATOM     93  S   UNL A   1      41.597  19.693  26.248  1.00  0.00     0.127 S 
ATOM     94  O   UNL A   1      42.651  19.947  25.266  1.00  0.00    -0.237 OA
ATOM     95  O   UNL A   1      42.063  19.215  27.546  1.00  0.00    -0.237 OA
ATOM     96  O   UNL A   1      40.427  19.011  25.706  1.00  0.00    -0.744 OA
ENDBRANCH  90  93
ENDBRANCH  62  86
BRANCH  74  97
ATOM     97  C   UNL A   1      46.813  26.777  28.236  1.00  0.00     0.023 A 
ATOM     98  C   UNL A   1      46.071  27.727  27.504  1.00  0.00     0.012 A 
ATOM     99  C   UNL A   1      48.140  26.516  27.854  1.00  0.00     0.148 A 
ATOM    100  C   UNL A   1      46.634  28.386  26.406  1.00  0.00     0.002 A 
ATOM    101  C   UNL A   1      48.712  27.208  26.794  1.00  0.00     0.091 A 
ATOM    102  F   UNL A   1      48.836  25.610  28.557  1.00  0.00    -0.205 F 
ATOM    103  C   UNL A   1      47.961  28.138  26.061  1.00  0.00     0.022 A 
BRANCH 101 104
ATOM    104  S   UNL A   1      50.452  27.024  26.401  1.00  0.00     0.127 S 
ATOM    105  O   UNL A   1      50.617  27.969  25.299  1.00  0.00    -0.237 OA
ATOM    106  O   UNL A   1      51.107  27.419  27.650  1.00  0.00    -0.237 OA
ATOM    107  O   UNL A   1      50.634  25.617  26.060  1.00  0.00    -0.744 OA
ENDBRANCH 101 104
ENDBRANCH  74  97
ENDBRANCH  48  49
ENDBRANCH  40  43
ENDBRANCH  38  39
ENDBRANCH  37  38
ENDBRANCH  36  37
ENDBRANCH  35  36
ENDBRANCH   1  35
TORSDOF 21
ENDMDL
MODEL 2
REMARK VINA RESULT:     -11.2      4.045     12.240
REMARK SMILES O=C1NC(=O)/C(=C/c2ccc(OCc3cn(-c4ccc(C(=O)NCCCCCCNC(=O)c5ccc(-c6c7nc(c(-c8cccc(S(=O)(=O)[O-])c8F)c8ccc([nH]8)c(-c8cccc(S(=O)(=O)[O-])c8F)c8nc(c(-c9cccc(S(=O)(=O)[O-])c9F)c9ccc6[nH]9)C=C8)C=C7)cc5)cc4)nn3)cc2)S1
REMARK SMILES IDX 25 1 24 2 23 3 21 4 22 5 20 7 17 8 18 9 97 10 19 11 96 12
REMARK SMILES IDX 16 13 14 14 15 15 99 16 98 17 13 18 12 19 11 20 8 21 9 22
REMARK SMILES IDX 101 23 10 24 100 25 7 26 1 27 2 28 3 29 102 30 4 31 6 33
REMARK SMILES IDX 5 34 26 35 27 36 28 37 29 38 30 39 31 40 32 42 33 43 34 44
REMARK SMILES IDX 95 45 35 46 94 47 36 48 37 49 38 50 88 51 39 52 93 53 87 54
REMARK SMILES IDX 89 55 40 56 92 57 86 58 85 59 41 61 73 62 53 63 72 64 54 65
REMARK SMILES IDX 57 66 71 67 90 68 55 69 56 70 70 72 91 73 58 74 42 75 43 76
REMARK SMILES IDX 51 77 44 78 46 79 52 80 45 81 47 82 48 83 49 84 50 85 74 86
REMARK SMILES IDX 75 87 83 88 76 89 78 90 84 91 77 92 79 93 80 94 81 95 82 96
REMARK SMILES IDX 59 97 60 98 68 99 61 100 63 101 69 102 62 103 64 104 65 105
REMARK SMILES IDX 66 106 67 107
REMARK H PARENT 23 6 3 32 30 41 89 60 57 71
REMARK Flexibility Score: inf
ROOT
ATOM      1  C   UNL A   1      30.412  25.954  23.507  1.00  0.00     0.021 C 
ENDROOT
BRANCH   1   2
ATOM      2  C   UNL A   1      30.582  24.466  23.815  1.00  0.00     0.116 C 
BRANCH   2   3
ATOM      3  N   UNL A   1      30.146  24.179  25.165  1.00  0.00    -0.352 N 
ATOM      4  C   UNL A   1      30.685  23.435  26.182  1.00  0.00     0.251 C 
ATOM      5  O   UNL A   1      30.064  23.412  27.246  1.00  0.00    -0.269 OA
ATOM      6  H   UNL A   1      29.290  24.604  25.401  1.00  0.00     0.163 HD
BRANCH   4   7
ATOM      7  C   UNL A   1      32.021  22.774  26.098  1.00  0.00     0.039 A 
ATOM      8  C   UNL A   1      34.671  21.876  25.826  1.00  0.00     0.066 A 
ATOM      9  C   UNL A   1      34.370  22.911  26.719  1.00  0.00     0.029 A 
ATOM     10  C   UNL A   1      33.640  21.222  25.150  1.00  0.00     0.029 A 
ATOM     11  C   UNL A   1      33.058  23.373  26.827  1.00  0.00     0.016 A 
ATOM     12  C   UNL A   1      32.316  21.634  25.344  1.00  0.00     0.016 A 
BRANCH   8  13
ATOM     13  N   UNL A   1      36.021  21.514  25.622  1.00  0.00    -0.220 N 
ATOM     14  C   UNL A   1      38.197  21.332  25.657  1.00  0.00     0.120 A 
ATOM     15  C   UNL A   1      37.161  22.122  26.106  1.00  0.00     0.144 A 
ATOM     16  N   UNL A   1      37.672  20.265  24.977  1.00  0.00    -0.131 NA
ATOM     17  N   UNL A   1      36.355  20.369  24.985  1.00  0.00    -0.062 NA
BRANCH  14  18
ATOM     18  C   UNL A   1      39.669  21.410  25.889  1.00  0.00     0.289 C 
BRANCH  18  19
ATOM     19  O   UNL A   1      40.155  22.648  26.432  1.00  0.00    -0.487 OA
BRANCH  19  20
ATOM     20  C   UNL A   1      41.495  22.779  26.678  1.00  0.00     0.119 A 
ATOM     21  C   UNL A   1      44.199  23.438  27.080  1.00  0.00    -0.024 A 
ATOM     22  C   UNL A   1      43.192  24.221  27.650  1.00  0.00     0.012 A 
ATOM     23  C   UNL A   1      43.845  22.277  26.389  1.00  0.00     0.012 A 
ATOM     24  C   UNL A   1      41.847  23.893  27.443  1.00  0.00     0.047 A 
ATOM     25  C   UNL A   1      42.502  21.937  26.213  1.00  0.00     0.047 A 
BRANCH  21  26
ATOM     26  C   UNL A   1      45.605  23.825  27.208  1.00  0.00     0.029 C 
ATOM     27  O   UNL A   1      47.390  27.139  23.854  1.00  0.00    -0.261 OA
ATOM     28  C   UNL A   1      47.153  26.387  24.797  1.00  0.00     0.290 C 
ATOM     29  N   UNL A   1      48.075  25.942  25.682  1.00  0.00    -0.282 N 
ATOM     30  S   UNL A   1      45.600  25.667  25.139  1.00  0.00    -0.022 SA
ATOM     31  C   UNL A   1      47.688  25.004  26.593  1.00  0.00     0.265 C 
ATOM     32  H   UNL A   1      48.998  26.285  25.667  1.00  0.00     0.174 HD
ATOM     33  C   UNL A   1      46.238  24.717  26.433  1.00  0.00     0.083 C 
ATOM     34  O   UNL A   1      48.436  24.453  27.381  1.00  0.00    -0.268 OA
ENDBRANCH  21  26
ENDBRANCH  19  20
ENDBRANCH  18  19
ENDBRANCH  14  18
ENDBRANCH   8  13
ENDBRANCH   4   7
ENDBRANCH   2   3
ENDBRANCH   1   2
BRANCH   1  35
ATOM     35  C   UNL A   1      31.635  26.791  23.901  1.00  0.00     0.002 C 
BRANCH  35  36
ATOM     36  C   UNL A   1      31.593  27.403  25.312  1.00  0.00     0.002 C 
BRANCH  36  37
ATOM     37  C   UNL A   1      32.748  27.022  26.253  1.00  0.00     0.021 C 
BRANCH  37  38
ATOM     38  C   UNL A   1      33.844  28.072  26.325  1.00  0.00     0.116 C 
BRANCH  38  39
ATOM     39  N   UNL A   1      33.294  29.432  26.268  1.00  0.00    -0.352 N 
ATOM     40  C   UNL A   1      33.599  30.535  27.038  1.00  0.00     0.251 C 
ATOM     41  H   UNL A   1      32.608  29.579  25.578  1.00  0.00     0.163 HD
ATOM     42  O   UNL A   1      32.820  31.480  27.115  1.00  0.00    -0.269 OA
BRANCH  40  43
ATOM     43  C   UNL A   1      34.884  30.569  27.751  1.00  0.00     0.039 A 
ATOM     44  C   UNL A   1      35.634  29.413  27.999  1.00  0.00     0.014 A 
ATOM     45  C   UNL A   1      35.337  31.814  28.168  1.00  0.00     0.014 A 
ATOM     46  C   UNL A   1      36.869  29.544  28.630  1.00  0.00     0.010 A 
ATOM     47  C   UNL A   1      36.631  31.963  28.559  1.00  0.00     0.010 A 
ATOM     48  C   UNL A   1      37.350  30.829  28.904  1.00  0.00    -0.014 A 
BRANCH  48  49
ATOM     49  C   UNL A   1      38.639  31.067  29.526  1.00  0.00     0.031 A 
ATOM     50  C   UNL A   1      39.566  29.913  29.470  1.00  0.00     0.074 A 
ATOM     51  C   UNL A   1      39.040  32.328  29.808  1.00  0.00     0.049 A 
ATOM     52  N   UNL A   1      39.977  29.183  30.452  1.00  0.00    -0.248 NA
ATOM     53  C   UNL A   1      39.949  29.397  28.146  1.00  0.00     0.031 C 
ATOM     54  C   UNL A   1      38.341  33.586  29.502  1.00  0.00     0.029 A 
ATOM     55  N   UNL A   1      40.254  32.761  30.233  1.00  0.00    -0.354 N 
ATOM     56  C   UNL A   1      40.882  28.287  29.888  1.00  0.00     0.074 A 
ATOM     57  C   UNL A   1      40.605  28.283  28.478  1.00  0.00     0.031 C 
ATOM     58  C   UNL A   1      39.236  34.596  29.472  1.00  0.00     0.029 A 
ATOM     59  C   UNL A   1      40.522  34.089  29.912  1.00  0.00     0.049 A 
ATOM     60  H   UNL A   1      40.887  32.190  30.725  1.00  0.00     0.167 HD
ATOM     61  C   UNL A   1      41.980  27.865  30.578  1.00  0.00     0.034 A 
ATOM     62  C   UNL A   1      41.737  34.689  29.916  1.00  0.00     0.034 A 
ATOM     63  C   UNL A   1      41.890  28.236  31.972  1.00  0.00     0.049 A 
ATOM     64  C   UNL A   1      42.640  33.837  30.731  1.00  0.00     0.074 A 
ATOM     65  C   UNL A   1      40.954  28.051  32.971  1.00  0.00     0.029 A 
ATOM     66  N   UNL A   1      42.680  29.284  32.389  1.00  0.00    -0.354 N 
ATOM     67  N   UNL A   1      42.485  33.644  32.013  1.00  0.00    -0.248 NA
ATOM     68  C   UNL A   1      43.418  32.824  30.035  1.00  0.00     0.031 C 
ATOM     69  C   UNL A   1      40.909  29.299  33.659  1.00  0.00     0.029 A 
ATOM     70  C   UNL A   1      41.882  30.134  33.105  1.00  0.00     0.049 A 
ATOM     71  H   UNL A   1      43.640  29.401  32.204  1.00  0.00     0.167 HD
ATOM     72  C   UNL A   1      42.724  32.286  32.185  1.00  0.00     0.074 A 
ATOM     73  C   UNL A   1      43.397  31.859  30.959  1.00  0.00     0.031 C 
ATOM     74  C   UNL A   1      42.078  31.567  33.154  1.00  0.00     0.034 A 
BRANCH  61  75
ATOM     75  C   UNL A   1      43.313  27.474  29.968  1.00  0.00     0.023 A 
ATOM     76  C   UNL A   1      43.919  26.299  30.472  1.00  0.00     0.012 A 
ATOM     77  C   UNL A   1      44.119  28.302  29.155  1.00  0.00     0.148 A 
ATOM     78  C   UNL A   1      45.270  26.010  30.248  1.00  0.00     0.002 A 
ATOM     79  C   UNL A   1      45.437  27.967  28.864  1.00  0.00     0.091 A 
ATOM     80  F   UNL A   1      43.678  29.496  28.756  1.00  0.00    -0.205 F 
ATOM     81  C   UNL A   1      46.030  26.843  29.439  1.00  0.00     0.022 A 
BRANCH  79  82
ATOM     82  S   UNL A   1      46.446  28.985  27.777  1.00  0.00     0.127 S 
ATOM     83  O   UNL A   1      46.543  30.224  28.544  1.00  0.00    -0.237 OA
ATOM     84  O   UNL A   1      47.681  28.205  27.698  1.00  0.00    -0.237 OA
ATOM     85  O   UNL A   1      45.711  29.065  26.521  1.00  0.00    -0.744 OA
ENDBRANCH  79  82
ENDBRANCH  61  75
BRANCH  62  86
ATOM     86  C   UNL A   1      42.241  35.780  29.048  1.00  0.00     0.023 A 
ATOM     87  C   UNL A   1      41.772  35.901  27.725  1.00  0.00     0.012 A 
ATOM     88  C   UNL A   1      42.991  36.852  29.584  1.00  0.00     0.148 A 
ATOM     89  C   UNL A   1      42.027  37.054  26.970  1.00  0.00     0.002 A 
ATOM     90  C   UNL A   1      43.257  37.988  28.824  1.00  0.00     0.091 A 
ATOM     91  F   UNL A   1      43.361  36.804  30.870  1.00  0.00    -0.205 F 
ATOM     92  C   UNL A   1      42.768  38.097  27.518  1.00  0.00     0.022 A 
BRANCH  90  93
ATOM     93  S   UNL A   1      44.201  39.369  29.487  1.00  0.00     0.127 S 
ATOM     94  O   UNL A   1      44.409  40.193  28.296  1.00  0.00    -0.237 OA
ATOM     95  O   UNL A   1      43.274  39.924  30.468  1.00  0.00    -0.237 OA
ATOM     96  O   UNL A   1      45.423  38.786  30.030  1.00  0.00    -0.744 OA
ENDBRANCH  90  93
ENDBRANCH  62  86
BRANCH  74  97
ATOM     97  C   UNL A   1      41.285  32.304  34.204  1.00  0.00     0.023 A 
ATOM     98  C   UNL A   1      41.892  32.962  35.295  1.00  0.00     0.012 A 
ATOM     99  C   UNL A   1      39.915  32.513  33.968  1.00  0.00     0.148 A 
ATOM    100  C   UNL A   1      41.146  33.791  36.139  1.00  0.00     0.002 A 
ATOM    101  C   UNL A   1      39.189  33.376  34.777  1.00  0.00     0.091 A 
ATOM    102  F   UNL A   1      39.348  31.882  32.928  1.00  0.00    -0.205 F 
ATOM    103  C   UNL A   1      39.797  34.011  35.870  1.00  0.00     0.022 A 
BRANCH 101 104
ATOM    104  S   UNL A   1      37.489  33.797  34.390  1.00  0.00     0.127 S 
ATOM    105  O   UNL A   1      37.656  34.850  33.391  1.00  0.00    -0.237 OA
ATOM    106  O   UNL A   1      36.957  32.537  33.868  1.00  0.00    -0.237 OA
ATOM    107  O   UNL A   1      36.887  34.212  35.652  1.00  0.00    -0.744 OA
ENDBRANCH 101 104
ENDBRANCH  74  97
ENDBRANCH  48  49
ENDBRANCH  40  43
ENDBRANCH  38  39
ENDBRANCH  37  38
ENDBRANCH  36  37
ENDBRANCH  35  36
ENDBRANCH   1  35
TORSDOF 21
ENDMDL
MODEL 3
REMARK VINA RESULT:     -11.1      5.197      8.220
REMARK SMILES O=C1NC(=O)/C(=C/c2ccc(OCc3cn(-c4ccc(C(=O)NCCCCCCNC(=O)c5ccc(-c6c7nc(c(-c8cccc(S(=O)(=O)[O-])c8F)c8ccc([nH]8)c(-c8cccc(S(=O)(=O)[O-])c8F)c8nc(c(-c9cccc(S(=O)(=O)[O-])c9F)c9ccc6[nH]9)C=C8)C=C7)cc5)cc4)nn3)cc2)S1
REMARK SMILES IDX 25 1 24 2 23 3 21 4 22 5 20 7 17 8 18 9 97 10 19 11 96 12
REMARK SMILES IDX 16 13 14 14 15 15 99 16 98 17 13 18 12 19 11 20 8 21 9 22
REMARK SMILES IDX 101 23 10 24 100 25 7 26 1 27 2 28 3 29 102 30 4 31 6 33
REMARK SMILES IDX 5 34 26 35 27 36 28 37 29 38 30 39 31 40 32 42 33 43 34 44
REMARK SMILES IDX 95 45 35 46 94 47 36 48 37 49 38 50 88 51 39 52 93 53 87 54
REMARK SMILES IDX 89 55 40 56 92 57 86 58 85 59 41 61 73 62 53 63 72 64 54 65
REMARK SMILES IDX 57 66 71 67 90 68 55 69 56 70 70 72 91 73 58 74 42 75 43 76
REMARK SMILES IDX 51 77 44 78 46 79 52 80 45 81 47 82 48 83 49 84 50 85 74 86
REMARK SMILES IDX 75 87 83 88 76 89 78 90 84 91 77 92 79 93 80 94 81 95 82 96
REMARK SMILES IDX 59 97 60 98 68 99 61 100 63 101 69 102 62 103 64 104 65 105
REMARK SMILES IDX 66 106 67 107
REMARK H PARENT 23 6 3 32 30 41 89 60 57 71
REMARK Flexibility Score: inf
ROOT
ATOM      1  C   UNL A   1      37.976  30.820  34.059  1.00  0.00     0.021 C 
ENDROOT
BRANCH   1   2
ATOM      2  C   UNL A   1      38.207  32.124  34.824  1.00  0.00     0.116 C 
BRANCH   2   3
ATOM      3  N   UNL A   1      39.500  32.103  35.474  1.00  0.00    -0.352 N 
ATOM      4  C   UNL A   1      40.746  32.523  35.087  1.00  0.00     0.251 C 
ATOM      5  O   UNL A   1      41.659  32.383  35.903  1.00  0.00    -0.269 OA
ATOM      6  H   UNL A   1      39.481  31.708  36.375  1.00  0.00     0.163 HD
BRANCH   4   7
ATOM      7  C   UNL A   1      41.011  33.239  33.805  1.00  0.00     0.039 A 
ATOM      8  C   UNL A   1      41.673  34.255  31.268  1.00  0.00     0.066 A 
ATOM      9  C   UNL A   1      40.824  33.148  31.381  1.00  0.00     0.029 A 
ATOM     10  C   UNL A   1      42.107  34.915  32.419  1.00  0.00     0.029 A 
ATOM     11  C   UNL A   1      40.524  32.629  32.640  1.00  0.00     0.016 A 
ATOM     12  C   UNL A   1      41.716  34.440  33.678  1.00  0.00     0.016 A 
BRANCH   8  13
ATOM     13  N   UNL A   1      42.081  34.682  29.986  1.00  0.00    -0.220 N 
ATOM     14  C   UNL A   1      42.406  35.752  28.110  1.00  0.00     0.120 A 
ATOM     15  C   UNL A   1      41.638  35.764  29.254  1.00  0.00     0.144 A 
ATOM     16  N   UNL A   1      43.308  34.725  28.199  1.00  0.00    -0.131 NA
ATOM     17  N   UNL A   1      43.122  34.101  29.348  1.00  0.00    -0.062 NA
BRANCH  14  18
ATOM     18  C   UNL A   1      42.462  36.689  26.950  1.00  0.00     0.289 C 
BRANCH  18  19
ATOM     19  O   UNL A   1      41.653  37.871  27.057  1.00  0.00    -0.487 OA
BRANCH  19  20
ATOM     20  C   UNL A   1      42.162  39.061  26.614  1.00  0.00     0.119 A 
ATOM     21  C   UNL A   1      42.972  41.454  25.378  1.00  0.00    -0.024 A 
ATOM     22  C   UNL A   1      41.613  41.157  25.512  1.00  0.00     0.012 A 
ATOM     23  C   UNL A   1      43.913  40.593  25.947  1.00  0.00     0.012 A 
ATOM     24  C   UNL A   1      41.215  39.962  26.123  1.00  0.00     0.047 A 
ATOM     25  C   UNL A   1      43.508  39.418  26.583  1.00  0.00     0.047 A 
BRANCH  21  26
ATOM     26  C   UNL A   1      43.404  42.652  24.656  1.00  0.00     0.029 C 
ATOM     27  O   UNL A   1      42.302  42.896  19.742  1.00  0.00    -0.261 OA
ATOM     28  C   UNL A   1      42.610  43.074  20.919  1.00  0.00     0.290 C 
ATOM     29  N   UNL A   1      43.313  44.132  21.383  1.00  0.00    -0.282 N 
ATOM     30  S   UNL A   1      42.282  41.957  22.221  1.00  0.00    -0.022 SA
ATOM     31  C   UNL A   1      43.698  44.123  22.691  1.00  0.00     0.265 C 
ATOM     32  H   UNL A   1      43.542  44.886  20.792  1.00  0.00     0.174 HD
ATOM     33  C   UNL A   1      43.167  42.906  23.361  1.00  0.00     0.083 C 
ATOM     34  O   UNL A   1      44.411  44.962  23.211  1.00  0.00    -0.268 OA
ENDBRANCH  21  26
ENDBRANCH  19  20
ENDBRANCH  18  19
ENDBRANCH  14  18
ENDBRANCH   8  13
ENDBRANCH   4   7
ENDBRANCH   2   3
ENDBRANCH   1   2
BRANCH   1  35
ATOM     35  C   UNL A   1      36.996  30.977  32.889  1.00  0.00     0.002 C 
BRANCH  35  36
ATOM     36  C   UNL A   1      36.263  32.328  32.817  1.00  0.00     0.002 C 
BRANCH  36  37
ATOM     37  C   UNL A   1      35.009  32.374  31.928  1.00  0.00     0.021 C 
BRANCH  37  38
ATOM     38  C   UNL A   1      35.148  33.297  30.729  1.00  0.00     0.116 C 
BRANCH  38  39
ATOM     39  N   UNL A   1      34.500  32.736  29.538  1.00  0.00    -0.352 N 
ATOM     40  C   UNL A   1      35.026  31.929  28.549  1.00  0.00     0.251 C 
ATOM     41  H   UNL A   1      33.550  32.968  29.427  1.00  0.00     0.163 HD
ATOM     42  O   UNL A   1      34.479  31.840  27.455  1.00  0.00    -0.269 OA
BRANCH  40  43
ATOM     43  C   UNL A   1      36.247  31.161  28.837  1.00  0.00     0.039 A 
ATOM     44  C   UNL A   1      36.262  29.761  28.866  1.00  0.00     0.014 A 
ATOM     45  C   UNL A   1      37.404  31.890  29.076  1.00  0.00     0.014 A 
ATOM     46  C   UNL A   1      37.474  29.113  29.090  1.00  0.00     0.010 A 
ATOM     47  C   UNL A   1      38.611  31.262  29.053  1.00  0.00     0.010 A 
ATOM     48  C   UNL A   1      38.639  29.883  29.182  1.00  0.00    -0.014 A 
BRANCH  48  49
ATOM     49  C   UNL A   1      39.952  29.297  29.380  1.00  0.00     0.031 A 
ATOM     50  C   UNL A   1      40.283  29.008  30.795  1.00  0.00     0.074 A 
ATOM     51  C   UNL A   1      40.628  28.766  28.336  1.00  0.00     0.049 A 
ATOM     52  N   UNL A   1      41.169  29.589  31.532  1.00  0.00    -0.248 NA
ATOM     53  C   UNL A   1      39.411  28.079  31.534  1.00  0.00     0.031 C 
ATOM     54  C   UNL A   1      40.176  28.633  26.943  1.00  0.00     0.029 A 
ATOM     55  N   UNL A   1      41.775  28.041  28.344  1.00  0.00    -0.354 N 
ATOM     56  C   UNL A   1      41.140  28.907  32.746  1.00  0.00     0.074 A 
ATOM     57  C   UNL A   1      39.883  28.211  32.776  1.00  0.00     0.031 C 
ATOM     58  C   UNL A   1      40.874  27.647  26.340  1.00  0.00     0.029 A 
ATOM     59  C   UNL A   1      41.917  27.200  27.244  1.00  0.00     0.049 A 
ATOM     60  H   UNL A   1      42.447  28.105  29.061  1.00  0.00     0.167 HD
ATOM     61  C   UNL A   1      42.274  28.721  33.479  1.00  0.00     0.034 A 
ATOM     62  C   UNL A   1      42.770  26.151  27.136  1.00  0.00     0.034 A 
ATOM     63  C   UNL A   1      43.355  29.537  32.974  1.00  0.00     0.049 A 
ATOM     64  C   UNL A   1      43.808  26.326  28.183  1.00  0.00     0.074 A 
ATOM     65  C   UNL A   1      43.518  30.883  32.710  1.00  0.00     0.029 A 
ATOM     66  N   UNL A   1      44.340  28.892  32.259  1.00  0.00    -0.354 N 
ATOM     67  N   UNL A   1      44.668  27.309  28.188  1.00  0.00    -0.248 NA
ATOM     68  C   UNL A   1      43.580  25.689  29.471  1.00  0.00     0.031 C 
ATOM     69  C   UNL A   1      44.232  30.924  31.476  1.00  0.00     0.029 A 
ATOM     70  C   UNL A   1      44.545  29.613  31.113  1.00  0.00     0.049 A 
ATOM     71  H   UNL A   1      44.807  28.068  32.521  1.00  0.00     0.167 HD
ATOM     72  C   UNL A   1      44.718  27.714  29.517  1.00  0.00     0.074 A 
ATOM     73  C   UNL A   1      44.115  26.615  30.272  1.00  0.00     0.031 C 
ATOM     74  C   UNL A   1      44.945  29.019  29.855  1.00  0.00     0.034 A 
BRANCH  61  75
ATOM     75  C   UNL A   1      42.559  27.539  34.387  1.00  0.00     0.023 A 
ATOM     76  C   UNL A   1      42.382  27.751  35.775  1.00  0.00     0.012 A 
ATOM     77  C   UNL A   1      43.229  26.354  34.009  1.00  0.00     0.148 A 
ATOM     78  C   UNL A   1      42.916  26.878  36.730  1.00  0.00     0.002 A 
ATOM     79  C   UNL A   1      43.683  25.446  34.959  1.00  0.00     0.091 A 
ATOM     80  F   UNL A   1      43.564  26.142  32.735  1.00  0.00    -0.205 F 
ATOM     81  C   UNL A   1      43.564  25.720  36.321  1.00  0.00     0.022 A 
BRANCH  79  82
ATOM     82  S   UNL A   1      44.480  23.905  34.479  1.00  0.00     0.127 S 
ATOM     83  O   UNL A   1      44.710  23.280  35.778  1.00  0.00    -0.237 OA
ATOM     84  O   UNL A   1      43.443  23.276  33.661  1.00  0.00    -0.237 OA
ATOM     85  O   UNL A   1      45.671  24.295  33.735  1.00  0.00    -0.744 OA
ENDBRANCH  79  82
ENDBRANCH  61  75
BRANCH  62  86
ATOM     86  C   UNL A   1      42.595  24.882  26.392  1.00  0.00     0.023 A 
ATOM     87  C   UNL A   1      43.522  24.516  25.396  1.00  0.00     0.012 A 
ATOM     88  C   UNL A   1      41.665  23.907  26.820  1.00  0.00     0.148 A 
ATOM     89  C   UNL A   1      43.533  23.221  24.859  1.00  0.00     0.002 A 
ATOM     90  C   UNL A   1      41.668  22.627  26.271  1.00  0.00     0.091 A 
ATOM     91  F   UNL A   1      40.841  24.198  27.834  1.00  0.00    -0.205 F 
ATOM     92  C   UNL A   1      42.608  22.277  25.296  1.00  0.00     0.022 A 
BRANCH  90  93
ATOM     93  S   UNL A   1      40.501  21.366  26.806  1.00  0.00     0.127 S 
ATOM     94  O   UNL A   1      40.748  21.317  28.247  1.00  0.00    -0.237 OA
ATOM     95  O   UNL A   1      39.224  21.954  26.418  1.00  0.00    -0.237 OA
ATOM     96  O   UNL A   1      40.881  20.151  26.093  1.00  0.00    -0.744 OA
ENDBRANCH  90  93
ENDBRANCH  62  86
BRANCH  74  97
ATOM     97  C   UNL A   1      45.391  29.985  28.785  1.00  0.00     0.023 A 
ATOM     98  C   UNL A   1      44.483  30.743  28.016  1.00  0.00     0.012 A 
ATOM     99  C   UNL A   1      46.761  30.285  28.701  1.00  0.00     0.148 A 
ATOM    100  C   UNL A   1      44.933  31.762  27.171  1.00  0.00     0.002 A 
ATOM    101  C   UNL A   1      47.201  31.331  27.900  1.00  0.00     0.091 A 
ATOM    102  F   UNL A   1      47.616  29.558  29.436  1.00  0.00    -0.205 F 
ATOM    103  C   UNL A   1      46.292  32.067  27.125  1.00  0.00     0.022 A 
BRANCH 101 104
ATOM    104  S   UNL A   1      48.918  31.849  27.914  1.00  0.00     0.127 S 
ATOM    105  O   UNL A   1      49.406  31.253  29.155  1.00  0.00    -0.237 OA
ATOM    106  O   UNL A   1      49.447  31.239  26.692  1.00  0.00    -0.237 OA
ATOM    107  O   UNL A   1      48.891  33.307  27.880  1.00  0.00    -0.744 OA
ENDBRANCH 101 104
ENDBRANCH  74  97
ENDBRANCH  48  49
ENDBRANCH  40  43
ENDBRANCH  38  39
ENDBRANCH  37  38
ENDBRANCH  36  37
ENDBRANCH  35  36
ENDBRANCH   1  35
TORSDOF 21
ENDMDL
