MODEL 1
REMARK VINA RESULT:     -11.3      0.000      0.000
REMARK SMILES CC1(C)O[C@](C)(C(C)(C)O)CC[C@H]1C(=O)NCCCCCCNC(=O)c1ccc(-c2c3nc(c(-c4cccc(S(=O)(=O)[O-])c4F)c4ccc([nH]4)c(-c4cccc(S(=O)(=O)[O-])c4F)c4nc(c(-c5cccc(S(=O)(=O)[O-])c5F)c5ccc2[nH]5)C=C4)C=C3)cc1
REMARK SMILES IDX 20 1 19 2 18 3 17 4 16 5 14 6 15 7 13 9 1 10 2 11 3 12 4 13
REMARK SMILES IDX 5 14 12 15 6 16 11 17 7 18 8 19 9 20 10 21 21 23 22 24 23 25
REMARK SMILES IDX 24 26 25 28 26 29 27 30 88 31 28 32 87 33 29 34 30 35 31 36
REMARK SMILES IDX 81 37 32 38 86 39 80 40 82 41 33 42 85 43 79 44 78 45 34 47
REMARK SMILES IDX 66 48 46 49 65 50 47 51 50 52 64 53 83 54 48 55 49 56 63 58
REMARK SMILES IDX 84 59 51 60 35 61 36 62 44 63 37 64 39 65 45 66 38 67 40 68
REMARK SMILES IDX 41 69 42 70 43 71 67 72 68 73 76 74 69 75 71 76 77 77 70 78
REMARK SMILES IDX 72 79 73 80 74 81 75 82 52 83 53 84 61 85 54 86 56 87 62 88
REMARK SMILES IDX 55 89 57 90 58 91 59 92 60 93
REMARK H PARENT 16 8 10 22 23 27 82 46 50 57
REMARK Flexibility Score: inf
ROOT
ATOM      1  C   UNL A   1      35.616  21.438  24.616  1.00  0.00     0.002 C 
ENDROOT
BRANCH   1   2
ATOM      2  C   UNL A   1      34.570  21.092  25.680  1.00  0.00     0.002 C 
BRANCH   2   3
ATOM      3  C   UNL A   1      33.368  20.306  25.162  1.00  0.00     0.021 C 
BRANCH   3   4
ATOM      4  C   UNL A   1      32.142  21.166  24.861  1.00  0.00     0.116 C 
BRANCH   4   5
ATOM      5  N   UNL A   1      31.695  21.866  26.047  1.00  0.00    -0.356 N 
ATOM      6  C   UNL A   1      31.752  23.176  26.396  1.00  0.00     0.226 C 
ATOM      7  O   UNL A   1      31.383  23.457  27.542  1.00  0.00    -0.275 OA
ATOM      8  H   UNL A   1      31.273  21.286  26.721  1.00  0.00     0.163 HD
BRANCH   6   9
ATOM      9  C   UNL A   1      32.221  24.287  25.455  1.00  0.00     0.110 C 
ATOM     10  C   UNL A   1      29.899  25.570  25.573  1.00  0.00     0.043 C 
ATOM     11  C   UNL A   1      31.105  25.112  24.750  1.00  0.00     0.075 C 
ATOM     12  C   UNL A   1      30.496  24.223  23.634  1.00  0.00     0.043 C 
ATOM     13  O   UNL A   1      31.616  26.258  24.046  1.00  0.00    -0.366 OA
ATOM     14  C   UNL A   1      32.645  27.076  24.636  1.00  0.00     0.094 C 
ATOM     15  C   UNL A   1      33.425  25.067  25.990  1.00  0.00     0.019 C 
ATOM     16  C   UNL A   1      32.148  27.846  25.881  1.00  0.00     0.045 C 
ATOM     17  C   UNL A   1      33.833  26.173  25.022  1.00  0.00     0.039 C 
BRANCH  14  18
ATOM     18  C   UNL A   1      33.057  28.136  23.531  1.00  0.00     0.088 C 
ATOM     19  C   UNL A   1      33.773  27.499  22.330  1.00  0.00     0.045 C 
ATOM     20  C   UNL A   1      31.831  28.905  22.998  1.00  0.00     0.045 C 
BRANCH  18  21
ATOM     21  O   UNL A   1      33.969  29.089  24.100  1.00  0.00    -0.387 OA
ATOM     22  H   UNL A   1      34.878  28.851  23.858  1.00  0.00     0.211 HD
ENDBRANCH  18  21
ENDBRANCH  14  18
ENDBRANCH   6   9
ENDBRANCH   4   5
ENDBRANCH   3   4
ENDBRANCH   2   3
ENDBRANCH   1   2
BRANCH   1  23
ATOM     23  C   UNL A   1      36.037  22.909  24.571  1.00  0.00     0.021 C 
BRANCH  23  24
ATOM     24  C   UNL A   1      36.844  23.381  25.777  1.00  0.00     0.116 C 
BRANCH  24  25
ATOM     25  N   UNL A   1      37.927  22.466  26.097  1.00  0.00    -0.352 N 
ATOM     26  C   UNL A   1      39.203  22.747  26.514  1.00  0.00     0.251 C 
ATOM     27  H   UNL A   1      37.715  21.509  26.000  1.00  0.00     0.163 HD
ATOM     28  O   UNL A   1      40.057  21.866  26.524  1.00  0.00    -0.269 OA
BRANCH  26  29
ATOM     29  C   UNL A   1      39.542  24.120  26.940  1.00  0.00     0.039 A 
ATOM     30  C   UNL A   1      39.315  24.493  28.266  1.00  0.00     0.014 A 
ATOM     31  C   UNL A   1      40.081  25.033  26.030  1.00  0.00     0.014 A 
ATOM     32  C   UNL A   1      39.674  25.773  28.692  1.00  0.00     0.010 A 
ATOM     33  C   UNL A   1      40.505  26.282  26.473  1.00  0.00     0.010 A 
ATOM     34  C   UNL A   1      40.295  26.669  27.804  1.00  0.00    -0.014 A 
BRANCH  34  35
ATOM     35  C   UNL A   1      40.730  28.016  28.253  1.00  0.00     0.031 A 
ATOM     36  C   UNL A   1      42.195  28.364  28.288  1.00  0.00     0.074 A 
ATOM     37  C   UNL A   1      39.815  28.898  28.699  1.00  0.00     0.049 A 
ATOM     38  N   UNL A   1      42.771  29.464  28.698  1.00  0.00    -0.248 NA
ATOM     39  C   UNL A   1      43.138  27.330  27.827  1.00  0.00     0.031 C 
ATOM     40  C   UNL A   1      38.373  28.651  28.783  1.00  0.00     0.029 A 
ATOM     41  N   UNL A   1      39.960  30.170  29.189  1.00  0.00    -0.354 N 
ATOM     42  C   UNL A   1      44.138  29.248  28.569  1.00  0.00     0.074 A 
ATOM     43  C   UNL A   1      44.308  27.896  28.085  1.00  0.00     0.031 C 
ATOM     44  C   UNL A   1      37.768  29.737  29.289  1.00  0.00     0.029 A 
ATOM     45  C   UNL A   1      38.778  30.745  29.594  1.00  0.00     0.049 A 
ATOM     46  H   UNL A   1      40.829  30.630  29.244  1.00  0.00     0.167 HD
ATOM     47  C   UNL A   1      45.159  30.107  28.799  1.00  0.00     0.034 A 
ATOM     48  C   UNL A   1      38.537  31.946  30.156  1.00  0.00     0.034 A 
ATOM     49  C   UNL A   1      44.983  31.462  29.248  1.00  0.00     0.049 A 
ATOM     50  C   UNL A   1      39.688  32.888  30.383  1.00  0.00     0.074 A 
ATOM     51  C   UNL A   1      45.948  32.434  29.447  1.00  0.00     0.029 A 
ATOM     52  N   UNL A   1      43.763  32.035  29.571  1.00  0.00    -0.354 N 
ATOM     53  N   UNL A   1      40.960  32.719  30.114  1.00  0.00    -0.248 NA
ATOM     54  C   UNL A   1      39.368  34.203  30.955  1.00  0.00     0.031 C 
ATOM     55  C   UNL A   1      45.312  33.589  29.912  1.00  0.00     0.029 A 
ATOM     56  C   UNL A   1      43.949  33.346  29.974  1.00  0.00     0.049 A 
ATOM     57  H   UNL A   1      42.894  31.577  29.522  1.00  0.00     0.167 HD
ATOM     58  C   UNL A   1      41.584  33.916  30.445  1.00  0.00     0.074 A 
ATOM     59  C   UNL A   1      40.546  34.810  30.914  1.00  0.00     0.031 C 
ATOM     60  C   UNL A   1      42.898  34.242  30.382  1.00  0.00     0.034 A 
BRANCH  47  61
ATOM     61  C   UNL A   1      46.557  29.624  28.511  1.00  0.00     0.023 A 
ATOM     62  C   UNL A   1      47.122  29.853  27.239  1.00  0.00     0.012 A 
ATOM     63  C   UNL A   1      47.334  28.999  29.506  1.00  0.00     0.148 A 
ATOM     64  C   UNL A   1      48.420  29.437  26.949  1.00  0.00     0.002 A 
ATOM     65  C   UNL A   1      48.644  28.629  29.225  1.00  0.00     0.091 A 
ATOM     66  F   UNL A   1      46.776  28.772  30.704  1.00  0.00    -0.205 F 
ATOM     67  C   UNL A   1      49.184  28.835  27.945  1.00  0.00     0.022 A 
BRANCH  65  68
ATOM     68  S   UNL A   1      49.739  27.918  30.459  1.00  0.00     0.127 S 
ATOM     69  O   UNL A   1      49.732  28.954  31.491  1.00  0.00    -0.237 OA
ATOM     70  O   UNL A   1      49.033  26.689  30.825  1.00  0.00    -0.237 OA
ATOM     71  O   UNL A   1      51.016  27.711  29.793  1.00  0.00    -0.744 OA
ENDBRANCH  65  68
ENDBRANCH  47  61
BRANCH  48  72
ATOM     72  C   UNL A   1      37.142  32.351  30.492  1.00  0.00     0.023 A 
ATOM     73  C   UNL A   1      36.655  32.143  31.799  1.00  0.00     0.012 A 
ATOM     74  C   UNL A   1      36.299  32.945  29.534  1.00  0.00     0.148 A 
ATOM     75  C   UNL A   1      35.343  32.480  32.131  1.00  0.00     0.002 A 
ATOM     76  C   UNL A   1      35.011  33.330  29.887  1.00  0.00     0.091 A 
ATOM     77  F   UNL A   1      36.774  33.124  28.292  1.00  0.00    -0.205 F 
ATOM     78  C   UNL A   1      34.524  33.081  31.179  1.00  0.00     0.022 A 
BRANCH  76  79
ATOM     79  S   UNL A   1      33.935  34.228  28.763  1.00  0.00     0.127 S 
ATOM     80  O   UNL A   1      33.600  33.199  27.784  1.00  0.00    -0.237 OA
ATOM     81  O   UNL A   1      32.836  34.622  29.645  1.00  0.00    -0.237 OA
ATOM     82  O   UNL A   1      34.732  35.343  28.267  1.00  0.00    -0.744 OA
ENDBRANCH  76  79
ENDBRANCH  48  72
BRANCH  60  83
ATOM     83  C   UNL A   1      43.290  35.640  30.785  1.00  0.00     0.023 A 
ATOM     84  C   UNL A   1      43.671  35.909  32.114  1.00  0.00     0.012 A 
ATOM     85  C   UNL A   1      43.349  36.671  29.825  1.00  0.00     0.148 A 
ATOM     86  C   UNL A   1      44.069  37.191  32.491  1.00  0.00     0.002 A 
ATOM     87  C   UNL A   1      43.797  37.933  30.197  1.00  0.00     0.091 A 
ATOM     88  F   UNL A   1      42.967  36.398  28.569  1.00  0.00    -0.205 F 
ATOM     89  C   UNL A   1      44.144  38.198  31.532  1.00  0.00     0.022 A 
BRANCH  87  90
ATOM     90  S   UNL A   1      44.020  39.264  29.012  1.00  0.00     0.127 S 
ATOM     91  O   UNL A   1      45.022  38.696  28.112  1.00  0.00    -0.237 OA
ATOM     92  O   UNL A   1      42.682  39.392  28.434  1.00  0.00    -0.237 OA
ATOM     93  O   UNL A   1      44.458  40.419  29.783  1.00  0.00    -0.744 OA
ENDBRANCH  87  90
ENDBRANCH  60  83
ENDBRANCH  34  35
ENDBRANCH  26  29
ENDBRANCH  24  25
ENDBRANCH  23  24
ENDBRANCH   1  23
TORSDOF 18
ENDMDL
MODEL 2
REMARK VINA RESULT:     -11.2      2.197      2.509
REMARK SMILES CC1(C)O[C@](C)(C(C)(C)O)CC[C@H]1C(=O)NCCCCCCNC(=O)c1ccc(-c2c3nc(c(-c4cccc(S(=O)(=O)[O-])c4F)c4ccc([nH]4)c(-c4cccc(S(=O)(=O)[O-])c4F)c4nc(c(-c5cccc(S(=O)(=O)[O-])c5F)c5ccc2[nH]5)C=C4)C=C3)cc1
REMARK SMILES IDX 20 1 19 2 18 3 17 4 16 5 14 6 15 7 13 9 1 10 2 11 3 12 4 13
REMARK SMILES IDX 5 14 12 15 6 16 11 17 7 18 8 19 9 20 10 21 21 23 22 24 23 25
REMARK SMILES IDX 24 26 25 28 26 29 27 30 88 31 28 32 87 33 29 34 30 35 31 36
REMARK SMILES IDX 81 37 32 38 86 39 80 40 82 41 33 42 85 43 79 44 78 45 34 47
REMARK SMILES IDX 66 48 46 49 65 50 47 51 50 52 64 53 83 54 48 55 49 56 63 58
REMARK SMILES IDX 84 59 51 60 35 61 36 62 44 63 37 64 39 65 45 66 38 67 40 68
REMARK SMILES IDX 41 69 42 70 43 71 67 72 68 73 76 74 69 75 71 76 77 77 70 78
REMARK SMILES IDX 72 79 73 80 74 81 75 82 52 83 53 84 61 85 54 86 56 87 62 88
REMARK SMILES IDX 55 89 57 90 58 91 59 92 60 93
REMARK H PARENT 16 8 10 22 23 27 82 46 50 57
REMARK Flexibility Score: inf
ROOT
ATOM      1  C   UNL A   1      34.970  21.660  24.674  1.00  0.00     0.002 C 
ENDROOT
BRANCH   1   2
ATOM      2  C   UNL A   1      34.383  20.246  24.667  1.00  0.00     0.002 C 
BRANCH   2   3
ATOM      3  C   UNL A   1      32.906  20.166  25.047  1.00  0.00     0.021 C 
BRANCH   3   4
ATOM      4  C   UNL A   1      32.119  21.444  24.766  1.00  0.00     0.116 C 
BRANCH   4   5
ATOM      5  N   UNL A   1      31.711  22.084  26.000  1.00  0.00    -0.356 N 
ATOM      6  C   UNL A   1      31.770  23.378  26.407  1.00  0.00     0.226 C 
ATOM      7  O   UNL A   1      31.443  23.601  27.578  1.00  0.00    -0.275 OA
ATOM      8  H   UNL A   1      31.321  21.469  26.662  1.00  0.00     0.163 HD
BRANCH   6   9
ATOM      9  C   UNL A   1      32.193  24.536  25.500  1.00  0.00     0.110 C 
ATOM     10  C   UNL A   1      29.831  25.736  25.684  1.00  0.00     0.043 C 
ATOM     11  C   UNL A   1      31.043  25.346  24.834  1.00  0.00     0.075 C 
ATOM     12  C   UNL A   1      30.453  24.477  23.693  1.00  0.00     0.043 C 
ATOM     13  O   UNL A   1      31.509  26.533  24.167  1.00  0.00    -0.366 OA
ATOM     14  C   UNL A   1      32.516  27.363  24.775  1.00  0.00     0.094 C 
ATOM     15  C   UNL A   1      33.375  25.337  26.052  1.00  0.00     0.019 C 
ATOM     16  C   UNL A   1      32.006  28.073  26.051  1.00  0.00     0.045 C 
ATOM     17  C   UNL A   1      33.737  26.488  25.120  1.00  0.00     0.039 C 
BRANCH  14  18
ATOM     18  C   UNL A   1      32.882  28.475  23.705  1.00  0.00     0.088 C 
ATOM     19  C   UNL A   1      34.113  28.107  22.860  1.00  0.00     0.045 C 
ATOM     20  C   UNL A   1      31.708  28.740  22.740  1.00  0.00     0.045 C 
BRANCH  18  21
ATOM     21  O   UNL A   1      33.193  29.704  24.379  1.00  0.00    -0.387 OA
ATOM     22  H   UNL A   1      33.744  29.516  25.156  1.00  0.00     0.211 HD
ENDBRANCH  18  21
ENDBRANCH  14  18
ENDBRANCH   6   9
ENDBRANCH   4   5
ENDBRANCH   3   4
ENDBRANCH   2   3
ENDBRANCH   1   2
BRANCH   1  23
ATOM     23  C   UNL A   1      35.910  21.968  25.843  1.00  0.00     0.021 C 
BRANCH  23  24
ATOM     24  C   UNL A   1      37.343  22.305  25.443  1.00  0.00     0.116 C 
BRANCH  24  25
ATOM     25  N   UNL A   1      38.285  21.295  25.898  1.00  0.00    -0.352 N 
ATOM     26  C   UNL A   1      39.538  21.457  26.430  1.00  0.00     0.251 C 
ATOM     27  H   UNL A   1      37.980  20.362  25.811  1.00  0.00     0.163 HD
ATOM     28  O   UNL A   1      40.287  20.493  26.553  1.00  0.00    -0.269 OA
BRANCH  26  29
ATOM     29  C   UNL A   1      39.982  22.804  26.845  1.00  0.00     0.039 A 
ATOM     30  C   UNL A   1      40.853  22.926  27.928  1.00  0.00     0.014 A 
ATOM     31  C   UNL A   1      39.535  23.939  26.163  1.00  0.00     0.014 A 
ATOM     32  C   UNL A   1      41.315  24.191  28.300  1.00  0.00     0.010 A 
ATOM     33  C   UNL A   1      40.054  25.189  26.488  1.00  0.00     0.010 A 
ATOM     34  C   UNL A   1      40.939  25.329  27.566  1.00  0.00    -0.014 A 
BRANCH  34  35
ATOM     35  C   UNL A   1      41.461  26.674  27.916  1.00  0.00     0.031 A 
ATOM     36  C   UNL A   1      42.896  27.026  27.625  1.00  0.00     0.074 A 
ATOM     37  C   UNL A   1      40.667  27.550  28.562  1.00  0.00     0.049 A 
ATOM     38  N   UNL A   1      43.548  28.125  27.902  1.00  0.00    -0.248 NA
ATOM     39  C   UNL A   1      43.713  25.998  26.956  1.00  0.00     0.031 C 
ATOM     40  C   UNL A   1      39.281  27.298  28.964  1.00  0.00     0.029 A 
ATOM     41  N   UNL A   1      40.917  28.820  29.015  1.00  0.00    -0.354 N 
ATOM     42  C   UNL A   1      44.851  27.914  27.469  1.00  0.00     0.074 A 
ATOM     43  C   UNL A   1      44.910  26.566  26.950  1.00  0.00     0.031 C 
ATOM     44  C   UNL A   1      38.803  28.380  29.600  1.00  0.00     0.029 A 
ATOM     45  C   UNL A   1      39.855  29.389  29.679  1.00  0.00     0.049 A 
ATOM     46  H   UNL A   1      41.776  29.282  28.878  1.00  0.00     0.167 HD
ATOM     47  C   UNL A   1      45.897  28.775  27.470  1.00  0.00     0.034 A 
ATOM     48  C   UNL A   1      39.744  30.585  30.289  1.00  0.00     0.034 A 
ATOM     49  C   UNL A   1      45.824  30.126  27.957  1.00  0.00     0.049 A 
ATOM     50  C   UNL A   1      40.915  31.529  30.259  1.00  0.00     0.074 A 
ATOM     51  C   UNL A   1      46.807  31.100  27.942  1.00  0.00     0.029 A 
ATOM     52  N   UNL A   1      44.707  30.694  28.550  1.00  0.00    -0.354 N 
ATOM     53  N   UNL A   1      42.095  31.365  29.711  1.00  0.00    -0.248 NA
ATOM     54  C   UNL A   1      40.729  32.840  30.898  1.00  0.00     0.031 C 
ATOM     55  C   UNL A   1      46.290  32.251  28.546  1.00  0.00     0.029 A 
ATOM     56  C   UNL A   1      44.976  32.003  28.909  1.00  0.00     0.049 A 
ATOM     57  H   UNL A   1      43.849  30.233  28.693  1.00  0.00     0.167 HD
ATOM     58  C   UNL A   1      42.775  32.563  29.902  1.00  0.00     0.074 A 
ATOM     59  C   UNL A   1      41.867  33.450  30.598  1.00  0.00     0.031 C 
ATOM     60  C   UNL A   1      44.042  32.893  29.548  1.00  0.00     0.034 A 
BRANCH  47  61
ATOM     61  C   UNL A   1      47.196  28.298  26.873  1.00  0.00     0.023 A 
ATOM     62  C   UNL A   1      48.282  28.001  27.722  1.00  0.00     0.012 A 
ATOM     63  C   UNL A   1      47.327  28.086  25.486  1.00  0.00     0.148 A 
ATOM     64  C   UNL A   1      49.489  27.539  27.201  1.00  0.00     0.002 A 
ATOM     65  C   UNL A   1      48.518  27.580  24.978  1.00  0.00     0.091 A 
ATOM     66  F   UNL A   1      46.292  28.391  24.692  1.00  0.00    -0.205 F 
ATOM     67  C   UNL A   1      49.603  27.318  25.831  1.00  0.00     0.022 A 
BRANCH  65  68
ATOM     68  S   UNL A   1      48.743  27.186  23.240  1.00  0.00     0.127 S 
ATOM     69  O   UNL A   1      48.044  28.296  22.593  1.00  0.00    -0.237 OA
ATOM     70  O   UNL A   1      50.199  27.220  23.103  1.00  0.00    -0.237 OA
ATOM     71  O   UNL A   1      48.144  25.874  23.044  1.00  0.00    -0.744 OA
ENDBRANCH  65  68
ENDBRANCH  47  61
BRANCH  48  72
ATOM     72  C   UNL A   1      38.459  30.984  30.932  1.00  0.00     0.023 A 
ATOM     73  C   UNL A   1      38.258  30.721  32.302  1.00  0.00     0.012 A 
ATOM     74  C   UNL A   1      37.441  31.625  30.201  1.00  0.00     0.148 A 
ATOM     75  C   UNL A   1      37.052  31.051  32.921  1.00  0.00     0.002 A 
ATOM     76  C   UNL A   1      36.264  32.003  30.837  1.00  0.00     0.091 A 
ATOM     77  F   UNL A   1      37.644  31.857  28.896  1.00  0.00    -0.205 F 
ATOM     78  C   UNL A   1      36.059  31.700  32.192  1.00  0.00     0.022 A 
BRANCH  76  79
ATOM     79  S   UNL A   1      34.988  32.958  30.008  1.00  0.00     0.127 S 
ATOM     80  O   UNL A   1      34.459  31.986  29.056  1.00  0.00    -0.237 OA
ATOM     81  O   UNL A   1      34.090  33.290  31.115  1.00  0.00    -0.237 OA
ATOM     82  O   UNL A   1      35.674  34.107  29.430  1.00  0.00    -0.744 OA
ENDBRANCH  76  79
ENDBRANCH  48  72
BRANCH  60  83
ATOM     83  C   UNL A   1      44.512  34.289  29.863  1.00  0.00     0.023 A 
ATOM     84  C   UNL A   1      45.218  34.543  31.055  1.00  0.00     0.012 A 
ATOM     85  C   UNL A   1      44.314  35.336  28.940  1.00  0.00     0.148 A 
ATOM     86  C   UNL A   1      45.688  35.824  31.341  1.00  0.00     0.002 A 
ATOM     87  C   UNL A   1      44.831  36.597  29.208  1.00  0.00     0.091 A 
ATOM     88  F   UNL A   1      43.624  35.078  27.819  1.00  0.00    -0.205 F 
ATOM     89  C   UNL A   1      45.506  36.847  30.414  1.00  0.00     0.022 A 
BRANCH  87  90
ATOM     90  S   UNL A   1      44.731  37.950  28.029  1.00  0.00     0.127 S 
ATOM     91  O   UNL A   1      45.421  37.386  26.870  1.00  0.00    -0.237 OA
ATOM     92  O   UNL A   1      43.287  38.110  27.863  1.00  0.00    -0.237 OA
ATOM     93  O   UNL A   1      45.396  39.082  28.660  1.00  0.00    -0.744 OA
ENDBRANCH  87  90
ENDBRANCH  60  83
ENDBRANCH  34  35
ENDBRANCH  26  29
ENDBRANCH  24  25
ENDBRANCH  23  24
ENDBRANCH   1  23
TORSDOF 18
ENDMDL
MODEL 3
REMARK VINA RESULT:     -11.1      4.658      9.585
REMARK SMILES CC1(C)O[C@](C)(C(C)(C)O)CC[C@H]1C(=O)NCCCCCCNC(=O)c1ccc(-c2c3nc(c(-c4cccc(S(=O)(=O)[O-])c4F)c4ccc([nH]4)c(-c4cccc(S(=O)(=O)[O-])c4F)c4nc(c(-c5cccc(S(=O)(=O)[O-])c5F)c5ccc2[nH]5)C=C4)C=C3)cc1
REMARK SMILES IDX 20 1 19 2 18 3 17 4 16 5 14 6 15 7 13 9 1 10 2 11 3 12 4 13
REMARK SMILES IDX 5 14 12 15 6 16 11 17 7 18 8 19 9 20 10 21 21 23 22 24 23 25
REMARK SMILES IDX 24 26 25 28 26 29 27 30 88 31 28 32 87 33 29 34 30 35 31 36
REMARK SMILES IDX 81 37 32 38 86 39 80 40 82 41 33 42 85 43 79 44 78 45 34 47
REMARK SMILES IDX 66 48 46 49 65 50 47 51 50 52 64 53 83 54 48 55 49 56 63 58
REMARK SMILES IDX 84 59 51 60 35 61 36 62 44 63 37 64 39 65 45 66 38 67 40 68
REMARK SMILES IDX 41 69 42 70 43 71 67 72 68 73 76 74 69 75 71 76 77 77 70 78
REMARK SMILES IDX 72 79 73 80 74 81 75 82 52 83 53 84 61 85 54 86 56 87 62 88
REMARK SMILES IDX 55 89 57 90 58 91 59 92 60 93
REMARK H PARENT 16 8 10 22 23 27 82 46 50 57
REMARK Flexibility Score: inf
ROOT
ATOM      1  C   UNL A   1      31.268  27.403  26.679  1.00  0.00     0.002 C 
ENDROOT
BRANCH   1   2
ATOM      2  C   UNL A   1      31.375  27.209  25.164  1.00  0.00     0.002 C 
BRANCH   2   3
ATOM      3  C   UNL A   1      30.276  26.343  24.551  1.00  0.00     0.021 C 
BRANCH   3   4
ATOM      4  C   UNL A   1      30.740  24.949  24.135  1.00  0.00     0.116 C 
BRANCH   4   5
ATOM      5  N   UNL A   1      30.250  23.942  25.053  1.00  0.00    -0.356 N 
ATOM      6  C   UNL A   1      30.882  22.937  25.710  1.00  0.00     0.226 C 
ATOM      7  O   UNL A   1      30.163  22.158  26.347  1.00  0.00    -0.275 OA
ATOM      8  H   UNL A   1      29.284  23.998  25.233  1.00  0.00     0.163 HD
BRANCH   6   9
ATOM      9  C   UNL A   1      32.400  22.744  25.711  1.00  0.00     0.110 C 
ATOM     10  C   UNL A   1      32.457  22.017  23.157  1.00  0.00     0.043 C 
ATOM     11  C   UNL A   1      32.982  21.841  24.584  1.00  0.00     0.075 C 
ATOM     12  C   UNL A   1      32.648  20.369  24.940  1.00  0.00     0.043 C 
ATOM     13  O   UNL A   1      34.419  21.872  24.529  1.00  0.00    -0.366 OA
ATOM     14  C   UNL A   1      35.128  23.115  24.688  1.00  0.00     0.094 C 
ATOM     15  C   UNL A   1      33.174  24.023  26.042  1.00  0.00     0.019 C 
ATOM     16  C   UNL A   1      34.890  24.087  23.509  1.00  0.00     0.045 C 
ATOM     17  C   UNL A   1      34.678  23.776  26.006  1.00  0.00     0.039 C 
BRANCH  14  18
ATOM     18  C   UNL A   1      36.670  22.747  24.721  1.00  0.00     0.088 C 
ATOM     19  C   UNL A   1      37.432  23.469  25.843  1.00  0.00     0.045 C 
ATOM     20  C   UNL A   1      36.886  21.230  24.902  1.00  0.00     0.045 C 
BRANCH  18  21
ATOM     21  O   UNL A   1      37.282  23.141  23.483  1.00  0.00    -0.387 OA
ATOM     22  H   UNL A   1      37.609  22.354  23.019  1.00  0.00     0.211 HD
ENDBRANCH  18  21
ENDBRANCH  14  18
ENDBRANCH   6   9
ENDBRANCH   4   5
ENDBRANCH   3   4
ENDBRANCH   2   3
ENDBRANCH   1   2
BRANCH   1  23
ATOM     23  C   UNL A   1      31.730  28.769  27.194  1.00  0.00     0.021 C 
BRANCH  23  24
ATOM     24  C   UNL A   1      32.615  29.552  26.229  1.00  0.00     0.116 C 
BRANCH  24  25
ATOM     25  N   UNL A   1      32.487  30.988  26.420  1.00  0.00    -0.352 N 
ATOM     26  C   UNL A   1      33.210  31.821  27.235  1.00  0.00     0.251 C 
ATOM     27  H   UNL A   1      31.781  31.423  25.888  1.00  0.00     0.163 HD
ATOM     28  O   UNL A   1      32.825  32.966  27.443  1.00  0.00    -0.269 OA
BRANCH  26  29
ATOM     29  C   UNL A   1      34.447  31.323  27.868  1.00  0.00     0.039 A 
ATOM     30  C   UNL A   1      35.538  32.185  27.995  1.00  0.00     0.014 A 
ATOM     31  C   UNL A   1      34.527  30.007  28.332  1.00  0.00     0.014 A 
ATOM     32  C   UNL A   1      36.697  31.740  28.633  1.00  0.00     0.010 A 
ATOM     33  C   UNL A   1      35.655  29.589  29.032  1.00  0.00     0.010 A 
ATOM     34  C   UNL A   1      36.755  30.446  29.179  1.00  0.00    -0.014 A 
BRANCH  34  35
ATOM     35  C   UNL A   1      37.961  29.973  29.905  1.00  0.00     0.031 A 
ATOM     36  C   UNL A   1      38.254  30.480  31.292  1.00  0.00     0.074 A 
ATOM     37  C   UNL A   1      38.829  29.147  29.289  1.00  0.00     0.049 A 
ATOM     38  N   UNL A   1      39.280  30.226  32.063  1.00  0.00    -0.248 NA
ATOM     39  C   UNL A   1      37.280  31.416  31.881  1.00  0.00     0.031 C 
ATOM     40  C   UNL A   1      38.692  28.645  27.920  1.00  0.00     0.029 A 
ATOM     41  N   UNL A   1      40.011  28.603  29.724  1.00  0.00    -0.354 N 
ATOM     42  C   UNL A   1      39.090  30.986  33.211  1.00  0.00     0.074 A 
ATOM     43  C   UNL A   1      37.873  31.745  33.019  1.00  0.00     0.031 C 
ATOM     44  C   UNL A   1      39.745  27.864  27.629  1.00  0.00     0.029 A 
ATOM     45  C   UNL A   1      40.647  27.834  28.776  1.00  0.00     0.049 A 
ATOM     46  H   UNL A   1      40.370  28.748  30.629  1.00  0.00     0.167 HD
ATOM     47  C   UNL A   1      39.840  31.024  34.338  1.00  0.00     0.034 A 
ATOM     48  C   UNL A   1      41.827  27.187  28.825  1.00  0.00     0.034 A 
ATOM     49  C   UNL A   1      41.030  30.243  34.538  1.00  0.00     0.049 A 
ATOM     50  C   UNL A   1      42.630  27.231  30.096  1.00  0.00     0.074 A 
ATOM     51  C   UNL A   1      41.824  30.159  35.668  1.00  0.00     0.029 A 
ATOM     52  N   UNL A   1      41.600  29.413  33.585  1.00  0.00    -0.354 N 
ATOM     53  N   UNL A   1      42.357  27.837  31.226  1.00  0.00    -0.248 NA
ATOM     54  C   UNL A   1      43.887  26.469  30.115  1.00  0.00     0.031 C 
ATOM     55  C   UNL A   1      42.887  29.294  35.389  1.00  0.00     0.029 A 
ATOM     56  C   UNL A   1      42.738  28.817  34.097  1.00  0.00     0.049 A 
ATOM     57  H   UNL A   1      41.246  29.270  32.677  1.00  0.00     0.167 HD
ATOM     58  C   UNL A   1      43.384  27.499  32.100  1.00  0.00     0.074 A 
ATOM     59  C   UNL A   1      44.273  26.616  31.375  1.00  0.00     0.031 C 
ATOM     60  C   UNL A   1      43.581  27.894  33.382  1.00  0.00     0.034 A 
BRANCH  47  61
ATOM     61  C   UNL A   1      39.359  31.899  35.468  1.00  0.00     0.023 A 
ATOM     62  C   UNL A   1      38.473  31.369  36.428  1.00  0.00     0.012 A 
ATOM     63  C   UNL A   1      39.825  33.221  35.617  1.00  0.00     0.148 A 
ATOM     64  C   UNL A   1      38.028  32.146  37.495  1.00  0.00     0.002 A 
ATOM     65  C   UNL A   1      39.414  33.976  36.709  1.00  0.00     0.091 A 
ATOM     66  F   UNL A   1      40.652  33.716  34.685  1.00  0.00    -0.205 F 
ATOM     67  C   UNL A   1      38.506  33.445  37.642  1.00  0.00     0.022 A 
BRANCH  65  68
ATOM     68  S   UNL A   1      40.031  35.631  37.034  1.00  0.00     0.127 S 
ATOM     69  O   UNL A   1      39.336  35.966  38.276  1.00  0.00    -0.237 OA
ATOM     70  O   UNL A   1      41.468  35.400  37.183  1.00  0.00    -0.237 OA
ATOM     71  O   UNL A   1      39.661  36.433  35.877  1.00  0.00    -0.744 OA
ENDBRANCH  65  68
ENDBRANCH  47  61
BRANCH  48  72
ATOM     72  C   UNL A   1      42.296  26.392  27.654  1.00  0.00     0.023 A 
ATOM     73  C   UNL A   1      43.086  27.014  26.666  1.00  0.00     0.012 A 
ATOM     74  C   UNL A   1      41.972  25.029  27.514  1.00  0.00     0.148 A 
ATOM     75  C   UNL A   1      43.509  26.304  25.542  1.00  0.00     0.002 A 
ATOM     76  C   UNL A   1      42.444  24.313  26.420  1.00  0.00     0.091 A 
ATOM     77  F   UNL A   1      41.209  24.457  28.456  1.00  0.00    -0.205 F 
ATOM     78  C   UNL A   1      43.196  24.953  25.423  1.00  0.00     0.022 A 
BRANCH  76  79
ATOM     79  S   UNL A   1      42.199  22.541  26.254  1.00  0.00     0.127 S 
ATOM     80  O   UNL A   1      42.885  22.260  24.997  1.00  0.00    -0.237 OA
ATOM     81  O   UNL A   1      42.870  22.029  27.450  1.00  0.00    -0.237 OA
ATOM     82  O   UNL A   1      40.755  22.345  26.250  1.00  0.00    -0.744 OA
ENDBRANCH  76  79
ENDBRANCH  48  72
BRANCH  60  83
ATOM     83  C   UNL A   1      44.782  27.341  34.105  1.00  0.00     0.023 A 
ATOM     84  C   UNL A   1      45.999  28.049  34.094  1.00  0.00     0.012 A 
ATOM     85  C   UNL A   1      44.679  26.152  34.856  1.00  0.00     0.148 A 
ATOM     86  C   UNL A   1      47.107  27.564  34.788  1.00  0.00     0.002 A 
ATOM     87  C   UNL A   1      45.771  25.703  35.588  1.00  0.00     0.091 A 
ATOM     88  F   UNL A   1      43.516  25.484  34.840  1.00  0.00    -0.205 F 
ATOM     89  C   UNL A   1      46.990  26.400  35.544  1.00  0.00     0.022 A 
BRANCH  87  90
ATOM     90  S   UNL A   1      45.685  24.270  36.668  1.00  0.00     0.127 S 
ATOM     91  O   UNL A   1      46.934  24.389  37.419  1.00  0.00    -0.237 OA
ATOM     92  O   UNL A   1      44.476  24.541  37.445  1.00  0.00    -0.237 OA
ATOM     93  O   UNL A   1      45.593  23.111  35.790  1.00  0.00    -0.744 OA
ENDBRANCH  87  90
ENDBRANCH  60  83
ENDBRANCH  34  35
ENDBRANCH  26  29
ENDBRANCH  24  25
ENDBRANCH  23  24
ENDBRANCH   1  23
TORSDOF 18
ENDMDL
