MODEL 1
REMARK VINA RESULT:      -8.4      0.000      0.000
REMARK SMILES C=Cc1cccc(-c2ccc([C@@H](C)C(=O)NCCCCCCNC(=O)c3ccc(-c4c5nc(c(-c6cccc(S(=O)(=O)[O-])c6F)c6ccc([nH]6)c(-c6cccc(S(=O)(=O)[O-])c6F)c6nc(c(-c7cccc(S(=O)(=O)[O-])c7F)c7ccc4[nH]7)C=C6)C=C5)cc3)cc2)c1
REMARK SMILES IDX 19 1 18 2 17 3 16 4 14 5 15 6 12 8 13 9 11 10 8 11 9 12
REMARK SMILES IDX 90 13 10 14 89 15 7 16 3 17 4 18 91 19 5 20 6 21 2 22 1 23
REMARK SMILES IDX 20 24 21 25 22 26 23 27 24 28 25 30 26 31 27 32 88 33 28 34
REMARK SMILES IDX 87 35 29 36 30 37 31 38 81 39 32 40 86 41 80 42 82 43 33 44
REMARK SMILES IDX 85 45 79 46 78 47 34 49 66 50 46 51 65 52 47 53 50 54 64 55
REMARK SMILES IDX 83 56 48 57 49 58 63 60 84 61 51 62 35 63 36 64 44 65 37 66
REMARK SMILES IDX 39 67 45 68 38 69 40 70 41 71 42 72 43 73 67 74 68 75 76 76
REMARK SMILES IDX 69 77 71 78 77 79 70 80 72 81 73 82 74 83 75 84 52 85 53 86
REMARK SMILES IDX 61 87 54 88 56 89 62 90 55 91 57 92 58 93 59 94 60 95
REMARK H PARENT 16 7 23 29 82 48 50 59
REMARK Flexibility Score: inf
ROOT
ATOM      1  C   UNL A   1      43.615  35.705  33.188  1.00  0.00     0.002 C 
ENDROOT
BRANCH   1   2
ATOM      2  C   UNL A   1      43.263  34.219  33.061  1.00  0.00     0.021 C 
BRANCH   2   3
ATOM      3  C   UNL A   1      42.029  33.811  33.871  1.00  0.00     0.116 C 
BRANCH   3   4
ATOM      4  N   UNL A   1      42.386  32.974  34.998  1.00  0.00    -0.356 N 
ATOM      5  C   UNL A   1      42.106  31.672  35.279  1.00  0.00     0.227 C 
ATOM      6  O   UNL A   1      42.478  31.260  36.385  1.00  0.00    -0.274 OA
ATOM      7  H   UNL A   1      42.928  33.429  35.682  1.00  0.00     0.163 HD
BRANCH   5   8
ATOM      8  C   UNL A   1      41.401  30.719  34.303  1.00  0.00     0.105 C 
ATOM      9  C   UNL A   1      40.202  29.987  34.912  1.00  0.00     0.023 C 
BRANCH   8  10
ATOM     10  C   UNL A   1      42.351  29.859  33.482  1.00  0.00    -0.036 A 
ATOM     11  C   UNL A   1      44.052  28.248  31.837  1.00  0.00    -0.018 A 
ATOM     12  C   UNL A   1      44.478  29.475  32.366  1.00  0.00     0.009 A 
ATOM     13  C   UNL A   1      42.752  27.836  32.168  1.00  0.00     0.009 A 
ATOM     14  C   UNL A   1      43.664  30.239  33.204  1.00  0.00     0.005 A 
ATOM     15  C   UNL A   1      41.909  28.635  32.957  1.00  0.00     0.005 A 
BRANCH  11  16
ATOM     16  C   UNL A   1      44.961  27.437  30.993  1.00  0.00    -0.018 A 
ATOM     17  C   UNL A   1      45.435  25.449  29.628  1.00  0.00    -0.026 A 
ATOM     18  C   UNL A   1      46.718  25.938  29.363  1.00  0.00     0.008 A 
ATOM     19  C   UNL A   1      44.569  26.201  30.441  1.00  0.00     0.016 A 
ATOM     20  C   UNL A   1      47.129  27.156  29.892  1.00  0.00     0.001 A 
ATOM     21  C   UNL A   1      46.262  27.888  30.704  1.00  0.00     0.009 A 
BRANCH  17  22
ATOM     22  C   UNL A   1      45.066  24.135  29.088  1.00  0.00     0.000 C 
ATOM     23  C   UNL A   1      44.360  23.216  29.758  1.00  0.00     0.009 C 
ENDBRANCH  17  22
ENDBRANCH  11  16
ENDBRANCH   8  10
ENDBRANCH   5   8
ENDBRANCH   3   4
ENDBRANCH   2   3
ENDBRANCH   1   2
BRANCH   1  24
ATOM     24  C   UNL A   1      44.820  36.005  34.090  1.00  0.00     0.002 C 
BRANCH  24  25
ATOM     25  C   UNL A   1      45.997  36.697  33.397  1.00  0.00     0.021 C 
BRANCH  25  26
ATOM     26  C   UNL A   1      45.723  37.114  31.955  1.00  0.00     0.116 C 
BRANCH  26  27
ATOM     27  N   UNL A   1      46.941  37.111  31.156  1.00  0.00    -0.352 N 
ATOM     28  C   UNL A   1      47.497  36.094  30.420  1.00  0.00     0.251 C 
ATOM     29  H   UNL A   1      47.437  37.961  31.143  1.00  0.00     0.163 HD
ATOM     30  O   UNL A   1      48.653  36.183  30.021  1.00  0.00    -0.269 OA
BRANCH  28  31
ATOM     31  C   UNL A   1      46.694  34.892  30.112  1.00  0.00     0.039 A 
ATOM     32  C   UNL A   1      45.886  34.883  28.973  1.00  0.00     0.014 A 
ATOM     33  C   UNL A   1      46.733  33.780  30.958  1.00  0.00     0.014 A 
ATOM     34  C   UNL A   1      45.158  33.735  28.652  1.00  0.00     0.010 A 
ATOM     35  C   UNL A   1      46.067  32.614  30.597  1.00  0.00     0.010 A 
ATOM     36  C   UNL A   1      45.267  32.580  29.446  1.00  0.00    -0.014 A 
BRANCH  36  37
ATOM     37  C   UNL A   1      44.561  31.325  29.086  1.00  0.00     0.031 A 
ATOM     38  C   UNL A   1      45.227  30.311  28.195  1.00  0.00     0.074 A 
ATOM     39  C   UNL A   1      43.288  31.140  29.487  1.00  0.00     0.049 A 
ATOM     40  N   UNL A   1      44.745  29.194  27.714  1.00  0.00    -0.248 NA
ATOM     41  C   UNL A   1      46.604  30.602  27.765  1.00  0.00     0.031 C 
ATOM     42  C   UNL A   1      42.509  32.084  30.292  1.00  0.00     0.029 A 
ATOM     43  N   UNL A   1      42.413  30.110  29.247  1.00  0.00    -0.354 N 
ATOM     44  C   UNL A   1      45.742  28.669  26.901  1.00  0.00     0.074 A 
ATOM     45  C   UNL A   1      46.844  29.606  26.925  1.00  0.00     0.031 C 
ATOM     46  C   UNL A   1      41.277  31.588  30.483  1.00  0.00     0.029 A 
ATOM     47  C   UNL A   1      41.163  30.311  29.786  1.00  0.00     0.049 A 
ATOM     48  H   UNL A   1      42.656  29.303  28.738  1.00  0.00     0.167 HD
ATOM     49  C   UNL A   1      45.754  27.498  26.219  1.00  0.00     0.034 A 
ATOM     50  C   UNL A   1      40.047  29.558  29.714  1.00  0.00     0.034 A 
ATOM     51  C   UNL A   1      44.670  26.553  26.228  1.00  0.00     0.049 A 
ATOM     52  C   UNL A   1      40.094  28.252  28.968  1.00  0.00     0.074 A 
ATOM     53  C   UNL A   1      44.615  25.303  25.638  1.00  0.00     0.029 A 
ATOM     54  N   UNL A   1      43.448  26.755  26.850  1.00  0.00    -0.354 N 
ATOM     55  N   UNL A   1      41.099  27.702  28.331  1.00  0.00    -0.248 NA
ATOM     56  C   UNL A   1      38.864  27.446  28.961  1.00  0.00     0.031 C 
ATOM     57  C   UNL A   1      43.347  24.763  25.876  1.00  0.00     0.029 A 
ATOM     58  C   UNL A   1      42.626  25.661  26.647  1.00  0.00     0.049 A 
ATOM     59  H   UNL A   1      43.200  27.561  27.360  1.00  0.00     0.167 HD
ATOM     60  C   UNL A   1      40.637  26.470  27.883  1.00  0.00     0.074 A 
ATOM     61  C   UNL A   1      39.267  26.348  28.337  1.00  0.00     0.031 C 
ATOM     62  C   UNL A   1      41.283  25.530  27.151  1.00  0.00     0.034 A 
BRANCH  49  63
ATOM     63  C   UNL A   1      46.997  27.152  25.442  1.00  0.00     0.023 A 
ATOM     64  C   UNL A   1      47.953  26.280  26.006  1.00  0.00     0.012 A 
ATOM     65  C   UNL A   1      47.194  27.636  24.134  1.00  0.00     0.148 A 
ATOM     66  C   UNL A   1      49.099  25.927  25.297  1.00  0.00     0.002 A 
ATOM     67  C   UNL A   1      48.317  27.241  23.416  1.00  0.00     0.091 A 
ATOM     68  F   UNL A   1      46.286  28.478  23.620  1.00  0.00    -0.205 F 
ATOM     69  C   UNL A   1      49.276  26.398  24.000  1.00  0.00     0.022 A 
BRANCH  67  70
ATOM     70  S   UNL A   1      48.596  27.726  21.708  1.00  0.00     0.127 S 
ATOM     71  O   UNL A   1      47.712  28.884  21.582  1.00  0.00    -0.237 OA
ATOM     72  O   UNL A   1      50.024  28.047  21.711  1.00  0.00    -0.237 OA
ATOM     73  O   UNL A   1      48.232  26.573  20.897  1.00  0.00    -0.744 OA
ENDBRANCH  67  70
ENDBRANCH  49  63
BRANCH  50  74
ATOM     74  C   UNL A   1      38.806  29.995  30.416  1.00  0.00     0.023 A 
ATOM     75  C   UNL A   1      38.615  29.644  31.767  1.00  0.00     0.012 A 
ATOM     76  C   UNL A   1      37.827  30.766  29.762  1.00  0.00     0.148 A 
ATOM     77  C   UNL A   1      37.455  30.021  32.443  1.00  0.00     0.002 A 
ATOM     78  C   UNL A   1      36.699  31.188  30.458  1.00  0.00     0.091 A 
ATOM     79  F   UNL A   1      38.022  31.083  28.474  1.00  0.00    -0.205 F 
ATOM     80  C   UNL A   1      36.503  30.800  31.792  1.00  0.00     0.022 A 
BRANCH  78  81
ATOM     81  S   UNL A   1      35.486  32.302  29.741  1.00  0.00     0.127 S 
ATOM     82  O   UNL A   1      36.327  33.408  29.289  1.00  0.00    -0.237 OA
ATOM     83  O   UNL A   1      34.918  31.481  28.672  1.00  0.00    -0.237 OA
ATOM     84  O   UNL A   1      34.554  32.614  30.816  1.00  0.00    -0.744 OA
ENDBRANCH  78  81
ENDBRANCH  50  74
BRANCH  62  85
ATOM     85  C   UNL A   1      40.540  24.260  26.828  1.00  0.00     0.023 A 
ATOM     86  C   UNL A   1      39.216  24.319  26.351  1.00  0.00     0.012 A 
ATOM     87  C   UNL A   1      41.186  23.011  26.923  1.00  0.00     0.148 A 
ATOM     88  C   UNL A   1      38.535  23.152  26.006  1.00  0.00     0.002 A 
ATOM     89  C   UNL A   1      40.519  21.858  26.527  1.00  0.00     0.091 A 
ATOM     90  F   UNL A   1      42.440  22.974  27.396  1.00  0.00    -0.205 F 
ATOM     91  C   UNL A   1      39.191  21.925  26.081  1.00  0.00     0.022 A 
BRANCH  89  92
ATOM     92  S   UNL A   1      41.314  20.247  26.496  1.00  0.00     0.127 S 
ATOM     93  O   UNL A   1      40.213  19.381  26.078  1.00  0.00    -0.237 OA
ATOM     94  O   UNL A   1      42.358  20.438  25.488  1.00  0.00    -0.237 OA
ATOM     95  O   UNL A   1      41.810  20.016  27.846  1.00  0.00    -0.744 OA
ENDBRANCH  89  92
ENDBRANCH  62  85
ENDBRANCH  36  37
ENDBRANCH  28  31
ENDBRANCH  26  27
ENDBRANCH  25  26
ENDBRANCH  24  25
ENDBRANCH   1  24
TORSDOF 19
ENDMDL
MODEL 2
REMARK VINA RESULT:      -8.3      3.691     10.841
REMARK SMILES C=Cc1cccc(-c2ccc([C@@H](C)C(=O)NCCCCCCNC(=O)c3ccc(-c4c5nc(c(-c6cccc(S(=O)(=O)[O-])c6F)c6ccc([nH]6)c(-c6cccc(S(=O)(=O)[O-])c6F)c6nc(c(-c7cccc(S(=O)(=O)[O-])c7F)c7ccc4[nH]7)C=C6)C=C5)cc3)cc2)c1
REMARK SMILES IDX 19 1 18 2 17 3 16 4 14 5 15 6 12 8 13 9 11 10 8 11 9 12
REMARK SMILES IDX 90 13 10 14 89 15 7 16 3 17 4 18 91 19 5 20 6 21 2 22 1 23
REMARK SMILES IDX 20 24 21 25 22 26 23 27 24 28 25 30 26 31 27 32 88 33 28 34
REMARK SMILES IDX 87 35 29 36 30 37 31 38 81 39 32 40 86 41 80 42 82 43 33 44
REMARK SMILES IDX 85 45 79 46 78 47 34 49 66 50 46 51 65 52 47 53 50 54 64 55
REMARK SMILES IDX 83 56 48 57 49 58 63 60 84 61 51 62 35 63 36 64 44 65 37 66
REMARK SMILES IDX 39 67 45 68 38 69 40 70 41 71 42 72 43 73 67 74 68 75 76 76
REMARK SMILES IDX 69 77 71 78 77 79 70 80 72 81 73 82 74 83 75 84 52 85 53 86
REMARK SMILES IDX 61 87 54 88 56 89 62 90 55 91 57 92 58 93 59 94 60 95
REMARK H PARENT 16 7 23 29 82 48 50 59
REMARK Flexibility Score: inf
ROOT
ATOM      1  C   UNL A   1      47.158  24.710  27.205  1.00  0.00     0.002 C 
ENDROOT
BRANCH   1   2
ATOM      2  C   UNL A   1      46.366  23.504  26.689  1.00  0.00     0.021 C 
BRANCH   2   3
ATOM      3  C   UNL A   1      44.924  23.455  27.199  1.00  0.00     0.116 C 
BRANCH   3   4
ATOM      4  N   UNL A   1      44.026  22.913  26.200  1.00  0.00    -0.356 N 
ATOM      5  C   UNL A   1      42.776  22.384  26.304  1.00  0.00     0.227 C 
ATOM      6  O   UNL A   1      42.295  21.910  25.266  1.00  0.00    -0.274 OA
ATOM      7  H   UNL A   1      44.383  22.931  25.284  1.00  0.00     0.163 HD
BRANCH   5   8
ATOM      8  C   UNL A   1      41.954  22.377  27.602  1.00  0.00     0.105 C 
ATOM      9  C   UNL A   1      41.117  21.111  27.796  1.00  0.00     0.023 C 
BRANCH   8  10
ATOM     10  C   UNL A   1      41.242  23.690  27.890  1.00  0.00    -0.036 A 
ATOM     11  C   UNL A   1      40.001  26.225  28.374  1.00  0.00    -0.018 A 
ATOM     12  C   UNL A   1      39.367  25.219  27.631  1.00  0.00     0.009 A 
ATOM     13  C   UNL A   1      41.272  25.924  28.887  1.00  0.00     0.009 A 
ATOM     14  C   UNL A   1      39.954  23.967  27.433  1.00  0.00     0.005 A 
ATOM     15  C   UNL A   1      41.891  24.689  28.633  1.00  0.00     0.005 A 
BRANCH  11  16
ATOM     16  C   UNL A   1      39.328  27.523  28.610  1.00  0.00    -0.018 A 
ATOM     17  C   UNL A   1      38.061  29.067  30.041  1.00  0.00    -0.026 A 
ATOM     18  C   UNL A   1      38.083  30.027  29.026  1.00  0.00     0.008 A 
ATOM     19  C   UNL A   1      38.681  27.824  29.825  1.00  0.00     0.016 A 
ATOM     20  C   UNL A   1      38.718  29.758  27.818  1.00  0.00     0.001 A 
ATOM     21  C   UNL A   1      39.322  28.518  27.613  1.00  0.00     0.009 A 
BRANCH  17  22
ATOM     22  C   UNL A   1      37.336  29.380  31.279  1.00  0.00     0.000 C 
ATOM     23  C   UNL A   1      37.733  29.007  32.501  1.00  0.00     0.009 C 
ENDBRANCH  17  22
ENDBRANCH  11  16
ENDBRANCH   8  10
ENDBRANCH   5   8
ENDBRANCH   3   4
ENDBRANCH   2   3
ENDBRANCH   1   2
BRANCH   1  24
ATOM     24  C   UNL A   1      47.928  25.483  26.125  1.00  0.00     0.002 C 
BRANCH  24  25
ATOM     25  C   UNL A   1      47.138  25.781  24.847  1.00  0.00     0.021 C 
BRANCH  25  26
ATOM     26  C   UNL A   1      46.063  26.852  25.005  1.00  0.00     0.116 C 
BRANCH  26  27
ATOM     27  N   UNL A   1      44.725  26.288  24.895  1.00  0.00    -0.352 N 
ATOM     28  C   UNL A   1      43.611  26.535  25.659  1.00  0.00     0.251 C 
ATOM     29  H   UNL A   1      44.601  25.636  24.168  1.00  0.00     0.163 HD
ATOM     30  O   UNL A   1      42.642  25.786  25.594  1.00  0.00    -0.269 OA
BRANCH  28  31
ATOM     31  C   UNL A   1      43.589  27.705  26.561  1.00  0.00     0.039 A 
ATOM     32  C   UNL A   1      44.261  27.639  27.784  1.00  0.00     0.014 A 
ATOM     33  C   UNL A   1      42.893  28.862  26.201  1.00  0.00     0.014 A 
ATOM     34  C   UNL A   1      44.280  28.755  28.622  1.00  0.00     0.010 A 
ATOM     35  C   UNL A   1      42.976  29.996  27.001  1.00  0.00     0.010 A 
ATOM     36  C   UNL A   1      43.663  29.953  28.224  1.00  0.00    -0.014 A 
BRANCH  36  37
ATOM     37  C   UNL A   1      43.732  31.176  29.064  1.00  0.00     0.031 A 
ATOM     38  C   UNL A   1      44.933  32.079  28.989  1.00  0.00     0.074 A 
ATOM     39  C   UNL A   1      42.755  31.423  29.958  1.00  0.00     0.049 A 
ATOM     40  N   UNL A   1      45.208  33.147  29.692  1.00  0.00    -0.248 NA
ATOM     41  C   UNL A   1      45.978  31.721  28.015  1.00  0.00     0.031 C 
ATOM     42  C   UNL A   1      41.576  30.583  30.177  1.00  0.00     0.029 A 
ATOM     43  N   UNL A   1      42.613  32.437  30.873  1.00  0.00    -0.354 N 
ATOM     44  C   UNL A   1      46.464  33.567  29.274  1.00  0.00     0.074 A 
ATOM     45  C   UNL A   1      46.916  32.619  28.279  1.00  0.00     0.031 C 
ATOM     46  C   UNL A   1      40.829  31.117  31.156  1.00  0.00     0.029 A 
ATOM     47  C   UNL A   1      41.492  32.314  31.662  1.00  0.00     0.049 A 
ATOM     48  H   UNL A   1      43.251  33.181  30.956  1.00  0.00     0.167 HD
ATOM     49  C   UNL A   1      47.167  34.659  29.659  1.00  0.00     0.034 A 
ATOM     50  C   UNL A   1      41.055  33.074  32.685  1.00  0.00     0.034 A 
ATOM     51  C   UNL A   1      46.696  35.617  30.623  1.00  0.00     0.049 A 
ATOM     52  C   UNL A   1      41.844  34.294  33.079  1.00  0.00     0.074 A 
ATOM     53  C   UNL A   1      47.296  36.799  31.021  1.00  0.00     0.029 A 
ATOM     54  N   UNL A   1      45.519  35.503  31.345  1.00  0.00    -0.354 N 
ATOM     55  N   UNL A   1      42.957  34.757  32.565  1.00  0.00    -0.248 NA
ATOM     56  C   UNL A   1      41.299  35.115  34.169  1.00  0.00     0.031 C 
ATOM     57  C   UNL A   1      46.495  37.383  32.009  1.00  0.00     0.029 A 
ATOM     58  C   UNL A   1      45.379  36.584  32.197  1.00  0.00     0.049 A 
ATOM     59  H   UNL A   1      44.878  34.760  31.264  1.00  0.00     0.167 HD
ATOM     60  C   UNL A   1      43.224  35.942  33.240  1.00  0.00     0.074 A 
ATOM     61  C   UNL A   1      42.146  36.135  34.187  1.00  0.00     0.031 C 
ATOM     62  C   UNL A   1      44.274  36.789  33.097  1.00  0.00     0.034 A 
BRANCH  49  63
ATOM     63  C   UNL A   1      48.502  34.900  29.004  1.00  0.00     0.023 A 
ATOM     64  C   UNL A   1      49.684  34.493  29.659  1.00  0.00     0.012 A 
ATOM     65  C   UNL A   1      48.588  35.473  27.720  1.00  0.00     0.148 A 
ATOM     66  C   UNL A   1      50.929  34.685  29.063  1.00  0.00     0.002 A 
ATOM     67  C   UNL A   1      49.830  35.618  27.113  1.00  0.00     0.091 A 
ATOM     68  F   UNL A   1      47.457  35.871  27.121  1.00  0.00    -0.205 F 
ATOM     69  C   UNL A   1      51.001  35.238  27.787  1.00  0.00     0.022 A 
BRANCH  67  70
ATOM     70  S   UNL A   1      50.024  36.242  25.439  1.00  0.00     0.127 S 
ATOM     71  O   UNL A   1      51.345  36.865  25.509  1.00  0.00    -0.237 OA
ATOM     72  O   UNL A   1      49.971  35.014  24.645  1.00  0.00    -0.237 OA
ATOM     73  O   UNL A   1      48.914  37.158  25.219  1.00  0.00    -0.744 OA
ENDBRANCH  67  70
ENDBRANCH  49  63
BRANCH  50  74
ATOM     74  C   UNL A   1      39.777  32.735  33.374  1.00  0.00     0.023 A 
ATOM     75  C   UNL A   1      39.793  31.843  34.463  1.00  0.00     0.012 A 
ATOM     76  C   UNL A   1      38.553  33.303  32.970  1.00  0.00     0.148 A 
ATOM     77  C   UNL A   1      38.611  31.492  35.114  1.00  0.00     0.002 A 
ATOM     78  C   UNL A   1      37.386  32.994  33.660  1.00  0.00     0.091 A 
ATOM     79  F   UNL A   1      38.556  34.144  31.926  1.00  0.00    -0.205 F 
ATOM     80  C   UNL A   1      37.410  32.073  34.719  1.00  0.00     0.022 A 
BRANCH  78  81
ATOM     81  S   UNL A   1      35.818  33.795  33.305  1.00  0.00     0.127 S 
ATOM     82  O   UNL A   1      35.944  35.042  34.055  1.00  0.00    -0.237 OA
ATOM     83  O   UNL A   1      35.876  33.941  31.851  1.00  0.00    -0.237 OA
ATOM     84  O   UNL A   1      34.790  32.875  33.774  1.00  0.00    -0.744 OA
ENDBRANCH  78  81
ENDBRANCH  50  74
BRANCH  62  85
ATOM     85  C   UNL A   1      44.293  38.031  33.950  1.00  0.00     0.023 A 
ATOM     86  C   UNL A   1      45.032  38.052  35.149  1.00  0.00     0.012 A 
ATOM     87  C   UNL A   1      43.640  39.203  33.520  1.00  0.00     0.148 A 
ATOM     88  C   UNL A   1      45.094  39.211  35.922  1.00  0.00     0.002 A 
ATOM     89  C   UNL A   1      43.749  40.368  34.268  1.00  0.00     0.091 A 
ATOM     90  F   UNL A   1      42.927  39.157  32.384  1.00  0.00    -0.205 F 
ATOM     91  C   UNL A   1      44.465  40.370  35.475  1.00  0.00     0.022 A 
BRANCH  89  92
ATOM     92  S   UNL A   1      43.056  41.934  33.724  1.00  0.00     0.127 S 
ATOM     93  O   UNL A   1      43.999  42.329  32.679  1.00  0.00    -0.237 OA
ATOM     94  O   UNL A   1      41.736  41.533  33.236  1.00  0.00    -0.237 OA
ATOM     95  O   UNL A   1      43.032  42.794  34.899  1.00  0.00    -0.744 OA
ENDBRANCH  89  92
ENDBRANCH  62  85
ENDBRANCH  36  37
ENDBRANCH  28  31
ENDBRANCH  26  27
ENDBRANCH  25  26
ENDBRANCH  24  25
ENDBRANCH   1  24
TORSDOF 19
ENDMDL
MODEL 3
REMARK VINA RESULT:      -8.1      4.051     10.873
REMARK SMILES C=Cc1cccc(-c2ccc([C@@H](C)C(=O)NCCCCCCNC(=O)c3ccc(-c4c5nc(c(-c6cccc(S(=O)(=O)[O-])c6F)c6ccc([nH]6)c(-c6cccc(S(=O)(=O)[O-])c6F)c6nc(c(-c7cccc(S(=O)(=O)[O-])c7F)c7ccc4[nH]7)C=C6)C=C5)cc3)cc2)c1
REMARK SMILES IDX 19 1 18 2 17 3 16 4 14 5 15 6 12 8 13 9 11 10 8 11 9 12
REMARK SMILES IDX 90 13 10 14 89 15 7 16 3 17 4 18 91 19 5 20 6 21 2 22 1 23
REMARK SMILES IDX 20 24 21 25 22 26 23 27 24 28 25 30 26 31 27 32 88 33 28 34
REMARK SMILES IDX 87 35 29 36 30 37 31 38 81 39 32 40 86 41 80 42 82 43 33 44
REMARK SMILES IDX 85 45 79 46 78 47 34 49 66 50 46 51 65 52 47 53 50 54 64 55
REMARK SMILES IDX 83 56 48 57 49 58 63 60 84 61 51 62 35 63 36 64 44 65 37 66
REMARK SMILES IDX 39 67 45 68 38 69 40 70 41 71 42 72 43 73 67 74 68 75 76 76
REMARK SMILES IDX 69 77 71 78 77 79 70 80 72 81 73 82 74 83 75 84 52 85 53 86
REMARK SMILES IDX 61 87 54 88 56 89 62 90 55 91 57 92 58 93 59 94 60 95
REMARK H PARENT 16 7 23 29 82 48 50 59
REMARK Flexibility Score: inf
ROOT
ATOM      1  C   UNL A   1      44.573  24.147  27.254  1.00  0.00     0.002 C 
ENDROOT
BRANCH   1   2
ATOM      2  C   UNL A   1      43.930  23.902  28.624  1.00  0.00     0.021 C 
BRANCH   2   3
ATOM      3  C   UNL A   1      42.590  24.616  28.808  1.00  0.00     0.116 C 
BRANCH   3   4
ATOM      4  N   UNL A   1      41.497  23.850  28.246  1.00  0.00    -0.356 N 
ATOM      5  C   UNL A   1      40.497  24.199  27.391  1.00  0.00     0.227 C 
ATOM      6  O   UNL A   1      39.644  23.331  27.164  1.00  0.00    -0.274 OA
ATOM      7  H   UNL A   1      41.474  22.909  28.533  1.00  0.00     0.163 HD
BRANCH   5   8
ATOM      8  C   UNL A   1      40.403  25.566  26.696  1.00  0.00     0.105 C 
ATOM      9  C   UNL A   1      41.562  25.854  25.739  1.00  0.00     0.023 C 
BRANCH   8  10
ATOM     10  C   UNL A   1      40.015  26.707  27.624  1.00  0.00    -0.036 A 
ATOM     11  C   UNL A   1      39.214  28.906  29.274  1.00  0.00    -0.018 A 
ATOM     12  C   UNL A   1      38.922  27.578  29.616  1.00  0.00     0.009 A 
ATOM     13  C   UNL A   1      39.937  29.107  28.088  1.00  0.00     0.009 A 
ATOM     14  C   UNL A   1      39.351  26.503  28.834  1.00  0.00     0.005 A 
ATOM     15  C   UNL A   1      40.312  28.031  27.267  1.00  0.00     0.005 A 
BRANCH  11  16
ATOM     16  C   UNL A   1      38.789  30.020  30.153  1.00  0.00    -0.018 A 
ATOM     17  C   UNL A   1      37.992  32.321  30.487  1.00  0.00    -0.026 A 
ATOM     18  C   UNL A   1      37.954  32.107  31.868  1.00  0.00     0.008 A 
ATOM     19  C   UNL A   1      38.410  31.277  29.642  1.00  0.00     0.016 A 
ATOM     20  C   UNL A   1      38.319  30.875  32.399  1.00  0.00     0.001 A 
ATOM     21  C   UNL A   1      38.740  29.851  31.550  1.00  0.00     0.009 A 
BRANCH  17  22
ATOM     22  C   UNL A   1      37.645  33.654  29.979  1.00  0.00     0.000 C 
ATOM     23  C   UNL A   1      38.539  34.555  29.554  1.00  0.00     0.009 C 
ENDBRANCH  17  22
ENDBRANCH  11  16
ENDBRANCH   8  10
ENDBRANCH   5   8
ENDBRANCH   3   4
ENDBRANCH   2   3
ENDBRANCH   1   2
BRANCH   1  24
ATOM     24  C   UNL A   1      46.101  24.012  27.228  1.00  0.00     0.002 C 
BRANCH  24  25
ATOM     25  C   UNL A   1      46.750  24.208  25.854  1.00  0.00     0.021 C 
BRANCH  25  26
ATOM     26  C   UNL A   1      47.919  25.188  25.845  1.00  0.00     0.116 C 
BRANCH  26  27
ATOM     27  N   UNL A   1      47.790  26.167  24.774  1.00  0.00    -0.352 N 
ATOM     28  C   UNL A   1      46.943  27.243  24.677  1.00  0.00     0.251 C 
ATOM     29  H   UNL A   1      48.395  26.036  24.009  1.00  0.00     0.163 HD
ATOM     30  O   UNL A   1      46.786  27.807  23.599  1.00  0.00    -0.269 OA
BRANCH  28  31
ATOM     31  C   UNL A   1      46.223  27.717  25.877  1.00  0.00     0.039 A 
ATOM     32  C   UNL A   1      46.939  28.337  26.903  1.00  0.00     0.014 A 
ATOM     33  C   UNL A   1      44.842  27.537  25.990  1.00  0.00     0.014 A 
ATOM     34  C   UNL A   1      46.260  28.827  28.021  1.00  0.00     0.010 A 
ATOM     35  C   UNL A   1      44.158  28.091  27.067  1.00  0.00     0.010 A 
ATOM     36  C   UNL A   1      44.860  28.734  28.098  1.00  0.00    -0.014 A 
BRANCH  36  37
ATOM     37  C   UNL A   1      44.108  29.311  29.240  1.00  0.00     0.031 A 
ATOM     38  C   UNL A   1      43.708  30.762  29.228  1.00  0.00     0.074 A 
ATOM     39  C   UNL A   1      43.865  28.552  30.327  1.00  0.00     0.049 A 
ATOM     40  N   UNL A   1      43.114  31.461  30.160  1.00  0.00    -0.248 NA
ATOM     41  C   UNL A   1      44.043  31.536  28.022  1.00  0.00     0.031 C 
ATOM     42  C   UNL A   1      44.268  27.153  30.489  1.00  0.00     0.029 A 
ATOM     43  N   UNL A   1      43.248  28.858  31.515  1.00  0.00    -0.354 N 
ATOM     44  C   UNL A   1      43.036  32.759  29.671  1.00  0.00     0.074 A 
ATOM     45  C   UNL A   1      43.675  32.760  28.373  1.00  0.00     0.031 C 
ATOM     46  C   UNL A   1      43.884  26.721  31.700  1.00  0.00     0.029 A 
ATOM     47  C   UNL A   1      43.242  27.819  32.417  1.00  0.00     0.049 A 
ATOM     48  H   UNL A   1      42.848  29.737  31.703  1.00  0.00     0.167 HD
ATOM     49  C   UNL A   1      42.459  33.847  30.235  1.00  0.00     0.034 A 
ATOM     50  C   UNL A   1      42.783  27.761  33.683  1.00  0.00     0.034 A 
ATOM     51  C   UNL A   1      41.794  33.832  31.511  1.00  0.00     0.049 A 
ATOM     52  C   UNL A   1      42.127  28.978  34.278  1.00  0.00     0.074 A 
ATOM     53  C   UNL A   1      41.107  34.859  32.133  1.00  0.00     0.029 A 
ATOM     54  N   UNL A   1      41.738  32.740  32.362  1.00  0.00    -0.354 N 
ATOM     55  N   UNL A   1      41.928  30.155  33.737  1.00  0.00    -0.248 NA
ATOM     56  C   UNL A   1      41.600  28.847  35.644  1.00  0.00     0.031 C 
ATOM     57  C   UNL A   1      40.664  34.397  33.377  1.00  0.00     0.029 A 
ATOM     58  C   UNL A   1      41.042  33.071  33.511  1.00  0.00     0.049 A 
ATOM     59  H   UNL A   1      42.137  31.859  32.177  1.00  0.00     0.167 HD
ATOM     60  C   UNL A   1      41.220  30.892  34.679  1.00  0.00     0.074 A 
ATOM     61  C   UNL A   1      41.008  30.022  35.817  1.00  0.00     0.031 C 
ATOM     62  C   UNL A   1      40.793  32.177  34.613  1.00  0.00     0.034 A 
BRANCH  49  63
ATOM     63  C   UNL A   1      42.481  35.137  29.456  1.00  0.00     0.023 A 
ATOM     64  C   UNL A   1      41.579  35.322  28.388  1.00  0.00     0.012 A 
ATOM     65  C   UNL A   1      43.348  36.187  29.816  1.00  0.00     0.148 A 
ATOM     66  C   UNL A   1      41.565  36.514  27.668  1.00  0.00     0.002 A 
ATOM     67  C   UNL A   1      43.295  37.391  29.123  1.00  0.00     0.091 A 
ATOM     68  F   UNL A   1      44.212  35.987  30.822  1.00  0.00    -0.205 F 
ATOM     69  C   UNL A   1      42.415  37.552  28.041  1.00  0.00     0.022 A 
BRANCH  67  70
ATOM     70  S   UNL A   1      44.289  38.817  29.578  1.00  0.00     0.127 S 
ATOM     71  O   UNL A   1      43.870  39.039  30.961  1.00  0.00    -0.237 OA
ATOM     72  O   UNL A   1      45.651  38.301  29.429  1.00  0.00    -0.237 OA
ATOM     73  O   UNL A   1      43.931  39.872  28.641  1.00  0.00    -0.744 OA
ENDBRANCH  67  70
ENDBRANCH  49  63
BRANCH  50  74
ATOM     74  C   UNL A   1      42.877  26.488  34.453  1.00  0.00     0.023 A 
ATOM     75  C   UNL A   1      41.701  25.770  34.749  1.00  0.00     0.012 A 
ATOM     76  C   UNL A   1      44.118  25.978  34.878  1.00  0.00     0.148 A 
ATOM     77  C   UNL A   1      41.757  24.587  35.485  1.00  0.00     0.002 A 
ATOM     78  C   UNL A   1      44.172  24.768  35.562  1.00  0.00     0.091 A 
ATOM     79  F   UNL A   1      45.224  26.680  34.595  1.00  0.00    -0.205 F 
ATOM     80  C   UNL A   1      42.991  24.082  35.883  1.00  0.00     0.022 A 
BRANCH  78  81
ATOM     81  S   UNL A   1      45.724  23.977  35.997  1.00  0.00     0.127 S 
ATOM     82  O   UNL A   1      46.286  24.928  36.953  1.00  0.00    -0.237 OA
ATOM     83  O   UNL A   1      45.266  22.715  36.580  1.00  0.00    -0.237 OA
ATOM     84  O   UNL A   1      46.456  23.829  34.747  1.00  0.00    -0.744 OA
ENDBRANCH  78  81
ENDBRANCH  50  74
BRANCH  62  85
ATOM     85  C   UNL A   1      40.012  32.716  35.783  1.00  0.00     0.023 A 
ATOM     86  C   UNL A   1      38.616  32.875  35.687  1.00  0.00     0.012 A 
ATOM     87  C   UNL A   1      40.657  32.990  37.007  1.00  0.00     0.148 A 
ATOM     88  C   UNL A   1      37.878  33.329  36.780  1.00  0.00     0.002 A 
ATOM     89  C   UNL A   1      39.908  33.391  38.106  1.00  0.00     0.091 A 
ATOM     90  F   UNL A   1      41.989  32.848  37.073  1.00  0.00    -0.205 F 
ATOM     91  C   UNL A   1      38.521  33.574  37.991  1.00  0.00     0.022 A 
BRANCH  89  92
ATOM     92  S   UNL A   1      40.634  33.634  39.731  1.00  0.00     0.127 S 
ATOM     93  O   UNL A   1      41.583  34.716  39.474  1.00  0.00    -0.237 OA
ATOM     94  O   UNL A   1      39.472  34.017  40.534  1.00  0.00    -0.237 OA
ATOM     95  O   UNL A   1      41.230  32.357  40.101  1.00  0.00    -0.744 OA
ENDBRANCH  89  92
ENDBRANCH  62  85
ENDBRANCH  36  37
ENDBRANCH  28  31
ENDBRANCH  26  27
ENDBRANCH  25  26
ENDBRANCH  24  25
ENDBRANCH   1  24
TORSDOF 19
ENDMDL
