MODEL 1
REMARK VINA RESULT:     -11.7      0.000      0.000
REMARK SMILES CCc1ccc(C[NH+]2CCC(Oc3ccccc3OC)(C(=O)NCCCCCCNC(=O)c3ccc(-c4c5nc(c(-c6cccc(S(=O)(=O)[O-])c6F)c6ccc([nH]6)c(-c6cccc(S(=O)(=O)[O-])c6F)c6nc(c(-c7cccc(S(=O)(=O)[O-])c7F)c7ccc4[nH]7)C=C6)C=C5)cc3)CC2)nc1
REMARK SMILES IDX 26 1 25 2 24 3 23 4 21 5 22 6 11 8 8 9 9 10 97 11 10 13
REMARK SMILES IDX 96 14 7 15 6 16 3 17 4 18 99 19 5 20 98 21 2 22 1 23 12 24
REMARK SMILES IDX 13 25 14 26 18 27 15 28 17 29 16 30 19 31 20 32 27 33 28 34
REMARK SMILES IDX 29 35 30 36 31 37 32 39 33 40 34 41 95 42 35 43 94 44 36 45
REMARK SMILES IDX 37 46 38 47 88 48 39 49 93 50 87 51 89 52 40 53 92 54 86 55
REMARK SMILES IDX 85 56 41 58 73 59 53 60 72 61 54 62 57 63 71 64 90 65 55 66
REMARK SMILES IDX 56 67 70 69 91 70 58 71 42 72 43 73 51 74 44 75 46 76 52 77
REMARK SMILES IDX 45 78 47 79 48 80 49 81 50 82 74 83 75 84 83 85 76 86 78 87
REMARK SMILES IDX 84 88 77 89 79 90 80 91 81 92 82 93 59 94 60 95 68 96 61 97
REMARK SMILES IDX 63 98 69 99 62 100 64 101 65 102 66 103 67 104
REMARK H PARENT 23 7 8 12 30 38 89 57 57 68
REMARK Flexibility Score: inf
ROOT
ATOM      1  C   UNL A   1      33.082  29.978  27.186  1.00  0.00     0.002 C 
ENDROOT
BRANCH   1   2
ATOM      2  C   UNL A   1      33.656  28.829  26.355  1.00  0.00     0.021 C 
BRANCH   2   3
ATOM      3  C   UNL A   1      33.143  28.777  24.919  1.00  0.00     0.116 C 
BRANCH   3   4
ATOM      4  N   UNL A   1      33.644  27.623  24.197  1.00  0.00    -0.353 N 
ATOM      5  C   UNL A   1      32.983  26.586  23.596  1.00  0.00     0.264 C 
ATOM      6  O   UNL A   1      33.685  25.858  22.884  1.00  0.00    -0.270 OA
ATOM      7  H   UNL A   1      34.626  27.578  24.127  1.00  0.00     0.163 HD
BRANCH   5   8
ATOM      8  C   UNL A   1      31.449  26.330  23.803  1.00  0.00     0.197 C 
ATOM      9  N   UNL A   1      31.153  24.169  25.782  1.00  0.00    -0.330 N 
ATOM     10  C   UNL A   1      31.611  25.497  26.195  1.00  0.00     0.267 C 
ATOM     11  C   UNL A   1      31.642  23.848  24.434  1.00  0.00     0.267 C 
ATOM     12  H   UNL A   1      30.134  24.189  25.744  1.00  0.00     0.348 HD
ATOM     13  C   UNL A   1      31.056  26.561  25.266  1.00  0.00     0.120 C 
ATOM     14  C   UNL A   1      31.123  24.869  23.409  1.00  0.00     0.120 C 
BRANCH   9  15
ATOM     15  C   UNL A   1      31.506  23.122  26.772  1.00  0.00     0.319 C 
BRANCH  15  16
ATOM     16  C   UNL A   1      32.812  22.381  26.523  1.00  0.00     0.095 A 
ATOM     17  C   UNL A   1      35.169  21.238  25.654  1.00  0.00    -0.030 A 
ATOM     18  C   UNL A   1      35.211  22.413  26.405  1.00  0.00     0.007 A 
ATOM     19  C   UNL A   1      33.917  20.681  25.416  1.00  0.00     0.115 A 
ATOM     20  C   UNL A   1      34.025  22.989  26.850  1.00  0.00     0.030 A 
ATOM     21  N   UNL A   1      32.751  21.211  25.844  1.00  0.00    -0.255 NA
BRANCH  17  22
ATOM     22  C   UNL A   1      36.406  20.630  25.053  1.00  0.00     0.034 C 
ATOM     23  C   UNL A   1      37.513  21.640  24.790  1.00  0.00     0.009 C 
ENDBRANCH  17  22
ENDBRANCH  15  16
ENDBRANCH   9  15
BRANCH   8  24
ATOM     24  O   UNL A   1      30.852  27.341  22.957  1.00  0.00    -0.473 OA
BRANCH  24  25
ATOM     25  C   UNL A   1      29.576  27.758  23.176  1.00  0.00     0.162 A 
ATOM     26  C   UNL A   1      28.697  26.815  23.719  1.00  0.00     0.050 A 
ATOM     27  C   UNL A   1      29.078  28.982  22.716  1.00  0.00     0.160 A 
ATOM     28  C   UNL A   1      27.340  27.107  23.851  1.00  0.00     0.004 A 
ATOM     29  C   UNL A   1      27.718  29.275  22.863  1.00  0.00     0.050 A 
ATOM     30  C   UNL A   1      26.850  28.337  23.420  1.00  0.00     0.004 A 
BRANCH  27  31
ATOM     31  O   UNL A   1      29.836  29.987  22.179  1.00  0.00    -0.493 OA
ATOM     32  C   UNL A   1      29.074  31.113  21.757  1.00  0.00     0.278 C 
ENDBRANCH  27  31
ENDBRANCH  24  25
ENDBRANCH   8  24
ENDBRANCH   5   8
ENDBRANCH   3   4
ENDBRANCH   2   3
ENDBRANCH   1   2
BRANCH   1  33
ATOM     33  C   UNL A   1      31.725  30.509  26.714  1.00  0.00     0.002 C 
BRANCH  33  34
ATOM     34  C   UNL A   1      31.548  32.030  26.787  1.00  0.00     0.021 C 
BRANCH  34  35
ATOM     35  C   UNL A   1      32.837  32.823  26.990  1.00  0.00     0.116 C 
BRANCH  35  36
ATOM     36  N   UNL A   1      32.582  34.139  27.552  1.00  0.00    -0.352 N 
ATOM     37  C   UNL A   1      33.096  34.734  28.674  1.00  0.00     0.251 C 
ATOM     38  H   UNL A   1      31.942  34.690  27.046  1.00  0.00     0.163 HD
ATOM     39  O   UNL A   1      32.587  35.772  29.090  1.00  0.00    -0.269 OA
BRANCH  37  40
ATOM     40  C   UNL A   1      34.246  34.139  29.392  1.00  0.00     0.039 A 
ATOM     41  C   UNL A   1      33.992  33.259  30.448  1.00  0.00     0.014 A 
ATOM     42  C   UNL A   1      35.565  34.479  29.073  1.00  0.00     0.014 A 
ATOM     43  C   UNL A   1      35.056  32.696  31.157  1.00  0.00     0.010 A 
ATOM     44  C   UNL A   1      36.627  33.861  29.735  1.00  0.00     0.010 A 
ATOM     45  C   UNL A   1      36.385  32.973  30.793  1.00  0.00    -0.014 A 
BRANCH  45  46
ATOM     46  C   UNL A   1      37.512  32.319  31.508  1.00  0.00     0.031 A 
ATOM     47  C   UNL A   1      38.300  31.208  30.864  1.00  0.00     0.074 A 
ATOM     48  C   UNL A   1      37.799  32.698  32.770  1.00  0.00     0.049 A 
ATOM     49  N   UNL A   1      39.345  30.569  31.324  1.00  0.00    -0.248 NA
ATOM     50  C   UNL A   1      37.846  30.735  29.545  1.00  0.00     0.031 C 
ATOM     51  C   UNL A   1      37.049  33.690  33.544  1.00  0.00     0.029 A 
ATOM     52  N   UNL A   1      38.786  32.286  33.630  1.00  0.00    -0.354 N 
ATOM     53  C   UNL A   1      39.650  29.599  30.376  1.00  0.00     0.074 A 
ATOM     54  C   UNL A   1      38.667  29.716  29.323  1.00  0.00     0.031 C 
ATOM     55  C   UNL A   1      37.612  33.823  34.756  1.00  0.00     0.029 A 
ATOM     56  C   UNL A   1      38.748  32.913  34.855  1.00  0.00     0.049 A 
ATOM     57  H   UNL A   1      39.457  31.607  33.393  1.00  0.00     0.167 HD
ATOM     58  C   UNL A   1      40.672  28.710  30.369  1.00  0.00     0.034 A 
ATOM     59  C   UNL A   1      39.543  32.775  35.934  1.00  0.00     0.034 A 
ATOM     60  C   UNL A   1      41.683  28.633  31.392  1.00  0.00     0.049 A 
ATOM     61  C   UNL A   1      40.716  31.834  35.863  1.00  0.00     0.074 A 
ATOM     62  C   UNL A   1      42.825  27.852  31.414  1.00  0.00     0.029 A 
ATOM     63  N   UNL A   1      41.665  29.348  32.578  1.00  0.00    -0.354 N 
ATOM     64  N   UNL A   1      41.108  31.077  34.867  1.00  0.00    -0.248 NA
ATOM     65  C   UNL A   1      41.582  31.762  37.048  1.00  0.00     0.031 C 
ATOM     66  C   UNL A   1      43.483  28.072  32.629  1.00  0.00     0.029 A 
ATOM     67  C   UNL A   1      42.766  29.013  33.348  1.00  0.00     0.049 A 
ATOM     68  H   UNL A   1      40.972  29.998  32.836  1.00  0.00     0.167 HD
ATOM     69  C   UNL A   1      42.283  30.467  35.293  1.00  0.00     0.074 A 
ATOM     70  C   UNL A   1      42.556  30.970  36.623  1.00  0.00     0.031 C 
ATOM     71  C   UNL A   1      43.056  29.558  34.650  1.00  0.00     0.034 A 
BRANCH  58  72
ATOM     72  C   UNL A   1      40.793  27.772  29.196  1.00  0.00     0.023 A 
ATOM     73  C   UNL A   1      39.979  26.625  29.130  1.00  0.00     0.012 A 
ATOM     74  C   UNL A   1      41.642  28.080  28.113  1.00  0.00     0.148 A 
ATOM     75  C   UNL A   1      40.021  25.785  28.018  1.00  0.00     0.002 A 
ATOM     76  C   UNL A   1      41.648  27.262  26.988  1.00  0.00     0.091 A 
ATOM     77  F   UNL A   1      42.424  29.166  28.202  1.00  0.00    -0.205 F 
ATOM     78  C   UNL A   1      40.845  26.110  26.944  1.00  0.00     0.022 A 
BRANCH  76  79
ATOM     79  S   UNL A   1      42.611  27.639  25.520  1.00  0.00     0.127 S 
ATOM     80  O   UNL A   1      42.348  26.463  24.687  1.00  0.00    -0.237 OA
ATOM     81  O   UNL A   1      41.976  28.872  25.047  1.00  0.00    -0.237 OA
ATOM     82  O   UNL A   1      43.984  27.793  25.964  1.00  0.00    -0.744 OA
ENDBRANCH  76  79
ENDBRANCH  58  72
BRANCH  59  83
ATOM     83  C   UNL A   1      39.304  33.598  37.154  1.00  0.00     0.023 A 
ATOM     84  C   UNL A   1      39.817  34.909  37.219  1.00  0.00     0.012 A 
ATOM     85  C   UNL A   1      38.575  33.093  38.247  1.00  0.00     0.148 A 
ATOM     86  C   UNL A   1      39.648  35.684  38.368  1.00  0.00     0.002 A 
ATOM     87  C   UNL A   1      38.359  33.892  39.365  1.00  0.00     0.091 A 
ATOM     88  F   UNL A   1      38.106  31.839  38.175  1.00  0.00    -0.205 F 
ATOM     89  C   UNL A   1      38.912  35.179  39.436  1.00  0.00     0.022 A 
BRANCH  87  90
ATOM     90  S   UNL A   1      37.306  33.366  40.722  1.00  0.00     0.127 S 
ATOM     91  O   UNL A   1      37.272  34.564  41.555  1.00  0.00    -0.237 OA
ATOM     92  O   UNL A   1      36.051  33.058  40.033  1.00  0.00    -0.237 OA
ATOM     93  O   UNL A   1      37.969  32.204  41.297  1.00  0.00    -0.744 OA
ENDBRANCH  87  90
ENDBRANCH  59  83
BRANCH  71  94
ATOM     94  C   UNL A   1      44.290  29.068  35.362  1.00  0.00     0.023 A 
ATOM     95  C   UNL A   1      45.532  29.688  35.119  1.00  0.00     0.012 A 
ATOM     96  C   UNL A   1      44.214  28.024  36.304  1.00  0.00     0.148 A 
ATOM     97  C   UNL A   1      46.685  29.245  35.765  1.00  0.00     0.002 A 
ATOM     98  C   UNL A   1      45.357  27.623  36.983  1.00  0.00     0.091 A 
ATOM     99  F   UNL A   1      43.027  27.432  36.510  1.00  0.00    -0.205 F 
ATOM    100  C   UNL A   1      46.597  28.221  36.704  1.00  0.00     0.022 A 
BRANCH  98 101
ATOM    101  S   UNL A   1      45.314  26.380  38.280  1.00  0.00     0.127 S 
ATOM    102  O   UNL A   1      44.714  25.243  37.584  1.00  0.00    -0.237 OA
ATOM    103  O   UNL A   1      46.732  26.218  38.606  1.00  0.00    -0.237 OA
ATOM    104  O   UNL A   1      44.513  26.955  39.353  1.00  0.00    -0.744 OA
ENDBRANCH  98 101
ENDBRANCH  71  94
ENDBRANCH  45  46
ENDBRANCH  37  40
ENDBRANCH  35  36
ENDBRANCH  34  35
ENDBRANCH  33  34
ENDBRANCH   1  33
TORSDOF 22
ENDMDL
MODEL 2
REMARK VINA RESULT:     -11.7      1.920      4.733
REMARK SMILES CCc1ccc(C[NH+]2CCC(Oc3ccccc3OC)(C(=O)NCCCCCCNC(=O)c3ccc(-c4c5nc(c(-c6cccc(S(=O)(=O)[O-])c6F)c6ccc([nH]6)c(-c6cccc(S(=O)(=O)[O-])c6F)c6nc(c(-c7cccc(S(=O)(=O)[O-])c7F)c7ccc4[nH]7)C=C6)C=C5)cc3)CC2)nc1
REMARK SMILES IDX 26 1 25 2 24 3 23 4 21 5 22 6 11 8 8 9 9 10 97 11 10 13
REMARK SMILES IDX 96 14 7 15 6 16 3 17 4 18 99 19 5 20 98 21 2 22 1 23 12 24
REMARK SMILES IDX 13 25 14 26 18 27 15 28 17 29 16 30 19 31 20 32 27 33 28 34
REMARK SMILES IDX 29 35 30 36 31 37 32 39 33 40 34 41 95 42 35 43 94 44 36 45
REMARK SMILES IDX 37 46 38 47 88 48 39 49 93 50 87 51 89 52 40 53 92 54 86 55
REMARK SMILES IDX 85 56 41 58 73 59 53 60 72 61 54 62 57 63 71 64 90 65 55 66
REMARK SMILES IDX 56 67 70 69 91 70 58 71 42 72 43 73 51 74 44 75 46 76 52 77
REMARK SMILES IDX 45 78 47 79 48 80 49 81 50 82 74 83 75 84 83 85 76 86 78 87
REMARK SMILES IDX 84 88 77 89 79 90 80 91 81 92 82 93 59 94 60 95 68 96 61 97
REMARK SMILES IDX 63 98 69 99 62 100 64 101 65 102 66 103 67 104
REMARK H PARENT 23 7 8 12 30 38 89 57 57 68
REMARK Flexibility Score: inf
ROOT
ATOM      1  C   UNL A   1      31.620  29.594  26.194  1.00  0.00     0.002 C 
ENDROOT
BRANCH   1   2
ATOM      2  C   UNL A   1      32.994  29.578  26.868  1.00  0.00     0.021 C 
BRANCH   2   3
ATOM      3  C   UNL A   1      33.588  28.184  27.046  1.00  0.00     0.116 C 
BRANCH   3   4
ATOM      4  N   UNL A   1      32.566  27.159  27.144  1.00  0.00    -0.353 N 
ATOM      5  C   UNL A   1      32.459  25.940  26.530  1.00  0.00     0.264 C 
ATOM      6  O   UNL A   1      31.569  25.206  26.975  1.00  0.00    -0.270 OA
ATOM      7  H   UNL A   1      31.825  27.377  27.755  1.00  0.00     0.163 HD
BRANCH   5   8
ATOM      8  C   UNL A   1      33.387  25.509  25.341  1.00  0.00     0.197 C 
ATOM      9  N   UNL A   1      32.009  26.186  22.828  1.00  0.00    -0.330 N 
ATOM     10  C   UNL A   1      32.561  27.241  23.681  1.00  0.00     0.267 C 
ATOM     11  C   UNL A   1      31.512  25.068  23.642  1.00  0.00     0.267 C 
ATOM     12  H   UNL A   1      32.766  25.830  22.244  1.00  0.00     0.348 HD
ATOM     13  C   UNL A   1      33.746  26.718  24.471  1.00  0.00     0.120 C 
ATOM     14  C   UNL A   1      32.648  24.457  24.479  1.00  0.00     0.120 C 
BRANCH   9  15
ATOM     15  C   UNL A   1      30.979  26.702  21.894  1.00  0.00     0.319 C 
BRANCH  15  16
ATOM     16  C   UNL A   1      30.258  27.970  22.330  1.00  0.00     0.095 A 
ATOM     17  C   UNL A   1      28.728  30.235  22.714  1.00  0.00    -0.030 A 
ATOM     18  C   UNL A   1      28.301  29.018  23.246  1.00  0.00     0.007 A 
ATOM     19  C   UNL A   1      29.945  30.240  22.041  1.00  0.00     0.115 A 
ATOM     20  C   UNL A   1      29.073  27.875  23.060  1.00  0.00     0.030 A 
ATOM     21  N   UNL A   1      30.721  29.151  21.853  1.00  0.00    -0.255 NA
BRANCH  17  22
ATOM     22  C   UNL A   1      27.887  31.478  22.789  1.00  0.00     0.034 C 
ATOM     23  C   UNL A   1      28.027  32.380  21.571  1.00  0.00     0.009 C 
ENDBRANCH  17  22
ENDBRANCH  15  16
ENDBRANCH   9  15
BRANCH   8  24
ATOM     24  O   UNL A   1      34.562  25.020  26.030  1.00  0.00    -0.473 OA
BRANCH  24  25
ATOM     25  C   UNL A   1      35.111  23.822  25.694  1.00  0.00     0.162 A 
ATOM     26  C   UNL A   1      35.716  23.747  24.435  1.00  0.00     0.050 A 
ATOM     27  C   UNL A   1      34.930  22.655  26.444  1.00  0.00     0.160 A 
ATOM     28  C   UNL A   1      36.184  22.527  23.946  1.00  0.00     0.004 A 
ATOM     29  C   UNL A   1      35.412  21.437  25.955  1.00  0.00     0.050 A 
ATOM     30  C   UNL A   1      36.029  21.371  24.706  1.00  0.00     0.004 A 
BRANCH  27  31
ATOM     31  O   UNL A   1      34.366  22.601  27.690  1.00  0.00    -0.493 OA
ATOM     32  C   UNL A   1      32.991  22.232  27.677  1.00  0.00     0.278 C 
ENDBRANCH  27  31
ENDBRANCH  24  25
ENDBRANCH   8  24
ENDBRANCH   5   8
ENDBRANCH   3   4
ENDBRANCH   2   3
ENDBRANCH   1   2
BRANCH   1  33
ATOM     33  C   UNL A   1      31.189  30.949  25.624  1.00  0.00     0.002 C 
BRANCH  33  34
ATOM     34  C   UNL A   1      31.193  32.116  26.617  1.00  0.00     0.021 C 
BRANCH  34  35
ATOM     35  C   UNL A   1      32.571  32.689  26.938  1.00  0.00     0.116 C 
BRANCH  35  36
ATOM     36  N   UNL A   1      32.487  34.039  27.471  1.00  0.00    -0.352 N 
ATOM     37  C   UNL A   1      33.163  34.620  28.512  1.00  0.00     0.251 C 
ATOM     38  H   UNL A   1      31.845  34.628  27.012  1.00  0.00     0.163 HD
ATOM     39  O   UNL A   1      32.787  35.711  28.936  1.00  0.00    -0.269 OA
BRANCH  37  40
ATOM     40  C   UNL A   1      34.327  33.949  29.133  1.00  0.00     0.039 A 
ATOM     41  C   UNL A   1      34.094  32.948  30.081  1.00  0.00     0.014 A 
ATOM     42  C   UNL A   1      35.638  34.332  28.833  1.00  0.00     0.014 A 
ATOM     43  C   UNL A   1      35.173  32.309  30.698  1.00  0.00     0.010 A 
ATOM     44  C   UNL A   1      36.715  33.644  29.398  1.00  0.00     0.010 A 
ATOM     45  C   UNL A   1      36.494  32.635  30.346  1.00  0.00    -0.014 A 
BRANCH  45  46
ATOM     46  C   UNL A   1      37.636  31.905  30.958  1.00  0.00     0.031 A 
ATOM     47  C   UNL A   1      38.394  30.860  30.182  1.00  0.00     0.074 A 
ATOM     48  C   UNL A   1      37.963  32.154  32.242  1.00  0.00     0.049 A 
ATOM     49  N   UNL A   1      39.446  30.171  30.544  1.00  0.00    -0.248 NA
ATOM     50  C   UNL A   1      37.897  30.524  28.837  1.00  0.00     0.031 C 
ATOM     51  C   UNL A   1      37.245  33.068  33.134  1.00  0.00     0.029 A 
ATOM     52  N   UNL A   1      38.971  31.651  33.026  1.00  0.00    -0.354 N 
ATOM     53  C   UNL A   1      39.715  29.299  29.495  1.00  0.00     0.074 A 
ATOM     54  C   UNL A   1      38.702  29.528  28.489  1.00  0.00     0.031 C 
ATOM     55  C   UNL A   1      37.844  33.074  34.336  1.00  0.00     0.029 A 
ATOM     56  C   UNL A   1      38.975  32.152  34.309  1.00  0.00     0.049 A 
ATOM     57  H   UNL A   1      39.629  30.995  32.702  1.00  0.00     0.167 HD
ATOM     58  C   UNL A   1      40.728  28.409  29.368  1.00  0.00     0.034 A 
ATOM     59  C   UNL A   1      39.800  31.901  35.344  1.00  0.00     0.034 A 
ATOM     60  C   UNL A   1      41.767  28.224  30.347  1.00  0.00     0.049 A 
ATOM     61  C   UNL A   1      40.962  30.965  35.143  1.00  0.00     0.074 A 
ATOM     62  C   UNL A   1      42.902  27.438  30.256  1.00  0.00     0.029 A 
ATOM     63  N   UNL A   1      41.791  28.816  31.598  1.00  0.00    -0.354 N 
ATOM     64  N   UNL A   1      41.318  30.310  34.065  1.00  0.00    -0.248 NA
ATOM     65  C   UNL A   1      41.862  30.770  36.289  1.00  0.00     0.031 C 
ATOM     66  C   UNL A   1      43.598  27.531  31.466  1.00  0.00     0.029 A 
ATOM     67  C   UNL A   1      42.911  28.399  32.298  1.00  0.00     0.049 A 
ATOM     68  H   UNL A   1      41.112  29.441  31.941  1.00  0.00     0.167 HD
ATOM     69  C   UNL A   1      42.498  29.653  34.392  1.00  0.00     0.074 A 
ATOM     70  C   UNL A   1      42.815  30.019  35.757  1.00  0.00     0.031 C 
ATOM     71  C   UNL A   1      43.244  28.808  33.638  1.00  0.00     0.034 A 
BRANCH  58  72
ATOM     72  C   UNL A   1      40.806  27.594  28.103  1.00  0.00     0.023 A 
ATOM     73  C   UNL A   1      41.415  28.140  26.956  1.00  0.00     0.012 A 
ATOM     74  C   UNL A   1      40.364  26.256  28.080  1.00  0.00     0.148 A 
ATOM     75  C   UNL A   1      41.564  27.376  25.798  1.00  0.00     0.002 A 
ATOM     76  C   UNL A   1      40.556  25.487  26.938  1.00  0.00     0.091 A 
ATOM     77  F   UNL A   1      39.770  25.760  29.175  1.00  0.00    -0.205 F 
ATOM     78  C   UNL A   1      41.146  26.048  25.794  1.00  0.00     0.022 A 
BRANCH  76  79
ATOM     79  S   UNL A   1      40.128  23.744  26.859  1.00  0.00     0.127 S 
ATOM     80  O   UNL A   1      41.143  23.234  25.934  1.00  0.00    -0.237 OA
ATOM     81  O   UNL A   1      40.309  23.322  28.251  1.00  0.00    -0.237 OA
ATOM     82  O   UNL A   1      38.760  23.683  26.377  1.00  0.00    -0.744 OA
ENDBRANCH  76  79
ENDBRANCH  58  72
BRANCH  59  83
ATOM     83  C   UNL A   1      39.605  32.599  36.647  1.00  0.00     0.023 A 
ATOM     84  C   UNL A   1      40.422  33.699  36.976  1.00  0.00     0.012 A 
ATOM     85  C   UNL A   1      38.617  32.183  37.560  1.00  0.00     0.148 A 
ATOM     86  C   UNL A   1      40.292  34.340  38.209  1.00  0.00     0.002 A 
ATOM     87  C   UNL A   1      38.453  32.864  38.761  1.00  0.00     0.091 A 
ATOM     88  F   UNL A   1      37.857  31.126  37.238  1.00  0.00    -0.205 F 
ATOM     89  C   UNL A   1      39.302  33.929  39.097  1.00  0.00     0.022 A 
BRANCH  87  90
ATOM     90  S   UNL A   1      37.113  32.484  39.895  1.00  0.00     0.127 S 
ATOM     91  O   UNL A   1      37.483  31.151  40.360  1.00  0.00    -0.237 OA
ATOM     92  O   UNL A   1      37.248  33.545  40.894  1.00  0.00    -0.237 OA
ATOM     93  O   UNL A   1      35.896  32.569  39.098  1.00  0.00    -0.744 OA
ENDBRANCH  87  90
ENDBRANCH  59  83
BRANCH  71  94
ATOM     94  C   UNL A   1      44.494  28.242  34.260  1.00  0.00     0.023 A 
ATOM     95  C   UNL A   1      45.718  28.929  34.125  1.00  0.00     0.012 A 
ATOM     96  C   UNL A   1      44.451  27.054  35.015  1.00  0.00     0.148 A 
ATOM     97  C   UNL A   1      46.885  28.417  34.689  1.00  0.00     0.002 A 
ATOM     98  C   UNL A   1      45.608  26.578  35.619  1.00  0.00     0.091 A 
ATOM     99  F   UNL A   1      43.282  26.403  35.118  1.00  0.00    -0.205 F 
ATOM    100  C   UNL A   1      46.829  27.249  35.444  1.00  0.00     0.022 A 
BRANCH  98 101
ATOM    101  S   UNL A   1      45.604  25.136  36.690  1.00  0.00     0.127 S 
ATOM    102  O   UNL A   1      44.825  25.613  37.832  1.00  0.00    -0.237 OA
ATOM    103  O   UNL A   1      44.926  24.134  35.865  1.00  0.00    -0.237 OA
ATOM    104  O   UNL A   1      47.005  24.841  36.963  1.00  0.00    -0.744 OA
ENDBRANCH  98 101
ENDBRANCH  71  94
ENDBRANCH  45  46
ENDBRANCH  37  40
ENDBRANCH  35  36
ENDBRANCH  34  35
ENDBRANCH  33  34
ENDBRANCH   1  33
TORSDOF 22
ENDMDL
MODEL 3
REMARK VINA RESULT:     -11.6      3.591      9.109
REMARK SMILES CCc1ccc(C[NH+]2CCC(Oc3ccccc3OC)(C(=O)NCCCCCCNC(=O)c3ccc(-c4c5nc(c(-c6cccc(S(=O)(=O)[O-])c6F)c6ccc([nH]6)c(-c6cccc(S(=O)(=O)[O-])c6F)c6nc(c(-c7cccc(S(=O)(=O)[O-])c7F)c7ccc4[nH]7)C=C6)C=C5)cc3)CC2)nc1
REMARK SMILES IDX 26 1 25 2 24 3 23 4 21 5 22 6 11 8 8 9 9 10 97 11 10 13
REMARK SMILES IDX 96 14 7 15 6 16 3 17 4 18 99 19 5 20 98 21 2 22 1 23 12 24
REMARK SMILES IDX 13 25 14 26 18 27 15 28 17 29 16 30 19 31 20 32 27 33 28 34
REMARK SMILES IDX 29 35 30 36 31 37 32 39 33 40 34 41 95 42 35 43 94 44 36 45
REMARK SMILES IDX 37 46 38 47 88 48 39 49 93 50 87 51 89 52 40 53 92 54 86 55
REMARK SMILES IDX 85 56 41 58 73 59 53 60 72 61 54 62 57 63 71 64 90 65 55 66
REMARK SMILES IDX 56 67 70 69 91 70 58 71 42 72 43 73 51 74 44 75 46 76 52 77
REMARK SMILES IDX 45 78 47 79 48 80 49 81 50 82 74 83 75 84 83 85 76 86 78 87
REMARK SMILES IDX 84 88 77 89 79 90 80 91 81 92 82 93 59 94 60 95 68 96 61 97
REMARK SMILES IDX 63 98 69 99 62 100 64 101 65 102 66 103 67 104
REMARK H PARENT 23 7 8 12 30 38 89 57 57 68
REMARK Flexibility Score: inf
ROOT
ATOM      1  C   UNL A   1      31.172  26.502  26.601  1.00  0.00     0.002 C 
ENDROOT
BRANCH   1   2
ATOM      2  C   UNL A   1      32.168  25.426  27.038  1.00  0.00     0.021 C 
BRANCH   2   3
ATOM      3  C   UNL A   1      32.126  24.155  26.196  1.00  0.00     0.116 C 
BRANCH   3   4
ATOM      4  N   UNL A   1      31.179  24.252  25.101  1.00  0.00    -0.353 N 
ATOM      5  C   UNL A   1      31.367  24.191  23.746  1.00  0.00     0.264 C 
ATOM      6  O   UNL A   1      30.331  24.104  23.076  1.00  0.00    -0.270 OA
ATOM      7  H   UNL A   1      30.244  24.382  25.379  1.00  0.00     0.163 HD
BRANCH   5   8
ATOM      8  C   UNL A   1      32.790  24.241  23.088  1.00  0.00     0.197 C 
ATOM      9  N   UNL A   1      33.400  27.055  22.468  1.00  0.00    -0.330 N 
ATOM     10  C   UNL A   1      33.386  26.586  23.856  1.00  0.00     0.267 C 
ATOM     11  C   UNL A   1      32.391  26.345  21.670  1.00  0.00     0.267 C 
ATOM     12  H   UNL A   1      34.316  26.835  22.075  1.00  0.00     0.348 HD
ATOM     13  C   UNL A   1      33.739  25.111  23.920  1.00  0.00     0.120 C 
ATOM     14  C   UNL A   1      32.668  24.833  21.663  1.00  0.00     0.120 C 
BRANCH   9  15
ATOM     15  C   UNL A   1      33.257  28.528  22.374  1.00  0.00     0.319 C 
BRANCH  15  16
ATOM     16  C   UNL A   1      31.860  29.080  22.619  1.00  0.00     0.095 A 
ATOM     17  C   UNL A   1      29.182  29.651  22.967  1.00  0.00    -0.030 A 
ATOM     18  C   UNL A   1      29.965  29.324  24.074  1.00  0.00     0.007 A 
ATOM     19  C   UNL A   1      29.821  29.707  21.732  1.00  0.00     0.115 A 
ATOM     20  C   UNL A   1      31.317  29.042  23.903  1.00  0.00     0.030 A 
ATOM     21  N   UNL A   1      31.132  29.449  21.537  1.00  0.00    -0.255 NA
BRANCH  17  22
ATOM     22  C   UNL A   1      27.697  29.858  23.072  1.00  0.00     0.034 C 
ATOM     23  C   UNL A   1      26.923  28.577  23.348  1.00  0.00     0.009 C 
ENDBRANCH  17  22
ENDBRANCH  15  16
ENDBRANCH   9  15
BRANCH   8  24
ATOM     24  O   UNL A   1      33.203  22.855  23.143  1.00  0.00    -0.473 OA
BRANCH  24  25
ATOM     25  C   UNL A   1      34.373  22.506  23.741  1.00  0.00     0.162 A 
ATOM     26  C   UNL A   1      35.544  22.993  23.149  1.00  0.00     0.050 A 
ATOM     27  C   UNL A   1      34.460  21.559  24.766  1.00  0.00     0.160 A 
ATOM     28  C   UNL A   1      36.794  22.578  23.608  1.00  0.00     0.004 A 
ATOM     29  C   UNL A   1      35.716  21.155  25.231  1.00  0.00     0.050 A 
ATOM     30  C   UNL A   1      36.880  21.656  24.649  1.00  0.00     0.004 A 
BRANCH  27  31
ATOM     31  O   UNL A   1      33.392  21.019  25.430  1.00  0.00    -0.493 OA
ATOM     32  C   UNL A   1      32.723  19.997  24.699  1.00  0.00     0.278 C 
ENDBRANCH  27  31
ENDBRANCH  24  25
ENDBRANCH   8  24
ENDBRANCH   5   8
ENDBRANCH   3   4
ENDBRANCH   2   3
ENDBRANCH   1   2
BRANCH   1  33
ATOM     33  C   UNL A   1      31.440  27.904  27.158  1.00  0.00     0.002 C 
BRANCH  33  34
ATOM     34  C   UNL A   1      32.888  28.183  27.577  1.00  0.00     0.021 C 
BRANCH  34  35
ATOM     35  C   UNL A   1      33.735  28.909  26.536  1.00  0.00     0.116 C 
BRANCH  35  36
ATOM     36  N   UNL A   1      33.787  30.341  26.781  1.00  0.00    -0.352 N 
ATOM     37  C   UNL A   1      34.642  31.072  27.564  1.00  0.00     0.251 C 
ATOM     38  H   UNL A   1      33.102  30.868  26.309  1.00  0.00     0.163 HD
ATOM     39  O   UNL A   1      34.379  32.249  27.801  1.00  0.00    -0.269 OA
BRANCH  37  40
ATOM     40  C   UNL A   1      35.866  30.462  28.130  1.00  0.00     0.039 A 
ATOM     41  C   UNL A   1      37.060  30.572  27.413  1.00  0.00     0.014 A 
ATOM     42  C   UNL A   1      35.837  29.739  29.327  1.00  0.00     0.014 A 
ATOM     43  C   UNL A   1      38.228  29.991  27.913  1.00  0.00     0.010 A 
ATOM     44  C   UNL A   1      37.019  29.220  29.860  1.00  0.00     0.010 A 
ATOM     45  C   UNL A   1      38.224  29.329  29.152  1.00  0.00    -0.014 A 
BRANCH  45  46
ATOM     46  C   UNL A   1      39.484  28.769  29.710  1.00  0.00     0.031 A 
ATOM     47  C   UNL A   1      40.111  29.353  30.949  1.00  0.00     0.074 A 
ATOM     48  C   UNL A   1      40.095  27.755  29.065  1.00  0.00     0.049 A 
ATOM     49  N   UNL A   1      41.175  28.953  31.598  1.00  0.00    -0.248 NA
ATOM     50  C   UNL A   1      39.481  30.554  31.523  1.00  0.00     0.031 C 
ATOM     51  C   UNL A   1      39.647  27.166  27.801  1.00  0.00     0.029 A 
ATOM     52  N   UNL A   1      41.231  27.049  29.374  1.00  0.00    -0.354 N 
ATOM     53  C   UNL A   1      41.363  29.867  32.628  1.00  0.00     0.074 A 
ATOM     54  C   UNL A   1      40.318  30.859  32.507  1.00  0.00     0.031 C 
ATOM     55  C   UNL A   1      40.486  26.179  27.451  1.00  0.00     0.029 A 
ATOM     56  C   UNL A   1      41.544  26.076  28.451  1.00  0.00     0.049 A 
ATOM     57  H   UNL A   1      41.771  27.221  30.178  1.00  0.00     0.167 HD
ATOM     58  C   UNL A   1      42.304  29.867  33.603  1.00  0.00     0.034 A 
ATOM     59  C   UNL A   1      42.563  25.195  28.419  1.00  0.00     0.034 A 
ATOM     60  C   UNL A   1      43.310  28.848  33.754  1.00  0.00     0.049 A 
ATOM     61  C   UNL A   1      43.546  25.173  29.559  1.00  0.00     0.074 A 
ATOM     62  C   UNL A   1      44.227  28.692  34.778  1.00  0.00     0.029 A 
ATOM     63  N   UNL A   1      43.540  27.823  32.852  1.00  0.00    -0.354 N 
ATOM     64  N   UNL A   1      43.579  25.918  30.637  1.00  0.00    -0.248 NA
ATOM     65  C   UNL A   1      44.607  24.156  29.499  1.00  0.00     0.031 C 
ATOM     66  C   UNL A   1      45.035  27.590  34.478  1.00  0.00     0.029 A 
ATOM     67  C   UNL A   1      44.599  27.042  33.284  1.00  0.00     0.049 A 
ATOM     68  H   UNL A   1      43.028  27.672  32.025  1.00  0.00     0.167 HD
ATOM     69  C   UNL A   1      44.639  25.438  31.398  1.00  0.00     0.074 A 
ATOM     70  C   UNL A   1      45.200  24.317  30.674  1.00  0.00     0.031 C 
ATOM     71  C   UNL A   1      45.118  25.897  32.581  1.00  0.00     0.034 A 
BRANCH  58  72
ATOM     72  C   UNL A   1      42.271  30.973  34.625  1.00  0.00     0.023 A 
ATOM     73  C   UNL A   1      41.556  30.795  35.826  1.00  0.00     0.012 A 
ATOM     74  C   UNL A   1      43.026  32.149  34.440  1.00  0.00     0.148 A 
ATOM     75  C   UNL A   1      41.574  31.775  36.818  1.00  0.00     0.002 A 
ATOM     76  C   UNL A   1      43.075  33.103  35.450  1.00  0.00     0.091 A 
ATOM     77  F   UNL A   1      43.684  32.310  33.283  1.00  0.00    -0.205 F 
ATOM     78  C   UNL A   1      42.342  32.922  36.634  1.00  0.00     0.022 A 
BRANCH  76  79
ATOM     79  S   UNL A   1      44.100  34.574  35.346  1.00  0.00     0.127 S 
ATOM     80  O   UNL A   1      43.824  35.028  33.981  1.00  0.00    -0.237 OA
ATOM     81  O   UNL A   1      43.526  35.421  36.395  1.00  0.00    -0.237 OA
ATOM     82  O   UNL A   1      45.462  34.138  35.592  1.00  0.00    -0.744 OA
ENDBRANCH  76  79
ENDBRANCH  58  72
BRANCH  59  83
ATOM     83  C   UNL A   1      42.672  24.211  27.304  1.00  0.00     0.023 A 
ATOM     84  C   UNL A   1      43.428  24.538  26.160  1.00  0.00     0.012 A 
ATOM     85  C   UNL A   1      42.035  22.958  27.369  1.00  0.00     0.148 A 
ATOM     86  C   UNL A   1      43.506  23.654  25.083  1.00  0.00     0.002 A 
ATOM     87  C   UNL A   1      42.167  22.058  26.317  1.00  0.00     0.091 A 
ATOM     88  F   UNL A   1      41.309  22.668  28.459  1.00  0.00    -0.205 F 
ATOM     89  C   UNL A   1      42.885  22.411  25.164  1.00  0.00     0.022 A 
BRANCH  87  90
ATOM     90  S   UNL A   1      41.513  20.387  26.405  1.00  0.00     0.127 S 
ATOM     91  O   UNL A   1      41.963  19.959  27.726  1.00  0.00    -0.237 OA
ATOM     92  O   UNL A   1      40.071  20.617  26.290  1.00  0.00    -0.237 OA
ATOM     93  O   UNL A   1      42.095  19.684  25.271  1.00  0.00    -0.744 OA
ENDBRANCH  87  90
ENDBRANCH  59  83
BRANCH  71  94
ATOM     94  C   UNL A   1      46.290  25.168  33.184  1.00  0.00     0.023 A 
ATOM     95  C   UNL A   1      47.598  25.653  32.980  1.00  0.00     0.012 A 
ATOM     96  C   UNL A   1      46.095  24.029  33.989  1.00  0.00     0.148 A 
ATOM     97  C   UNL A   1      48.695  24.988  33.526  1.00  0.00     0.002 A 
ATOM     98  C   UNL A   1      47.189  23.403  34.574  1.00  0.00     0.091 A 
ATOM     99  F   UNL A   1      44.846  23.570  34.159  1.00  0.00    -0.205 F 
ATOM    100  C   UNL A   1      48.490  23.870  34.331  1.00  0.00     0.022 A 
BRANCH  98 101
ATOM    101  S   UNL A   1      47.006  22.019  35.705  1.00  0.00     0.127 S 
ATOM    102  O   UNL A   1      48.398  21.714  36.031  1.00  0.00    -0.237 OA
ATOM    103  O   UNL A   1      46.237  22.610  36.802  1.00  0.00    -0.237 OA
ATOM    104  O   UNL A   1      46.294  20.989  34.960  1.00  0.00    -0.744 OA
ENDBRANCH  98 101
ENDBRANCH  71  94
ENDBRANCH  45  46
ENDBRANCH  37  40
ENDBRANCH  35  36
ENDBRANCH  34  35
ENDBRANCH  33  34
ENDBRANCH   1  33
TORSDOF 22
ENDMDL
