MODEL 1
REMARK VINA RESULT:     -12.8      0.000      0.000
REMARK SMILES Cc1ccc(C(=O)NCCCCCCNC(=O)c2ccc(-c3c4nc(c(-c5cccc(S(=O)(=O)[O-])c5F)c5ccc([nH]5)c(-c5cccc(S(=O)(=O)[O-])c5F)c5nc(c(-c6cccc(S(=O)(=O)[O-])c6F)c6ccc3[nH]6)C=C5)C=C4)cc2)c(Oc2cccc(F)c2C(N)=O)c1
REMARK SMILES IDX 11 1 10 2 9 3 8 4 6 5 7 6 5 8 1 9 2 10 3 11 93 12 4 13 81 14
REMARK SMILES IDX 82 15 83 16 84 17 89 18 85 19 87 20 86 21 88 22 90 23 91 24
REMARK SMILES IDX 92 25 12 28 13 29 14 30 15 31 16 32 17 34 18 35 19 36 80 37
REMARK SMILES IDX 20 38 79 39 21 40 22 41 23 42 73 43 24 44 78 45 72 46 74 47
REMARK SMILES IDX 25 48 77 49 71 50 70 51 26 53 58 54 38 55 57 56 39 57 42 58
REMARK SMILES IDX 56 59 75 60 40 61 41 62 55 64 76 65 43 66 27 67 28 68 36 69
REMARK SMILES IDX 29 70 31 71 37 72 30 73 32 74 33 75 34 76 35 77 59 78 60 79
REMARK SMILES IDX 68 80 61 81 63 82 69 83 62 84 64 85 65 86 66 87 67 88 44 89
REMARK SMILES IDX 45 90 53 91 46 92 48 93 54 94 47 95 49 96 50 97 51 98 52 99
REMARK H PARENT 8 7 91 26 91 27 15 33 74 52 42 63
REMARK Flexibility Score: inf
ROOT
ATOM      1  C   UNL A   1      35.427  22.479  24.534  1.00  0.00     0.002 C 
ENDROOT
BRANCH   1   2
ATOM      2  C   UNL A   1      33.990  22.661  25.020  1.00  0.00     0.021 C 
BRANCH   2   3
ATOM      3  C   UNL A   1      33.300  23.992  24.755  1.00  0.00     0.116 C 
BRANCH   3   4
ATOM      4  N   UNL A   1      33.488  24.588  23.463  1.00  0.00    -0.352 N 
ATOM      5  C   UNL A   1      33.623  25.913  23.113  1.00  0.00     0.255 C 
ATOM      6  O   UNL A   1      33.967  26.134  21.946  1.00  0.00    -0.269 OA
ATOM      7  H   UNL A   1      33.527  23.952  22.712  1.00  0.00     0.163 HD
BRANCH   5   8
ATOM      8  C   UNL A   1      33.311  27.099  23.989  1.00  0.00     0.082 A 
ATOM      9  C   UNL A   1      32.733  30.215  26.964  1.00  0.00     0.044 C 
ATOM     10  C   UNL A   1      32.923  29.119  25.958  1.00  0.00    -0.047 A 
ATOM     11  C   UNL A   1      33.903  28.147  26.133  1.00  0.00     0.004 A 
ATOM     12  C   UNL A   1      32.102  29.044  24.831  1.00  0.00     0.051 A 
ATOM     13  C   UNL A   1      34.083  27.148  25.171  1.00  0.00     0.018 A 
ATOM     14  C   UNL A   1      32.322  28.084  23.823  1.00  0.00     0.140 A 
BRANCH  14  15
ATOM     15  O   UNL A   1      31.478  28.050  22.746  1.00  0.00    -0.456 OA
BRANCH  15  16
ATOM     16  C   UNL A   1      30.102  28.091  22.887  1.00  0.00     0.143 A 
ATOM     17  C   UNL A   1      29.558  29.232  22.265  1.00  0.00     0.048 A 
ATOM     18  C   UNL A   1      29.245  27.236  23.607  1.00  0.00     0.117 A 
ATOM     19  C   UNL A   1      28.194  29.514  22.323  1.00  0.00     0.007 A 
ATOM     20  C   UNL A   1      27.876  27.536  23.655  1.00  0.00     0.139 A 
ATOM     21  C   UNL A   1      27.350  28.661  23.025  1.00  0.00     0.040 A 
ATOM     22  F   UNL A   1      27.027  26.752  24.336  1.00  0.00    -0.206 F 
BRANCH  18  23
ATOM     23  C   UNL A   1      29.618  25.965  24.256  1.00  0.00     0.255 C 
ATOM     24  N   UNL A   1      29.960  24.903  23.471  1.00  0.00    -0.365 N 
ATOM     25  O   UNL A   1      29.625  25.874  25.479  1.00  0.00    -0.269 OA
ATOM     26  H   UNL A   1      29.950  24.993  22.491  1.00  0.00     0.159 HD
ATOM     27  H   UNL A   1      30.217  24.047  23.884  1.00  0.00     0.159 HD
ENDBRANCH  18  23
ENDBRANCH  15  16
ENDBRANCH  14  15
ENDBRANCH   5   8
ENDBRANCH   3   4
ENDBRANCH   2   3
ENDBRANCH   1   2
BRANCH   1  28
ATOM     28  C   UNL A   1      36.160  21.173  24.869  1.00  0.00     0.002 C 
BRANCH  28  29
ATOM     29  C   UNL A   1      37.680  21.208  25.012  1.00  0.00     0.021 C 
BRANCH  29  30
ATOM     30  C   UNL A   1      38.256  22.405  25.747  1.00  0.00     0.116 C 
BRANCH  30  31
ATOM     31  N   UNL A   1      39.647  22.249  26.136  1.00  0.00    -0.352 N 
ATOM     32  C   UNL A   1      40.557  23.215  26.526  1.00  0.00     0.251 C 
ATOM     33  H   UNL A   1      39.990  21.326  26.118  1.00  0.00     0.163 HD
ATOM     34  O   UNL A   1      41.741  22.903  26.645  1.00  0.00    -0.269 OA
BRANCH  32  35
ATOM     35  C   UNL A   1      40.079  24.566  26.909  1.00  0.00     0.039 A 
ATOM     36  C   UNL A   1      40.664  25.673  26.280  1.00  0.00     0.014 A 
ATOM     37  C   UNL A   1      39.244  24.751  28.009  1.00  0.00     0.014 A 
ATOM     38  C   UNL A   1      40.628  26.918  26.906  1.00  0.00     0.010 A 
ATOM     39  C   UNL A   1      39.280  25.954  28.677  1.00  0.00     0.010 A 
ATOM     40  C   UNL A   1      40.030  27.012  28.158  1.00  0.00    -0.014 A 
BRANCH  40  41
ATOM     41  C   UNL A   1      40.194  28.135  29.063  1.00  0.00     0.031 A 
ATOM     42  C   UNL A   1      39.308  29.305  28.976  1.00  0.00     0.074 A 
ATOM     43  C   UNL A   1      41.044  27.993  30.104  1.00  0.00     0.049 A 
ATOM     44  N   UNL A   1      39.600  30.463  29.458  1.00  0.00    -0.248 NA
ATOM     45  C   UNL A   1      38.007  29.246  28.322  1.00  0.00     0.031 C 
ATOM     46  C   UNL A   1      41.096  28.784  31.326  1.00  0.00     0.029 A 
ATOM     47  N   UNL A   1      42.194  27.202  30.158  1.00  0.00    -0.354 N 
ATOM     48  C   UNL A   1      38.439  31.202  29.448  1.00  0.00     0.074 A 
ATOM     49  C   UNL A   1      37.501  30.437  28.657  1.00  0.00     0.031 C 
ATOM     50  C   UNL A   1      42.322  28.667  31.859  1.00  0.00     0.029 A 
ATOM     51  C   UNL A   1      43.133  27.942  30.895  1.00  0.00     0.049 A 
ATOM     52  H   UNL A   1      42.320  26.309  29.762  1.00  0.00     0.167 HD
ATOM     53  C   UNL A   1      38.327  32.289  30.262  1.00  0.00     0.034 A 
ATOM     54  C   UNL A   1      44.327  28.362  30.384  1.00  0.00     0.034 A 
ATOM     55  C   UNL A   1      39.550  32.499  31.042  1.00  0.00     0.049 A 
ATOM     56  C   UNL A   1      44.512  29.867  30.466  1.00  0.00     0.074 A 
ATOM     57  C   UNL A   1      39.915  32.137  32.330  1.00  0.00     0.029 A 
ATOM     58  N   UNL A   1      40.718  32.892  30.403  1.00  0.00    -0.354 N 
ATOM     59  N   UNL A   1      43.567  30.707  30.790  1.00  0.00    -0.248 NA
ATOM     60  C   UNL A   1      45.768  30.547  30.172  1.00  0.00     0.031 C 
ATOM     61  C   UNL A   1      41.323  32.265  32.446  1.00  0.00     0.029 A 
ATOM     62  C   UNL A   1      41.815  32.725  31.237  1.00  0.00     0.049 A 
ATOM     63  H   UNL A   1      40.764  33.242  29.484  1.00  0.00     0.167 HD
ATOM     64  C   UNL A   1      44.011  32.000  30.653  1.00  0.00     0.074 A 
ATOM     65  C   UNL A   1      45.420  31.837  30.333  1.00  0.00     0.031 C 
ATOM     66  C   UNL A   1      43.157  33.068  30.772  1.00  0.00     0.034 A 
BRANCH  53  67
ATOM     67  C   UNL A   1      36.985  32.897  30.616  1.00  0.00     0.023 A 
ATOM     68  C   UNL A   1      36.464  32.637  31.902  1.00  0.00     0.012 A 
ATOM     69  C   UNL A   1      36.163  33.645  29.746  1.00  0.00     0.148 A 
ATOM     70  C   UNL A   1      35.161  32.988  32.269  1.00  0.00     0.002 A 
ATOM     71  C   UNL A   1      34.836  33.932  30.082  1.00  0.00     0.091 A 
ATOM     72  F   UNL A   1      36.679  34.130  28.607  1.00  0.00    -0.205 F 
ATOM     73  C   UNL A   1      34.331  33.598  31.343  1.00  0.00     0.022 A 
BRANCH  71  74
ATOM     74  S   UNL A   1      33.666  34.606  28.888  1.00  0.00     0.127 S 
ATOM     75  O   UNL A   1      34.405  35.742  28.330  1.00  0.00    -0.237 OA
ATOM     76  O   UNL A   1      33.480  33.492  27.962  1.00  0.00    -0.237 OA
ATOM     77  O   UNL A   1      32.496  34.995  29.666  1.00  0.00    -0.744 OA
ENDBRANCH  71  74
ENDBRANCH  53  67
BRANCH  54  78
ATOM     78  C   UNL A   1      44.861  27.474  29.306  1.00  0.00     0.023 A 
ATOM     79  C   UNL A   1      45.193  26.148  29.679  1.00  0.00     0.012 A 
ATOM     80  C   UNL A   1      44.664  27.763  27.945  1.00  0.00     0.148 A 
ATOM     81  C   UNL A   1      45.168  25.110  28.745  1.00  0.00     0.002 A 
ATOM     82  C   UNL A   1      44.658  26.722  27.015  1.00  0.00     0.091 A 
ATOM     83  F   UNL A   1      44.409  29.027  27.584  1.00  0.00    -0.205 F 
ATOM     84  C   UNL A   1      44.862  25.394  27.419  1.00  0.00     0.022 A 
BRANCH  82  85
ATOM     85  S   UNL A   1      44.267  27.024  25.286  1.00  0.00     0.127 S 
ATOM     86  O   UNL A   1      45.572  27.405  24.754  1.00  0.00    -0.237 OA
ATOM     87  O   UNL A   1      43.777  25.722  24.836  1.00  0.00    -0.237 OA
ATOM     88  O   UNL A   1      43.249  28.063  25.320  1.00  0.00    -0.744 OA
ENDBRANCH  82  85
ENDBRANCH  54  78
BRANCH  66  89
ATOM     89  C   UNL A   1      43.458  34.534  30.468  1.00  0.00     0.023 A 
ATOM     90  C   UNL A   1      43.906  35.445  31.441  1.00  0.00     0.012 A 
ATOM     91  C   UNL A   1      43.411  35.028  29.131  1.00  0.00     0.148 A 
ATOM     92  C   UNL A   1      44.261  36.765  31.126  1.00  0.00     0.002 A 
ATOM     93  C   UNL A   1      43.870  36.303  28.807  1.00  0.00     0.091 A 
ATOM     94  F   UNL A   1      42.882  34.278  28.154  1.00  0.00    -0.205 F 
ATOM     95  C   UNL A   1      44.273  37.185  29.806  1.00  0.00     0.022 A 
BRANCH  93  96
ATOM     96  S   UNL A   1      44.100  36.801  27.093  1.00  0.00     0.127 S 
ATOM     97  O   UNL A   1      42.748  36.673  26.555  1.00  0.00    -0.237 OA
ATOM     98  O   UNL A   1      44.573  38.180  27.228  1.00  0.00    -0.237 OA
ATOM     99  O   UNL A   1      45.096  35.882  26.560  1.00  0.00    -0.744 OA
ENDBRANCH  93  96
ENDBRANCH  66  89
ENDBRANCH  40  41
ENDBRANCH  32  35
ENDBRANCH  30  31
ENDBRANCH  29  30
ENDBRANCH  28  29
ENDBRANCH   1  28
TORSDOF 19
ENDMDL
MODEL 2
REMARK VINA RESULT:     -12.4      1.966      3.054
REMARK SMILES Cc1ccc(C(=O)NCCCCCCNC(=O)c2ccc(-c3c4nc(c(-c5cccc(S(=O)(=O)[O-])c5F)c5ccc([nH]5)c(-c5cccc(S(=O)(=O)[O-])c5F)c5nc(c(-c6cccc(S(=O)(=O)[O-])c6F)c6ccc3[nH]6)C=C5)C=C4)cc2)c(Oc2cccc(F)c2C(N)=O)c1
REMARK SMILES IDX 11 1 10 2 9 3 8 4 6 5 7 6 5 8 1 9 2 10 3 11 93 12 4 13 81 14
REMARK SMILES IDX 82 15 83 16 84 17 89 18 85 19 87 20 86 21 88 22 90 23 91 24
REMARK SMILES IDX 92 25 12 28 13 29 14 30 15 31 16 32 17 34 18 35 19 36 80 37
REMARK SMILES IDX 20 38 79 39 21 40 22 41 23 42 73 43 24 44 78 45 72 46 74 47
REMARK SMILES IDX 25 48 77 49 71 50 70 51 26 53 58 54 38 55 57 56 39 57 42 58
REMARK SMILES IDX 56 59 75 60 40 61 41 62 55 64 76 65 43 66 27 67 28 68 36 69
REMARK SMILES IDX 29 70 31 71 37 72 30 73 32 74 33 75 34 76 35 77 59 78 60 79
REMARK SMILES IDX 68 80 61 81 63 82 69 83 62 84 64 85 65 86 66 87 67 88 44 89
REMARK SMILES IDX 45 90 53 91 46 92 48 93 54 94 47 95 49 96 50 97 51 98 52 99
REMARK H PARENT 8 7 91 26 91 27 15 33 74 52 42 63
REMARK Flexibility Score: inf
ROOT
ATOM      1  C   UNL A   1      36.608  22.225  24.017  1.00  0.00     0.002 C 
ENDROOT
BRANCH   1   2
ATOM      2  C   UNL A   1      35.922  23.380  24.745  1.00  0.00     0.021 C 
BRANCH   2   3
ATOM      3  C   UNL A   1      34.853  24.171  24.002  1.00  0.00     0.116 C 
BRANCH   3   4
ATOM      4  N   UNL A   1      34.405  23.650  22.741  1.00  0.00    -0.352 N 
ATOM      5  C   UNL A   1      33.312  24.001  21.980  1.00  0.00     0.255 C 
ATOM      6  O   UNL A   1      33.269  23.525  20.840  1.00  0.00    -0.269 OA
ATOM      7  H   UNL A   1      34.964  22.934  22.363  1.00  0.00     0.163 HD
BRANCH   5   8
ATOM      8  C   UNL A   1      32.143  24.835  22.436  1.00  0.00     0.082 A 
ATOM      9  C   UNL A   1      29.143  27.735  23.655  1.00  0.00     0.044 C 
ATOM     10  C   UNL A   1      30.198  26.748  23.253  1.00  0.00    -0.047 A 
ATOM     11  C   UNL A   1      31.315  27.149  22.527  1.00  0.00     0.004 A 
ATOM     12  C   UNL A   1      30.086  25.405  23.619  1.00  0.00     0.051 A 
ATOM     13  C   UNL A   1      32.276  26.208  22.139  1.00  0.00     0.018 A 
ATOM     14  C   UNL A   1      31.011  24.441  23.173  1.00  0.00     0.140 A 
BRANCH  14  15
ATOM     15  O   UNL A   1      30.858  23.141  23.573  1.00  0.00    -0.456 OA
BRANCH  15  16
ATOM     16  C   UNL A   1      31.710  22.548  24.489  1.00  0.00     0.143 A 
ATOM     17  C   UNL A   1      32.312  21.392  23.952  1.00  0.00     0.048 A 
ATOM     18  C   UNL A   1      31.961  22.882  25.833  1.00  0.00     0.117 A 
ATOM     19  C   UNL A   1      33.168  20.596  24.712  1.00  0.00     0.007 A 
ATOM     20  C   UNL A   1      32.825  22.070  26.582  1.00  0.00     0.139 A 
ATOM     21  C   UNL A   1      33.423  20.938  26.034  1.00  0.00     0.040 A 
ATOM     22  F   UNL A   1      33.085  22.350  27.868  1.00  0.00    -0.206 F 
BRANCH  18  23
ATOM     23  C   UNL A   1      31.483  24.086  26.542  1.00  0.00     0.255 C 
ATOM     24  N   UNL A   1      32.207  25.238  26.440  1.00  0.00    -0.365 N 
ATOM     25  O   UNL A   1      30.450  24.045  27.200  1.00  0.00    -0.269 OA
ATOM     26  H   UNL A   1      33.034  25.253  25.906  1.00  0.00     0.159 HD
ATOM     27  H   UNL A   1      31.903  26.053  26.900  1.00  0.00     0.159 HD
ENDBRANCH  18  23
ENDBRANCH  15  16
ENDBRANCH  14  15
ENDBRANCH   5   8
ENDBRANCH   3   4
ENDBRANCH   2   3
ENDBRANCH   1   2
BRANCH   1  28
ATOM     28  C   UNL A   1      37.075  21.012  24.833  1.00  0.00     0.002 C 
BRANCH  28  29
ATOM     29  C   UNL A   1      38.501  21.008  25.380  1.00  0.00     0.021 C 
BRANCH  29  30
ATOM     30  C   UNL A   1      38.933  22.254  26.133  1.00  0.00     0.116 C 
BRANCH  30  31
ATOM     31  N   UNL A   1      40.372  22.387  26.282  1.00  0.00    -0.352 N 
ATOM     32  C   UNL A   1      41.127  23.532  26.461  1.00  0.00     0.251 C 
ATOM     33  H   UNL A   1      40.881  21.545  26.249  1.00  0.00     0.163 HD
ATOM     34  O   UNL A   1      42.353  23.454  26.388  1.00  0.00    -0.269 OA
BRANCH  32  35
ATOM     35  C   UNL A   1      40.463  24.799  26.856  1.00  0.00     0.039 A 
ATOM     36  C   UNL A   1      40.834  25.972  26.185  1.00  0.00     0.014 A 
ATOM     37  C   UNL A   1      39.668  24.871  27.997  1.00  0.00     0.014 A 
ATOM     38  C   UNL A   1      40.636  27.208  26.800  1.00  0.00     0.010 A 
ATOM     39  C   UNL A   1      39.549  26.077  28.650  1.00  0.00     0.010 A 
ATOM     40  C   UNL A   1      40.096  27.230  28.081  1.00  0.00    -0.014 A 
BRANCH  40  41
ATOM     41  C   UNL A   1      40.128  28.381  28.965  1.00  0.00     0.031 A 
ATOM     42  C   UNL A   1      39.231  29.523  28.742  1.00  0.00     0.074 A 
ATOM     43  C   UNL A   1      40.856  28.290  30.100  1.00  0.00     0.049 A 
ATOM     44  N   UNL A   1      39.438  30.702  29.219  1.00  0.00    -0.248 NA
ATOM     45  C   UNL A   1      38.015  29.411  27.946  1.00  0.00     0.031 C 
ATOM     46  C   UNL A   1      40.749  29.115  31.295  1.00  0.00     0.029 A 
ATOM     47  N   UNL A   1      42.010  27.532  30.308  1.00  0.00    -0.354 N 
ATOM     48  C   UNL A   1      38.269  31.409  29.054  1.00  0.00     0.074 A 
ATOM     49  C   UNL A   1      37.447  30.597  28.185  1.00  0.00     0.031 C 
ATOM     50  C   UNL A   1      41.908  29.045  31.968  1.00  0.00     0.029 A 
ATOM     51  C   UNL A   1      42.842  28.317  31.126  1.00  0.00     0.049 A 
ATOM     52  H   UNL A   1      42.203  26.632  29.956  1.00  0.00     0.167 HD
ATOM     53  C   UNL A   1      38.038  32.514  29.817  1.00  0.00     0.034 A 
ATOM     54  C   UNL A   1      44.076  28.754  30.742  1.00  0.00     0.034 A 
ATOM     55  C   UNL A   1      39.159  32.778  30.725  1.00  0.00     0.049 A 
ATOM     56  C   UNL A   1      44.214  30.266  30.799  1.00  0.00     0.074 A 
ATOM     57  C   UNL A   1      39.382  32.461  32.057  1.00  0.00     0.029 A 
ATOM     58  N   UNL A   1      40.383  33.185  30.212  1.00  0.00    -0.354 N 
ATOM     59  N   UNL A   1      43.219  31.088  30.987  1.00  0.00    -0.248 NA
ATOM     60  C   UNL A   1      45.479  30.971  30.630  1.00  0.00     0.031 C 
ATOM     61  C   UNL A   1      40.763  32.630  32.329  1.00  0.00     0.029 A 
ATOM     62  C   UNL A   1      41.380  33.070  31.171  1.00  0.00     0.049 A 
ATOM     63  H   UNL A   1      40.525  33.511  29.294  1.00  0.00     0.167 HD
ATOM     64  C   UNL A   1      43.645  32.388  30.863  1.00  0.00     0.074 A 
ATOM     65  C   UNL A   1      45.085  32.255  30.712  1.00  0.00     0.031 C 
ATOM     66  C   UNL A   1      42.758  33.436  30.852  1.00  0.00     0.034 A 
BRANCH  53  67
ATOM     67  C   UNL A   1      36.650  33.095  29.997  1.00  0.00     0.023 A 
ATOM     68  C   UNL A   1      36.059  33.739  28.889  1.00  0.00     0.012 A 
ATOM     69  C   UNL A   1      35.916  33.119  31.203  1.00  0.00     0.148 A 
ATOM     70  C   UNL A   1      34.871  34.469  28.992  1.00  0.00     0.002 A 
ATOM     71  C   UNL A   1      34.768  33.908  31.327  1.00  0.00     0.091 A 
ATOM     72  F   UNL A   1      36.296  32.335  32.221  1.00  0.00    -0.205 F 
ATOM     73  C   UNL A   1      34.247  34.589  30.223  1.00  0.00     0.022 A 
BRANCH  71  74
ATOM     74  S   UNL A   1      33.980  34.213  32.919  1.00  0.00     0.127 S 
ATOM     75  O   UNL A   1      33.071  35.321  32.613  1.00  0.00    -0.237 OA
ATOM     76  O   UNL A   1      33.315  32.943  33.194  1.00  0.00    -0.237 OA
ATOM     77  O   UNL A   1      35.063  34.578  33.826  1.00  0.00    -0.744 OA
ENDBRANCH  71  74
ENDBRANCH  53  67
BRANCH  54  78
ATOM     78  C   UNL A   1      44.751  27.853  29.759  1.00  0.00     0.023 A 
ATOM     79  C   UNL A   1      45.016  26.528  30.187  1.00  0.00     0.012 A 
ATOM     80  C   UNL A   1      44.752  28.129  28.381  1.00  0.00     0.148 A 
ATOM     81  C   UNL A   1      45.116  25.481  29.269  1.00  0.00     0.002 A 
ATOM     82  C   UNL A   1      44.870  27.078  27.469  1.00  0.00     0.091 A 
ATOM     83  F   UNL A   1      44.561  29.391  27.976  1.00  0.00    -0.205 F 
ATOM     84  C   UNL A   1      45.004  25.753  27.911  1.00  0.00     0.022 A 
BRANCH  82  85
ATOM     85  S   UNL A   1      44.733  27.365  25.700  1.00  0.00     0.127 S 
ATOM     86  O   UNL A   1      46.036  27.948  25.396  1.00  0.00    -0.237 OA
ATOM     87  O   UNL A   1      44.524  26.018  25.172  1.00  0.00    -0.237 OA
ATOM     88  O   UNL A   1      43.578  28.242  25.563  1.00  0.00    -0.744 OA
ENDBRANCH  82  85
ENDBRANCH  54  78
BRANCH  66  89
ATOM     89  C   UNL A   1      43.057  34.901  30.540  1.00  0.00     0.023 A 
ATOM     90  C   UNL A   1      43.466  35.827  31.517  1.00  0.00     0.012 A 
ATOM     91  C   UNL A   1      43.050  35.379  29.197  1.00  0.00     0.148 A 
ATOM     92  C   UNL A   1      43.821  37.146  31.197  1.00  0.00     0.002 A 
ATOM     93  C   UNL A   1      43.509  36.654  28.872  1.00  0.00     0.091 A 
ATOM     94  F   UNL A   1      42.559  34.613  28.212  1.00  0.00    -0.205 F 
ATOM     95  C   UNL A   1      43.872  37.551  29.873  1.00  0.00     0.022 A 
BRANCH  93  96
ATOM     96  S   UNL A   1      43.791  37.134  27.161  1.00  0.00     0.127 S 
ATOM     97  O   UNL A   1      44.021  38.572  27.283  1.00  0.00    -0.237 OA
ATOM     98  O   UNL A   1      44.979  36.355  26.808  1.00  0.00    -0.237 OA
ATOM     99  O   UNL A   1      42.585  36.733  26.450  1.00  0.00    -0.744 OA
ENDBRANCH  93  96
ENDBRANCH  66  89
ENDBRANCH  40  41
ENDBRANCH  32  35
ENDBRANCH  30  31
ENDBRANCH  29  30
ENDBRANCH  28  29
ENDBRANCH   1  28
TORSDOF 19
ENDMDL
MODEL 3
REMARK VINA RESULT:     -11.8      1.417      2.504
REMARK SMILES Cc1ccc(C(=O)NCCCCCCNC(=O)c2ccc(-c3c4nc(c(-c5cccc(S(=O)(=O)[O-])c5F)c5ccc([nH]5)c(-c5cccc(S(=O)(=O)[O-])c5F)c5nc(c(-c6cccc(S(=O)(=O)[O-])c6F)c6ccc3[nH]6)C=C5)C=C4)cc2)c(Oc2cccc(F)c2C(N)=O)c1
REMARK SMILES IDX 11 1 10 2 9 3 8 4 6 5 7 6 5 8 1 9 2 10 3 11 93 12 4 13 81 14
REMARK SMILES IDX 82 15 83 16 84 17 89 18 85 19 87 20 86 21 88 22 90 23 91 24
REMARK SMILES IDX 92 25 12 28 13 29 14 30 15 31 16 32 17 34 18 35 19 36 80 37
REMARK SMILES IDX 20 38 79 39 21 40 22 41 23 42 73 43 24 44 78 45 72 46 74 47
REMARK SMILES IDX 25 48 77 49 71 50 70 51 26 53 58 54 38 55 57 56 39 57 42 58
REMARK SMILES IDX 56 59 75 60 40 61 41 62 55 64 76 65 43 66 27 67 28 68 36 69
REMARK SMILES IDX 29 70 31 71 37 72 30 73 32 74 33 75 34 76 35 77 59 78 60 79
REMARK SMILES IDX 68 80 61 81 63 82 69 83 62 84 64 85 65 86 66 87 67 88 44 89
REMARK SMILES IDX 45 90 53 91 46 92 48 93 54 94 47 95 49 96 50 97 51 98 52 99
REMARK H PARENT 8 7 91 26 91 27 15 33 74 52 42 63
REMARK Flexibility Score: inf
ROOT
ATOM      1  C   UNL A   1      35.667  23.001  25.503  1.00  0.00     0.002 C 
ENDROOT
BRANCH   1   2
ATOM      2  C   UNL A   1      34.841  23.212  26.771  1.00  0.00     0.021 C 
BRANCH   2   3
ATOM      3  C   UNL A   1      33.909  22.096  27.222  1.00  0.00     0.116 C 
BRANCH   3   4
ATOM      4  N   UNL A   1      32.503  22.385  27.259  1.00  0.00    -0.352 N 
ATOM      5  C   UNL A   1      31.640  22.704  26.234  1.00  0.00     0.255 C 
ATOM      6  O   UNL A   1      30.437  22.715  26.521  1.00  0.00    -0.269 OA
ATOM      7  H   UNL A   1      32.093  22.351  28.154  1.00  0.00     0.163 HD
BRANCH   5   8
ATOM      8  C   UNL A   1      32.032  23.114  24.838  1.00  0.00     0.082 A 
ATOM      9  C   UNL A   1      33.293  23.687  20.718  1.00  0.00     0.044 C 
ATOM     10  C   UNL A   1      32.883  23.474  22.144  1.00  0.00    -0.047 A 
ATOM     11  C   UNL A   1      32.567  22.204  22.617  1.00  0.00     0.004 A 
ATOM     12  C   UNL A   1      32.831  24.549  23.034  1.00  0.00     0.051 A 
ATOM     13  C   UNL A   1      32.162  22.028  23.945  1.00  0.00     0.018 A 
ATOM     14  C   UNL A   1      32.357  24.393  24.351  1.00  0.00     0.140 A 
BRANCH  14  15
ATOM     15  O   UNL A   1      32.338  25.480  25.182  1.00  0.00    -0.456 OA
BRANCH  15  16
ATOM     16  C   UNL A   1      31.658  26.642  24.859  1.00  0.00     0.143 A 
ATOM     17  C   UNL A   1      30.576  26.376  23.996  1.00  0.00     0.048 A 
ATOM     18  C   UNL A   1      31.949  27.978  25.192  1.00  0.00     0.117 A 
ATOM     19  C   UNL A   1      29.777  27.401  23.491  1.00  0.00     0.007 A 
ATOM     20  C   UNL A   1      31.134  28.996  24.676  1.00  0.00     0.139 A 
ATOM     21  C   UNL A   1      30.061  28.718  23.833  1.00  0.00     0.040 A 
ATOM     22  F   UNL A   1      31.383  30.283  24.963  1.00  0.00    -0.206 F 
BRANCH  18  23
ATOM     23  C   UNL A   1      32.987  28.441  26.134  1.00  0.00     0.255 C 
ATOM     24  N   UNL A   1      34.187  28.854  25.634  1.00  0.00    -0.365 N 
ATOM     25  O   UNL A   1      32.765  28.457  27.339  1.00  0.00    -0.269 OA
ATOM     26  H   UNL A   1      34.348  28.835  24.663  1.00  0.00     0.159 HD
ATOM     27  H   UNL A   1      34.892  29.171  26.244  1.00  0.00     0.159 HD
ENDBRANCH  18  23
ENDBRANCH  15  16
ENDBRANCH  14  15
ENDBRANCH   5   8
ENDBRANCH   3   4
ENDBRANCH   2   3
ENDBRANCH   1   2
BRANCH   1  28
ATOM     28  C   UNL A   1      36.660  21.833  25.455  1.00  0.00     0.002 C 
BRANCH  28  29
ATOM     29  C   UNL A   1      38.145  22.147  25.274  1.00  0.00     0.021 C 
BRANCH  29  30
ATOM     30  C   UNL A   1      39.015  22.009  26.511  1.00  0.00     0.116 C 
BRANCH  30  31
ATOM     31  N   UNL A   1      40.427  22.248  26.272  1.00  0.00    -0.352 N 
ATOM     32  C   UNL A   1      41.110  23.449  26.215  1.00  0.00     0.251 C 
ATOM     33  H   UNL A   1      40.975  21.442  26.130  1.00  0.00     0.163 HD
ATOM     34  O   UNL A   1      42.277  23.452  25.824  1.00  0.00    -0.269 OA
BRANCH  32  35
ATOM     35  C   UNL A   1      40.474  24.684  26.735  1.00  0.00     0.039 A 
ATOM     36  C   UNL A   1      40.744  25.891  26.076  1.00  0.00     0.014 A 
ATOM     37  C   UNL A   1      39.815  24.694  27.962  1.00  0.00     0.014 A 
ATOM     38  C   UNL A   1      40.597  27.097  26.759  1.00  0.00     0.010 A 
ATOM     39  C   UNL A   1      39.751  25.871  28.674  1.00  0.00     0.010 A 
ATOM     40  C   UNL A   1      40.208  27.057  28.094  1.00  0.00    -0.014 A 
BRANCH  40  41
ATOM     41  C   UNL A   1      40.322  28.173  29.015  1.00  0.00     0.031 A 
ATOM     42  C   UNL A   1      39.390  29.307  28.938  1.00  0.00     0.074 A 
ATOM     43  C   UNL A   1      41.171  28.051  30.059  1.00  0.00     0.049 A 
ATOM     44  N   UNL A   1      39.633  30.470  29.438  1.00  0.00    -0.248 NA
ATOM     45  C   UNL A   1      38.097  29.206  28.276  1.00  0.00     0.031 C 
ATOM     46  C   UNL A   1      41.185  28.827  31.292  1.00  0.00     0.029 A 
ATOM     47  N   UNL A   1      42.351  27.305  30.109  1.00  0.00    -0.354 N 
ATOM     48  C   UNL A   1      38.444  31.163  29.430  1.00  0.00     0.074 A 
ATOM     49  C   UNL A   1      37.542  30.371  28.623  1.00  0.00     0.031 C 
ATOM     50  C   UNL A   1      42.411  28.751  31.831  1.00  0.00     0.029 A 
ATOM     51  C   UNL A   1      43.257  28.073  30.863  1.00  0.00     0.049 A 
ATOM     52  H   UNL A   1      42.516  26.424  29.702  1.00  0.00     0.167 HD
ATOM     53  C   UNL A   1      38.284  32.233  30.258  1.00  0.00     0.034 A 
ATOM     54  C   UNL A   1      44.436  28.546  30.364  1.00  0.00     0.034 A 
ATOM     55  C   UNL A   1      39.494  32.481  31.048  1.00  0.00     0.049 A 
ATOM     56  C   UNL A   1      44.559  30.056  30.468  1.00  0.00     0.074 A 
ATOM     57  C   UNL A   1      39.866  32.116  32.333  1.00  0.00     0.029 A 
ATOM     58  N   UNL A   1      40.649  32.929  30.422  1.00  0.00    -0.354 N 
ATOM     59  N   UNL A   1      43.580  30.853  30.796  1.00  0.00    -0.248 NA
ATOM     60  C   UNL A   1      45.789  30.790  30.191  1.00  0.00     0.031 C 
ATOM     61  C   UNL A   1      41.266  32.299  32.460  1.00  0.00     0.029 A 
ATOM     62  C   UNL A   1      41.746  32.794  31.260  1.00  0.00     0.049 A 
ATOM     63  H   UNL A   1      40.685  33.293  29.507  1.00  0.00     0.167 HD
ATOM     64  C   UNL A   1      43.973  32.165  30.680  1.00  0.00     0.074 A 
ATOM     65  C   UNL A   1      45.389  32.063  30.366  1.00  0.00     0.031 C 
ATOM     66  C   UNL A   1      43.076  33.196  30.808  1.00  0.00     0.034 A 
BRANCH  53  67
ATOM     67  C   UNL A   1      36.917  32.782  30.612  1.00  0.00     0.023 A 
ATOM     68  C   UNL A   1      36.355  32.401  31.850  1.00  0.00     0.012 A 
ATOM     69  C   UNL A   1      36.111  33.588  29.779  1.00  0.00     0.148 A 
ATOM     70  C   UNL A   1      35.033  32.693  32.195  1.00  0.00     0.002 A 
ATOM     71  C   UNL A   1      34.766  33.819  30.088  1.00  0.00     0.091 A 
ATOM     72  F   UNL A   1      36.657  34.180  28.707  1.00  0.00    -0.205 F 
ATOM     73  C   UNL A   1      34.224  33.366  31.295  1.00  0.00     0.022 A 
BRANCH  71  74
ATOM     74  S   UNL A   1      33.626  34.572  28.913  1.00  0.00     0.127 S 
ATOM     75  O   UNL A   1      32.499  34.953  29.768  1.00  0.00    -0.237 OA
ATOM     76  O   UNL A   1      34.400  35.697  28.395  1.00  0.00    -0.237 OA
ATOM     77  O   UNL A   1      33.304  33.521  27.954  1.00  0.00    -0.744 OA
ENDBRANCH  71  74
ENDBRANCH  53  67
BRANCH  54  78
ATOM     78  C   UNL A   1      45.011  27.695  29.278  1.00  0.00     0.023 A 
ATOM     79  C   UNL A   1      45.418  26.387  29.641  1.00  0.00     0.012 A 
ATOM     80  C   UNL A   1      44.789  27.981  27.920  1.00  0.00     0.148 A 
ATOM     81  C   UNL A   1      45.443  25.355  28.701  1.00  0.00     0.002 A 
ATOM     82  C   UNL A   1      44.834  26.945  26.983  1.00  0.00     0.091 A 
ATOM     83  F   UNL A   1      44.462  29.231  27.568  1.00  0.00    -0.205 F 
ATOM     84  C   UNL A   1      45.114  25.628  27.379  1.00  0.00     0.022 A 
BRANCH  82  85
ATOM     85  S   UNL A   1      44.416  27.235  25.259  1.00  0.00     0.127 S 
ATOM     86  O   UNL A   1      45.685  27.725  24.729  1.00  0.00    -0.237 OA
ATOM     87  O   UNL A   1      44.030  25.904  24.794  1.00  0.00    -0.237 OA
ATOM     88  O   UNL A   1      43.318  28.189  25.307  1.00  0.00    -0.744 OA
ENDBRANCH  82  85
ENDBRANCH  54  78
BRANCH  66  89
ATOM     89  C   UNL A   1      43.320  34.677  30.525  1.00  0.00     0.023 A 
ATOM     90  C   UNL A   1      43.702  35.597  31.518  1.00  0.00     0.012 A 
ATOM     91  C   UNL A   1      43.286  35.182  29.192  1.00  0.00     0.148 A 
ATOM     92  C   UNL A   1      44.007  36.934  31.224  1.00  0.00     0.002 A 
ATOM     93  C   UNL A   1      43.697  36.479  28.892  1.00  0.00     0.091 A 
ATOM     94  F   UNL A   1      42.817  34.420  28.194  1.00  0.00    -0.205 F 
ATOM     95  C   UNL A   1      44.034  37.368  29.909  1.00  0.00     0.022 A 
BRANCH  93  96
ATOM     96  S   UNL A   1      43.949  37.005  27.189  1.00  0.00     0.127 S 
ATOM     97  O   UNL A   1      42.677  36.644  26.568  1.00  0.00    -0.237 OA
ATOM     98  O   UNL A   1      44.168  38.445  27.334  1.00  0.00    -0.237 OA
ATOM     99  O   UNL A   1      45.121  36.269  26.734  1.00  0.00    -0.744 OA
ENDBRANCH  93  96
ENDBRANCH  66  89
ENDBRANCH  40  41
ENDBRANCH  32  35
ENDBRANCH  30  31
ENDBRANCH  29  30
ENDBRANCH  28  29
ENDBRANCH   1  28
TORSDOF 19
ENDMDL
