MODEL 1
REMARK VINA RESULT:     -12.4      0.000      0.000
REMARK SMILES Cc1cccc(CN(C)c2ccc(C(=O)NCCCCCCNC(=O)c3ccc(-c4c5nc(c(-c6cccc(S(=O)(=O)[O-])c6F)c6ccc([nH]6)c(-c6cccc(S(=O)(=O)[O-])c6F)c6nc(c(-c7cccc(S(=O)(=O)[O-])c7F)c7ccc4[nH]7)C=C6)C=C5)cc3)cc2C)n1
REMARK SMILES IDX 19 1 18 2 17 3 16 4 14 5 15 6 13 8 10 9 11 10 90 11 12 12
REMARK SMILES IDX 89 13 91 14 8 15 9 16 7 17 6 18 1 19 2 20 3 21 92 22 4 23
REMARK SMILES IDX 5 24 20 25 21 26 22 27 23 28 24 29 25 31 26 32 27 33 88 34
REMARK SMILES IDX 28 35 87 36 29 37 30 38 31 39 81 40 32 41 86 42 80 43 82 44
REMARK SMILES IDX 33 45 85 46 79 47 78 48 34 50 66 51 46 52 65 53 47 54 50 55
REMARK SMILES IDX 64 56 83 57 48 58 49 59 63 61 84 62 51 63 35 64 36 65 44 66
REMARK SMILES IDX 37 67 39 68 45 69 38 70 40 71 41 72 42 73 43 74 67 75 68 76
REMARK SMILES IDX 76 77 69 78 71 79 77 80 70 81 72 82 73 83 74 84 75 85 52 86
REMARK SMILES IDX 53 87 61 88 54 89 56 90 62 91 55 92 57 93 58 94 59 95 60 96
REMARK H PARENT 16 7 23 30 82 49 50 60
REMARK Flexibility Score: inf
ROOT
ATOM      1  C   UNL A   1      35.607  23.317  24.812  1.00  0.00     0.002 C 
ENDROOT
BRANCH   1   2
ATOM      2  C   UNL A   1      35.361  21.836  24.516  1.00  0.00     0.021 C 
BRANCH   2   3
ATOM      3  C   UNL A   1      34.006  21.234  24.872  1.00  0.00     0.116 C 
BRANCH   3   4
ATOM      4  N   UNL A   1      33.160  20.842  23.759  1.00  0.00    -0.352 N 
ATOM      5  C   UNL A   1      32.356  21.609  22.933  1.00  0.00     0.251 C 
ATOM      6  O   UNL A   1      31.745  21.046  22.023  1.00  0.00    -0.269 OA
ATOM      7  H   UNL A   1      33.158  19.878  23.559  1.00  0.00     0.163 HD
BRANCH   5   8
ATOM      8  C   UNL A   1      32.171  23.081  23.117  1.00  0.00     0.040 A 
ATOM      9  C   UNL A   1      31.929  25.896  23.681  1.00  0.00     0.040 A 
ATOM     10  C   UNL A   1      32.752  25.375  22.673  1.00  0.00     0.027 A 
ATOM     11  C   UNL A   1      31.115  24.951  24.340  1.00  0.00    -0.027 A 
ATOM     12  C   UNL A   1      32.825  24.021  22.346  1.00  0.00     0.016 A 
ATOM     13  C   UNL A   1      31.279  23.560  24.087  1.00  0.00     0.019 A 
ATOM     14  C   UNL A   1      30.035  25.345  25.313  1.00  0.00     0.046 C 
BRANCH   9  15
ATOM     15  N   UNL A   1      31.957  27.256  23.997  1.00  0.00    -0.368 N 
ATOM     16  C   UNL A   1      32.904  27.676  25.030  1.00  0.00     0.144 C 
BRANCH  15  17
ATOM     17  C   UNL A   1      31.536  28.309  23.039  1.00  0.00     0.172 C 
BRANCH  17  18
ATOM     18  C   UNL A   1      30.125  28.863  23.226  1.00  0.00     0.060 A 
ATOM     19  C   UNL A   1      28.542  32.194  23.362  1.00  0.00     0.067 C 
ATOM     20  C   UNL A   1      28.694  30.703  23.285  1.00  0.00     0.038 A 
ATOM     21  C   UNL A   1      27.578  29.892  23.103  1.00  0.00     0.023 A 
ATOM     22  N   UNL A   1      29.958  30.206  23.356  1.00  0.00    -0.256 NA
ATOM     23  C   UNL A   1      27.752  28.516  23.032  1.00  0.00     0.004 A 
ATOM     24  C   UNL A   1      29.036  27.990  23.115  1.00  0.00     0.026 A 
ENDBRANCH  17  18
ENDBRANCH  15  17
ENDBRANCH   9  15
ENDBRANCH   5   8
ENDBRANCH   3   4
ENDBRANCH   2   3
ENDBRANCH   1   2
BRANCH   1  25
ATOM     25  C   UNL A   1      36.236  23.713  26.155  1.00  0.00     0.002 C 
BRANCH  25  26
ATOM     26  C   UNL A   1      37.744  23.951  26.207  1.00  0.00     0.021 C 
BRANCH  26  27
ATOM     27  C   UNL A   1      38.623  22.741  25.919  1.00  0.00     0.116 C 
BRANCH  27  28
ATOM     28  N   UNL A   1      39.709  22.550  26.868  1.00  0.00    -0.352 N 
ATOM     29  C   UNL A   1      40.411  23.500  27.593  1.00  0.00     0.251 C 
ATOM     30  H   UNL A   1      39.985  21.617  27.015  1.00  0.00     0.163 HD
ATOM     31  O   UNL A   1      41.411  23.162  28.219  1.00  0.00    -0.269 OA
BRANCH  29  32
ATOM     32  C   UNL A   1      39.879  24.881  27.691  1.00  0.00     0.039 A 
ATOM     33  C   UNL A   1      40.436  25.863  26.863  1.00  0.00     0.014 A 
ATOM     34  C   UNL A   1      39.016  25.245  28.723  1.00  0.00     0.014 A 
ATOM     35  C   UNL A   1      40.343  27.205  27.227  1.00  0.00     0.010 A 
ATOM     36  C   UNL A   1      38.990  26.560  29.134  1.00  0.00     0.010 A 
ATOM     37  C   UNL A   1      39.716  27.523  28.428  1.00  0.00    -0.014 A 
BRANCH  37  38
ATOM     38  C   UNL A   1      39.808  28.816  29.086  1.00  0.00     0.031 A 
ATOM     39  C   UNL A   1      38.842  29.881  28.777  1.00  0.00     0.074 A 
ATOM     40  C   UNL A   1      40.676  28.945  30.111  1.00  0.00     0.049 A 
ATOM     41  N   UNL A   1      39.003  31.122  29.085  1.00  0.00    -0.248 NA
ATOM     42  C   UNL A   1      37.614  29.615  28.045  1.00  0.00     0.031 C 
ATOM     43  C   UNL A   1      40.671  29.956  31.158  1.00  0.00     0.029 A 
ATOM     44  N   UNL A   1      41.894  28.277  30.280  1.00  0.00    -0.354 N 
ATOM     45  C   UNL A   1      37.803  31.762  28.858  1.00  0.00     0.074 A 
ATOM     46  C   UNL A   1      37.016  30.806  28.116  1.00  0.00     0.031 C 
ATOM     47  C   UNL A   1      41.906  30.040  31.678  1.00  0.00     0.029 A 
ATOM     48  C   UNL A   1      42.771  29.215  30.852  1.00  0.00     0.049 A 
ATOM     49  H   UNL A   1      42.095  27.343  30.045  1.00  0.00     0.167 HD
ATOM     50  C   UNL A   1      37.573  32.962  29.467  1.00  0.00     0.034 A 
ATOM     51  C   UNL A   1      43.929  29.627  30.257  1.00  0.00     0.034 A 
ATOM     52  C   UNL A   1      38.784  33.433  30.162  1.00  0.00     0.049 A 
ATOM     53  C   UNL A   1      43.981  31.128  30.035  1.00  0.00     0.074 A 
ATOM     54  C   UNL A   1      39.194  33.379  31.485  1.00  0.00     0.029 A 
ATOM     55  N   UNL A   1      39.899  33.808  29.423  1.00  0.00    -0.354 N 
ATOM     56  N   UNL A   1      42.975  31.933  30.234  1.00  0.00    -0.248 NA
ATOM     57  C   UNL A   1      45.158  31.835  29.535  1.00  0.00     0.031 C 
ATOM     58  C   UNL A   1      40.592  33.623  31.521  1.00  0.00     0.029 A 
ATOM     59  C   UNL A   1      41.027  33.862  30.228  1.00  0.00     0.049 A 
ATOM     60  H   UNL A   1      39.890  34.008  28.458  1.00  0.00     0.167 HD
ATOM     61  C   UNL A   1      43.282  33.186  29.773  1.00  0.00     0.074 A 
ATOM     62  C   UNL A   1      44.692  33.092  29.429  1.00  0.00     0.031 C 
ATOM     63  C   UNL A   1      42.333  34.166  29.647  1.00  0.00     0.034 A 
BRANCH  50  64
ATOM     64  C   UNL A   1      36.197  33.574  29.722  1.00  0.00     0.023 A 
ATOM     65  C   UNL A   1      35.498  34.081  28.600  1.00  0.00     0.012 A 
ATOM     66  C   UNL A   1      35.564  33.776  30.971  1.00  0.00     0.148 A 
ATOM     67  C   UNL A   1      34.320  34.830  28.715  1.00  0.00     0.002 A 
ATOM     68  C   UNL A   1      34.422  34.573  31.096  1.00  0.00     0.091 A 
ATOM     69  F   UNL A   1      36.002  33.134  32.053  1.00  0.00    -0.205 F 
ATOM     70  C   UNL A   1      33.800  35.110  29.969  1.00  0.00     0.022 A 
BRANCH  68  71
ATOM     71  S   UNL A   1      33.728  35.021  32.701  1.00  0.00     0.127 S 
ATOM     72  O   UNL A   1      34.836  35.748  33.322  1.00  0.00    -0.237 OA
ATOM     73  O   UNL A   1      32.586  35.854  32.328  1.00  0.00    -0.237 OA
ATOM     74  O   UNL A   1      33.394  33.767  33.367  1.00  0.00    -0.744 OA
ENDBRANCH  68  71
ENDBRANCH  50  64
BRANCH  51  75
ATOM     75  C   UNL A   1      44.542  28.596  29.367  1.00  0.00     0.023 A 
ATOM     76  C   UNL A   1      44.950  27.386  29.982  1.00  0.00     0.012 A 
ATOM     77  C   UNL A   1      44.353  28.617  27.975  1.00  0.00     0.148 A 
ATOM     78  C   UNL A   1      45.023  26.198  29.254  1.00  0.00     0.002 A 
ATOM     79  C   UNL A   1      44.436  27.426  27.252  1.00  0.00     0.091 A 
ATOM     80  F   UNL A   1      44.017  29.772  27.389  1.00  0.00    -0.205 F 
ATOM     81  C   UNL A   1      44.730  26.212  27.895  1.00  0.00     0.022 A 
BRANCH  79  82
ATOM     82  S   UNL A   1      44.037  27.370  25.499  1.00  0.00     0.127 S 
ATOM     83  O   UNL A   1      43.684  25.966  25.323  1.00  0.00    -0.237 OA
ATOM     84  O   UNL A   1      42.915  28.302  25.399  1.00  0.00    -0.237 OA
ATOM     85  O   UNL A   1      45.248  27.825  24.833  1.00  0.00    -0.744 OA
ENDBRANCH  79  82
ENDBRANCH  51  75
BRANCH  63  86
ATOM     86  C   UNL A   1      42.530  35.494  28.940  1.00  0.00     0.023 A 
ATOM     87  C   UNL A   1      41.828  35.836  27.768  1.00  0.00     0.012 A 
ATOM     88  C   UNL A   1      43.320  36.517  29.528  1.00  0.00     0.148 A 
ATOM     89  C   UNL A   1      41.945  37.098  27.174  1.00  0.00     0.002 A 
ATOM     90  C   UNL A   1      43.344  37.805  28.996  1.00  0.00     0.091 A 
ATOM     91  F   UNL A   1      44.072  36.243  30.604  1.00  0.00    -0.205 F 
ATOM     92  C   UNL A   1      42.684  38.092  27.801  1.00  0.00     0.022 A 
BRANCH  90  93
ATOM     93  S   UNL A   1      44.082  39.164  29.915  1.00  0.00     0.127 S 
ATOM     94  O   UNL A   1      43.603  40.330  29.178  1.00  0.00    -0.237 OA
ATOM     95  O   UNL A   1      43.496  39.003  31.248  1.00  0.00    -0.237 OA
ATOM     96  O   UNL A   1      45.516  38.911  29.864  1.00  0.00    -0.744 OA
ENDBRANCH  90  93
ENDBRANCH  63  86
ENDBRANCH  37  38
ENDBRANCH  29  32
ENDBRANCH  27  28
ENDBRANCH  26  27
ENDBRANCH  25  26
ENDBRANCH   1  25
TORSDOF 19
ENDMDL
MODEL 2
REMARK VINA RESULT:     -12.0      3.989     10.186
REMARK SMILES Cc1cccc(CN(C)c2ccc(C(=O)NCCCCCCNC(=O)c3ccc(-c4c5nc(c(-c6cccc(S(=O)(=O)[O-])c6F)c6ccc([nH]6)c(-c6cccc(S(=O)(=O)[O-])c6F)c6nc(c(-c7cccc(S(=O)(=O)[O-])c7F)c7ccc4[nH]7)C=C6)C=C5)cc3)cc2C)n1
REMARK SMILES IDX 19 1 18 2 17 3 16 4 14 5 15 6 13 8 10 9 11 10 90 11 12 12
REMARK SMILES IDX 89 13 91 14 8 15 9 16 7 17 6 18 1 19 2 20 3 21 92 22 4 23
REMARK SMILES IDX 5 24 20 25 21 26 22 27 23 28 24 29 25 31 26 32 27 33 88 34
REMARK SMILES IDX 28 35 87 36 29 37 30 38 31 39 81 40 32 41 86 42 80 43 82 44
REMARK SMILES IDX 33 45 85 46 79 47 78 48 34 50 66 51 46 52 65 53 47 54 50 55
REMARK SMILES IDX 64 56 83 57 48 58 49 59 63 61 84 62 51 63 35 64 36 65 44 66
REMARK SMILES IDX 37 67 39 68 45 69 38 70 40 71 41 72 42 73 43 74 67 75 68 76
REMARK SMILES IDX 76 77 69 78 71 79 77 80 70 81 72 82 73 83 74 84 75 85 52 86
REMARK SMILES IDX 53 87 61 88 54 89 56 90 62 91 55 92 57 93 58 94 59 95 60 96
REMARK H PARENT 16 7 23 30 82 49 50 60
REMARK Flexibility Score: inf
ROOT
ATOM      1  C   UNL A   1      31.800  28.445  27.005  1.00  0.00     0.002 C 
ENDROOT
BRANCH   1   2
ATOM      2  C   UNL A   1      31.402  29.286  25.790  1.00  0.00     0.021 C 
BRANCH   2   3
ATOM      3  C   UNL A   1      31.433  28.639  24.410  1.00  0.00     0.116 C 
BRANCH   3   4
ATOM      4  N   UNL A   1      32.590  28.931  23.584  1.00  0.00    -0.352 N 
ATOM      5  C   UNL A   1      33.612  28.103  23.149  1.00  0.00     0.251 C 
ATOM      6  O   UNL A   1      34.482  28.580  22.420  1.00  0.00    -0.269 OA
ATOM      7  H   UNL A   1      32.659  29.866  23.283  1.00  0.00     0.163 HD
BRANCH   5   8
ATOM      8  C   UNL A   1      33.722  26.668  23.554  1.00  0.00     0.040 A 
ATOM      9  C   UNL A   1      34.134  23.892  24.205  1.00  0.00     0.040 A 
ATOM     10  C   UNL A   1      34.268  24.933  25.132  1.00  0.00     0.027 A 
ATOM     11  C   UNL A   1      33.657  24.277  22.934  1.00  0.00    -0.027 A 
ATOM     12  C   UNL A   1      34.004  26.273  24.846  1.00  0.00     0.016 A 
ATOM     13  C   UNL A   1      33.504  25.655  22.610  1.00  0.00     0.019 A 
ATOM     14  C   UNL A   1      33.271  23.279  21.873  1.00  0.00     0.046 C 
BRANCH   9  15
ATOM     15  N   UNL A   1      34.479  22.582  24.544  1.00  0.00    -0.368 N 
ATOM     16  C   UNL A   1      35.872  22.340  24.921  1.00  0.00     0.144 C 
BRANCH  15  17
ATOM     17  C   UNL A   1      33.490  21.602  25.059  1.00  0.00     0.172 C 
BRANCH  17  18
ATOM     18  C   UNL A   1      33.401  20.275  24.306  1.00  0.00     0.060 A 
ATOM     19  C   UNL A   1      34.795  16.879  24.673  1.00  0.00     0.067 C 
ATOM     20  C   UNL A   1      33.946  18.013  24.178  1.00  0.00     0.038 A 
ATOM     21  C   UNL A   1      32.923  17.776  23.265  1.00  0.00     0.023 A 
ATOM     22  N   UNL A   1      34.199  19.245  24.695  1.00  0.00    -0.256 NA
ATOM     23  C   UNL A   1      32.153  18.846  22.828  1.00  0.00     0.004 A 
ATOM     24  C   UNL A   1      32.404  20.115  23.336  1.00  0.00     0.026 A 
ENDBRANCH  17  18
ENDBRANCH  15  17
ENDBRANCH   9  15
ENDBRANCH   5   8
ENDBRANCH   3   4
ENDBRANCH   2   3
ENDBRANCH   1   2
BRANCH   1  25
ATOM     25  C   UNL A   1      33.200  28.625  27.609  1.00  0.00     0.002 C 
BRANCH  25  26
ATOM     26  C   UNL A   1      34.180  29.560  26.902  1.00  0.00     0.021 C 
BRANCH  26  27
ATOM     27  C   UNL A   1      34.981  30.493  27.800  1.00  0.00     0.116 C 
BRANCH  27  28
ATOM     28  N   UNL A   1      34.295  31.730  28.143  1.00  0.00    -0.352 N 
ATOM     29  C   UNL A   1      34.620  32.668  29.110  1.00  0.00     0.251 C 
ATOM     30  H   UNL A   1      33.488  31.928  27.615  1.00  0.00     0.163 HD
ATOM     31  O   UNL A   1      33.825  33.567  29.368  1.00  0.00    -0.269 OA
BRANCH  29  32
ATOM     32  C   UNL A   1      35.965  32.635  29.734  1.00  0.00     0.039 A 
ATOM     33  C   UNL A   1      37.037  33.185  29.020  1.00  0.00     0.014 A 
ATOM     34  C   UNL A   1      36.204  31.887  30.885  1.00  0.00     0.014 A 
ATOM     35  C   UNL A   1      38.338  32.770  29.301  1.00  0.00     0.010 A 
ATOM     36  C   UNL A   1      37.476  31.410  31.115  1.00  0.00     0.010 A 
ATOM     37  C   UNL A   1      38.525  31.794  30.275  1.00  0.00    -0.014 A 
BRANCH  37  38
ATOM     38  C   UNL A   1      39.758  31.048  30.464  1.00  0.00     0.031 A 
ATOM     39  C   UNL A   1      39.921  29.712  29.872  1.00  0.00     0.074 A 
ATOM     40  C   UNL A   1      40.804  31.686  31.032  1.00  0.00     0.049 A 
ATOM     41  N   UNL A   1      40.839  28.873  30.209  1.00  0.00    -0.248 NA
ATOM     42  C   UNL A   1      39.010  29.206  28.858  1.00  0.00     0.031 C 
ATOM     43  C   UNL A   1      42.211  31.320  30.965  1.00  0.00     0.029 A 
ATOM     44  N   UNL A   1      40.757  32.709  31.985  1.00  0.00    -0.354 N 
ATOM     45  C   UNL A   1      40.825  27.852  29.282  1.00  0.00     0.074 A 
ATOM     46  C   UNL A   1      39.606  28.056  28.536  1.00  0.00     0.031 C 
ATOM     47  C   UNL A   1      42.849  31.884  32.002  1.00  0.00     0.029 A 
ATOM     48  C   UNL A   1      41.832  32.473  32.858  1.00  0.00     0.049 A 
ATOM     49  H   UNL A   1      40.103  33.444  32.034  1.00  0.00     0.167 HD
ATOM     50  C   UNL A   1      41.929  27.057  29.163  1.00  0.00     0.034 A 
ATOM     51  C   UNL A   1      41.683  32.233  34.194  1.00  0.00     0.034 A 
ATOM     52  C   UNL A   1      42.911  27.372  30.214  1.00  0.00     0.049 A 
ATOM     53  C   UNL A   1      42.270  30.901  34.627  1.00  0.00     0.074 A 
ATOM     54  C   UNL A   1      44.059  28.149  30.232  1.00  0.00     0.029 A 
ATOM     55  N   UNL A   1      42.615  27.083  31.541  1.00  0.00    -0.354 N 
ATOM     56  N   UNL A   1      42.727  29.999  33.803  1.00  0.00    -0.248 NA
ATOM     57  C   UNL A   1      42.355  30.466  36.019  1.00  0.00     0.031 C 
ATOM     58  C   UNL A   1      44.389  28.413  31.588  1.00  0.00     0.029 A 
ATOM     59  C   UNL A   1      43.468  27.767  32.395  1.00  0.00     0.049 A 
ATOM     60  H   UNL A   1      41.897  26.476  31.835  1.00  0.00     0.167 HD
ATOM     61  C   UNL A   1      43.016  28.847  34.487  1.00  0.00     0.074 A 
ATOM     62  C   UNL A   1      42.851  29.223  35.882  1.00  0.00     0.031 C 
ATOM     63  C   UNL A   1      43.292  27.671  33.843  1.00  0.00     0.034 A 
BRANCH  50  64
ATOM     64  C   UNL A   1      42.287  26.222  27.936  1.00  0.00     0.023 A 
ATOM     65  C   UNL A   1      42.664  26.923  26.765  1.00  0.00     0.012 A 
ATOM     66  C   UNL A   1      42.205  24.817  27.799  1.00  0.00     0.148 A 
ATOM     67  C   UNL A   1      42.835  26.294  25.525  1.00  0.00     0.002 A 
ATOM     68  C   UNL A   1      42.315  24.191  26.552  1.00  0.00     0.091 A 
ATOM     69  F   UNL A   1      42.102  24.046  28.880  1.00  0.00    -0.205 F 
ATOM     70  C   UNL A   1      42.624  24.929  25.410  1.00  0.00     0.022 A 
BRANCH  68  71
ATOM     71  S   UNL A   1      41.998  22.429  26.325  1.00  0.00     0.127 S 
ATOM     72  O   UNL A   1      42.752  21.836  27.430  1.00  0.00    -0.237 OA
ATOM     73  O   UNL A   1      40.545  22.351  26.469  1.00  0.00    -0.237 OA
ATOM     74  O   UNL A   1      42.513  22.088  25.004  1.00  0.00    -0.744 OA
ENDBRANCH  68  71
ENDBRANCH  50  64
BRANCH  51  75
ATOM     75  C   UNL A   1      40.475  32.882  34.785  1.00  0.00     0.023 A 
ATOM     76  C   UNL A   1      39.254  32.172  34.677  1.00  0.00     0.012 A 
ATOM     77  C   UNL A   1      40.581  33.903  35.745  1.00  0.00     0.148 A 
ATOM     78  C   UNL A   1      38.223  32.371  35.596  1.00  0.00     0.002 A 
ATOM     79  C   UNL A   1      39.543  34.102  36.655  1.00  0.00     0.091 A 
ATOM     80  F   UNL A   1      41.718  34.608  35.810  1.00  0.00    -0.205 F 
ATOM     81  C   UNL A   1      38.383  33.311  36.608  1.00  0.00     0.022 A 
BRANCH  79  82
ATOM     82  S   UNL A   1      39.700  35.278  38.006  1.00  0.00     0.127 S 
ATOM     83  O   UNL A   1      39.650  36.551  37.294  1.00  0.00    -0.237 OA
ATOM     84  O   UNL A   1      38.522  34.985  38.821  1.00  0.00    -0.237 OA
ATOM     85  O   UNL A   1      40.963  34.938  38.644  1.00  0.00    -0.744 OA
ENDBRANCH  79  82
ENDBRANCH  51  75
BRANCH  63  86
ATOM     86  C   UNL A   1      43.397  26.309  34.505  1.00  0.00     0.023 A 
ATOM     87  C   UNL A   1      42.266  25.595  34.944  1.00  0.00     0.012 A 
ATOM     88  C   UNL A   1      44.641  25.628  34.565  1.00  0.00     0.148 A 
ATOM     89  C   UNL A   1      42.363  24.301  35.469  1.00  0.00     0.002 A 
ATOM     90  C   UNL A   1      44.716  24.299  34.981  1.00  0.00     0.091 A 
ATOM     91  F   UNL A   1      45.770  26.269  34.230  1.00  0.00    -0.205 F 
ATOM     92  C   UNL A   1      43.585  23.642  35.466  1.00  0.00     0.022 A 
BRANCH  90  93
ATOM     93  S   UNL A   1      46.227  23.350  34.753  1.00  0.00     0.127 S 
ATOM     94  O   UNL A   1      46.790  23.339  36.101  1.00  0.00    -0.237 OA
ATOM     95  O   UNL A   1      45.723  22.054  34.294  1.00  0.00    -0.237 OA
ATOM     96  O   UNL A   1      46.979  24.085  33.745  1.00  0.00    -0.744 OA
ENDBRANCH  90  93
ENDBRANCH  63  86
ENDBRANCH  37  38
ENDBRANCH  29  32
ENDBRANCH  27  28
ENDBRANCH  26  27
ENDBRANCH  25  26
ENDBRANCH   1  25
TORSDOF 19
ENDMDL
MODEL 3
REMARK VINA RESULT:     -12.0      4.241     10.337
REMARK SMILES Cc1cccc(CN(C)c2ccc(C(=O)NCCCCCCNC(=O)c3ccc(-c4c5nc(c(-c6cccc(S(=O)(=O)[O-])c6F)c6ccc([nH]6)c(-c6cccc(S(=O)(=O)[O-])c6F)c6nc(c(-c7cccc(S(=O)(=O)[O-])c7F)c7ccc4[nH]7)C=C6)C=C5)cc3)cc2C)n1
REMARK SMILES IDX 19 1 18 2 17 3 16 4 14 5 15 6 13 8 10 9 11 10 90 11 12 12
REMARK SMILES IDX 89 13 91 14 8 15 9 16 7 17 6 18 1 19 2 20 3 21 92 22 4 23
REMARK SMILES IDX 5 24 20 25 21 26 22 27 23 28 24 29 25 31 26 32 27 33 88 34
REMARK SMILES IDX 28 35 87 36 29 37 30 38 31 39 81 40 32 41 86 42 80 43 82 44
REMARK SMILES IDX 33 45 85 46 79 47 78 48 34 50 66 51 46 52 65 53 47 54 50 55
REMARK SMILES IDX 64 56 83 57 48 58 49 59 63 61 84 62 51 63 35 64 36 65 44 66
REMARK SMILES IDX 37 67 39 68 45 69 38 70 40 71 41 72 42 73 43 74 67 75 68 76
REMARK SMILES IDX 76 77 69 78 71 79 77 80 70 81 72 82 73 83 74 84 75 85 52 86
REMARK SMILES IDX 53 87 61 88 54 89 56 90 62 91 55 92 57 93 58 94 59 95 60 96
REMARK H PARENT 16 7 23 30 82 49 50 60
REMARK Flexibility Score: inf
ROOT
ATOM      1  C   UNL A   1      35.979  31.305  27.914  1.00  0.00     0.002 C 
ENDROOT
BRANCH   1   2
ATOM      2  C   UNL A   1      34.921  30.204  27.998  1.00  0.00     0.021 C 
BRANCH   2   3
ATOM      3  C   UNL A   1      34.828  29.188  26.864  1.00  0.00     0.116 C 
BRANCH   3   4
ATOM      4  N   UNL A   1      33.882  29.486  25.805  1.00  0.00    -0.352 N 
ATOM      5  C   UNL A   1      33.016  28.653  25.117  1.00  0.00     0.251 C 
ATOM      6  O   UNL A   1      32.276  29.149  24.267  1.00  0.00    -0.269 OA
ATOM      7  H   UNL A   1      33.850  30.432  25.532  1.00  0.00     0.163 HD
BRANCH   5   8
ATOM      8  C   UNL A   1      32.964  27.175  25.339  1.00  0.00     0.040 A 
ATOM      9  C   UNL A   1      33.053  24.352  25.907  1.00  0.00     0.040 A 
ATOM     10  C   UNL A   1      32.042  25.204  26.370  1.00  0.00     0.027 A 
ATOM     11  C   UNL A   1      33.982  24.945  25.026  1.00  0.00    -0.027 A 
ATOM     12  C   UNL A   1      31.951  26.558  26.044  1.00  0.00     0.016 A 
ATOM     13  C   UNL A   1      33.957  26.349  24.792  1.00  0.00     0.019 A 
ATOM     14  C   UNL A   1      35.021  24.148  24.282  1.00  0.00     0.046 C 
BRANCH   9  15
ATOM     15  N   UNL A   1      33.118  23.022  26.328  1.00  0.00    -0.368 N 
ATOM     16  C   UNL A   1      33.968  22.734  27.484  1.00  0.00     0.144 C 
BRANCH  15  17
ATOM     17  C   UNL A   1      32.030  22.047  26.066  1.00  0.00     0.172 C 
BRANCH  17  18
ATOM     18  C   UNL A   1      32.286  21.038  24.947  1.00  0.00     0.060 A 
ATOM     19  C   UNL A   1      32.527  17.369  24.639  1.00  0.00     0.067 C 
ATOM     20  C   UNL A   1      32.428  18.816  24.256  1.00  0.00     0.038 A 
ATOM     21  C   UNL A   1      32.289  19.180  22.920  1.00  0.00     0.023 A 
ATOM     22  N   UNL A   1      32.437  19.725  25.267  1.00  0.00    -0.256 NA
ATOM     23  C   UNL A   1      32.196  20.527  22.598  1.00  0.00     0.004 A 
ATOM     24  C   UNL A   1      32.215  21.472  23.617  1.00  0.00     0.026 A 
ENDBRANCH  17  18
ENDBRANCH  15  17
ENDBRANCH   9  15
ENDBRANCH   5   8
ENDBRANCH   3   4
ENDBRANCH   2   3
ENDBRANCH   1   2
BRANCH   1  25
ATOM     25  C   UNL A   1      35.526  32.768  27.818  1.00  0.00     0.002 C 
BRANCH  25  26
ATOM     26  C   UNL A   1      35.409  33.576  29.109  1.00  0.00     0.021 C 
BRANCH  26  27
ATOM     27  C   UNL A   1      34.313  33.142  30.073  1.00  0.00     0.116 C 
BRANCH  27  28
ATOM     28  N   UNL A   1      33.779  34.217  30.896  1.00  0.00    -0.352 N 
ATOM     29  C   UNL A   1      34.241  34.696  32.111  1.00  0.00     0.251 C 
ATOM     30  H   UNL A   1      32.977  34.665  30.542  1.00  0.00     0.163 HD
ATOM     31  O   UNL A   1      33.558  35.499  32.741  1.00  0.00    -0.269 OA
BRANCH  29  32
ATOM     32  C   UNL A   1      35.599  34.319  32.575  1.00  0.00     0.039 A 
ATOM     33  C   UNL A   1      36.696  34.978  32.007  1.00  0.00     0.014 A 
ATOM     34  C   UNL A   1      35.797  33.198  33.377  1.00  0.00     0.014 A 
ATOM     35  C   UNL A   1      37.949  34.369  32.022  1.00  0.00     0.010 A 
ATOM     36  C   UNL A   1      37.012  32.551  33.327  1.00  0.00     0.010 A 
ATOM     37  C   UNL A   1      38.062  33.102  32.586  1.00  0.00    -0.014 A 
BRANCH  37  38
ATOM     38  C   UNL A   1      39.206  32.222  32.408  1.00  0.00     0.031 A 
ATOM     39  C   UNL A   1      39.073  30.969  31.650  1.00  0.00     0.074 A 
ATOM     40  C   UNL A   1      40.418  32.674  32.791  1.00  0.00     0.049 A 
ATOM     41  N   UNL A   1      39.931  30.008  31.677  1.00  0.00    -0.248 NA
ATOM     42  C   UNL A   1      37.912  30.693  30.820  1.00  0.00     0.031 C 
ATOM     43  C   UNL A   1      41.723  32.187  32.368  1.00  0.00     0.029 A 
ATOM     44  N   UNL A   1      40.702  33.559  33.837  1.00  0.00    -0.354 N 
ATOM     45  C   UNL A   1      39.594  29.127  30.670  1.00  0.00     0.074 A 
ATOM     46  C   UNL A   1      38.279  29.545  30.246  1.00  0.00     0.031 C 
ATOM     47  C   UNL A   1      42.632  32.542  33.289  1.00  0.00     0.029 A 
ATOM     48  C   UNL A   1      41.901  33.105  34.412  1.00  0.00     0.049 A 
ATOM     49  H   UNL A   1      40.169  34.340  34.113  1.00  0.00     0.167 HD
ATOM     50  C   UNL A   1      40.540  28.253  30.217  1.00  0.00     0.034 A 
ATOM     51  C   UNL A   1      42.010  32.703  35.713  1.00  0.00     0.034 A 
ATOM     52  C   UNL A   1      41.755  28.327  31.048  1.00  0.00     0.049 A 
ATOM     53  C   UNL A   1      42.507  31.275  35.853  1.00  0.00     0.074 A 
ATOM     54  C   UNL A   1      42.967  28.981  30.891  1.00  0.00     0.029 A 
ATOM     55  N   UNL A   1      41.714  27.892  32.367  1.00  0.00    -0.354 N 
ATOM     56  N   UNL A   1      42.663  30.452  34.853  1.00  0.00    -0.248 NA
ATOM     57  C   UNL A   1      42.831  30.649  37.133  1.00  0.00     0.031 C 
ATOM     58  C   UNL A   1      43.608  29.026  32.158  1.00  0.00     0.029 A 
ATOM     59  C   UNL A   1      42.806  28.369  33.076  1.00  0.00     0.049 A 
ATOM     60  H   UNL A   1      41.005  27.323  32.747  1.00  0.00     0.167 HD
ATOM     61  C   UNL A   1      42.946  29.196  35.322  1.00  0.00     0.074 A 
ATOM     62  C   UNL A   1      43.129  29.395  36.751  1.00  0.00     0.031 C 
ATOM     63  C   UNL A   1      42.932  28.096  34.506  1.00  0.00     0.034 A 
BRANCH  50  64
ATOM     64  C   UNL A   1      40.524  27.561  28.857  1.00  0.00     0.023 A 
ATOM     65  C   UNL A   1      39.593  26.509  28.678  1.00  0.00     0.012 A 
ATOM     66  C   UNL A   1      41.395  27.788  27.766  1.00  0.00     0.148 A 
ATOM     67  C   UNL A   1      39.599  25.672  27.555  1.00  0.00     0.002 A 
ATOM     68  C   UNL A   1      41.445  26.919  26.671  1.00  0.00     0.091 A 
ATOM     69  F   UNL A   1      42.136  28.894  27.722  1.00  0.00    -0.205 F 
ATOM     70  C   UNL A   1      40.552  25.854  26.565  1.00  0.00     0.022 A 
BRANCH  68  71
ATOM     71  S   UNL A   1      42.695  27.067  25.377  1.00  0.00     0.127 S 
ATOM     72  O   UNL A   1      42.525  25.812  24.642  1.00  0.00    -0.237 OA
ATOM     73  O   UNL A   1      42.258  28.260  24.654  1.00  0.00    -0.237 OA
ATOM     74  O   UNL A   1      43.978  27.186  26.059  1.00  0.00    -0.744 OA
ENDBRANCH  68  71
ENDBRANCH  50  64
BRANCH  51  75
ATOM     75  C   UNL A   1      41.045  33.380  36.629  1.00  0.00     0.023 A 
ATOM     76  C   UNL A   1      39.857  32.671  36.939  1.00  0.00     0.012 A 
ATOM     77  C   UNL A   1      41.441  34.436  37.468  1.00  0.00     0.148 A 
ATOM     78  C   UNL A   1      39.167  32.910  38.128  1.00  0.00     0.002 A 
ATOM     79  C   UNL A   1      40.740  34.674  38.651  1.00  0.00     0.091 A 
ATOM     80  F   UNL A   1      42.534  35.137  37.145  1.00  0.00    -0.205 F 
ATOM     81  C   UNL A   1      39.631  33.887  39.002  1.00  0.00     0.022 A 
BRANCH  79  82
ATOM     82  S   UNL A   1      41.306  35.900  39.839  1.00  0.00     0.127 S 
ATOM     83  O   UNL A   1      42.595  35.347  40.240  1.00  0.00    -0.237 OA
ATOM     84  O   UNL A   1      41.385  37.114  39.028  1.00  0.00    -0.237 OA
ATOM     85  O   UNL A   1      40.266  35.932  40.856  1.00  0.00    -0.744 OA
ENDBRANCH  79  82
ENDBRANCH  51  75
BRANCH  63  86
ATOM     86  C   UNL A   1      43.006  26.654  34.973  1.00  0.00     0.023 A 
ATOM     87  C   UNL A   1      42.018  26.075  35.793  1.00  0.00     0.012 A 
ATOM     88  C   UNL A   1      44.004  25.780  34.467  1.00  0.00     0.148 A 
ATOM     89  C   UNL A   1      42.045  24.720  36.143  1.00  0.00     0.002 A 
ATOM     90  C   UNL A   1      43.962  24.411  34.726  1.00  0.00     0.091 A 
ATOM     91  F   UNL A   1      45.016  26.273  33.739  1.00  0.00    -0.205 F 
ATOM     92  C   UNL A   1      43.003  23.881  35.590  1.00  0.00     0.022 A 
BRANCH  90  93
ATOM     93  S   UNL A   1      45.030  23.274  33.830  1.00  0.00     0.127 S 
ATOM     94  O   UNL A   1      44.627  21.980  34.374  1.00  0.00    -0.237 OA
ATOM     95  O   UNL A   1      44.638  23.498  32.437  1.00  0.00    -0.237 OA
ATOM     96  O   UNL A   1      46.384  23.713  34.143  1.00  0.00    -0.744 OA
ENDBRANCH  90  93
ENDBRANCH  63  86
ENDBRANCH  37  38
ENDBRANCH  29  32
ENDBRANCH  27  28
ENDBRANCH  26  27
ENDBRANCH  25  26
ENDBRANCH   1  25
TORSDOF 19
ENDMDL
