MODEL 1
REMARK VINA RESULT:     -11.4      0.000      0.000
REMARK SMILES CC(C)NC(=O)c1cccc(NC(=O)[C@@H]2[C@H](C(=O)NCCCCCCNC(=O)c3ccc(-c4c5nc(c(-c6cccc(S(=O)(=O)[O-])c6F)c6ccc([nH]6)c(-c6cccc(S(=O)(=O)[O-])c6F)c6nc(c(-c7cccc(S(=O)(=O)[O-])c7F)c7ccc4[nH]7)C=C6)C=C5)cc3)C2(C)C)c1
REMARK SMILES IDX 22 1 21 2 20 3 19 4 17 5 18 6 16 8 15 9 92 10 93 11 94 12
REMARK SMILES IDX 13 13 12 14 14 16 11 17 7 18 8 19 95 20 9 21 10 22 5 23 4 24
REMARK SMILES IDX 6 26 2 27 1 28 3 29 23 30 24 31 25 32 26 33 27 34 28 36
REMARK SMILES IDX 29 37 30 38 91 39 31 40 90 41 32 42 33 43 34 44 84 45 35 46
REMARK SMILES IDX 89 47 83 48 85 49 36 50 88 51 82 52 81 53 37 55 69 56 49 57
REMARK SMILES IDX 68 58 50 59 53 60 67 61 86 62 51 63 52 64 66 66 87 67 54 68
REMARK SMILES IDX 38 69 39 70 47 71 40 72 42 73 48 74 41 75 43 76 44 77 45 78
REMARK SMILES IDX 46 79 70 80 71 81 79 82 72 83 74 84 80 85 73 86 75 87 76 88
REMARK SMILES IDX 77 89 78 90 55 91 56 92 64 93 57 94 59 95 65 96 58 97 60 98
REMARK SMILES IDX 61 99 62 100 63 101
REMARK H PARENT 19 7 12 15 4 25 26 35 85 54 53 65
REMARK Flexibility Score: inf
ROOT
ATOM      1  C   UNL A   1      30.878  29.760  24.595  1.00  0.00     0.002 C 
ENDROOT
BRANCH   1   2
ATOM      2  C   UNL A   1      31.552  28.965  23.468  1.00  0.00     0.021 C 
BRANCH   2   3
ATOM      3  C   UNL A   1      30.727  27.771  22.980  1.00  0.00     0.116 C 
BRANCH   3   4
ATOM      4  N   UNL A   1      30.088  27.088  24.094  1.00  0.00    -0.356 N 
ATOM      5  C   UNL A   1      30.465  25.946  24.750  1.00  0.00     0.224 C 
ATOM      6  O   UNL A   1      29.714  25.450  25.586  1.00  0.00    -0.275 OA
ATOM      7  H   UNL A   1      29.262  27.509  24.427  1.00  0.00     0.163 HD
BRANCH   5   8
ATOM      8  C   UNL A   1      31.758  25.336  24.369  1.00  0.00     0.098 C 
ATOM      9  C   UNL A   1      32.443  24.261  25.188  1.00  0.00     0.098 C 
ATOM     10  C   UNL A   1      31.981  23.975  23.750  1.00  0.00    -0.011 C 
ATOM     11  C   UNL A   1      33.023  23.938  22.653  1.00  0.00     0.013 C 
ATOM     12  C   UNL A   1      30.840  23.020  23.507  1.00  0.00     0.013 C 
BRANCH   9  13
ATOM     13  C   UNL A   1      31.853  23.522  26.332  1.00  0.00     0.228 C 
ATOM     14  N   UNL A   1      32.061  22.162  26.479  1.00  0.00    -0.326 N 
ATOM     15  H   UNL A   1      31.625  21.787  27.279  1.00  0.00     0.169 HD
ATOM     16  O   UNL A   1      31.221  24.117  27.200  1.00  0.00    -0.274 OA
BRANCH  14  17
ATOM     17  C   UNL A   1      32.764  21.198  25.723  1.00  0.00     0.041 A 
ATOM     18  C   UNL A   1      34.932  20.283  25.071  1.00  0.00     0.041 A 
ATOM     19  C   UNL A   1      34.296  19.234  24.399  1.00  0.00     0.014 A 
ATOM     20  C   UNL A   1      34.166  21.274  25.710  1.00  0.00     0.040 A 
ATOM     21  C   UNL A   1      32.914  19.189  24.351  1.00  0.00     0.003 A 
ATOM     22  C   UNL A   1      32.164  20.178  24.989  1.00  0.00     0.026 A 
BRANCH  18  23
ATOM     23  C   UNL A   1      36.409  20.317  24.977  1.00  0.00     0.251 C 
ATOM     24  N   UNL A   1      37.109  21.488  24.901  1.00  0.00    -0.350 N 
ATOM     25  H   UNL A   1      38.079  21.373  24.772  1.00  0.00     0.164 HD
ATOM     26  O   UNL A   1      37.035  19.259  25.006  1.00  0.00    -0.269 OA
BRANCH  24  27
ATOM     27  C   UNL A   1      36.678  22.877  24.977  1.00  0.00     0.076 C 
ATOM     28  C   UNL A   1      37.705  23.699  25.748  1.00  0.00     0.030 C 
ATOM     29  C   UNL A   1      36.492  23.414  23.563  1.00  0.00     0.030 C 
ENDBRANCH  24  27
ENDBRANCH  18  23
ENDBRANCH  14  17
ENDBRANCH   9  13
ENDBRANCH   5   8
ENDBRANCH   3   4
ENDBRANCH   2   3
ENDBRANCH   1   2
BRANCH   1  30
ATOM     30  C   UNL A   1      31.570  29.654  25.958  1.00  0.00     0.002 C 
BRANCH  30  31
ATOM     31  C   UNL A   1      32.664  28.587  26.042  1.00  0.00     0.021 C 
BRANCH  31  32
ATOM     32  C   UNL A   1      34.067  29.141  26.259  1.00  0.00     0.116 C 
BRANCH  32  33
ATOM     33  N   UNL A   1      34.039  30.518  26.730  1.00  0.00    -0.352 N 
ATOM     34  C   UNL A   1      34.847  31.136  27.651  1.00  0.00     0.251 C 
ATOM     35  H   UNL A   1      33.342  31.086  26.332  1.00  0.00     0.163 HD
ATOM     36  O   UNL A   1      34.548  32.245  28.085  1.00  0.00    -0.269 OA
BRANCH  34  37
ATOM     37  C   UNL A   1      36.068  30.455  28.129  1.00  0.00     0.039 A 
ATOM     38  C   UNL A   1      37.240  30.556  27.375  1.00  0.00     0.014 A 
ATOM     39  C   UNL A   1      36.057  29.718  29.316  1.00  0.00     0.014 A 
ATOM     40  C   UNL A   1      38.415  29.964  27.843  1.00  0.00     0.010 A 
ATOM     41  C   UNL A   1      37.246  29.198  29.820  1.00  0.00     0.010 A 
ATOM     42  C   UNL A   1      38.436  29.308  29.085  1.00  0.00    -0.014 A 
BRANCH  42  43
ATOM     43  C   UNL A   1      39.694  28.741  29.634  1.00  0.00     0.031 A 
ATOM     44  C   UNL A   1      40.409  29.429  30.765  1.00  0.00     0.074 A 
ATOM     45  C   UNL A   1      40.237  27.647  29.060  1.00  0.00     0.049 A 
ATOM     46  N   UNL A   1      41.539  29.112  31.341  1.00  0.00    -0.248 NA
ATOM     47  C   UNL A   1      39.786  30.650  31.306  1.00  0.00     0.031 C 
ATOM     48  C   UNL A   1      39.681  26.933  27.909  1.00  0.00     0.029 A 
ATOM     49  N   UNL A   1      41.390  26.961  29.352  1.00  0.00    -0.354 N 
ATOM     50  C   UNL A   1      41.780  30.103  32.283  1.00  0.00     0.074 A 
ATOM     51  C   UNL A   1      40.697  31.057  32.178  1.00  0.00     0.031 C 
ATOM     52  C   UNL A   1      40.488  25.906  27.598  1.00  0.00     0.029 A 
ATOM     53  C   UNL A   1      41.636  25.911  28.498  1.00  0.00     0.049 A 
ATOM     54  H   UNL A   1      41.984  27.198  30.100  1.00  0.00     0.167 HD
ATOM     55  C   UNL A   1      42.795  30.202  33.174  1.00  0.00     0.034 A 
ATOM     56  C   UNL A   1      42.675  25.055  28.438  1.00  0.00     0.034 A 
ATOM     57  C   UNL A   1      43.855  29.237  33.296  1.00  0.00     0.049 A 
ATOM     58  C   UNL A   1      43.779  25.173  29.454  1.00  0.00     0.074 A 
ATOM     59  C   UNL A   1      44.883  29.202  34.221  1.00  0.00     0.029 A 
ATOM     60  N   UNL A   1      44.033  28.145  32.461  1.00  0.00    -0.354 N 
ATOM     61  N   UNL A   1      43.909  26.032  30.436  1.00  0.00    -0.248 NA
ATOM     62  C   UNL A   1      44.862  24.183  29.375  1.00  0.00     0.031 C 
ATOM     63  C   UNL A   1      45.704  28.110  33.922  1.00  0.00     0.029 A 
ATOM     64  C   UNL A   1      45.162  27.440  32.838  1.00  0.00     0.049 A 
ATOM     65  H   UNL A   1      43.443  27.907  31.710  1.00  0.00     0.167 HD
ATOM     66  C   UNL A   1      45.065  25.662  31.114  1.00  0.00     0.074 A 
ATOM     67  C   UNL A   1      45.586  24.490  30.443  1.00  0.00     0.031 C 
ATOM     68  C   UNL A   1      45.648  26.247  32.190  1.00  0.00     0.034 A 
BRANCH  55  69
ATOM     69  C   UNL A   1      42.791  31.377  34.117  1.00  0.00     0.023 A 
ATOM     70  C   UNL A   1      43.413  32.584  33.735  1.00  0.00     0.012 A 
ATOM     71  C   UNL A   1      42.122  31.308  35.355  1.00  0.00     0.148 A 
ATOM     72  C   UNL A   1      43.402  33.690  34.585  1.00  0.00     0.002 A 
ATOM     73  C   UNL A   1      42.074  32.430  36.176  1.00  0.00     0.091 A 
ATOM     74  F   UNL A   1      41.553  30.148  35.712  1.00  0.00    -0.205 F 
ATOM     75  C   UNL A   1      42.724  33.616  35.798  1.00  0.00     0.022 A 
BRANCH  73  76
ATOM     76  S   UNL A   1      41.157  32.465  37.719  1.00  0.00     0.127 S 
ATOM     77  O   UNL A   1      41.162  33.894  38.032  1.00  0.00    -0.237 OA
ATOM     78  O   UNL A   1      39.855  31.934  37.315  1.00  0.00    -0.237 OA
ATOM     79  O   UNL A   1      41.898  31.622  38.648  1.00  0.00    -0.744 OA
ENDBRANCH  73  76
ENDBRANCH  55  69
BRANCH  56  80
ATOM     80  C   UNL A   1      42.698  23.981  27.406  1.00  0.00     0.023 A 
ATOM     81  C   UNL A   1      43.603  24.069  26.329  1.00  0.00     0.012 A 
ATOM     82  C   UNL A   1      41.844  22.865  27.494  1.00  0.00     0.148 A 
ATOM     83  C   UNL A   1      43.629  23.086  25.340  1.00  0.00     0.002 A 
ATOM     84  C   UNL A   1      41.916  21.860  26.537  1.00  0.00     0.091 A 
ATOM     85  F   UNL A   1      40.985  22.804  28.521  1.00  0.00    -0.205 F 
ATOM     86  C   UNL A   1      42.794  21.978  25.449  1.00  0.00     0.022 A 
BRANCH  84  87
ATOM     87  S   UNL A   1      40.972  20.338  26.665  1.00  0.00     0.127 S 
ATOM     88  O   UNL A   1      39.657  20.759  26.190  1.00  0.00    -0.237 OA
ATOM     89  O   UNL A   1      41.704  19.453  25.757  1.00  0.00    -0.237 OA
ATOM     90  O   UNL A   1      41.041  19.947  28.067  1.00  0.00    -0.744 OA
ENDBRANCH  84  87
ENDBRANCH  56  80
BRANCH  68  91
ATOM     91  C   UNL A   1      46.893  25.606  32.746  1.00  0.00     0.023 A 
ATOM     92  C   UNL A   1      46.805  24.706  33.826  1.00  0.00     0.012 A 
ATOM     93  C   UNL A   1      48.146  25.847  32.147  1.00  0.00     0.148 A 
ATOM     94  C   UNL A   1      47.948  24.083  34.325  1.00  0.00     0.002 A 
ATOM     95  C   UNL A   1      49.273  25.181  32.615  1.00  0.00     0.091 A 
ATOM     96  F   UNL A   1      48.213  26.720  31.132  1.00  0.00    -0.205 F 
ATOM     97  C   UNL A   1      49.178  24.310  33.711  1.00  0.00     0.022 A 
BRANCH  95  98
ATOM     98  S   UNL A   1      50.879  25.334  31.825  1.00  0.00     0.127 S 
ATOM     99  O   UNL A   1      51.755  25.558  32.975  1.00  0.00    -0.237 OA
ATOM    100  O   UNL A   1      51.034  24.026  31.187  1.00  0.00    -0.237 OA
ATOM    101  O   UNL A   1      50.769  26.451  30.899  1.00  0.00    -0.744 OA
ENDBRANCH  95  98
ENDBRANCH  68  91
ENDBRANCH  42  43
ENDBRANCH  34  37
ENDBRANCH  32  33
ENDBRANCH  31  32
ENDBRANCH  30  31
ENDBRANCH   1  30
TORSDOF 20
ENDMDL
MODEL 2
REMARK VINA RESULT:     -11.4      1.380      2.075
REMARK SMILES CC(C)NC(=O)c1cccc(NC(=O)[C@@H]2[C@H](C(=O)NCCCCCCNC(=O)c3ccc(-c4c5nc(c(-c6cccc(S(=O)(=O)[O-])c6F)c6ccc([nH]6)c(-c6cccc(S(=O)(=O)[O-])c6F)c6nc(c(-c7cccc(S(=O)(=O)[O-])c7F)c7ccc4[nH]7)C=C6)C=C5)cc3)C2(C)C)c1
REMARK SMILES IDX 22 1 21 2 20 3 19 4 17 5 18 6 16 8 15 9 92 10 93 11 94 12
REMARK SMILES IDX 13 13 12 14 14 16 11 17 7 18 8 19 95 20 9 21 10 22 5 23 4 24
REMARK SMILES IDX 6 26 2 27 1 28 3 29 23 30 24 31 25 32 26 33 27 34 28 36
REMARK SMILES IDX 29 37 30 38 91 39 31 40 90 41 32 42 33 43 34 44 84 45 35 46
REMARK SMILES IDX 89 47 83 48 85 49 36 50 88 51 82 52 81 53 37 55 69 56 49 57
REMARK SMILES IDX 68 58 50 59 53 60 67 61 86 62 51 63 52 64 66 66 87 67 54 68
REMARK SMILES IDX 38 69 39 70 47 71 40 72 42 73 48 74 41 75 43 76 44 77 45 78
REMARK SMILES IDX 46 79 70 80 71 81 79 82 72 83 74 84 80 85 73 86 75 87 76 88
REMARK SMILES IDX 77 89 78 90 55 91 56 92 64 93 57 94 59 95 65 96 58 97 60 98
REMARK SMILES IDX 61 99 62 100 63 101
REMARK H PARENT 19 7 12 15 4 25 26 35 85 54 53 65
REMARK Flexibility Score: inf
ROOT
ATOM      1  C   UNL A   1      31.164  30.139  25.145  1.00  0.00     0.002 C 
ENDROOT
BRANCH   1   2
ATOM      2  C   UNL A   1      32.036  29.217  24.282  1.00  0.00     0.021 C 
BRANCH   2   3
ATOM      3  C   UNL A   1      31.240  28.157  23.516  1.00  0.00     0.116 C 
BRANCH   3   4
ATOM      4  N   UNL A   1      30.412  27.373  24.418  1.00  0.00    -0.356 N 
ATOM      5  C   UNL A   1      30.667  26.162  25.008  1.00  0.00     0.224 C 
ATOM      6  O   UNL A   1      29.779  25.594  25.638  1.00  0.00    -0.275 OA
ATOM      7  H   UNL A   1      29.538  27.770  24.639  1.00  0.00     0.163 HD
BRANCH   5   8
ATOM      8  C   UNL A   1      32.010  25.574  24.803  1.00  0.00     0.098 C 
ATOM      9  C   UNL A   1      32.534  24.401  25.606  1.00  0.00     0.098 C 
ATOM     10  C   UNL A   1      32.346  24.288  24.085  1.00  0.00    -0.011 C 
ATOM     11  C   UNL A   1      33.572  24.354  23.200  1.00  0.00     0.013 C 
ATOM     12  C   UNL A   1      31.272  23.388  23.529  1.00  0.00     0.013 C 
BRANCH   9  13
ATOM     13  C   UNL A   1      31.744  23.549  26.530  1.00  0.00     0.228 C 
ATOM     14  N   UNL A   1      31.996  22.192  26.632  1.00  0.00    -0.326 N 
ATOM     15  H   UNL A   1      31.413  21.737  27.282  1.00  0.00     0.169 HD
ATOM     16  O   UNL A   1      30.895  24.046  27.264  1.00  0.00    -0.274 OA
BRANCH  14  17
ATOM     17  C   UNL A   1      32.911  21.323  25.999  1.00  0.00     0.041 A 
ATOM     18  C   UNL A   1      33.240  19.457  24.458  1.00  0.00     0.041 A 
ATOM     19  C   UNL A   1      34.626  19.624  24.539  1.00  0.00     0.014 A 
ATOM     20  C   UNL A   1      32.388  20.289  25.204  1.00  0.00     0.040 A 
ATOM     21  C   UNL A   1      35.152  20.597  25.371  1.00  0.00     0.003 A 
ATOM     22  C   UNL A   1      34.296  21.417  26.107  1.00  0.00     0.026 A 
BRANCH  18  23
ATOM     23  C   UNL A   1      32.767  18.321  23.634  1.00  0.00     0.251 C 
ATOM     24  N   UNL A   1      32.861  17.024  24.055  1.00  0.00    -0.350 N 
ATOM     25  H   UNL A   1      32.576  16.360  23.387  1.00  0.00     0.164 HD
ATOM     26  O   UNL A   1      32.236  18.550  22.548  1.00  0.00    -0.269 OA
BRANCH  24  27
ATOM     27  C   UNL A   1      33.307  16.450  25.317  1.00  0.00     0.076 C 
ATOM     28  C   UNL A   1      32.364  15.328  25.739  1.00  0.00     0.030 C 
ATOM     29  C   UNL A   1      34.732  15.937  25.149  1.00  0.00     0.030 C 
ENDBRANCH  24  27
ENDBRANCH  18  23
ENDBRANCH  14  17
ENDBRANCH   9  13
ENDBRANCH   5   8
ENDBRANCH   3   4
ENDBRANCH   2   3
ENDBRANCH   1   2
BRANCH   1  30
ATOM     30  C   UNL A   1      31.672  30.350  26.575  1.00  0.00     0.002 C 
BRANCH  30  31
ATOM     31  C   UNL A   1      32.801  29.408  27.001  1.00  0.00     0.021 C 
BRANCH  31  32
ATOM     32  C   UNL A   1      34.138  30.099  27.243  1.00  0.00     0.116 C 
BRANCH  32  33
ATOM     33  N   UNL A   1      33.992  31.291  28.065  1.00  0.00    -0.352 N 
ATOM     34  C   UNL A   1      34.769  31.723  29.110  1.00  0.00     0.251 C 
ATOM     35  H   UNL A   1      33.229  31.868  27.839  1.00  0.00     0.163 HD
ATOM     36  O   UNL A   1      34.378  32.640  29.827  1.00  0.00    -0.269 OA
BRANCH  34  37
ATOM     37  C   UNL A   1      36.068  31.071  29.378  1.00  0.00     0.039 A 
ATOM     38  C   UNL A   1      37.223  31.598  28.796  1.00  0.00     0.014 A 
ATOM     39  C   UNL A   1      36.145  29.943  30.198  1.00  0.00     0.014 A 
ATOM     40  C   UNL A   1      38.464  31.026  29.084  1.00  0.00     0.010 A 
ATOM     41  C   UNL A   1      37.389  29.425  30.548  1.00  0.00     0.010 A 
ATOM     42  C   UNL A   1      38.560  29.955  29.988  1.00  0.00    -0.014 A 
BRANCH  42  43
ATOM     43  C   UNL A   1      39.879  29.385  30.367  1.00  0.00     0.031 A 
ATOM     44  C   UNL A   1      40.686  30.005  31.475  1.00  0.00     0.074 A 
ATOM     45  C   UNL A   1      40.386  28.355  29.659  1.00  0.00     0.049 A 
ATOM     46  N   UNL A   1      41.875  29.678  31.912  1.00  0.00    -0.248 NA
ATOM     47  C   UNL A   1      40.093  31.162  32.168  1.00  0.00     0.031 C 
ATOM     48  C   UNL A   1      39.736  27.714  28.514  1.00  0.00     0.029 A 
ATOM     49  N   UNL A   1      41.577  27.682  29.783  1.00  0.00    -0.354 N 
ATOM     50  C   UNL A   1      42.186  30.601  32.902  1.00  0.00     0.074 A 
ATOM     51  C   UNL A   1      41.077  31.527  32.977  1.00  0.00     0.031 C 
ATOM     52  C   UNL A   1      40.530  26.739  28.046  1.00  0.00     0.029 A 
ATOM     53  C   UNL A   1      41.760  26.708  28.829  1.00  0.00     0.049 A 
ATOM     54  H   UNL A   1      42.236  27.879  30.486  1.00  0.00     0.167 HD
ATOM     55  C   UNL A   1      43.281  30.661  33.695  1.00  0.00     0.034 A 
ATOM     56  C   UNL A   1      42.806  25.890  28.602  1.00  0.00     0.034 A 
ATOM     57  C   UNL A   1      44.368  29.721  33.638  1.00  0.00     0.049 A 
ATOM     58  C   UNL A   1      44.002  25.963  29.512  1.00  0.00     0.074 A 
ATOM     59  C   UNL A   1      45.483  29.646  34.454  1.00  0.00     0.029 A 
ATOM     60  N   UNL A   1      44.487  28.702  32.706  1.00  0.00    -0.354 N 
ATOM     61  N   UNL A   1      44.210  26.747  30.542  1.00  0.00    -0.248 NA
ATOM     62  C   UNL A   1      45.094  25.013  29.251  1.00  0.00     0.031 C 
ATOM     63  C   UNL A   1      46.294  28.605  33.991  1.00  0.00     0.029 A 
ATOM     64  C   UNL A   1      45.663  28.003  32.915  1.00  0.00     0.049 A 
ATOM     65  H   UNL A   1      43.831  28.504  31.999  1.00  0.00     0.167 HD
ATOM     66  C   UNL A   1      45.435  26.360  31.074  1.00  0.00     0.074 A 
ATOM     67  C   UNL A   1      45.913  25.259  30.265  1.00  0.00     0.031 C 
ATOM     68  C   UNL A   1      46.108  26.878  32.132  1.00  0.00     0.034 A 
BRANCH  55  69
ATOM     69  C   UNL A   1      43.344  31.760  34.724  1.00  0.00     0.023 A 
ATOM     70  C   UNL A   1      43.989  32.975  34.412  1.00  0.00     0.012 A 
ATOM     71  C   UNL A   1      42.715  31.615  35.977  1.00  0.00     0.148 A 
ATOM     72  C   UNL A   1      44.041  34.012  35.343  1.00  0.00     0.002 A 
ATOM     73  C   UNL A   1      42.729  32.672  36.881  1.00  0.00     0.091 A 
ATOM     74  F   UNL A   1      42.124  30.447  36.264  1.00  0.00    -0.205 F 
ATOM     75  C   UNL A   1      43.402  33.864  36.571  1.00  0.00     0.022 A 
BRANCH  73  76
ATOM     76  S   UNL A   1      41.866  32.613  38.455  1.00  0.00     0.127 S 
ATOM     77  O   UNL A   1      42.039  33.984  38.936  1.00  0.00    -0.237 OA
ATOM     78  O   UNL A   1      40.502  32.279  38.045  1.00  0.00    -0.237 OA
ATOM     79  O   UNL A   1      42.534  31.587  39.243  1.00  0.00    -0.744 OA
ENDBRANCH  73  76
ENDBRANCH  55  69
BRANCH  56  80
ATOM     80  C   UNL A   1      42.751  24.899  27.491  1.00  0.00     0.023 A 
ATOM     81  C   UNL A   1      43.312  25.225  26.239  1.00  0.00     0.012 A 
ATOM     82  C   UNL A   1      42.165  23.631  27.671  1.00  0.00     0.148 A 
ATOM     83  C   UNL A   1      43.254  24.321  25.178  1.00  0.00     0.002 A 
ATOM     84  C   UNL A   1      42.164  22.714  26.627  1.00  0.00     0.091 A 
ATOM     85  F   UNL A   1      41.631  23.345  28.867  1.00  0.00    -0.205 F 
ATOM     86  C   UNL A   1      42.690  23.063  25.374  1.00  0.00     0.022 A 
BRANCH  84  87
ATOM     87  S   UNL A   1      41.576  21.029  26.826  1.00  0.00     0.127 S 
ATOM     88  O   UNL A   1      40.161  21.237  27.118  1.00  0.00    -0.237 OA
ATOM     89  O   UNL A   1      41.858  20.455  25.510  1.00  0.00    -0.237 OA
ATOM     90  O   UNL A   1      42.367  20.460  27.910  1.00  0.00    -0.744 OA
ENDBRANCH  84  87
ENDBRANCH  56  80
BRANCH  68  91
ATOM     91  C   UNL A   1      47.416  26.234  32.513  1.00  0.00     0.023 A 
ATOM     92  C   UNL A   1      47.433  25.134  33.392  1.00  0.00     0.012 A 
ATOM     93  C   UNL A   1      48.624  26.680  31.939  1.00  0.00     0.148 A 
ATOM     94  C   UNL A   1      48.636  24.510  33.723  1.00  0.00     0.002 A 
ATOM     95  C   UNL A   1      49.811  26.020  32.231  1.00  0.00     0.091 A 
ATOM     96  F   UNL A   1      48.589  27.739  31.118  1.00  0.00    -0.205 F 
ATOM     97  C   UNL A   1      49.821  24.945  33.134  1.00  0.00     0.022 A 
BRANCH  95  98
ATOM     98  S   UNL A   1      51.368  26.443  31.444  1.00  0.00     0.127 S 
ATOM     99  O   UNL A   1      52.328  26.157  32.510  1.00  0.00    -0.237 OA
ATOM    100  O   UNL A   1      51.409  25.508  30.319  1.00  0.00    -0.237 OA
ATOM    101  O   UNL A   1      51.260  27.845  31.063  1.00  0.00    -0.744 OA
ENDBRANCH  95  98
ENDBRANCH  68  91
ENDBRANCH  42  43
ENDBRANCH  34  37
ENDBRANCH  32  33
ENDBRANCH  31  32
ENDBRANCH  30  31
ENDBRANCH   1  30
TORSDOF 20
ENDMDL
MODEL 3
REMARK VINA RESULT:     -11.2      3.646      8.603
REMARK SMILES CC(C)NC(=O)c1cccc(NC(=O)[C@@H]2[C@H](C(=O)NCCCCCCNC(=O)c3ccc(-c4c5nc(c(-c6cccc(S(=O)(=O)[O-])c6F)c6ccc([nH]6)c(-c6cccc(S(=O)(=O)[O-])c6F)c6nc(c(-c7cccc(S(=O)(=O)[O-])c7F)c7ccc4[nH]7)C=C6)C=C5)cc3)C2(C)C)c1
REMARK SMILES IDX 22 1 21 2 20 3 19 4 17 5 18 6 16 8 15 9 92 10 93 11 94 12
REMARK SMILES IDX 13 13 12 14 14 16 11 17 7 18 8 19 95 20 9 21 10 22 5 23 4 24
REMARK SMILES IDX 6 26 2 27 1 28 3 29 23 30 24 31 25 32 26 33 27 34 28 36
REMARK SMILES IDX 29 37 30 38 91 39 31 40 90 41 32 42 33 43 34 44 84 45 35 46
REMARK SMILES IDX 89 47 83 48 85 49 36 50 88 51 82 52 81 53 37 55 69 56 49 57
REMARK SMILES IDX 68 58 50 59 53 60 67 61 86 62 51 63 52 64 66 66 87 67 54 68
REMARK SMILES IDX 38 69 39 70 47 71 40 72 42 73 48 74 41 75 43 76 44 77 45 78
REMARK SMILES IDX 46 79 70 80 71 81 79 82 72 83 74 84 80 85 73 86 75 87 76 88
REMARK SMILES IDX 77 89 78 90 55 91 56 92 64 93 57 94 59 95 65 96 58 97 60 98
REMARK SMILES IDX 61 99 62 100 63 101
REMARK H PARENT 19 7 12 15 4 25 26 35 85 54 53 65
REMARK Flexibility Score: inf
ROOT
ATOM      1  C   UNL A   1      32.635  29.280  27.153  1.00  0.00     0.002 C 
ENDROOT
BRANCH   1   2
ATOM      2  C   UNL A   1      31.356  29.568  26.355  1.00  0.00     0.021 C 
BRANCH   2   3
ATOM      3  C   UNL A   1      31.609  30.300  25.033  1.00  0.00     0.116 C 
BRANCH   3   4
ATOM      4  N   UNL A   1      30.723  29.810  23.989  1.00  0.00    -0.356 N 
ATOM      5  C   UNL A   1      30.847  28.709  23.184  1.00  0.00     0.224 C 
ATOM      6  O   UNL A   1      30.054  28.537  22.262  1.00  0.00    -0.275 OA
ATOM      7  H   UNL A   1      29.913  30.350  23.837  1.00  0.00     0.163 HD
BRANCH   5   8
ATOM      8  C   UNL A   1      31.984  27.798  23.445  1.00  0.00     0.098 C 
ATOM      9  C   UNL A   1      31.834  26.457  24.134  1.00  0.00     0.098 C 
ATOM     10  C   UNL A   1      32.344  26.542  22.687  1.00  0.00    -0.011 C 
ATOM     11  C   UNL A   1      33.824  26.353  22.432  1.00  0.00     0.013 C 
ATOM     12  C   UNL A   1      31.486  26.025  21.559  1.00  0.00     0.013 C 
BRANCH   9  13
ATOM     13  C   UNL A   1      30.554  25.771  24.445  1.00  0.00     0.228 C 
ATOM     14  N   UNL A   1      30.497  24.392  24.543  1.00  0.00    -0.326 N 
ATOM     15  H   UNL A   1      29.597  24.056  24.761  1.00  0.00     0.169 HD
ATOM     16  O   UNL A   1      29.539  26.420  24.680  1.00  0.00    -0.274 OA
BRANCH  14  17
ATOM     17  C   UNL A   1      31.455  23.365  24.395  1.00  0.00     0.041 A 
ATOM     18  C   UNL A   1      33.226  22.044  25.437  1.00  0.00     0.041 A 
ATOM     19  C   UNL A   1      33.297  21.231  24.302  1.00  0.00     0.014 A 
ATOM     20  C   UNL A   1      32.323  23.122  25.473  1.00  0.00     0.040 A 
ATOM     21  C   UNL A   1      32.492  21.505  23.210  1.00  0.00     0.003 A 
ATOM     22  C   UNL A   1      31.600  22.577  23.257  1.00  0.00     0.026 A 
BRANCH  18  23
ATOM     23  C   UNL A   1      34.200  21.751  26.513  1.00  0.00     0.251 C 
ATOM     24  N   UNL A   1      35.502  22.164  26.451  1.00  0.00    -0.350 N 
ATOM     25  H   UNL A   1      36.063  21.845  27.194  1.00  0.00     0.164 HD
ATOM     26  O   UNL A   1      33.821  21.150  27.516  1.00  0.00    -0.269 OA
BRANCH  24  27
ATOM     27  C   UNL A   1      36.207  22.990  25.481  1.00  0.00     0.076 C 
ATOM     28  C   UNL A   1      36.419  22.209  24.189  1.00  0.00     0.030 C 
ATOM     29  C   UNL A   1      35.399  24.258  25.232  1.00  0.00     0.030 C 
ENDBRANCH  24  27
ENDBRANCH  18  23
ENDBRANCH  14  17
ENDBRANCH   9  13
ENDBRANCH   5   8
ENDBRANCH   3   4
ENDBRANCH   2   3
ENDBRANCH   1   2
BRANCH   1  30
ATOM     30  C   UNL A   1      33.553  30.491  27.353  1.00  0.00     0.002 C 
BRANCH  30  31
ATOM     31  C   UNL A   1      32.836  31.782  27.756  1.00  0.00     0.021 C 
BRANCH  31  32
ATOM     32  C   UNL A   1      33.367  33.036  27.071  1.00  0.00     0.116 C 
BRANCH  32  33
ATOM     33  N   UNL A   1      32.871  34.250  27.701  1.00  0.00    -0.352 N 
ATOM     34  C   UNL A   1      33.207  34.797  28.914  1.00  0.00     0.251 C 
ATOM     35  H   UNL A   1      32.199  34.749  27.185  1.00  0.00     0.163 HD
ATOM     36  O   UNL A   1      32.535  35.712  29.382  1.00  0.00    -0.269 OA
BRANCH  34  37
ATOM     37  C   UNL A   1      34.370  34.271  29.659  1.00  0.00     0.039 A 
ATOM     38  C   UNL A   1      34.149  33.496  30.800  1.00  0.00     0.014 A 
ATOM     39  C   UNL A   1      35.673  34.543  29.233  1.00  0.00     0.014 A 
ATOM     40  C   UNL A   1      35.238  32.946  31.481  1.00  0.00     0.010 A 
ATOM     41  C   UNL A   1      36.750  33.929  29.866  1.00  0.00     0.010 A 
ATOM     42  C   UNL A   1      36.545  33.132  31.001  1.00  0.00    -0.014 A 
BRANCH  42  43
ATOM     43  C   UNL A   1      37.707  32.489  31.668  1.00  0.00     0.031 A 
ATOM     44  C   UNL A   1      38.422  31.340  31.011  1.00  0.00     0.074 A 
ATOM     45  C   UNL A   1      38.069  32.891  32.904  1.00  0.00     0.049 A 
ATOM     46  N   UNL A   1      39.421  30.626  31.460  1.00  0.00    -0.248 NA
ATOM     47  C   UNL A   1      37.936  30.920  29.685  1.00  0.00     0.031 C 
ATOM     48  C   UNL A   1      37.408  33.942  33.679  1.00  0.00     0.029 A 
ATOM     49  N   UNL A   1      39.067  32.444  33.735  1.00  0.00    -0.354 N 
ATOM     50  C   UNL A   1      39.662  29.656  30.495  1.00  0.00     0.074 A 
ATOM     51  C   UNL A   1      38.680  29.849  29.450  1.00  0.00     0.031 C 
ATOM     52  C   UNL A   1      38.022  34.064  34.867  1.00  0.00     0.029 A 
ATOM     53  C   UNL A   1      39.092  33.078  34.955  1.00  0.00     0.049 A 
ATOM     54  H   UNL A   1      39.703  31.736  33.481  1.00  0.00     0.167 HD
ATOM     55  C   UNL A   1      40.627  28.707  30.465  1.00  0.00     0.034 A 
ATOM     56  C   UNL A   1      39.880  32.879  36.030  1.00  0.00     0.034 A 
ATOM     57  C   UNL A   1      41.620  28.537  31.491  1.00  0.00     0.049 A 
ATOM     58  C   UNL A   1      40.959  31.832  35.962  1.00  0.00     0.074 A 
ATOM     59  C   UNL A   1      42.691  27.660  31.514  1.00  0.00     0.029 A 
ATOM     60  N   UNL A   1      41.660  29.246  32.682  1.00  0.00    -0.354 N 
ATOM     61  N   UNL A   1      41.266  31.026  34.975  1.00  0.00    -0.248 NA
ATOM     62  C   UNL A   1      41.822  31.691  37.143  1.00  0.00     0.031 C 
ATOM     63  C   UNL A   1      43.355  27.813  32.736  1.00  0.00     0.029 A 
ATOM     64  C   UNL A   1      42.724  28.816  33.454  1.00  0.00     0.049 A 
ATOM     65  H   UNL A   1      41.023  29.952  32.939  1.00  0.00     0.167 HD
ATOM     66  C   UNL A   1      42.381  30.312  35.400  1.00  0.00     0.074 A 
ATOM     67  C   UNL A   1      42.706  30.794  36.726  1.00  0.00     0.031 C 
ATOM     68  C   UNL A   1      43.067  29.336  34.754  1.00  0.00     0.034 A 
BRANCH  55  69
ATOM     69  C   UNL A   1      40.682  27.799  29.263  1.00  0.00     0.023 A 
ATOM     70  C   UNL A   1      39.805  26.698  29.177  1.00  0.00     0.012 A 
ATOM     71  C   UNL A   1      41.560  28.067  28.194  1.00  0.00     0.148 A 
ATOM     72  C   UNL A   1      39.826  25.857  28.065  1.00  0.00     0.002 A 
ATOM     73  C   UNL A   1      41.540  27.253  27.067  1.00  0.00     0.091 A 
ATOM     74  F   UNL A   1      42.400  29.106  28.301  1.00  0.00    -0.205 F 
ATOM     75  C   UNL A   1      40.685  26.141  27.007  1.00  0.00     0.022 A 
BRANCH  73  76
ATOM     76  S   UNL A   1      42.546  27.581  25.616  1.00  0.00     0.127 S 
ATOM     77  O   UNL A   1      43.854  27.841  26.218  1.00  0.00    -0.237 OA
ATOM     78  O   UNL A   1      42.452  26.317  24.885  1.00  0.00    -0.237 OA
ATOM     79  O   UNL A   1      41.931  28.719  24.947  1.00  0.00    -0.744 OA
ENDBRANCH  73  76
ENDBRANCH  55  69
BRANCH  56  80
ATOM     80  C   UNL A   1      39.707  33.720  37.247  1.00  0.00     0.023 A 
ATOM     81  C   UNL A   1      40.287  35.004  37.294  1.00  0.00     0.012 A 
ATOM     82  C   UNL A   1      38.959  33.266  38.350  1.00  0.00     0.148 A 
ATOM     83  C   UNL A   1      40.156  35.802  38.430  1.00  0.00     0.002 A 
ATOM     84  C   UNL A   1      38.783  34.089  39.455  1.00  0.00     0.091 A 
ATOM     85  F   UNL A   1      38.423  32.038  38.288  1.00  0.00    -0.205 F 
ATOM     86  C   UNL A   1      39.397  35.350  39.506  1.00  0.00     0.022 A 
BRANCH  84  87
ATOM     87  S   UNL A   1      37.717  33.643  40.829  1.00  0.00     0.127 S 
ATOM     88  O   UNL A   1      38.545  32.681  41.551  1.00  0.00    -0.237 OA
ATOM     89  O   UNL A   1      37.538  34.931  41.501  1.00  0.00    -0.237 OA
ATOM     90  O   UNL A   1      36.503  33.105  40.230  1.00  0.00    -0.744 OA
ENDBRANCH  84  87
ENDBRANCH  56  80
BRANCH  68  91
ATOM     91  C   UNL A   1      44.271  28.750  35.446  1.00  0.00     0.023 A 
ATOM     92  C   UNL A   1      45.549  29.298  35.226  1.00  0.00     0.012 A 
ATOM     93  C   UNL A   1      44.119  27.699  36.373  1.00  0.00     0.148 A 
ATOM     94  C   UNL A   1      46.664  28.785  35.889  1.00  0.00     0.002 A 
ATOM     95  C   UNL A   1      45.225  27.229  37.070  1.00  0.00     0.091 A 
ATOM     96  F   UNL A   1      42.896  27.180  36.556  1.00  0.00    -0.205 F 
ATOM     97  C   UNL A   1      46.500  27.760  36.819  1.00  0.00     0.022 A 
BRANCH  95  98
ATOM     98  S   UNL A   1      45.095  25.983  38.357  1.00  0.00     0.127 S 
ATOM     99  O   UNL A   1      44.174  26.623  39.297  1.00  0.00    -0.237 OA
ATOM    100  O   UNL A   1      44.530  24.846  37.629  1.00  0.00    -0.237 OA
ATOM    101  O   UNL A   1      46.447  25.773  38.854  1.00  0.00    -0.744 OA
ENDBRANCH  95  98
ENDBRANCH  68  91
ENDBRANCH  42  43
ENDBRANCH  34  37
ENDBRANCH  32  33
ENDBRANCH  31  32
ENDBRANCH  30  31
ENDBRANCH   1  30
TORSDOF 20
ENDMDL
