MODEL 1
REMARK VINA RESULT:     -12.3      0.000      0.000
REMARK SMILES O=C(NCCCCCCNC(=O)[C@H]1CC2(CCN(C(=O)c3cccc(O)c3)CC2)CN1C(=O)C1CC1)c1ccc(-c2c3nc(c(-c4cccc(S(=O)(=O)[O-])c4F)c4ccc([nH]4)c(-c4cccc(S(=O)(=O)[O-])c4F)c4nc(c(-c5cccc(S(=O)(=O)[O-])c5F)c5ccc2[nH]5)C=C4)C=C3)cc1
REMARK SMILES IDX 6 1 5 2 4 3 3 4 1 5 2 6 37 8 38 9 99 10 39 11 98 12 40 13
REMARK SMILES IDX 41 14 42 15 92 16 43 17 97 18 91 19 93 20 44 21 96 22 90 23
REMARK SMILES IDX 89 24 45 26 77 27 57 28 76 29 58 30 61 31 75 32 94 33 59 34
REMARK SMILES IDX 60 35 74 37 95 38 62 39 46 40 47 41 55 42 48 43 50 44 56 45
REMARK SMILES IDX 49 46 51 47 52 48 53 49 54 50 78 51 79 52 87 53 80 54 82 55
REMARK SMILES IDX 88 56 81 57 83 58 84 59 85 60 86 61 63 62 64 63 72 64 65 65
REMARK SMILES IDX 67 66 73 67 66 68 68 69 69 70 70 71 71 72 7 73 8 74 9 75
REMARK SMILES IDX 10 76 11 77 12 79 13 80 14 81 31 82 15 83 30 84 16 85 29 86
REMARK SMILES IDX 17 87 28 88 18 89 19 90 20 91 32 92 33 93 34 94 35 95 36 96
REMARK SMILES IDX 21 97 22 98 27 99 23 100 25 101 24 102 26 103
REMARK H PARENT 3 7 93 25 61 36 10 78 26 104
REMARK Flexibility Score: inf
ROOT
ATOM      1  C   UNL A   1      36.347  20.603  24.720  1.00  0.00     0.002 C 
ENDROOT
BRANCH   1   2
ATOM      2  C   UNL A   1      37.451  19.622  25.112  1.00  0.00     0.021 C 
BRANCH   2   3
ATOM      3  C   UNL A   1      38.742  20.283  25.576  1.00  0.00     0.116 C 
BRANCH   3   4
ATOM      4  N   UNL A   1      39.788  19.308  25.832  1.00  0.00    -0.352 N 
ATOM      5  O   UNL A   1      41.937  18.668  26.135  1.00  0.00    -0.269 OA
ATOM      6  C   UNL A   1      41.100  19.563  26.152  1.00  0.00     0.251 C 
ATOM      7  H   UNL A   1      39.528  18.360  25.771  1.00  0.00     0.163 HD
BRANCH   6   8
ATOM      8  C   UNL A   1      41.474  20.952  26.492  1.00  0.00     0.039 A 
ATOM      9  C   UNL A   1      41.909  21.816  25.482  1.00  0.00     0.014 A 
ATOM     10  C   UNL A   1      41.451  21.366  27.824  1.00  0.00     0.014 A 
ATOM     11  C   UNL A   1      42.431  23.058  25.820  1.00  0.00     0.010 A 
ATOM     12  C   UNL A   1      41.896  22.649  28.150  1.00  0.00     0.010 A 
ATOM     13  C   UNL A   1      42.406  23.497  27.153  1.00  0.00    -0.014 A 
BRANCH  13  14
ATOM     14  C   UNL A   1      42.814  24.890  27.466  1.00  0.00     0.031 A 
ATOM     15  C   UNL A   1      41.863  25.870  28.090  1.00  0.00     0.074 A 
ATOM     16  C   UNL A   1      44.064  25.271  27.140  1.00  0.00     0.049 A 
ATOM     17  N   UNL A   1      42.067  27.125  28.402  1.00  0.00    -0.248 NA
ATOM     18  C   UNL A   1      40.506  25.391  28.396  1.00  0.00     0.031 C 
ATOM     19  C   UNL A   1      45.054  24.416  26.478  1.00  0.00     0.029 A 
ATOM     20  N   UNL A   1      44.712  26.468  27.298  1.00  0.00    -0.354 N 
ATOM     21  C   UNL A   1      40.859  27.599  28.897  1.00  0.00     0.074 A 
ATOM     22  C   UNL A   1      39.923  26.496  28.844  1.00  0.00     0.031 C 
ATOM     23  C   UNL A   1      46.184  25.111  26.293  1.00  0.00     0.029 A 
ATOM     24  C   UNL A   1      45.980  26.474  26.766  1.00  0.00     0.049 A 
ATOM     25  H   UNL A   1      44.310  27.245  27.747  1.00  0.00     0.167 HD
ATOM     26  C   UNL A   1      40.563  28.838  29.361  1.00  0.00     0.034 A 
ATOM     27  C   UNL A   1      46.873  27.473  26.639  1.00  0.00     0.034 A 
ATOM     28  C   UNL A   1      41.510  29.921  29.430  1.00  0.00     0.049 A 
ATOM     29  C   UNL A   1      46.527  28.827  27.182  1.00  0.00     0.074 A 
ATOM     30  C   UNL A   1      41.332  31.187  29.958  1.00  0.00     0.029 A 
ATOM     31  N   UNL A   1      42.807  29.875  28.939  1.00  0.00    -0.354 N 
ATOM     32  N   UNL A   1      45.427  29.216  27.781  1.00  0.00    -0.248 NA
ATOM     33  C   UNL A   1      47.550  29.871  27.060  1.00  0.00     0.031 C 
ATOM     34  C   UNL A   1      42.509  31.916  29.757  1.00  0.00     0.029 A 
ATOM     35  C   UNL A   1      43.433  31.094  29.134  1.00  0.00     0.049 A 
ATOM     36  H   UNL A   1      43.221  29.089  28.515  1.00  0.00     0.167 HD
ATOM     37  C   UNL A   1      45.633  30.543  28.128  1.00  0.00     0.074 A 
ATOM     38  C   UNL A   1      46.974  30.883  27.696  1.00  0.00     0.031 C 
ATOM     39  C   UNL A   1      44.783  31.407  28.734  1.00  0.00     0.034 A 
BRANCH  26  40
ATOM     40  C   UNL A   1      39.161  29.089  29.855  1.00  0.00     0.023 A 
ATOM     41  C   UNL A   1      38.809  28.737  31.175  1.00  0.00     0.012 A 
ATOM     42  C   UNL A   1      38.208  29.729  29.038  1.00  0.00     0.148 A 
ATOM     43  C   UNL A   1      37.525  28.985  31.660  1.00  0.00     0.002 A 
ATOM     44  C   UNL A   1      36.944  30.012  29.542  1.00  0.00     0.091 A 
ATOM     45  F   UNL A   1      38.551  30.040  27.779  1.00  0.00    -0.205 F 
ATOM     46  C   UNL A   1      36.597  29.630  30.848  1.00  0.00     0.022 A 
BRANCH  44  47
ATOM     47  S   UNL A   1      35.705  30.910  28.599  1.00  0.00     0.127 S 
ATOM     48  O   UNL A   1      34.929  31.546  29.664  1.00  0.00    -0.237 OA
ATOM     49  O   UNL A   1      36.524  31.831  27.810  1.00  0.00    -0.237 OA
ATOM     50  O   UNL A   1      34.995  29.909  27.816  1.00  0.00    -0.744 OA
ENDBRANCH  44  47
ENDBRANCH  26  40
BRANCH  27  51
ATOM     51  C   UNL A   1      48.184  27.201  25.990  1.00  0.00     0.023 A 
ATOM     52  C   UNL A   1      49.220  26.602  26.730  1.00  0.00     0.012 A 
ATOM     53  C   UNL A   1      48.381  27.467  24.619  1.00  0.00     0.148 A 
ATOM     54  C   UNL A   1      50.436  26.292  26.122  1.00  0.00     0.002 A 
ATOM     55  C   UNL A   1      49.572  27.099  24.007  1.00  0.00     0.091 A 
ATOM     56  F   UNL A   1      47.384  28.046  23.936  1.00  0.00    -0.205 F 
ATOM     57  C   UNL A   1      50.608  26.527  24.760  1.00  0.00     0.022 A 
BRANCH  55  58
ATOM     58  S   UNL A   1      49.820  27.227  22.233  1.00  0.00     0.127 S 
ATOM     59  O   UNL A   1      48.705  26.437  21.719  1.00  0.00    -0.237 OA
ATOM     60  O   UNL A   1      49.706  28.670  22.016  1.00  0.00    -0.237 OA
ATOM     61  O   UNL A   1      51.149  26.686  21.981  1.00  0.00    -0.744 OA
ENDBRANCH  55  58
ENDBRANCH  27  51
BRANCH  39  62
ATOM     62  C   UNL A   1      45.285  32.803  28.994  1.00  0.00     0.023 A 
ATOM     63  C   UNL A   1      45.964  33.092  30.194  1.00  0.00     0.012 A 
ATOM     64  C   UNL A   1      45.139  33.810  28.021  1.00  0.00     0.148 A 
ATOM     65  C   UNL A   1      46.462  34.373  30.435  1.00  0.00     0.002 A 
ATOM     66  C   UNL A   1      45.681  35.070  28.246  1.00  0.00     0.091 A 
ATOM     67  F   UNL A   1      44.471  33.520  26.894  1.00  0.00    -0.205 F 
ATOM     68  C   UNL A   1      46.332  35.357  29.457  1.00  0.00     0.022 A 
BRANCH  66  69
ATOM     69  S   UNL A   1      45.646  36.370  27.007  1.00  0.00     0.127 S 
ATOM     70  O   UNL A   1      46.507  37.383  27.614  1.00  0.00    -0.237 OA
ATOM     71  O   UNL A   1      46.220  35.701  25.839  1.00  0.00    -0.237 OA
ATOM     72  O   UNL A   1      44.246  36.746  26.860  1.00  0.00    -0.744 OA
ENDBRANCH  66  69
ENDBRANCH  39  62
ENDBRANCH  13  14
ENDBRANCH   6   8
ENDBRANCH   3   4
ENDBRANCH   2   3
ENDBRANCH   1   2
BRANCH   1  73
ATOM     73  C   UNL A   1      35.477  21.076  25.888  1.00  0.00     0.002 C 
BRANCH  73  74
ATOM     74  C   UNL A   1      34.067  20.469  25.913  1.00  0.00     0.021 C 
BRANCH  74  75
ATOM     75  C   UNL A   1      32.961  21.408  25.421  1.00  0.00     0.116 C 
BRANCH  75  76
ATOM     76  N   UNL A   1      32.709  22.535  26.313  1.00  0.00    -0.354 N 
ATOM     77  C   UNL A   1      32.140  23.764  26.106  1.00  0.00     0.242 C 
ATOM     78  H   UNL A   1      33.005  22.384  27.240  1.00  0.00     0.163 HD
ATOM     79  O   UNL A   1      32.001  24.496  27.089  1.00  0.00    -0.273 OA
BRANCH  77  80
ATOM     80  C   UNL A   1      31.670  24.162  24.693  1.00  0.00     0.175 C 
ATOM     81  C   UNL A   1      30.914  25.506  24.892  1.00  0.00     0.044 C 
ATOM     82  N   UNL A   1      32.430  24.519  23.483  1.00  0.00    -0.330 N 
ATOM     83  C   UNL A   1      30.531  25.976  23.469  1.00  0.00    -0.006 C 
ATOM     84  C   UNL A   1      31.474  25.152  22.576  1.00  0.00     0.127 C 
ATOM     85  C   UNL A   1      30.824  27.476  23.236  1.00  0.00     0.030 C 
ATOM     86  C   UNL A   1      29.040  25.690  23.184  1.00  0.00     0.030 C 
ATOM     87  C   UNL A   1      29.871  28.379  24.003  1.00  0.00     0.120 C 
ATOM     88  C   UNL A   1      28.107  26.662  23.923  1.00  0.00     0.120 C 
ATOM     89  N   UNL A   1      28.490  28.045  23.661  1.00  0.00    -0.339 N 
ATOM     90  C   UNL A   1      27.521  28.947  23.233  1.00  0.00     0.253 C 
ATOM     91  O   UNL A   1      26.323  28.683  23.164  1.00  0.00    -0.269 OA
BRANCH  82  92
ATOM     92  C   UNL A   1      33.603  24.074  22.887  1.00  0.00     0.226 C 
ATOM     93  O   UNL A   1      33.547  23.408  21.852  1.00  0.00    -0.275 OA
BRANCH  92  94
ATOM     94  C   UNL A   1      34.985  24.425  23.316  1.00  0.00     0.079 C 
ATOM     95  C   UNL A   1      35.665  24.116  24.615  1.00  0.00     0.014 C 
ATOM     96  C   UNL A   1      36.093  23.428  23.352  1.00  0.00     0.014 C 
ENDBRANCH  92  94
ENDBRANCH  82  92
BRANCH  90  97
ATOM     97  C   UNL A   1      27.939  30.303  22.818  1.00  0.00     0.043 A 
ATOM     98  C   UNL A   1      28.339  31.247  23.772  1.00  0.00     0.014 A 
ATOM     99  C   UNL A   1      27.988  30.606  21.456  1.00  0.00     0.060 A 
ATOM    100  C   UNL A   1      28.743  32.517  23.360  1.00  0.00     0.005 A 
ATOM    101  C   UNL A   1      28.398  31.874  21.060  1.00  0.00     0.116 A 
ATOM    102  C   UNL A   1      28.769  32.835  22.000  1.00  0.00     0.046 A 
BRANCH 101 103
ATOM    103  O   UNL A   1      28.426  32.145  19.724  1.00  0.00    -0.508 OA
ATOM    104  H   UNL A   1      29.171  32.569  19.347  1.00  0.00     0.293 HD
ENDBRANCH 101 103
ENDBRANCH  90  97
ENDBRANCH  77  80
ENDBRANCH  75  76
ENDBRANCH  74  75
ENDBRANCH  73  74
ENDBRANCH   1  73
TORSDOF 20
ENDMDL
MODEL 2
REMARK VINA RESULT:     -11.8      3.136      8.597
REMARK SMILES O=C(NCCCCCCNC(=O)[C@H]1CC2(CCN(C(=O)c3cccc(O)c3)CC2)CN1C(=O)C1CC1)c1ccc(-c2c3nc(c(-c4cccc(S(=O)(=O)[O-])c4F)c4ccc([nH]4)c(-c4cccc(S(=O)(=O)[O-])c4F)c4nc(c(-c5cccc(S(=O)(=O)[O-])c5F)c5ccc2[nH]5)C=C4)C=C3)cc1
REMARK SMILES IDX 6 1 5 2 4 3 3 4 1 5 2 6 37 8 38 9 99 10 39 11 98 12 40 13
REMARK SMILES IDX 41 14 42 15 92 16 43 17 97 18 91 19 93 20 44 21 96 22 90 23
REMARK SMILES IDX 89 24 45 26 77 27 57 28 76 29 58 30 61 31 75 32 94 33 59 34
REMARK SMILES IDX 60 35 74 37 95 38 62 39 46 40 47 41 55 42 48 43 50 44 56 45
REMARK SMILES IDX 49 46 51 47 52 48 53 49 54 50 78 51 79 52 87 53 80 54 82 55
REMARK SMILES IDX 88 56 81 57 83 58 84 59 85 60 86 61 63 62 64 63 72 64 65 65
REMARK SMILES IDX 67 66 73 67 66 68 68 69 69 70 70 71 71 72 7 73 8 74 9 75
REMARK SMILES IDX 10 76 11 77 12 79 13 80 14 81 31 82 15 83 30 84 16 85 29 86
REMARK SMILES IDX 17 87 28 88 18 89 19 90 20 91 32 92 33 93 34 94 35 95 36 96
REMARK SMILES IDX 21 97 22 98 27 99 23 100 25 101 24 102 26 103
REMARK H PARENT 3 7 93 25 61 36 10 78 26 104
REMARK Flexibility Score: inf
ROOT
ATOM      1  C   UNL A   1      34.819  24.509  25.264  1.00  0.00     0.002 C 
ENDROOT
BRANCH   1   2
ATOM      2  C   UNL A   1      36.098  23.706  25.029  1.00  0.00     0.021 C 
BRANCH   2   3
ATOM      3  C   UNL A   1      37.161  23.891  26.103  1.00  0.00     0.116 C 
BRANCH   3   4
ATOM      4  N   UNL A   1      37.826  22.641  26.428  1.00  0.00    -0.352 N 
ATOM      5  O   UNL A   1      39.643  21.332  26.749  1.00  0.00    -0.269 OA
ATOM      6  C   UNL A   1      39.161  22.457  26.699  1.00  0.00     0.251 C 
ATOM      7  H   UNL A   1      37.258  21.837  26.459  1.00  0.00     0.163 HD
BRANCH   6   8
ATOM      8  C   UNL A   1      39.999  23.657  26.904  1.00  0.00     0.039 A 
ATOM      9  C   UNL A   1      40.865  23.714  28.000  1.00  0.00     0.014 A 
ATOM     10  C   UNL A   1      39.868  24.745  26.040  1.00  0.00     0.014 A 
ATOM     11  C   UNL A   1      41.518  24.903  28.298  1.00  0.00     0.010 A 
ATOM     12  C   UNL A   1      40.593  25.912  26.295  1.00  0.00     0.010 A 
ATOM     13  C   UNL A   1      41.408  26.006  27.436  1.00  0.00    -0.014 A 
BRANCH  13  14
ATOM     14  C   UNL A   1      42.243  27.208  27.684  1.00  0.00     0.031 A 
ATOM     15  C   UNL A   1      43.673  27.283  27.233  1.00  0.00     0.074 A 
ATOM     16  C   UNL A   1      41.692  28.230  28.366  1.00  0.00     0.049 A 
ATOM     17  N   UNL A   1      44.534  28.256  27.395  1.00  0.00    -0.248 NA
ATOM     18  C   UNL A   1      44.215  26.119  26.516  1.00  0.00     0.031 C 
ATOM     19  C   UNL A   1      40.327  28.241  28.902  1.00  0.00     0.029 A 
ATOM     20  N   UNL A   1      42.205  29.444  28.743  1.00  0.00    -0.354 N 
ATOM     21  C   UNL A   1      45.728  27.808  26.845  1.00  0.00     0.074 A 
ATOM     22  C   UNL A   1      45.482  26.473  26.342  1.00  0.00     0.031 C 
ATOM     23  C   UNL A   1      40.109  29.403  29.531  1.00  0.00     0.029 A 
ATOM     24  C   UNL A   1      41.333  30.193  29.496  1.00  0.00     0.049 A 
ATOM     25  H   UNL A   1      43.108  29.747  28.499  1.00  0.00     0.167 HD
ATOM     26  C   UNL A   1      46.915  28.457  26.759  1.00  0.00     0.034 A 
ATOM     27  C   UNL A   1      41.504  31.372  30.123  1.00  0.00     0.034 A 
ATOM     28  C   UNL A   1      47.140  29.795  27.243  1.00  0.00     0.049 A 
ATOM     29  C   UNL A   1      42.821  32.077  29.992  1.00  0.00     0.074 A 
ATOM     30  C   UNL A   1      48.281  30.570  27.131  1.00  0.00     0.029 A 
ATOM     31  N   UNL A   1      46.214  30.551  27.947  1.00  0.00    -0.354 N 
ATOM     32  N   UNL A   1      43.894  31.699  29.340  1.00  0.00    -0.248 NA
ATOM     33  C   UNL A   1      42.944  33.380  30.654  1.00  0.00     0.031 C 
ATOM     34  C   UNL A   1      48.056  31.780  27.796  1.00  0.00     0.029 A 
ATOM     35  C   UNL A   1      46.763  31.775  28.293  1.00  0.00     0.049 A 
ATOM     36  H   UNL A   1      45.300  30.260  28.168  1.00  0.00     0.167 HD
ATOM     37  C   UNL A   1      44.813  32.727  29.494  1.00  0.00     0.074 A 
ATOM     38  C   UNL A   1      44.159  33.756  30.279  1.00  0.00     0.031 C 
ATOM     39  C   UNL A   1      46.088  32.806  29.041  1.00  0.00     0.034 A 
BRANCH  26  40
ATOM     40  C   UNL A   1      48.064  27.739  26.097  1.00  0.00     0.023 A 
ATOM     41  C   UNL A   1      48.330  27.956  24.729  1.00  0.00     0.012 A 
ATOM     42  C   UNL A   1      48.919  26.900  26.839  1.00  0.00     0.148 A 
ATOM     43  C   UNL A   1      49.405  27.322  24.104  1.00  0.00     0.002 A 
ATOM     44  C   UNL A   1      50.012  26.306  26.219  1.00  0.00     0.091 A 
ATOM     45  F   UNL A   1      48.641  26.689  28.134  1.00  0.00    -0.205 F 
ATOM     46  C   UNL A   1      50.250  26.506  24.850  1.00  0.00     0.022 A 
BRANCH  44  47
ATOM     47  S   UNL A   1      51.204  25.301  27.115  1.00  0.00     0.127 S 
ATOM     48  O   UNL A   1      51.802  26.287  28.015  1.00  0.00    -0.237 OA
ATOM     49  O   UNL A   1      50.345  24.317  27.774  1.00  0.00    -0.237 OA
ATOM     50  O   UNL A   1      52.097  24.747  26.107  1.00  0.00    -0.744 OA
ENDBRANCH  44  47
ENDBRANCH  26  40
BRANCH  27  51
ATOM     51  C   UNL A   1      40.378  31.954  30.903  1.00  0.00     0.023 A 
ATOM     52  C   UNL A   1      39.542  32.918  30.310  1.00  0.00     0.012 A 
ATOM     53  C   UNL A   1      40.090  31.498  32.205  1.00  0.00     0.148 A 
ATOM     54  C   UNL A   1      38.451  33.434  31.009  1.00  0.00     0.002 A 
ATOM     55  C   UNL A   1      38.966  31.971  32.871  1.00  0.00     0.091 A 
ATOM     56  F   UNL A   1      40.905  30.586  32.753  1.00  0.00    -0.205 F 
ATOM     57  C   UNL A   1      38.154  32.952  32.281  1.00  0.00     0.022 A 
BRANCH  55  58
ATOM     58  S   UNL A   1      38.427  31.296  34.446  1.00  0.00     0.127 S 
ATOM     59  O   UNL A   1      39.459  31.793  35.351  1.00  0.00    -0.237 OA
ATOM     60  O   UNL A   1      37.113  31.918  34.606  1.00  0.00    -0.237 OA
ATOM     61  O   UNL A   1      38.388  29.851  34.261  1.00  0.00    -0.744 OA
ENDBRANCH  55  58
ENDBRANCH  27  51
BRANCH  39  62
ATOM     62  C   UNL A   1      46.859  34.059  29.359  1.00  0.00     0.023 A 
ATOM     63  C   UNL A   1      47.648  34.122  30.524  1.00  0.00     0.012 A 
ATOM     64  C   UNL A   1      46.849  35.152  28.470  1.00  0.00     0.148 A 
ATOM     65  C   UNL A   1      48.391  35.265  30.816  1.00  0.00     0.002 A 
ATOM     66  C   UNL A   1      47.631  36.268  28.742  1.00  0.00     0.091 A 
ATOM     67  F   UNL A   1      46.075  35.081  27.377  1.00  0.00    -0.205 F 
ATOM     68  C   UNL A   1      48.393  36.332  29.921  1.00  0.00     0.022 A 
BRANCH  66  69
ATOM     69  S   UNL A   1      47.771  37.648  27.600  1.00  0.00     0.127 S 
ATOM     70  O   UNL A   1      48.775  38.480  28.261  1.00  0.00    -0.237 OA
ATOM     71  O   UNL A   1      48.230  36.992  26.376  1.00  0.00    -0.237 OA
ATOM     72  O   UNL A   1      46.438  38.230  27.510  1.00  0.00    -0.744 OA
ENDBRANCH  66  69
ENDBRANCH  39  62
ENDBRANCH  13  14
ENDBRANCH   6   8
ENDBRANCH   3   4
ENDBRANCH   2   3
ENDBRANCH   1   2
BRANCH   1  73
ATOM     73  C   UNL A   1      33.635  24.082  24.394  1.00  0.00     0.002 C 
BRANCH  73  74
ATOM     74  C   UNL A   1      33.795  24.410  22.902  1.00  0.00     0.021 C 
BRANCH  74  75
ATOM     75  C   UNL A   1      32.817  25.462  22.373  1.00  0.00     0.116 C 
BRANCH  75  76
ATOM     76  N   UNL A   1      33.428  26.766  22.139  1.00  0.00    -0.354 N 
ATOM     77  C   UNL A   1      33.674  27.829  22.967  1.00  0.00     0.242 C 
ATOM     78  H   UNL A   1      33.720  26.909  21.209  1.00  0.00     0.163 HD
ATOM     79  O   UNL A   1      34.278  28.792  22.487  1.00  0.00    -0.273 OA
BRANCH  77  80
ATOM     80  C   UNL A   1      33.231  27.770  24.442  1.00  0.00     0.175 C 
ATOM     81  C   UNL A   1      33.834  29.049  25.088  1.00  0.00     0.044 C 
ATOM     82  N   UNL A   1      31.893  27.828  25.057  1.00  0.00    -0.330 N 
ATOM     83  C   UNL A   1      33.307  29.062  26.542  1.00  0.00    -0.006 C 
ATOM     84  C   UNL A   1      32.111  28.098  26.477  1.00  0.00     0.127 C 
ATOM     85  C   UNL A   1      32.790  30.453  26.978  1.00  0.00     0.030 C 
ATOM     86  C   UNL A   1      34.403  28.588  27.522  1.00  0.00     0.030 C 
ATOM     87  C   UNL A   1      33.916  31.457  27.169  1.00  0.00     0.120 C 
ATOM     88  C   UNL A   1      35.490  29.651  27.744  1.00  0.00     0.120 C 
ATOM     89  N   UNL A   1      34.894  30.929  28.118  1.00  0.00    -0.339 N 
ATOM     90  C   UNL A   1      35.365  31.591  29.249  1.00  0.00     0.253 C 
ATOM     91  O   UNL A   1      36.337  31.221  29.901  1.00  0.00    -0.269 OA
BRANCH  82  92
ATOM     92  C   UNL A   1      30.638  27.328  24.736  1.00  0.00     0.226 C 
ATOM     93  O   UNL A   1      30.184  26.371  25.365  1.00  0.00    -0.275 OA
BRANCH  92  94
ATOM     94  C   UNL A   1      29.691  27.920  23.752  1.00  0.00     0.079 C 
ATOM     95  C   UNL A   1      29.651  29.322  23.223  1.00  0.00     0.014 C 
ATOM     96  C   UNL A   1      30.069  28.187  22.334  1.00  0.00     0.014 C 
ENDBRANCH  92  94
ENDBRANCH  82  92
BRANCH  90  97
ATOM     97  C   UNL A   1      34.656  32.801  29.715  1.00  0.00     0.043 A 
ATOM     98  C   UNL A   1      34.730  33.195  31.057  1.00  0.00     0.014 A 
ATOM     99  C   UNL A   1      33.965  33.579  28.784  1.00  0.00     0.060 A 
ATOM    100  C   UNL A   1      34.065  34.348  31.477  1.00  0.00     0.005 A 
ATOM    101  C   UNL A   1      33.312  34.728  29.215  1.00  0.00     0.116 A 
ATOM    102  C   UNL A   1      33.350  35.115  30.554  1.00  0.00     0.046 A 
BRANCH 101 103
ATOM    103  O   UNL A   1      32.636  35.461  28.286  1.00  0.00    -0.508 OA
ATOM    104  H   UNL A   1      32.261  35.040  27.538  1.00  0.00     0.293 HD
ENDBRANCH 101 103
ENDBRANCH  90  97
ENDBRANCH  77  80
ENDBRANCH  75  76
ENDBRANCH  74  75
ENDBRANCH  73  74
ENDBRANCH   1  73
TORSDOF 20
ENDMDL
MODEL 3
REMARK VINA RESULT:     -11.7      2.446      8.295
REMARK SMILES O=C(NCCCCCCNC(=O)[C@H]1CC2(CCN(C(=O)c3cccc(O)c3)CC2)CN1C(=O)C1CC1)c1ccc(-c2c3nc(c(-c4cccc(S(=O)(=O)[O-])c4F)c4ccc([nH]4)c(-c4cccc(S(=O)(=O)[O-])c4F)c4nc(c(-c5cccc(S(=O)(=O)[O-])c5F)c5ccc2[nH]5)C=C4)C=C3)cc1
REMARK SMILES IDX 6 1 5 2 4 3 3 4 1 5 2 6 37 8 38 9 99 10 39 11 98 12 40 13
REMARK SMILES IDX 41 14 42 15 92 16 43 17 97 18 91 19 93 20 44 21 96 22 90 23
REMARK SMILES IDX 89 24 45 26 77 27 57 28 76 29 58 30 61 31 75 32 94 33 59 34
REMARK SMILES IDX 60 35 74 37 95 38 62 39 46 40 47 41 55 42 48 43 50 44 56 45
REMARK SMILES IDX 49 46 51 47 52 48 53 49 54 50 78 51 79 52 87 53 80 54 82 55
REMARK SMILES IDX 88 56 81 57 83 58 84 59 85 60 86 61 63 62 64 63 72 64 65 65
REMARK SMILES IDX 67 66 73 67 66 68 68 69 69 70 70 71 71 72 7 73 8 74 9 75
REMARK SMILES IDX 10 76 11 77 12 79 13 80 14 81 31 82 15 83 30 84 16 85 29 86
REMARK SMILES IDX 17 87 28 88 18 89 19 90 20 91 32 92 33 93 34 94 35 95 36 96
REMARK SMILES IDX 21 97 22 98 27 99 23 100 25 101 24 102 26 103
REMARK H PARENT 3 7 93 25 61 36 10 78 26 104
REMARK Flexibility Score: inf
ROOT
ATOM      1  C   UNL A   1      34.108  24.132  25.314  1.00  0.00     0.002 C 
ENDROOT
BRANCH   1   2
ATOM      2  C   UNL A   1      35.337  23.255  25.077  1.00  0.00     0.021 C 
BRANCH   2   3
ATOM      3  C   UNL A   1      36.091  22.875  26.344  1.00  0.00     0.116 C 
BRANCH   3   4
ATOM      4  N   UNL A   1      36.953  21.725  26.137  1.00  0.00    -0.352 N 
ATOM      5  O   UNL A   1      38.933  20.726  25.687  1.00  0.00    -0.269 OA
ATOM      6  C   UNL A   1      38.327  21.717  26.077  1.00  0.00     0.251 C 
ATOM      7  H   UNL A   1      36.506  20.855  26.029  1.00  0.00     0.163 HD
BRANCH   6   8
ATOM      8  C   UNL A   1      39.045  22.946  26.474  1.00  0.00     0.039 A 
ATOM      9  C   UNL A   1      38.699  24.167  25.888  1.00  0.00     0.014 A 
ATOM     10  C   UNL A   1      40.104  22.864  27.380  1.00  0.00     0.014 A 
ATOM     11  C   UNL A   1      39.486  25.288  26.121  1.00  0.00     0.010 A 
ATOM     12  C   UNL A   1      40.840  24.013  27.678  1.00  0.00     0.010 A 
ATOM     13  C   UNL A   1      40.548  25.228  27.037  1.00  0.00    -0.014 A 
BRANCH  13  14
ATOM     14  C   UNL A   1      41.269  26.476  27.395  1.00  0.00     0.031 A 
ATOM     15  C   UNL A   1      42.612  26.808  26.812  1.00  0.00     0.074 A 
ATOM     16  C   UNL A   1      40.698  27.299  28.296  1.00  0.00     0.049 A 
ATOM     17  N   UNL A   1      43.372  27.848  27.044  1.00  0.00    -0.248 NA
ATOM     18  C   UNL A   1      43.185  25.851  25.853  1.00  0.00     0.031 C 
ATOM     19  C   UNL A   1      39.420  27.046  28.970  1.00  0.00     0.029 A 
ATOM     20  N   UNL A   1      41.116  28.495  28.817  1.00  0.00    -0.354 N 
ATOM     21  C   UNL A   1      44.528  27.653  26.300  1.00  0.00     0.074 A 
ATOM     22  C   UNL A   1      44.371  26.391  25.607  1.00  0.00     0.031 C 
ATOM     23  C   UNL A   1      39.155  28.057  29.807  1.00  0.00     0.029 A 
ATOM     24  C   UNL A   1      40.269  28.998  29.776  1.00  0.00     0.049 A 
ATOM     25  H   UNL A   1      41.941  28.949  28.532  1.00  0.00     0.167 HD
ATOM     26  C   UNL A   1      45.614  28.457  26.198  1.00  0.00     0.034 A 
ATOM     27  C   UNL A   1      40.385  30.077  30.571  1.00  0.00     0.034 A 
ATOM     28  C   UNL A   1      45.748  29.721  26.876  1.00  0.00     0.049 A 
ATOM     29  C   UNL A   1      41.587  30.961  30.421  1.00  0.00     0.074 A 
ATOM     30  C   UNL A   1      46.771  30.647  26.775  1.00  0.00     0.029 A 
ATOM     31  N   UNL A   1      44.841  30.230  27.794  1.00  0.00    -0.354 N 
ATOM     32  N   UNL A   1      42.604  30.833  29.603  1.00  0.00    -0.248 NA
ATOM     33  C   UNL A   1      41.647  32.150  31.278  1.00  0.00     0.031 C 
ATOM     34  C   UNL A   1      46.499  31.699  27.656  1.00  0.00     0.029 A 
ATOM     35  C   UNL A   1      45.289  31.447  28.281  1.00  0.00     0.049 A 
ATOM     36  H   UNL A   1      44.000  29.791  28.059  1.00  0.00     0.167 HD
ATOM     37  C   UNL A   1      43.414  31.936  29.830  1.00  0.00     0.074 A 
ATOM     38  C   UNL A   1      42.755  32.736  30.844  1.00  0.00     0.031 C 
ATOM     39  C   UNL A   1      44.604  32.251  29.262  1.00  0.00     0.034 A 
BRANCH  26  40
ATOM     40  C   UNL A   1      46.742  28.009  25.304  1.00  0.00     0.023 A 
ATOM     41  C   UNL A   1      46.651  28.202  23.910  1.00  0.00     0.012 A 
ATOM     42  C   UNL A   1      47.920  27.454  25.845  1.00  0.00     0.148 A 
ATOM     43  C   UNL A   1      47.695  27.818  23.068  1.00  0.00     0.002 A 
ATOM     44  C   UNL A   1      48.973  27.114  25.004  1.00  0.00     0.091 A 
ATOM     45  F   UNL A   1      47.984  27.258  27.170  1.00  0.00    -0.205 F 
ATOM     46  C   UNL A   1      48.858  27.284  23.615  1.00  0.00     0.022 A 
BRANCH  44  47
ATOM     47  S   UNL A   1      50.542  26.492  25.621  1.00  0.00     0.127 S 
ATOM     48  O   UNL A   1      50.957  27.574  26.513  1.00  0.00    -0.237 OA
ATOM     49  O   UNL A   1      50.140  25.261  26.303  1.00  0.00    -0.237 OA
ATOM     50  O   UNL A   1      51.380  26.287  24.448  1.00  0.00    -0.744 OA
ENDBRANCH  44  47
ENDBRANCH  26  40
BRANCH  27  51
ATOM     51  C   UNL A   1      39.310  30.377  31.555  1.00  0.00     0.023 A 
ATOM     52  C   UNL A   1      39.336  29.772  32.825  1.00  0.00     0.012 A 
ATOM     53  C   UNL A   1      38.303  31.320  31.261  1.00  0.00     0.148 A 
ATOM     54  C   UNL A   1      38.366  30.084  33.778  1.00  0.00     0.002 A 
ATOM     55  C   UNL A   1      37.378  31.671  32.235  1.00  0.00     0.091 A 
ATOM     56  F   UNL A   1      38.293  31.877  30.042  1.00  0.00    -0.205 F 
ATOM     57  C   UNL A   1      37.397  31.041  33.490  1.00  0.00     0.022 A 
BRANCH  55  58
ATOM     58  S   UNL A   1      36.193  32.999  32.000  1.00  0.00     0.127 S 
ATOM     59  O   UNL A   1      35.861  33.350  33.379  1.00  0.00    -0.237 OA
ATOM     60  O   UNL A   1      36.992  33.994  31.285  1.00  0.00    -0.237 OA
ATOM     61  O   UNL A   1      35.109  32.424  31.215  1.00  0.00    -0.744 OA
ENDBRANCH  55  58
ENDBRANCH  27  51
BRANCH  39  62
ATOM     62  C   UNL A   1      45.263  33.531  29.704  1.00  0.00     0.023 A 
ATOM     63  C   UNL A   1      46.188  33.513  30.766  1.00  0.00     0.012 A 
ATOM     64  C   UNL A   1      45.013  34.738  29.024  1.00  0.00     0.148 A 
ATOM     65  C   UNL A   1      46.829  34.685  31.167  1.00  0.00     0.002 A 
ATOM     66  C   UNL A   1      45.693  35.892  29.395  1.00  0.00     0.091 A 
ATOM     67  F   UNL A   1      44.114  34.738  28.029  1.00  0.00    -0.205 F 
ATOM     68  C   UNL A   1      46.592  35.870  30.474  1.00  0.00     0.022 A 
BRANCH  66  69
ATOM     69  S   UNL A   1      45.523  37.441  28.501  1.00  0.00     0.127 S 
ATOM     70  O   UNL A   1      46.749  38.140  28.881  1.00  0.00    -0.237 OA
ATOM     71  O   UNL A   1      45.482  36.992  27.109  1.00  0.00    -0.237 OA
ATOM     72  O   UNL A   1      44.286  38.045  28.978  1.00  0.00    -0.744 OA
ENDBRANCH  66  69
ENDBRANCH  39  62
ENDBRANCH  13  14
ENDBRANCH   6   8
ENDBRANCH   3   4
ENDBRANCH   2   3
ENDBRANCH   1   2
BRANCH   1  73
ATOM     73  C   UNL A   1      32.771  23.415  25.117  1.00  0.00     0.002 C 
BRANCH  73  74
ATOM     74  C   UNL A   1      32.578  22.806  23.720  1.00  0.00     0.021 C 
BRANCH  74  75
ATOM     75  C   UNL A   1      31.491  23.479  22.877  1.00  0.00     0.116 C 
BRANCH  75  76
ATOM     76  N   UNL A   1      31.977  24.599  22.078  1.00  0.00    -0.354 N 
ATOM     77  C   UNL A   1      32.064  25.941  22.333  1.00  0.00     0.242 C 
ATOM     78  H   UNL A   1      32.305  24.339  21.186  1.00  0.00     0.163 HD
ATOM     79  O   UNL A   1      32.593  26.647  21.470  1.00  0.00    -0.273 OA
BRANCH  77  80
ATOM     80  C   UNL A   1      31.547  26.503  23.672  1.00  0.00     0.175 C 
ATOM     81  C   UNL A   1      32.657  27.484  24.145  1.00  0.00     0.044 C 
ATOM     82  N   UNL A   1      30.374  27.336  23.986  1.00  0.00    -0.330 N 
ATOM     83  C   UNL A   1      32.104  28.139  25.432  1.00  0.00    -0.006 C 
ATOM     84  C   UNL A   1      30.596  27.857  25.334  1.00  0.00     0.127 C 
ATOM     85  C   UNL A   1      32.312  29.671  25.460  1.00  0.00     0.030 C 
ATOM     86  C   UNL A   1      32.749  27.506  26.685  1.00  0.00     0.030 C 
ATOM     87  C   UNL A   1      33.771  30.055  25.656  1.00  0.00     0.120 C 
ATOM     88  C   UNL A   1      34.201  27.966  26.890  1.00  0.00     0.120 C 
ATOM     89  N   UNL A   1      34.289  29.422  26.867  1.00  0.00    -0.339 N 
ATOM     90  C   UNL A   1      34.945  30.078  27.906  1.00  0.00     0.253 C 
ATOM     91  O   UNL A   1      35.559  29.500  28.800  1.00  0.00    -0.269 OA
BRANCH  82  92
ATOM     92  C   UNL A   1      29.062  27.402  23.535  1.00  0.00     0.226 C 
ATOM     93  O   UNL A   1      28.259  26.527  23.866  1.00  0.00    -0.275 OA
BRANCH  92  94
ATOM     94  C   UNL A   1      28.463  28.522  22.760  1.00  0.00     0.079 C 
ATOM     95  C   UNL A   1      27.289  29.382  23.119  1.00  0.00     0.014 C 
ATOM     96  C   UNL A   1      28.677  29.953  23.122  1.00  0.00     0.014 C 
ENDBRANCH  92  94
ENDBRANCH  82  92
BRANCH  90  97
ATOM     97  C   UNL A   1      34.897  31.554  27.964  1.00  0.00     0.043 A 
ATOM     98  C   UNL A   1      36.079  32.304  27.955  1.00  0.00     0.014 A 
ATOM     99  C   UNL A   1      33.653  32.189  27.964  1.00  0.00     0.060 A 
ATOM    100  C   UNL A   1      36.014  33.698  27.996  1.00  0.00     0.005 A 
ATOM    101  C   UNL A   1      33.603  33.577  27.999  1.00  0.00     0.116 A 
ATOM    102  C   UNL A   1      34.772  34.337  28.023  1.00  0.00     0.046 A 
BRANCH 101 103
ATOM    103  O   UNL A   1      32.375  34.169  28.009  1.00  0.00    -0.508 OA
ATOM    104  H   UNL A   1      32.135  34.763  27.326  1.00  0.00     0.293 HD
ENDBRANCH 101 103
ENDBRANCH  90  97
ENDBRANCH  77  80
ENDBRANCH  75  76
ENDBRANCH  74  75
ENDBRANCH  73  74
ENDBRANCH   1  73
TORSDOF 20
ENDMDL
