MODEL 1
REMARK VINA RESULT:     -10.7      0.000      0.000
REMARK SMILES C[C@H]1CCC[C@@](NC(=O)N2CCO[C@H](C#N)C2)(C(=O)NCCCCCCNC(=O)c2ccc(-c3c4nc(c(-c5cccc(S(=O)(=O)[O-])c5F)c5ccc([nH]5)c(-c5cccc(S(=O)(=O)[O-])c5F)c5nc(c(-c6cccc(S(=O)(=O)[O-])c6F)c6ccc3[nH]6)C=C5)C=C4)cc2)C1
REMARK SMILES IDX 23 1 22 2 21 3 20 4 18 5 19 6 6 8 1 9 2 10 3 11 93 12 4 13
REMARK SMILES IDX 5 14 7 15 8 16 9 18 10 19 11 20 17 21 12 22 14 23 13 24
REMARK SMILES IDX 15 25 16 26 24 27 25 28 26 29 27 30 28 31 29 33 30 34 31 35
REMARK SMILES IDX 92 36 32 37 91 38 33 39 34 40 35 41 85 42 36 43 90 44 84 45
REMARK SMILES IDX 86 46 37 47 89 48 83 49 82 50 38 52 70 53 50 54 69 55 51 56
REMARK SMILES IDX 54 57 68 58 87 59 52 60 53 61 67 63 88 64 55 65 39 66 40 67
REMARK SMILES IDX 48 68 41 69 43 70 49 71 42 72 44 73 45 74 46 75 47 76 71 77
REMARK SMILES IDX 72 78 80 79 73 80 75 81 81 82 74 83 76 84 77 85 78 86 79 87
REMARK SMILES IDX 56 88 57 89 65 90 58 91 60 92 66 93 59 94 61 95 62 96 63 97
REMARK SMILES IDX 64 98
REMARK H PARENT 20 7 7 17 27 32 86 51 54 62
REMARK Flexibility Score: inf
ROOT
ATOM      1  C   UNL A   1      39.147  22.145  26.117  1.00  0.00     0.002 C 
ENDROOT
BRANCH   1   2
ATOM      2  C   UNL A   1      38.347  23.443  26.249  1.00  0.00     0.021 C 
BRANCH   2   3
ATOM      3  C   UNL A   1      37.030  23.343  25.501  1.00  0.00     0.116 C 
BRANCH   3   4
ATOM      4  N   UNL A   1      35.933  23.456  26.453  1.00  0.00    -0.354 N 
ATOM      5  C   UNL A   1      34.726  22.827  26.499  1.00  0.00     0.245 C 
ATOM      6  O   UNL A   1      34.010  23.068  27.476  1.00  0.00    -0.272 OA
ATOM      7  H   UNL A   1      36.092  24.095  27.186  1.00  0.00     0.163 HD
BRANCH   5   8
ATOM      8  C   UNL A   1      34.255  21.934  25.328  1.00  0.00     0.121 C 
ATOM      9  C   UNL A   1      35.110  18.158  24.571  1.00  0.00     0.008 C 
ATOM     10  C   UNL A   1      34.326  19.466  24.477  1.00  0.00    -0.011 C 
ATOM     11  C   UNL A   1      32.916  19.231  25.023  1.00  0.00     0.003 C 
ATOM     12  C   UNL A   1      35.059  20.609  25.224  1.00  0.00     0.042 C 
ATOM     13  C   UNL A   1      32.104  20.502  24.942  1.00  0.00     0.003 C 
ATOM     14  C   UNL A   1      32.786  21.588  25.747  1.00  0.00     0.039 C 
BRANCH   8  15
ATOM     15  N   UNL A   1      34.324  22.671  24.043  1.00  0.00    -0.323 N 
ATOM     16  C   UNL A   1      34.083  23.942  23.627  1.00  0.00     0.318 C 
ATOM     17  H   UNL A   1      34.619  22.092  23.304  1.00  0.00     0.166 HD
ATOM     18  O   UNL A   1      34.322  24.177  22.440  1.00  0.00    -0.249 OA
BRANCH  16  19
ATOM     19  N   UNL A   1      33.399  24.841  24.401  1.00  0.00    -0.319 N 
ATOM     20  C   UNL A   1      31.928  24.760  24.388  1.00  0.00     0.150 C 
ATOM     21  C   UNL A   1      33.880  26.167  24.834  1.00  0.00     0.169 C 
ATOM     22  C   UNL A   1      31.349  25.242  25.727  1.00  0.00     0.183 C 
ATOM     23  C   UNL A   1      33.230  26.588  26.172  1.00  0.00     0.240 C 
ATOM     24  O   UNL A   1      31.786  26.572  26.035  1.00  0.00    -0.360 OA
BRANCH  23  25
ATOM     25  C   UNL A   1      33.687  27.920  26.605  1.00  0.00     0.096 C 
ATOM     26  N   UNL A   1      34.034  28.964  26.970  1.00  0.00    -0.195 NA
ENDBRANCH  23  25
ENDBRANCH  16  19
ENDBRANCH   8  15
ENDBRANCH   5   8
ENDBRANCH   3   4
ENDBRANCH   2   3
ENDBRANCH   1   2
BRANCH   1  27
ATOM     27  C   UNL A   1      38.456  21.088  25.246  1.00  0.00     0.002 C 
BRANCH  27  28
ATOM     28  C   UNL A   1      39.071  19.698  25.330  1.00  0.00     0.021 C 
BRANCH  28  29
ATOM     29  C   UNL A   1      39.981  19.526  26.529  1.00  0.00     0.116 C 
BRANCH  29  30
ATOM     30  N   UNL A   1      41.199  18.814  26.168  1.00  0.00    -0.352 N 
ATOM     31  C   UNL A   1      42.417  19.334  25.823  1.00  0.00     0.251 C 
ATOM     32  H   UNL A   1      41.139  17.830  26.174  1.00  0.00     0.163 HD
ATOM     33  O   UNL A   1      43.270  18.625  25.300  1.00  0.00    -0.269 OA
BRANCH  31  34
ATOM     34  C   UNL A   1      42.667  20.765  26.074  1.00  0.00     0.039 A 
ATOM     35  C   UNL A   1      42.943  21.183  27.373  1.00  0.00     0.014 A 
ATOM     36  C   UNL A   1      42.681  21.676  25.011  1.00  0.00     0.014 A 
ATOM     37  C   UNL A   1      43.276  22.516  27.596  1.00  0.00     0.010 A 
ATOM     38  C   UNL A   1      43.136  22.970  25.220  1.00  0.00     0.010 A 
ATOM     39  C   UNL A   1      43.415  23.411  26.519  1.00  0.00    -0.014 A 
BRANCH  39  40
ATOM     40  C   UNL A   1      43.853  24.806  26.755  1.00  0.00     0.031 A 
ATOM     41  C   UNL A   1      42.894  25.825  27.310  1.00  0.00     0.074 A 
ATOM     42  C   UNL A   1      45.121  25.153  26.453  1.00  0.00     0.049 A 
ATOM     43  N   UNL A   1      43.122  27.071  27.635  1.00  0.00    -0.248 NA
ATOM     44  C   UNL A   1      41.495  25.406  27.506  1.00  0.00     0.031 C 
ATOM     45  C   UNL A   1      46.112  24.275  25.825  1.00  0.00     0.029 A 
ATOM     46  N   UNL A   1      45.794  26.332  26.635  1.00  0.00    -0.354 N 
ATOM     47  C   UNL A   1      41.903  27.582  28.063  1.00  0.00     0.074 A 
ATOM     48  C   UNL A   1      40.922  26.533  27.902  1.00  0.00     0.031 C 
ATOM     49  C   UNL A   1      47.276  24.934  25.712  1.00  0.00     0.029 A 
ATOM     50  C   UNL A   1      47.104  26.290  26.218  1.00  0.00     0.049 A 
ATOM     51  H   UNL A   1      45.380  27.134  27.029  1.00  0.00     0.167 HD
ATOM     52  C   UNL A   1      41.631  28.801  28.582  1.00  0.00     0.034 A 
ATOM     53  C   UNL A   1      48.055  27.242  26.234  1.00  0.00     0.034 A 
ATOM     54  C   UNL A   1      42.614  29.835  28.758  1.00  0.00     0.049 A 
ATOM     55  C   UNL A   1      47.720  28.585  26.826  1.00  0.00     0.074 A 
ATOM     56  C   UNL A   1      42.452  31.086  29.325  1.00  0.00     0.029 A 
ATOM     57  N   UNL A   1      43.939  29.742  28.362  1.00  0.00    -0.354 N 
ATOM     58  N   UNL A   1      46.597  28.996  27.362  1.00  0.00    -0.248 NA
ATOM     59  C   UNL A   1      48.798  29.582  26.848  1.00  0.00     0.031 C 
ATOM     60  C   UNL A   1      43.671  31.766  29.235  1.00  0.00     0.029 A 
ATOM     61  C   UNL A   1      44.604  30.919  28.662  1.00  0.00     0.049 A 
ATOM     62  H   UNL A   1      44.346  28.957  27.932  1.00  0.00     0.167 HD
ATOM     63  C   UNL A   1      46.846  30.284  27.819  1.00  0.00     0.074 A 
ATOM     64  C   UNL A   1      48.237  30.566  27.533  1.00  0.00     0.031 C 
ATOM     65  C   UNL A   1      45.999  31.166  28.405  1.00  0.00     0.034 A 
BRANCH  52  66
ATOM     66  C   UNL A   1      40.224  29.072  29.049  1.00  0.00     0.023 A 
ATOM     67  C   UNL A   1      39.223  29.374  28.102  1.00  0.00     0.012 A 
ATOM     68  C   UNL A   1      39.874  28.943  30.406  1.00  0.00     0.148 A 
ATOM     69  C   UNL A   1      37.901  29.564  28.501  1.00  0.00     0.002 A 
ATOM     70  C   UNL A   1      38.545  29.086  30.790  1.00  0.00     0.091 A 
ATOM     71  F   UNL A   1      40.843  28.676  31.292  1.00  0.00    -0.205 F 
ATOM     72  C   UNL A   1      37.560  29.406  29.841  1.00  0.00     0.022 A 
BRANCH  70  73
ATOM     73  S   UNL A   1      37.988  28.826  32.477  1.00  0.00     0.127 S 
ATOM     74  O   UNL A   1      38.911  29.679  33.227  1.00  0.00    -0.237 OA
ATOM     75  O   UNL A   1      36.612  29.318  32.421  1.00  0.00    -0.237 OA
ATOM     76  O   UNL A   1      38.122  27.399  32.733  1.00  0.00    -0.744 OA
ENDBRANCH  70  73
ENDBRANCH  52  66
BRANCH  53  77
ATOM     77  C   UNL A   1      49.419  26.965  25.702  1.00  0.00     0.023 A 
ATOM     78  C   UNL A   1      50.413  26.432  26.549  1.00  0.00     0.012 A 
ATOM     79  C   UNL A   1      49.748  27.264  24.367  1.00  0.00     0.148 A 
ATOM     80  C   UNL A   1      51.720  26.265  26.094  1.00  0.00     0.002 A 
ATOM     81  C   UNL A   1      51.035  27.031  23.901  1.00  0.00     0.091 A 
ATOM     82  F   UNL A   1      48.793  27.775  23.576  1.00  0.00    -0.205 F 
ATOM     83  C   UNL A   1      52.030  26.558  24.768  1.00  0.00     0.022 A 
BRANCH  81  84
ATOM     84  S   UNL A   1      51.483  27.257  22.177  1.00  0.00     0.127 S 
ATOM     85  O   UNL A   1      52.716  26.481  22.084  1.00  0.00    -0.237 OA
ATOM     86  O   UNL A   1      50.332  26.674  21.488  1.00  0.00    -0.237 OA
ATOM     87  O   UNL A   1      51.625  28.697  21.995  1.00  0.00    -0.744 OA
ENDBRANCH  81  84
ENDBRANCH  53  77
BRANCH  65  88
ATOM     88  C   UNL A   1      46.571  32.498  28.819  1.00  0.00     0.023 A 
ATOM     89  C   UNL A   1      47.182  32.646  30.081  1.00  0.00     0.012 A 
ATOM     90  C   UNL A   1      46.516  33.600  27.945  1.00  0.00     0.148 A 
ATOM     91  C   UNL A   1      47.667  33.887  30.493  1.00  0.00     0.002 A 
ATOM     92  C   UNL A   1      47.058  34.817  28.337  1.00  0.00     0.091 A 
ATOM     93  F   UNL A   1      45.922  33.445  26.754  1.00  0.00    -0.205 F 
ATOM     94  C   UNL A   1      47.613  34.968  29.619  1.00  0.00     0.022 A 
BRANCH  92  95
ATOM     95  S   UNL A   1      47.126  36.239  27.243  1.00  0.00     0.127 S 
ATOM     96  O   UNL A   1      47.864  35.701  26.101  1.00  0.00    -0.237 OA
ATOM     97  O   UNL A   1      45.709  36.498  26.988  1.00  0.00    -0.237 OA
ATOM     98  O   UNL A   1      47.808  37.289  27.988  1.00  0.00    -0.744 OA
ENDBRANCH  92  95
ENDBRANCH  65  88
ENDBRANCH  39  40
ENDBRANCH  31  34
ENDBRANCH  29  30
ENDBRANCH  28  29
ENDBRANCH  27  28
ENDBRANCH   1  27
TORSDOF 19
ENDMDL
MODEL 2
REMARK VINA RESULT:     -10.3      1.481      7.816
REMARK SMILES C[C@H]1CCC[C@@](NC(=O)N2CCO[C@H](C#N)C2)(C(=O)NCCCCCCNC(=O)c2ccc(-c3c4nc(c(-c5cccc(S(=O)(=O)[O-])c5F)c5ccc([nH]5)c(-c5cccc(S(=O)(=O)[O-])c5F)c5nc(c(-c6cccc(S(=O)(=O)[O-])c6F)c6ccc3[nH]6)C=C5)C=C4)cc2)C1
REMARK SMILES IDX 23 1 22 2 21 3 20 4 18 5 19 6 6 8 1 9 2 10 3 11 93 12 4 13
REMARK SMILES IDX 5 14 7 15 8 16 9 18 10 19 11 20 17 21 12 22 14 23 13 24
REMARK SMILES IDX 15 25 16 26 24 27 25 28 26 29 27 30 28 31 29 33 30 34 31 35
REMARK SMILES IDX 92 36 32 37 91 38 33 39 34 40 35 41 85 42 36 43 90 44 84 45
REMARK SMILES IDX 86 46 37 47 89 48 83 49 82 50 38 52 70 53 50 54 69 55 51 56
REMARK SMILES IDX 54 57 68 58 87 59 52 60 53 61 67 63 88 64 55 65 39 66 40 67
REMARK SMILES IDX 48 68 41 69 43 70 49 71 42 72 44 73 45 74 46 75 47 76 71 77
REMARK SMILES IDX 72 78 80 79 73 80 75 81 81 82 74 83 76 84 77 85 78 86 79 87
REMARK SMILES IDX 56 88 57 89 65 90 58 91 60 92 66 93 59 94 61 95 62 96 63 97
REMARK SMILES IDX 64 98
REMARK H PARENT 20 7 7 17 27 32 86 51 54 62
REMARK Flexibility Score: inf
ROOT
ATOM      1  C   UNL A   1      37.909  23.271  26.077  1.00  0.00     0.002 C 
ENDROOT
BRANCH   1   2
ATOM      2  C   UNL A   1      37.302  22.637  24.823  1.00  0.00     0.021 C 
BRANCH   2   3
ATOM      3  C   UNL A   1      36.057  21.842  25.169  1.00  0.00     0.116 C 
BRANCH   3   4
ATOM      4  N   UNL A   1      35.549  22.293  26.458  1.00  0.00    -0.354 N 
ATOM      5  C   UNL A   1      34.279  22.337  26.948  1.00  0.00     0.245 C 
ATOM      6  O   UNL A   1      34.146  22.707  28.119  1.00  0.00    -0.272 OA
ATOM      7  H   UNL A   1      36.239  22.621  27.078  1.00  0.00     0.163 HD
BRANCH   5   8
ATOM      8  C   UNL A   1      33.068  22.028  26.037  1.00  0.00     0.121 C 
ATOM      9  C   UNL A   1      32.691  22.512  22.140  1.00  0.00     0.008 C 
ATOM     10  C   UNL A   1      32.361  21.954  23.524  1.00  0.00    -0.011 C 
ATOM     11  C   UNL A   1      32.570  20.439  23.503  1.00  0.00     0.003 C 
ATOM     12  C   UNL A   1      33.211  22.647  24.619  1.00  0.00     0.042 C 
ATOM     13  C   UNL A   1      32.248  19.847  24.855  1.00  0.00     0.003 C 
ATOM     14  C   UNL A   1      33.144  20.469  25.904  1.00  0.00     0.039 C 
BRANCH   8  15
ATOM     15  N   UNL A   1      31.806  22.487  26.665  1.00  0.00    -0.323 N 
ATOM     16  C   UNL A   1      31.005  23.581  26.573  1.00  0.00     0.318 C 
ATOM     17  H   UNL A   1      31.461  21.833  27.315  1.00  0.00     0.166 HD
ATOM     18  O   UNL A   1      29.975  23.557  27.250  1.00  0.00    -0.249 OA
BRANCH  16  19
ATOM     19  N   UNL A   1      31.421  24.734  25.960  1.00  0.00    -0.319 N 
ATOM     20  C   UNL A   1      32.379  25.580  26.694  1.00  0.00     0.150 C 
ATOM     21  C   UNL A   1      30.685  25.490  24.929  1.00  0.00     0.169 C 
ATOM     22  C   UNL A   1      33.273  26.356  25.716  1.00  0.00     0.183 C 
ATOM     23  C   UNL A   1      31.654  26.263  24.005  1.00  0.00     0.240 C 
ATOM     24  O   UNL A   1      32.490  27.140  24.805  1.00  0.00    -0.360 OA
BRANCH  23  25
ATOM     25  C   UNL A   1      30.931  27.041  22.984  1.00  0.00     0.096 C 
ATOM     26  N   UNL A   1      30.382  27.671  22.181  1.00  0.00    -0.195 NA
ENDBRANCH  23  25
ENDBRANCH  16  19
ENDBRANCH   8  15
ENDBRANCH   5   8
ENDBRANCH   3   4
ENDBRANCH   2   3
ENDBRANCH   1   2
BRANCH   1  27
ATOM     27  C   UNL A   1      39.246  22.644  26.492  1.00  0.00     0.002 C 
BRANCH  27  28
ATOM     28  C   UNL A   1      39.545  21.301  25.840  1.00  0.00     0.021 C 
BRANCH  28  29
ATOM     29  C   UNL A   1      40.138  20.294  26.806  1.00  0.00     0.116 C 
BRANCH  29  30
ATOM     30  N   UNL A   1      41.170  19.492  26.164  1.00  0.00    -0.352 N 
ATOM     31  C   UNL A   1      42.411  19.885  25.741  1.00  0.00     0.251 C 
ATOM     32  H   UNL A   1      40.947  18.544  26.017  1.00  0.00     0.163 HD
ATOM     33  O   UNL A   1      43.068  19.169  24.993  1.00  0.00    -0.269 OA
BRANCH  31  34
ATOM     34  C   UNL A   1      42.925  21.193  26.187  1.00  0.00     0.039 A 
ATOM     35  C   UNL A   1      43.143  22.190  25.239  1.00  0.00     0.014 A 
ATOM     36  C   UNL A   1      43.136  21.442  27.548  1.00  0.00     0.014 A 
ATOM     37  C   UNL A   1      43.533  23.455  25.669  1.00  0.00     0.010 A 
ATOM     38  C   UNL A   1      43.400  22.734  27.978  1.00  0.00     0.010 A 
ATOM     39  C   UNL A   1      43.625  23.749  27.041  1.00  0.00    -0.014 A 
BRANCH  39  40
ATOM     40  C   UNL A   1      43.958  25.121  27.493  1.00  0.00     0.031 A 
ATOM     41  C   UNL A   1      45.387  25.592  27.517  1.00  0.00     0.074 A 
ATOM     42  C   UNL A   1      42.961  25.936  27.894  1.00  0.00     0.049 A 
ATOM     43  N   UNL A   1      45.854  26.775  27.824  1.00  0.00    -0.248 NA
ATOM     44  C   UNL A   1      46.433  24.611  27.177  1.00  0.00     0.031 C 
ATOM     45  C   UNL A   1      41.549  25.559  28.002  1.00  0.00     0.029 A 
ATOM     46  N   UNL A   1      42.981  27.249  28.284  1.00  0.00    -0.354 N 
ATOM     47  C   UNL A   1      47.236  26.677  27.722  1.00  0.00     0.074 A 
ATOM     48  C   UNL A   1      47.541  25.307  27.384  1.00  0.00     0.031 C 
ATOM     49  C   UNL A   1      40.835  26.626  28.388  1.00  0.00     0.029 A 
ATOM     50  C   UNL A   1      41.739  27.750  28.599  1.00  0.00     0.049 A 
ATOM     51  H   UNL A   1      43.806  27.785  28.333  1.00  0.00     0.167 HD
ATOM     52  C   UNL A   1      48.165  27.650  27.858  1.00  0.00     0.034 A 
ATOM     53  C   UNL A   1      41.375  28.976  29.019  1.00  0.00     0.034 A 
ATOM     54  C   UNL A   1      47.855  29.017  28.176  1.00  0.00     0.049 A 
ATOM     55  C   UNL A   1      42.434  30.036  29.152  1.00  0.00     0.074 A 
ATOM     56  C   UNL A   1      48.719  30.092  28.283  1.00  0.00     0.029 A 
ATOM     57  N   UNL A   1      46.583  29.497  28.448  1.00  0.00    -0.354 N 
ATOM     58  N   UNL A   1      43.719  29.959  28.905  1.00  0.00    -0.248 NA
ATOM     59  C   UNL A   1      41.984  31.365  29.585  1.00  0.00     0.031 C 
ATOM     60  C   UNL A   1      47.974  31.215  28.659  1.00  0.00     0.029 A 
ATOM     61  C   UNL A   1      46.640  30.851  28.733  1.00  0.00     0.049 A 
ATOM     62  H   UNL A   1      45.761  28.956  28.439  1.00  0.00     0.167 HD
ATOM     63  C   UNL A   1      44.223  31.236  29.116  1.00  0.00     0.074 A 
ATOM     64  C   UNL A   1      43.096  32.074  29.469  1.00  0.00     0.031 C 
ATOM     65  C   UNL A   1      45.503  31.677  29.045  1.00  0.00     0.034 A 
BRANCH  52  66
ATOM     66  C   UNL A   1      49.607  27.289  27.612  1.00  0.00     0.023 A 
ATOM     67  C   UNL A   1      50.326  26.584  28.600  1.00  0.00     0.012 A 
ATOM     68  C   UNL A   1      50.222  27.567  26.377  1.00  0.00     0.148 A 
ATOM     69  C   UNL A   1      51.640  26.180  28.370  1.00  0.00     0.002 A 
ATOM     70  C   UNL A   1      51.516  27.119  26.137  1.00  0.00     0.091 A 
ATOM     71  F   UNL A   1      49.529  28.255  25.460  1.00  0.00    -0.205 F 
ATOM     72  C   UNL A   1      52.230  26.435  27.135  1.00  0.00     0.022 A 
BRANCH  70  73
ATOM     73  S   UNL A   1      52.339  27.326  24.554  1.00  0.00     0.127 S 
ATOM     74  O   UNL A   1      52.523  28.776  24.505  1.00  0.00    -0.237 OA
ATOM     75  O   UNL A   1      53.570  26.560  24.749  1.00  0.00    -0.237 OA
ATOM     76  O   UNL A   1      51.431  26.786  23.552  1.00  0.00    -0.744 OA
ENDBRANCH  70  73
ENDBRANCH  52  66
BRANCH  53  77
ATOM     77  C   UNL A   1      39.948  29.284  29.321  1.00  0.00     0.023 A 
ATOM     78  C   UNL A   1      39.049  29.563  28.272  1.00  0.00     0.012 A 
ATOM     79  C   UNL A   1      39.487  29.339  30.649  1.00  0.00     0.148 A 
ATOM     80  C   UNL A   1      37.738  29.955  28.544  1.00  0.00     0.002 A 
ATOM     81  C   UNL A   1      38.163  29.664  30.910  1.00  0.00     0.091 A 
ATOM     82  F   UNL A   1      40.356  29.077  31.636  1.00  0.00    -0.205 F 
ATOM     83  C   UNL A   1      37.293  29.999  29.862  1.00  0.00     0.022 A 
BRANCH  81  84
ATOM     84  S   UNL A   1      37.475  29.616  32.568  1.00  0.00     0.127 S 
ATOM     85  O   UNL A   1      38.368  30.519  33.289  1.00  0.00    -0.237 OA
ATOM     86  O   UNL A   1      36.122  30.129  32.348  1.00  0.00    -0.237 OA
ATOM     87  O   UNL A   1      37.526  28.216  32.973  1.00  0.00    -0.744 OA
ENDBRANCH  81  84
ENDBRANCH  53  77
BRANCH  65  88
ATOM     88  C   UNL A   1      45.741  33.142  29.307  1.00  0.00     0.023 A 
ATOM     89  C   UNL A   1      46.200  33.571  30.569  1.00  0.00     0.012 A 
ATOM     90  C   UNL A   1      45.524  34.093  28.292  1.00  0.00     0.148 A 
ATOM     91  C   UNL A   1      46.373  34.928  30.837  1.00  0.00     0.002 A 
ATOM     92  C   UNL A   1      45.760  35.438  28.546  1.00  0.00     0.091 A 
ATOM     93  F   UNL A   1      45.078  33.669  27.101  1.00  0.00    -0.205 F 
ATOM     94  C   UNL A   1      46.162  35.859  29.825  1.00  0.00     0.022 A 
BRANCH  92  95
ATOM     95  S   UNL A   1      45.612  36.698  27.277  1.00  0.00     0.127 S 
ATOM     96  O   UNL A   1      44.274  36.434  26.749  1.00  0.00    -0.237 OA
ATOM     97  O   UNL A   1      45.730  37.932  28.054  1.00  0.00    -0.237 OA
ATOM     98  O   UNL A   1      46.708  36.463  26.346  1.00  0.00    -0.744 OA
ENDBRANCH  92  95
ENDBRANCH  65  88
ENDBRANCH  39  40
ENDBRANCH  31  34
ENDBRANCH  29  30
ENDBRANCH  28  29
ENDBRANCH  27  28
ENDBRANCH   1  27
TORSDOF 19
ENDMDL
MODEL 3
REMARK VINA RESULT:     -10.3      1.185      2.087
REMARK SMILES C[C@H]1CCC[C@@](NC(=O)N2CCO[C@H](C#N)C2)(C(=O)NCCCCCCNC(=O)c2ccc(-c3c4nc(c(-c5cccc(S(=O)(=O)[O-])c5F)c5ccc([nH]5)c(-c5cccc(S(=O)(=O)[O-])c5F)c5nc(c(-c6cccc(S(=O)(=O)[O-])c6F)c6ccc3[nH]6)C=C5)C=C4)cc2)C1
REMARK SMILES IDX 23 1 22 2 21 3 20 4 18 5 19 6 6 8 1 9 2 10 3 11 93 12 4 13
REMARK SMILES IDX 5 14 7 15 8 16 9 18 10 19 11 20 17 21 12 22 14 23 13 24
REMARK SMILES IDX 15 25 16 26 24 27 25 28 26 29 27 30 28 31 29 33 30 34 31 35
REMARK SMILES IDX 92 36 32 37 91 38 33 39 34 40 35 41 85 42 36 43 90 44 84 45
REMARK SMILES IDX 86 46 37 47 89 48 83 49 82 50 38 52 70 53 50 54 69 55 51 56
REMARK SMILES IDX 54 57 68 58 87 59 52 60 53 61 67 63 88 64 55 65 39 66 40 67
REMARK SMILES IDX 48 68 41 69 43 70 49 71 42 72 44 73 45 74 46 75 47 76 71 77
REMARK SMILES IDX 72 78 80 79 73 80 75 81 81 82 74 83 76 84 77 85 78 86 79 87
REMARK SMILES IDX 56 88 57 89 65 90 58 91 60 92 66 93 59 94 61 95 62 96 63 97
REMARK SMILES IDX 64 98
REMARK H PARENT 20 7 7 17 27 32 86 51 54 62
REMARK Flexibility Score: inf
ROOT
ATOM      1  C   UNL A   1      36.424  21.193  24.734  1.00  0.00     0.002 C 
ENDROOT
BRANCH   1   2
ATOM      2  C   UNL A   1      36.711  22.492  23.978  1.00  0.00     0.021 C 
BRANCH   2   3
ATOM      3  C   UNL A   1      35.423  23.127  23.489  1.00  0.00     0.116 C 
BRANCH   3   4
ATOM      4  N   UNL A   1      35.191  24.361  24.227  1.00  0.00    -0.354 N 
ATOM      5  C   UNL A   1      34.369  24.629  25.279  1.00  0.00     0.245 C 
ATOM      6  O   UNL A   1      34.429  25.766  25.758  1.00  0.00    -0.272 OA
ATOM      7  H   UNL A   1      35.717  25.132  23.911  1.00  0.00     0.163 HD
BRANCH   5   8
ATOM      8  C   UNL A   1      33.350  23.577  25.774  1.00  0.00     0.121 C 
ATOM      9  C   UNL A   1      32.394  20.093  24.190  1.00  0.00     0.008 C 
ATOM     10  C   UNL A   1      32.502  21.157  25.282  1.00  0.00    -0.011 C 
ATOM     11  C   UNL A   1      33.380  20.612  26.409  1.00  0.00     0.003 C 
ATOM     12  C   UNL A   1      33.045  22.489  24.707  1.00  0.00     0.042 C 
ATOM     13  C   UNL A   1      33.507  21.635  27.514  1.00  0.00     0.003 C 
ATOM     14  C   UNL A   1      34.120  22.903  26.960  1.00  0.00     0.039 C 
BRANCH   8  15
ATOM     15  N   UNL A   1      32.090  24.228  26.207  1.00  0.00    -0.323 N 
ATOM     16  C   UNL A   1      31.211  25.116  25.674  1.00  0.00     0.318 C 
ATOM     17  H   UNL A   1      31.823  23.944  27.111  1.00  0.00     0.166 HD
ATOM     18  O   UNL A   1      30.218  25.373  26.359  1.00  0.00    -0.249 OA
BRANCH  16  19
ATOM     19  N   UNL A   1      31.515  25.859  24.563  1.00  0.00    -0.319 N 
ATOM     20  C   UNL A   1      31.182  27.294  24.600  1.00  0.00     0.150 C 
ATOM     21  C   UNL A   1      31.652  25.354  23.184  1.00  0.00     0.169 C 
ATOM     22  C   UNL A   1      32.153  28.096  23.723  1.00  0.00     0.183 C 
ATOM     23  C   UNL A   1      32.624  26.231  22.362  1.00  0.00     0.240 C 
ATOM     24  O   UNL A   1      32.163  27.607  22.374  1.00  0.00    -0.360 OA
BRANCH  23  25
ATOM     25  C   UNL A   1      32.753  25.749  20.975  1.00  0.00     0.096 C 
ATOM     26  N   UNL A   1      32.828  25.369  19.883  1.00  0.00    -0.195 NA
ENDBRANCH  23  25
ENDBRANCH  16  19
ENDBRANCH   8  15
ENDBRANCH   5   8
ENDBRANCH   3   4
ENDBRANCH   2   3
ENDBRANCH   1   2
BRANCH   1  27
ATOM     27  C   UNL A   1      37.660  20.302  24.907  1.00  0.00     0.002 C 
BRANCH  27  28
ATOM     28  C   UNL A   1      38.924  21.044  25.318  1.00  0.00     0.021 C 
BRANCH  28  29
ATOM     29  C   UNL A   1      39.538  20.505  26.594  1.00  0.00     0.116 C 
BRANCH  29  30
ATOM     30  N   UNL A   1      40.528  19.477  26.310  1.00  0.00    -0.352 N 
ATOM     31  C   UNL A   1      41.855  19.634  26.012  1.00  0.00     0.251 C 
ATOM     32  H   UNL A   1      40.202  18.547  26.337  1.00  0.00     0.163 HD
ATOM     33  O   UNL A   1      42.502  18.701  25.547  1.00  0.00    -0.269 OA
BRANCH  31  34
ATOM     34  C   UNL A   1      42.476  20.951  26.240  1.00  0.00     0.039 A 
ATOM     35  C   UNL A   1      42.695  21.791  25.151  1.00  0.00     0.014 A 
ATOM     36  C   UNL A   1      42.788  21.368  27.539  1.00  0.00     0.014 A 
ATOM     37  C   UNL A   1      43.189  23.072  25.377  1.00  0.00     0.010 A 
ATOM     38  C   UNL A   1      43.158  22.685  27.769  1.00  0.00     0.010 A 
ATOM     39  C   UNL A   1      43.387  23.544  26.687  1.00  0.00    -0.014 A 
BRANCH  39  40
ATOM     40  C   UNL A   1      43.832  24.938  26.924  1.00  0.00     0.031 A 
ATOM     41  C   UNL A   1      42.881  25.958  27.489  1.00  0.00     0.074 A 
ATOM     42  C   UNL A   1      45.099  25.280  26.613  1.00  0.00     0.049 A 
ATOM     43  N   UNL A   1      43.116  27.203  27.816  1.00  0.00    -0.248 NA
ATOM     44  C   UNL A   1      41.482  25.544  27.695  1.00  0.00     0.031 C 
ATOM     45  C   UNL A   1      46.082  24.401  25.974  1.00  0.00     0.029 A 
ATOM     46  N   UNL A   1      45.777  26.457  26.793  1.00  0.00    -0.354 N 
ATOM     47  C   UNL A   1      41.902  27.717  28.254  1.00  0.00     0.074 A 
ATOM     48  C   UNL A   1      40.916  26.672  28.098  1.00  0.00     0.031 C 
ATOM     49  C   UNL A   1      47.247  25.055  25.854  1.00  0.00     0.029 A 
ATOM     50  C   UNL A   1      47.084  26.411  26.365  1.00  0.00     0.049 A 
ATOM     51  H   UNL A   1      45.369  27.259  27.191  1.00  0.00     0.167 HD
ATOM     52  C   UNL A   1      41.639  28.935  28.778  1.00  0.00     0.034 A 
ATOM     53  C   UNL A   1      48.039  27.359  26.377  1.00  0.00     0.034 A 
ATOM     54  C   UNL A   1      42.627  29.965  28.950  1.00  0.00     0.049 A 
ATOM     55  C   UNL A   1      47.713  28.701  26.974  1.00  0.00     0.074 A 
ATOM     56  C   UNL A   1      42.474  31.216  29.521  1.00  0.00     0.029 A 
ATOM     57  N   UNL A   1      43.949  29.869  28.543  1.00  0.00    -0.354 N 
ATOM     58  N   UNL A   1      46.596  29.116  27.520  1.00  0.00    -0.248 NA
ATOM     59  C   UNL A   1      48.795  29.694  26.990  1.00  0.00     0.031 C 
ATOM     60  C   UNL A   1      43.695  31.892  29.424  1.00  0.00     0.029 A 
ATOM     61  C   UNL A   1      44.621  31.042  28.841  1.00  0.00     0.049 A 
ATOM     62  H   UNL A   1      44.349  29.083  28.108  1.00  0.00     0.167 HD
ATOM     63  C   UNL A   1      46.853  30.402  27.979  1.00  0.00     0.074 A 
ATOM     64  C   UNL A   1      48.243  30.679  27.682  1.00  0.00     0.031 C 
ATOM     65  C   UNL A   1      46.014  31.285  28.574  1.00  0.00     0.034 A 
BRANCH  52  66
ATOM     66  C   UNL A   1      40.236  29.211  29.257  1.00  0.00     0.023 A 
ATOM     67  C   UNL A   1      39.242  29.575  28.325  1.00  0.00     0.012 A 
ATOM     68  C   UNL A   1      39.883  29.025  30.606  1.00  0.00     0.148 A 
ATOM     69  C   UNL A   1      37.924  29.771  28.732  1.00  0.00     0.002 A 
ATOM     70  C   UNL A   1      38.556  29.174  30.996  1.00  0.00     0.091 A 
ATOM     71  F   UNL A   1      40.845  28.698  31.479  1.00  0.00    -0.205 F 
ATOM     72  C   UNL A   1      37.578  29.557  30.063  1.00  0.00     0.022 A 
BRANCH  70  73
ATOM     73  S   UNL A   1      37.992  28.846  32.669  1.00  0.00     0.127 S 
ATOM     74  O   UNL A   1      38.125  27.391  32.744  1.00  0.00    -0.237 OA
ATOM     75  O   UNL A   1      38.964  29.591  33.469  1.00  0.00    -0.237 OA
ATOM     76  O   UNL A   1      36.626  29.344  32.741  1.00  0.00    -0.744 OA
ENDBRANCH  70  73
ENDBRANCH  52  66
BRANCH  53  77
ATOM     77  C   UNL A   1      49.398  27.079  25.833  1.00  0.00     0.023 A 
ATOM     78  C   UNL A   1      50.407  26.579  26.680  1.00  0.00     0.012 A 
ATOM     79  C   UNL A   1      49.705  27.341  24.485  1.00  0.00     0.148 A 
ATOM     80  C   UNL A   1      51.710  26.409  26.211  1.00  0.00     0.002 A 
ATOM     81  C   UNL A   1      50.987  27.106  24.007  1.00  0.00     0.091 A 
ATOM     82  F   UNL A   1      48.734  27.821  23.694  1.00  0.00    -0.205 F 
ATOM     83  C   UNL A   1      51.999  26.667  24.874  1.00  0.00     0.022 A 
BRANCH  81  84
ATOM     84  S   UNL A   1      51.409  27.286  22.272  1.00  0.00     0.127 S 
ATOM     85  O   UNL A   1      50.287  26.617  21.620  1.00  0.00    -0.237 OA
ATOM     86  O   UNL A   1      51.434  28.741  22.118  1.00  0.00    -0.237 OA
ATOM     87  O   UNL A   1      52.708  26.645  22.115  1.00  0.00    -0.744 OA
ENDBRANCH  81  84
ENDBRANCH  53  77
BRANCH  65  88
ATOM     88  C   UNL A   1      46.594  32.614  28.986  1.00  0.00     0.023 A 
ATOM     89  C   UNL A   1      47.175  32.768  30.262  1.00  0.00     0.012 A 
ATOM     90  C   UNL A   1      46.577  33.706  28.099  1.00  0.00     0.148 A 
ATOM     91  C   UNL A   1      47.668  34.007  30.672  1.00  0.00     0.002 A 
ATOM     92  C   UNL A   1      47.126  34.920  28.491  1.00  0.00     0.091 A 
ATOM     93  F   UNL A   1      46.011  33.545  26.895  1.00  0.00    -0.205 F 
ATOM     94  C   UNL A   1      47.651  35.079  29.784  1.00  0.00     0.022 A 
BRANCH  92  95
ATOM     95  S   UNL A   1      47.241  36.328  27.383  1.00  0.00     0.127 S 
ATOM     96  O   UNL A   1      45.845  36.512  26.989  1.00  0.00    -0.237 OA
ATOM     97  O   UNL A   1      47.771  37.369  28.262  1.00  0.00    -0.237 OA
ATOM     98  O   UNL A   1      48.142  35.924  26.311  1.00  0.00    -0.744 OA
ENDBRANCH  92  95
ENDBRANCH  65  88
ENDBRANCH  39  40
ENDBRANCH  31  34
ENDBRANCH  29  30
ENDBRANCH  28  29
ENDBRANCH  27  28
ENDBRANCH   1  27
TORSDOF 19
ENDMDL
