MODEL 1
REMARK VINA RESULT:     -12.9      0.000      0.000
REMARK SMILES Cc1ccc(-c2cc(Cl)cc3c2O[C@H](C(F)(F)F)C(C(=O)NCCCCCCNC(=O)c2ccc(-c4c5nc(c(-c6cccc(S(=O)(=O)[O-])c6F)c6ccc([nH]6)c(-c6cccc(S(=O)(=O)[O-])c6F)c6nc(c(-c7cccc(S(=O)(=O)[O-])c7F)c7ccc4[nH]7)C=C6)C=C5)cc2)=C3)cc1F
REMARK SMILES IDX 26 1 25 2 24 3 23 4 22 5 20 6 21 7 19 9 6 10 7 11 12 12 8 13
REMARK SMILES IDX 11 14 13 15 9 16 10 17 95 18 14 19 5 20 1 21 2 22 3 23 97 24
REMARK SMILES IDX 4 25 96 26 98 27 15 28 16 29 17 30 18 31 27 32 28 33 29 34
REMARK SMILES IDX 30 35 31 37 32 38 33 39 94 40 34 41 93 42 35 43 36 44 37 45
REMARK SMILES IDX 87 46 38 47 92 48 86 49 88 50 39 51 91 52 85 53 84 54 40 56
REMARK SMILES IDX 72 57 52 58 71 59 53 60 56 61 70 62 89 63 54 64 55 65 69 67
REMARK SMILES IDX 90 68 57 69 41 70 42 71 50 72 43 73 45 74 51 75 44 76 46 77
REMARK SMILES IDX 47 78 48 79 49 80 73 81 74 82 82 83 75 84 77 85 83 86 76 87
REMARK SMILES IDX 78 88 79 89 80 90 81 91 58 92 59 93 67 94 60 95 62 96 68 97
REMARK SMILES IDX 61 98 63 99 64 100 65 101 66 102
REMARK H PARENT 22 8 29 36 88 55 56 66
REMARK Flexibility Score: inf
ROOT
ATOM      1  C   UNL A   1      36.214  23.168  24.076  1.00  0.00     0.002 C 
ENDROOT
BRANCH   1   2
ATOM      2  C   UNL A   1      35.057  23.723  23.243  1.00  0.00     0.002 C 
BRANCH   2   3
ATOM      3  C   UNL A   1      33.983  22.696  22.859  1.00  0.00     0.021 C 
BRANCH   3   4
ATOM      4  C   UNL A   1      32.664  22.867  23.617  1.00  0.00     0.116 C 
BRANCH   4   5
ATOM      5  N   UNL A   1      32.891  23.014  25.043  1.00  0.00    -0.352 N 
ATOM      6  C   UNL A   1      32.935  24.028  25.934  1.00  0.00     0.251 C 
ATOM      7  O   UNL A   1      33.285  23.725  27.080  1.00  0.00    -0.270 OA
ATOM      8  H   UNL A   1      33.056  22.146  25.476  1.00  0.00     0.163 HD
BRANCH   6   9
ATOM      9  C   UNL A   1      32.592  25.449  25.630  1.00  0.00     0.067 C 
ATOM     10  C   UNL A   1      31.659  29.518  25.035  1.00  0.00     0.026 A 
ATOM     11  C   UNL A   1      32.174  30.463  25.934  1.00  0.00     0.033 A 
ATOM     12  C   UNL A   1      32.034  28.170  25.202  1.00  0.00     0.135 A 
ATOM     13  C   UNL A   1      33.032  30.067  26.961  1.00  0.00     0.042 A 
ATOM     14  C   UNL A   1      32.886  27.772  26.236  1.00  0.00     0.019 A 
ATOM     15  O   UNL A   1      31.589  27.273  24.268  1.00  0.00    -0.475 OA
ATOM     16  Cl  UNL A   1      33.664  31.246  28.046  1.00  0.00    -0.084 Cl
ATOM     17  C   UNL A   1      33.389  28.729  27.119  1.00  0.00     0.032 A 
ATOM     18  C   UNL A   1      33.244  26.366  26.369  1.00  0.00     0.025 C 
ATOM     19  C   UNL A   1      31.528  25.876  24.660  1.00  0.00     0.314 C 
BRANCH  10  20
ATOM     20  C   UNL A   1      30.746  29.926  23.955  1.00  0.00    -0.012 A 
ATOM     21  C   UNL A   1      27.861  30.903  20.884  1.00  0.00     0.047 C 
ATOM     22  C   UNL A   1      28.888  30.579  21.924  1.00  0.00    -0.015 A 
ATOM     23  C   UNL A   1      29.966  29.730  21.650  1.00  0.00     0.007 A 
ATOM     24  C   UNL A   1      28.765  31.109  23.209  1.00  0.00     0.126 A 
ATOM     25  C   UNL A   1      30.886  29.411  22.656  1.00  0.00     0.009 A 
ATOM     26  C   UNL A   1      29.676  30.797  24.213  1.00  0.00     0.048 A 
ATOM     27  F   UNL A   1      27.740  31.924  23.495  1.00  0.00    -0.207 F 
ENDBRANCH  10  20
BRANCH  19  28
ATOM     28  C   UNL A   1      30.099  25.549  25.131  1.00  0.00     0.429 C 
ATOM     29  F   UNL A   1      29.765  24.282  24.782  1.00  0.00    -0.167 F 
ATOM     30  F   UNL A   1      29.961  25.635  26.471  1.00  0.00    -0.167 F 
ATOM     31  F   UNL A   1      29.182  26.375  24.576  1.00  0.00    -0.167 F 
ENDBRANCH  19  28
ENDBRANCH   6   9
ENDBRANCH   4   5
ENDBRANCH   3   4
ENDBRANCH   2   3
ENDBRANCH   1   2
BRANCH   1  32
ATOM     32  C   UNL A   1      36.619  24.036  25.269  1.00  0.00     0.021 C 
BRANCH  32  33
ATOM     33  C   UNL A   1      37.602  23.442  26.264  1.00  0.00     0.116 C 
BRANCH  33  34
ATOM     34  N   UNL A   1      39.005  23.556  25.932  1.00  0.00    -0.352 N 
ATOM     35  C   UNL A   1      40.098  24.146  26.520  1.00  0.00     0.251 C 
ATOM     36  H   UNL A   1      39.230  23.107  25.085  1.00  0.00     0.163 HD
ATOM     37  O   UNL A   1      41.207  23.793  26.147  1.00  0.00    -0.269 OA
BRANCH  35  38
ATOM     38  C   UNL A   1      40.001  25.259  27.500  1.00  0.00     0.039 A 
ATOM     39  C   UNL A   1      39.299  25.231  28.706  1.00  0.00     0.014 A 
ATOM     40  C   UNL A   1      40.707  26.421  27.154  1.00  0.00     0.014 A 
ATOM     41  C   UNL A   1      39.205  26.395  29.493  1.00  0.00     0.010 A 
ATOM     42  C   UNL A   1      40.625  27.569  27.939  1.00  0.00     0.010 A 
ATOM     43  C   UNL A   1      39.830  27.585  29.090  1.00  0.00    -0.014 A 
BRANCH  43  44
ATOM     44  C   UNL A   1      39.661  28.861  29.812  1.00  0.00     0.031 A 
ATOM     45  C   UNL A   1      38.694  29.891  29.360  1.00  0.00     0.074 A 
ATOM     46  C   UNL A   1      40.511  29.236  30.800  1.00  0.00     0.049 A 
ATOM     47  N   UNL A   1      38.958  31.158  29.277  1.00  0.00    -0.248 NA
ATOM     48  C   UNL A   1      37.339  29.555  28.933  1.00  0.00     0.031 C 
ATOM     49  C   UNL A   1      40.435  30.432  31.634  1.00  0.00     0.029 A 
ATOM     50  N   UNL A   1      41.771  28.723  31.091  1.00  0.00    -0.354 N 
ATOM     51  C   UNL A   1      37.754  31.812  29.142  1.00  0.00     0.074 A 
ATOM     52  C   UNL A   1      36.804  30.775  28.789  1.00  0.00     0.031 C 
ATOM     53  C   UNL A   1      41.672  30.733  32.071  1.00  0.00     0.029 A 
ATOM     54  C   UNL A   1      42.600  29.802  31.451  1.00  0.00     0.049 A 
ATOM     55  H   UNL A   1      42.035  27.775  31.052  1.00  0.00     0.167 HD
ATOM     56  C   UNL A   1      37.617  33.121  29.516  1.00  0.00     0.034 A 
ATOM     57  C   UNL A   1      43.791  30.120  30.852  1.00  0.00     0.034 A 
ATOM     58  C   UNL A   1      38.831  33.666  30.110  1.00  0.00     0.049 A 
ATOM     59  C   UNL A   1      43.873  31.543  30.351  1.00  0.00     0.074 A 
ATOM     60  C   UNL A   1      39.201  33.894  31.426  1.00  0.00     0.029 A 
ATOM     61  N   UNL A   1      39.972  33.860  29.352  1.00  0.00    -0.354 N 
ATOM     62  N   UNL A   1      42.859  32.355  30.339  1.00  0.00    -0.248 NA
ATOM     63  C   UNL A   1      45.037  32.094  29.653  1.00  0.00     0.031 C 
ATOM     64  C   UNL A   1      40.555  34.297  31.449  1.00  0.00     0.029 A 
ATOM     65  C   UNL A   1      41.019  34.285  30.150  1.00  0.00     0.049 A 
ATOM     66  H   UNL A   1      40.030  33.716  28.381  1.00  0.00     0.167 HD
ATOM     67  C   UNL A   1      43.208  33.508  29.692  1.00  0.00     0.074 A 
ATOM     68  C   UNL A   1      44.567  33.285  29.243  1.00  0.00     0.031 C 
ATOM     69  C   UNL A   1      42.324  34.536  29.569  1.00  0.00     0.034 A 
BRANCH  56  70
ATOM     70  C   UNL A   1      36.270  33.818  29.634  1.00  0.00     0.023 A 
ATOM     71  C   UNL A   1      35.584  34.317  28.508  1.00  0.00     0.012 A 
ATOM     72  C   UNL A   1      35.621  33.993  30.882  1.00  0.00     0.148 A 
ATOM     73  C   UNL A   1      34.267  34.796  28.589  1.00  0.00     0.002 A 
ATOM     74  C   UNL A   1      34.321  34.491  30.964  1.00  0.00     0.091 A 
ATOM     75  F   UNL A   1      36.249  33.693  32.024  1.00  0.00    -0.205 F 
ATOM     76  C   UNL A   1      33.624  34.862  29.817  1.00  0.00     0.022 A 
BRANCH  74  77
ATOM     77  S   UNL A   1      33.542  34.627  32.578  1.00  0.00     0.127 S 
ATOM     78  O   UNL A   1      34.501  35.419  33.342  1.00  0.00    -0.237 OA
ATOM     79  O   UNL A   1      32.262  35.255  32.271  1.00  0.00    -0.237 OA
ATOM     80  O   UNL A   1      33.436  33.234  33.015  1.00  0.00    -0.744 OA
ENDBRANCH  74  77
ENDBRANCH  56  70
BRANCH  57  81
ATOM     81  C   UNL A   1      44.366  29.002  30.059  1.00  0.00     0.023 A 
ATOM     82  C   UNL A   1      45.431  28.338  30.689  1.00  0.00     0.012 A 
ATOM     83  C   UNL A   1      44.279  29.043  28.652  1.00  0.00     0.148 A 
ATOM     84  C   UNL A   1      46.535  28.000  29.932  1.00  0.00     0.002 A 
ATOM     85  C   UNL A   1      45.374  28.643  27.902  1.00  0.00     0.091 A 
ATOM     86  F   UNL A   1      43.206  29.610  28.081  1.00  0.00    -0.205 F 
ATOM     87  C   UNL A   1      46.528  28.205  28.551  1.00  0.00     0.022 A 
BRANCH  85  88
ATOM     88  S   UNL A   1      45.393  28.845  26.120  1.00  0.00     0.127 S 
ATOM     89  O   UNL A   1      45.547  30.288  25.971  1.00  0.00    -0.237 OA
ATOM     90  O   UNL A   1      46.512  28.015  25.695  1.00  0.00    -0.237 OA
ATOM     91  O   UNL A   1      44.081  28.338  25.711  1.00  0.00    -0.744 OA
ENDBRANCH  85  88
ENDBRANCH  57  81
BRANCH  69  92
ATOM     92  C   UNL A   1      42.605  35.862  28.923  1.00  0.00     0.023 A 
ATOM     93  C   UNL A   1      42.132  36.084  27.608  1.00  0.00     0.012 A 
ATOM     94  C   UNL A   1      43.214  36.945  29.576  1.00  0.00     0.148 A 
ATOM     95  C   UNL A   1      42.293  37.308  26.956  1.00  0.00     0.002 A 
ATOM     96  C   UNL A   1      43.422  38.150  28.904  1.00  0.00     0.091 A 
ATOM     97  F   UNL A   1      43.549  36.842  30.871  1.00  0.00    -0.205 F 
ATOM     98  C   UNL A   1      42.960  38.340  27.598  1.00  0.00     0.022 A 
BRANCH  96  99
ATOM     99  S   UNL A   1      44.372  39.439  29.712  1.00  0.00     0.127 S 
ATOM    100  O   UNL A   1      44.396  40.509  28.721  1.00  0.00    -0.237 OA
ATOM    101  O   UNL A   1      43.600  39.692  30.926  1.00  0.00    -0.237 OA
ATOM    102  O   UNL A   1      45.670  38.804  29.952  1.00  0.00    -0.744 OA
ENDBRANCH  96  99
ENDBRANCH  69  92
ENDBRANCH  43  44
ENDBRANCH  35  38
ENDBRANCH  33  34
ENDBRANCH  32  33
ENDBRANCH   1  32
TORSDOF 18
ENDMDL
MODEL 2
REMARK VINA RESULT:     -12.5      2.517      3.811
REMARK SMILES Cc1ccc(-c2cc(Cl)cc3c2O[C@H](C(F)(F)F)C(C(=O)NCCCCCCNC(=O)c2ccc(-c4c5nc(c(-c6cccc(S(=O)(=O)[O-])c6F)c6ccc([nH]6)c(-c6cccc(S(=O)(=O)[O-])c6F)c6nc(c(-c7cccc(S(=O)(=O)[O-])c7F)c7ccc4[nH]7)C=C6)C=C5)cc2)=C3)cc1F
REMARK SMILES IDX 26 1 25 2 24 3 23 4 22 5 20 6 21 7 19 9 6 10 7 11 12 12 8 13
REMARK SMILES IDX 11 14 13 15 9 16 10 17 95 18 14 19 5 20 1 21 2 22 3 23 97 24
REMARK SMILES IDX 4 25 96 26 98 27 15 28 16 29 17 30 18 31 27 32 28 33 29 34
REMARK SMILES IDX 30 35 31 37 32 38 33 39 94 40 34 41 93 42 35 43 36 44 37 45
REMARK SMILES IDX 87 46 38 47 92 48 86 49 88 50 39 51 91 52 85 53 84 54 40 56
REMARK SMILES IDX 72 57 52 58 71 59 53 60 56 61 70 62 89 63 54 64 55 65 69 67
REMARK SMILES IDX 90 68 57 69 41 70 42 71 50 72 43 73 45 74 51 75 44 76 46 77
REMARK SMILES IDX 47 78 48 79 49 80 73 81 74 82 82 83 75 84 77 85 83 86 76 87
REMARK SMILES IDX 78 88 79 89 80 90 81 91 58 92 59 93 67 94 60 95 62 96 68 97
REMARK SMILES IDX 61 98 63 99 64 100 65 101 66 102
REMARK H PARENT 22 8 29 36 88 55 56 66
REMARK Flexibility Score: inf
ROOT
ATOM      1  C   UNL A   1      36.019  22.542  23.943  1.00  0.00     0.002 C 
ENDROOT
BRANCH   1   2
ATOM      2  C   UNL A   1      34.693  22.946  23.296  1.00  0.00     0.002 C 
BRANCH   2   3
ATOM      3  C   UNL A   1      33.482  22.101  23.715  1.00  0.00     0.021 C 
BRANCH   3   4
ATOM      4  C   UNL A   1      32.138  22.805  23.513  1.00  0.00     0.116 C 
BRANCH   4   5
ATOM      5  N   UNL A   1      31.322  22.740  24.712  1.00  0.00    -0.352 N 
ATOM      6  C   UNL A   1      30.836  23.612  25.621  1.00  0.00     0.251 C 
ATOM      7  O   UNL A   1      30.258  23.113  26.592  1.00  0.00    -0.270 OA
ATOM      8  H   UNL A   1      31.052  21.817  24.916  1.00  0.00     0.163 HD
BRANCH   6   9
ATOM      9  C   UNL A   1      30.946  25.098  25.524  1.00  0.00     0.067 C 
ATOM     10  C   UNL A   1      31.201  29.272  24.984  1.00  0.00     0.026 A 
ATOM     11  C   UNL A   1      30.502  29.855  23.916  1.00  0.00     0.033 A 
ATOM     12  C   UNL A   1      31.052  27.887  25.197  1.00  0.00     0.135 A 
ATOM     13  C   UNL A   1      29.687  29.074  23.095  1.00  0.00     0.042 A 
ATOM     14  C   UNL A   1      30.244  27.103  24.369  1.00  0.00     0.019 A 
ATOM     15  O   UNL A   1      31.674  27.349  26.292  1.00  0.00    -0.475 OA
ATOM     16  Cl  UNL A   1      28.828  29.812  21.797  1.00  0.00    -0.084 Cl
ATOM     17  C   UNL A   1      29.556  27.704  23.313  1.00  0.00     0.032 A 
ATOM     18  C   UNL A   1      30.123  25.674  24.628  1.00  0.00     0.025 C 
ATOM     19  C   UNL A   1      31.956  25.924  26.267  1.00  0.00     0.314 C 
BRANCH  10  20
ATOM     20  C   UNL A   1      32.068  30.087  25.850  1.00  0.00    -0.012 A 
ATOM     21  C   UNL A   1      34.546  32.282  28.635  1.00  0.00     0.047 C 
ATOM     22  C   UNL A   1      33.684  31.554  27.649  1.00  0.00    -0.015 A 
ATOM     23  C   UNL A   1      32.386  31.983  27.354  1.00  0.00     0.007 A 
ATOM     24  C   UNL A   1      34.167  30.405  27.023  1.00  0.00     0.126 A 
ATOM     25  C   UNL A   1      31.589  31.256  26.461  1.00  0.00     0.009 A 
ATOM     26  C   UNL A   1      33.381  29.679  26.133  1.00  0.00     0.048 A 
ATOM     27  F   UNL A   1      35.409  29.975  27.290  1.00  0.00    -0.207 F 
ENDBRANCH  10  20
BRANCH  19  28
ATOM     28  C   UNL A   1      33.401  25.708  25.785  1.00  0.00     0.429 C 
ATOM     29  F   UNL A   1      34.205  26.699  26.243  1.00  0.00    -0.167 F 
ATOM     30  F   UNL A   1      33.927  24.544  26.223  1.00  0.00    -0.167 F 
ATOM     31  F   UNL A   1      33.491  25.709  24.434  1.00  0.00    -0.167 F 
ENDBRANCH  19  28
ENDBRANCH   6   9
ENDBRANCH   4   5
ENDBRANCH   3   4
ENDBRANCH   2   3
ENDBRANCH   1   2
BRANCH   1  32
ATOM     32  C   UNL A   1      36.188  22.992  25.395  1.00  0.00     0.021 C 
BRANCH  32  33
ATOM     33  C   UNL A   1      37.514  23.626  25.781  1.00  0.00     0.116 C 
BRANCH  33  34
ATOM     34  N   UNL A   1      38.683  22.776  25.704  1.00  0.00    -0.352 N 
ATOM     35  C   UNL A   1      39.860  22.676  26.406  1.00  0.00     0.251 C 
ATOM     36  H   UNL A   1      38.621  22.114  24.977  1.00  0.00     0.163 HD
ATOM     37  O   UNL A   1      40.505  21.645  26.294  1.00  0.00    -0.269 OA
BRANCH  35  38
ATOM     38  C   UNL A   1      40.437  23.792  27.202  1.00  0.00     0.039 A 
ATOM     39  C   UNL A   1      41.608  23.739  27.958  1.00  0.00     0.014 A 
ATOM     40  C   UNL A   1      39.718  24.995  27.146  1.00  0.00     0.014 A 
ATOM     41  C   UNL A   1      41.985  24.843  28.748  1.00  0.00     0.010 A 
ATOM     42  C   UNL A   1      40.099  26.092  27.918  1.00  0.00     0.010 A 
ATOM     43  C   UNL A   1      41.207  26.010  28.767  1.00  0.00    -0.014 A 
BRANCH  43  44
ATOM     44  C   UNL A   1      41.489  27.143  29.669  1.00  0.00     0.031 A 
ATOM     45  C   UNL A   1      40.427  28.089  30.091  1.00  0.00     0.074 A 
ATOM     46  C   UNL A   1      42.759  27.491  29.996  1.00  0.00     0.049 A 
ATOM     47  N   UNL A   1      40.557  29.379  30.105  1.00  0.00    -0.248 NA
ATOM     48  C   UNL A   1      39.104  27.638  30.510  1.00  0.00     0.031 C 
ATOM     49  C   UNL A   1      43.187  28.543  30.914  1.00  0.00     0.029 A 
ATOM     50  N   UNL A   1      43.942  27.114  29.369  1.00  0.00    -0.354 N 
ATOM     51  C   UNL A   1      39.510  29.881  30.845  1.00  0.00     0.074 A 
ATOM     52  C   UNL A   1      38.566  28.785  30.948  1.00  0.00     0.031 C 
ATOM     53  C   UNL A   1      44.423  28.943  30.567  1.00  0.00     0.029 A 
ATOM     54  C   UNL A   1      44.794  28.234  29.353  1.00  0.00     0.049 A 
ATOM     55  H   UNL A   1      44.147  26.224  29.004  1.00  0.00     0.167 HD
ATOM     56  C   UNL A   1      39.604  31.098  31.464  1.00  0.00     0.034 A 
ATOM     57  C   UNL A   1      45.358  28.785  28.232  1.00  0.00     0.034 A 
ATOM     58  C   UNL A   1      40.914  31.713  31.298  1.00  0.00     0.049 A 
ATOM     59  C   UNL A   1      45.084  30.260  28.059  1.00  0.00     0.074 A 
ATOM     60  C   UNL A   1      42.011  31.809  32.141  1.00  0.00     0.029 A 
ATOM     61  N   UNL A   1      41.344  32.156  30.060  1.00  0.00    -0.354 N 
ATOM     62  N   UNL A   1      44.260  30.926  28.811  1.00  0.00    -0.248 NA
ATOM     63  C   UNL A   1      45.561  31.048  26.920  1.00  0.00     0.031 C 
ATOM     64  C   UNL A   1      43.084  32.381  31.421  1.00  0.00     0.029 A 
ATOM     65  C   UNL A   1      42.651  32.604  30.130  1.00  0.00     0.049 A 
ATOM     66  H   UNL A   1      40.796  32.153  29.243  1.00  0.00     0.167 HD
ATOM     67  C   UNL A   1      44.112  32.191  28.314  1.00  0.00     0.074 A 
ATOM     68  C   UNL A   1      44.913  32.212  27.106  1.00  0.00     0.031 C 
ATOM     69  C   UNL A   1      43.318  33.100  28.941  1.00  0.00     0.034 A 
BRANCH  56  70
ATOM     70  C   UNL A   1      38.600  31.589  32.495  1.00  0.00     0.023 A 
ATOM     71  C   UNL A   1      38.829  31.467  33.881  1.00  0.00     0.012 A 
ATOM     72  C   UNL A   1      37.382  32.210  32.122  1.00  0.00     0.148 A 
ATOM     73  C   UNL A   1      37.995  32.077  34.832  1.00  0.00     0.002 A 
ATOM     74  C   UNL A   1      36.542  32.796  33.068  1.00  0.00     0.091 A 
ATOM     75  F   UNL A   1      36.997  32.241  30.841  1.00  0.00    -0.205 F 
ATOM     76  C   UNL A   1      36.860  32.764  34.424  1.00  0.00     0.022 A 
BRANCH  74  77
ATOM     77  S   UNL A   1      35.044  33.619  32.512  1.00  0.00     0.127 S 
ATOM     78  O   UNL A   1      34.156  32.507  32.189  1.00  0.00    -0.237 OA
ATOM     79  O   UNL A   1      34.680  34.445  33.657  1.00  0.00    -0.237 OA
ATOM     80  O   UNL A   1      35.496  34.380  31.345  1.00  0.00    -0.744 OA
ENDBRANCH  74  77
ENDBRANCH  56  70
BRANCH  57  81
ATOM     81  C   UNL A   1      45.348  27.869  27.061  1.00  0.00     0.023 A 
ATOM     82  C   UNL A   1      44.303  28.106  26.154  1.00  0.00     0.012 A 
ATOM     83  C   UNL A   1      45.903  26.579  27.194  1.00  0.00     0.148 A 
ATOM     84  C   UNL A   1      43.629  27.021  25.630  1.00  0.00     0.002 A 
ATOM     85  C   UNL A   1      45.248  25.505  26.611  1.00  0.00     0.091 A 
ATOM     86  F   UNL A   1      46.957  26.403  28.005  1.00  0.00    -0.205 F 
ATOM     87  C   UNL A   1      44.065  25.724  25.905  1.00  0.00     0.022 A 
BRANCH  85  88
ATOM     88  S   UNL A   1      45.801  23.824  26.899  1.00  0.00     0.127 S 
ATOM     89  O   UNL A   1      45.659  23.692  28.346  1.00  0.00    -0.237 OA
ATOM     90  O   UNL A   1      44.904  23.025  26.074  1.00  0.00    -0.237 OA
ATOM     91  O   UNL A   1      47.189  23.843  26.433  1.00  0.00    -0.744 OA
ENDBRANCH  85  88
ENDBRANCH  57  81
BRANCH  69  92
ATOM     92  C   UNL A   1      43.113  34.527  28.519  1.00  0.00     0.023 A 
ATOM     93  C   UNL A   1      41.790  34.987  28.318  1.00  0.00     0.012 A 
ATOM     94  C   UNL A   1      44.143  35.474  28.413  1.00  0.00     0.148 A 
ATOM     95  C   UNL A   1      41.506  36.313  27.986  1.00  0.00     0.002 A 
ATOM     96  C   UNL A   1      43.862  36.786  28.028  1.00  0.00     0.091 A 
ATOM     97  F   UNL A   1      45.400  35.134  28.735  1.00  0.00    -0.205 F 
ATOM     98  C   UNL A   1      42.547  37.213  27.820  1.00  0.00     0.022 A 
BRANCH  96  99
ATOM     99  S   UNL A   1      45.225  37.909  27.721  1.00  0.00     0.127 S 
ATOM    100  O   UNL A   1      46.039  37.191  26.746  1.00  0.00    -0.237 OA
ATOM    101  O   UNL A   1      44.547  39.112  27.244  1.00  0.00    -0.237 OA
ATOM    102  O   UNL A   1      45.847  38.057  29.038  1.00  0.00    -0.744 OA
ENDBRANCH  96  99
ENDBRANCH  69  92
ENDBRANCH  43  44
ENDBRANCH  35  38
ENDBRANCH  33  34
ENDBRANCH  32  33
ENDBRANCH   1  32
TORSDOF 18
ENDMDL
MODEL 3
REMARK VINA RESULT:     -12.0      2.623      3.425
REMARK SMILES Cc1ccc(-c2cc(Cl)cc3c2O[C@H](C(F)(F)F)C(C(=O)NCCCCCCNC(=O)c2ccc(-c4c5nc(c(-c6cccc(S(=O)(=O)[O-])c6F)c6ccc([nH]6)c(-c6cccc(S(=O)(=O)[O-])c6F)c6nc(c(-c7cccc(S(=O)(=O)[O-])c7F)c7ccc4[nH]7)C=C6)C=C5)cc2)=C3)cc1F
REMARK SMILES IDX 26 1 25 2 24 3 23 4 22 5 20 6 21 7 19 9 6 10 7 11 12 12 8 13
REMARK SMILES IDX 11 14 13 15 9 16 10 17 95 18 14 19 5 20 1 21 2 22 3 23 97 24
REMARK SMILES IDX 4 25 96 26 98 27 15 28 16 29 17 30 18 31 27 32 28 33 29 34
REMARK SMILES IDX 30 35 31 37 32 38 33 39 94 40 34 41 93 42 35 43 36 44 37 45
REMARK SMILES IDX 87 46 38 47 92 48 86 49 88 50 39 51 91 52 85 53 84 54 40 56
REMARK SMILES IDX 72 57 52 58 71 59 53 60 56 61 70 62 89 63 54 64 55 65 69 67
REMARK SMILES IDX 90 68 57 69 41 70 42 71 50 72 43 73 45 74 51 75 44 76 46 77
REMARK SMILES IDX 47 78 48 79 49 80 73 81 74 82 82 83 75 84 77 85 83 86 76 87
REMARK SMILES IDX 78 88 79 89 80 90 81 91 58 92 59 93 67 94 60 95 62 96 68 97
REMARK SMILES IDX 61 98 63 99 64 100 65 101 66 102
REMARK H PARENT 22 8 29 36 88 55 56 66
REMARK Flexibility Score: inf
ROOT
ATOM      1  C   UNL A   1      35.193  22.214  25.573  1.00  0.00     0.002 C 
ENDROOT
BRANCH   1   2
ATOM      2  C   UNL A   1      34.730  22.099  24.120  1.00  0.00     0.002 C 
BRANCH   2   3
ATOM      3  C   UNL A   1      33.477  21.241  23.903  1.00  0.00     0.021 C 
BRANCH   3   4
ATOM      4  C   UNL A   1      32.165  21.978  24.188  1.00  0.00     0.116 C 
BRANCH   4   5
ATOM      5  N   UNL A   1      32.003  22.236  25.608  1.00  0.00    -0.352 N 
ATOM      6  C   UNL A   1      31.976  23.318  26.415  1.00  0.00     0.251 C 
ATOM      7  O   UNL A   1      31.927  23.085  27.628  1.00  0.00    -0.270 OA
ATOM      8  H   UNL A   1      31.880  21.402  26.116  1.00  0.00     0.163 HD
BRANCH   6   9
ATOM      9  C   UNL A   1      31.993  24.735  25.947  1.00  0.00     0.067 C 
ATOM     10  C   UNL A   1      32.156  28.807  24.862  1.00  0.00     0.026 A 
ATOM     11  C   UNL A   1      33.120  29.625  25.470  1.00  0.00     0.033 A 
ATOM     12  C   UNL A   1      32.156  27.433  25.180  1.00  0.00     0.135 A 
ATOM     13  C   UNL A   1      34.047  29.083  26.362  1.00  0.00     0.042 A 
ATOM     14  C   UNL A   1      33.078  26.892  26.080  1.00  0.00     0.019 A 
ATOM     15  O   UNL A   1      31.264  26.635  24.516  1.00  0.00    -0.475 OA
ATOM     16  Cl  UNL A   1      35.230  30.104  27.086  1.00  0.00    -0.084 Cl
ATOM     17  C   UNL A   1      34.030  27.724  26.672  1.00  0.00     0.032 A 
ATOM     18  C   UNL A   1      33.038  25.466  26.378  1.00  0.00     0.025 C 
ATOM     19  C   UNL A   1      30.898  25.377  25.144  1.00  0.00     0.314 C 
BRANCH  10  20
ATOM     20  C   UNL A   1      31.171  29.371  23.926  1.00  0.00    -0.012 A 
ATOM     21  C   UNL A   1      28.068  30.808  21.277  1.00  0.00     0.047 C 
ATOM     22  C   UNL A   1      29.169  30.326  22.170  1.00  0.00    -0.015 A 
ATOM     23  C   UNL A   1      30.172  29.471  21.702  1.00  0.00     0.007 A 
ATOM     24  C   UNL A   1      29.192  30.711  23.511  1.00  0.00     0.126 A 
ATOM     25  C   UNL A   1      31.163  29.002  22.572  1.00  0.00     0.009 A 
ATOM     26  C   UNL A   1      30.175  30.250  24.381  1.00  0.00     0.048 A 
ATOM     27  F   UNL A   1      28.241  31.530  23.983  1.00  0.00    -0.207 F 
ENDBRANCH  10  20
BRANCH  19  28
ATOM     28  C   UNL A   1      29.591  25.572  25.933  1.00  0.00     0.429 C 
ATOM     29  F   UNL A   1      28.599  25.988  25.107  1.00  0.00    -0.167 F 
ATOM     30  F   UNL A   1      29.161  24.433  26.517  1.00  0.00    -0.167 F 
ATOM     31  F   UNL A   1      29.721  26.503  26.907  1.00  0.00    -0.167 F 
ENDBRANCH  19  28
ENDBRANCH   6   9
ENDBRANCH   4   5
ENDBRANCH   3   4
ENDBRANCH   2   3
ENDBRANCH   1   2
BRANCH   1  32
ATOM     32  C   UNL A   1      35.905  23.523  25.917  1.00  0.00     0.021 C 
BRANCH  32  33
ATOM     33  C   UNL A   1      37.248  23.783  25.255  1.00  0.00     0.116 C 
BRANCH  33  34
ATOM     34  N   UNL A   1      38.244  22.742  25.383  1.00  0.00    -0.352 N 
ATOM     35  C   UNL A   1      39.309  22.513  26.222  1.00  0.00     0.251 C 
ATOM     36  H   UNL A   1      38.134  22.030  24.712  1.00  0.00     0.163 HD
ATOM     37  O   UNL A   1      39.764  21.380  26.270  1.00  0.00    -0.269 OA
BRANCH  35  38
ATOM     38  C   UNL A   1      39.999  23.588  26.982  1.00  0.00     0.039 A 
ATOM     39  C   UNL A   1      41.181  23.448  27.709  1.00  0.00     0.014 A 
ATOM     40  C   UNL A   1      39.384  24.847  26.923  1.00  0.00     0.014 A 
ATOM     41  C   UNL A   1      41.672  24.528  28.470  1.00  0.00     0.010 A 
ATOM     42  C   UNL A   1      39.877  25.919  27.665  1.00  0.00     0.010 A 
ATOM     43  C   UNL A   1      40.996  25.757  28.488  1.00  0.00    -0.014 A 
BRANCH  43  44
ATOM     44  C   UNL A   1      41.397  26.877  29.362  1.00  0.00     0.031 A 
ATOM     45  C   UNL A   1      40.432  27.923  29.783  1.00  0.00     0.074 A 
ATOM     46  C   UNL A   1      42.699  27.113  29.660  1.00  0.00     0.049 A 
ATOM     47  N   UNL A   1      40.679  29.196  29.769  1.00  0.00    -0.248 NA
ATOM     48  C   UNL A   1      39.082  27.601  30.233  1.00  0.00     0.031 C 
ATOM     49  C   UNL A   1      43.237  28.139  30.549  1.00  0.00     0.029 A 
ATOM     50  N   UNL A   1      43.830  26.619  29.021  1.00  0.00    -0.354 N 
ATOM     51  C   UNL A   1      39.697  29.804  30.517  1.00  0.00     0.074 A 
ATOM     52  C   UNL A   1      38.659  28.800  30.657  1.00  0.00     0.031 C 
ATOM     53  C   UNL A   1      44.498  28.418  30.173  1.00  0.00     0.029 A 
ATOM     54  C   UNL A   1      44.780  27.656  28.967  1.00  0.00     0.049 A 
ATOM     55  H   UNL A   1      43.947  25.706  28.670  1.00  0.00     0.167 HD
ATOM     56  C   UNL A   1      39.911  31.019  31.109  1.00  0.00     0.034 A 
ATOM     57  C   UNL A   1      45.370  28.132  27.826  1.00  0.00     0.034 A 
ATOM     58  C   UNL A   1      41.269  31.509  30.908  1.00  0.00     0.049 A 
ATOM     59  C   UNL A   1      45.228  29.623  27.628  1.00  0.00     0.074 A 
ATOM     60  C   UNL A   1      42.385  31.520  31.730  1.00  0.00     0.029 A 
ATOM     61  N   UNL A   1      41.714  31.888  29.655  1.00  0.00    -0.354 N 
ATOM     62  N   UNL A   1      44.482  30.374  28.381  1.00  0.00    -0.248 NA
ATOM     63  C   UNL A   1      45.753  30.343  26.466  1.00  0.00     0.031 C 
ATOM     64  C   UNL A   1      43.492  31.978  30.981  1.00  0.00     0.029 A 
ATOM     65  C   UNL A   1      43.057  32.216  29.693  1.00  0.00     0.049 A 
ATOM     66  H   UNL A   1      41.152  31.920  28.847  1.00  0.00     0.167 HD
ATOM     67  C   UNL A   1      44.440  31.639  27.861  1.00  0.00     0.074 A 
ATOM     68  C   UNL A   1      45.217  31.564  26.640  1.00  0.00     0.031 C 
ATOM     69  C   UNL A   1      43.744  32.628  28.484  1.00  0.00     0.034 A 
BRANCH  56  70
ATOM     70  C   UNL A   1      38.976  31.618  32.147  1.00  0.00     0.023 A 
ATOM     71  C   UNL A   1      37.846  32.380  31.785  1.00  0.00     0.012 A 
ATOM     72  C   UNL A   1      39.178  31.434  33.537  1.00  0.00     0.148 A 
ATOM     73  C   UNL A   1      36.883  32.781  32.726  1.00  0.00     0.002 A 
ATOM     74  C   UNL A   1      38.234  31.853  34.474  1.00  0.00     0.091 A 
ATOM     75  F   UNL A   1      40.296  30.858  33.992  1.00  0.00    -0.205 F 
ATOM     76  C   UNL A   1      37.065  32.496  34.072  1.00  0.00     0.022 A 
BRANCH  74  77
ATOM     77  S   UNL A   1      38.533  31.528  36.216  1.00  0.00     0.127 S 
ATOM     78  O   UNL A   1      38.733  30.084  36.254  1.00  0.00    -0.237 OA
ATOM     79  O   UNL A   1      39.691  32.365  36.511  1.00  0.00    -0.237 OA
ATOM     80  O   UNL A   1      37.293  31.975  36.855  1.00  0.00    -0.744 OA
ENDBRANCH  74  77
ENDBRANCH  56  70
BRANCH  57  81
ATOM     81  C   UNL A   1      45.255  27.200  26.674  1.00  0.00     0.023 A 
ATOM     82  C   UNL A   1      44.204  27.500  25.793  1.00  0.00     0.012 A 
ATOM     83  C   UNL A   1      45.715  25.873  26.816  1.00  0.00     0.148 A 
ATOM     84  C   UNL A   1      43.434  26.461  25.310  1.00  0.00     0.002 A 
ATOM     85  C   UNL A   1      44.962  24.843  26.274  1.00  0.00     0.091 A 
ATOM     86  F   UNL A   1      46.775  25.631  27.600  1.00  0.00    -0.205 F 
ATOM     87  C   UNL A   1      43.779  25.139  25.597  1.00  0.00     0.022 A 
BRANCH  85  88
ATOM     88  S   UNL A   1      45.394  23.130  26.578  1.00  0.00     0.127 S 
ATOM     89  O   UNL A   1      44.307  22.412  25.919  1.00  0.00    -0.237 OA
ATOM     90  O   UNL A   1      46.720  23.002  25.989  1.00  0.00    -0.237 OA
ATOM     91  O   UNL A   1      45.374  23.033  28.039  1.00  0.00    -0.744 OA
ENDBRANCH  85  88
ENDBRANCH  57  81
BRANCH  69  92
ATOM     92  C   UNL A   1      43.661  34.059  28.036  1.00  0.00     0.023 A 
ATOM     93  C   UNL A   1      43.065  34.340  26.784  1.00  0.00     0.012 A 
ATOM     94  C   UNL A   1      44.040  35.156  28.826  1.00  0.00     0.148 A 
ATOM     95  C   UNL A   1      42.891  35.645  26.319  1.00  0.00     0.002 A 
ATOM     96  C   UNL A   1      43.915  36.457  28.336  1.00  0.00     0.091 A 
ATOM     97  F   UNL A   1      44.474  34.959  30.080  1.00  0.00    -0.205 F 
ATOM     98  C   UNL A   1      43.336  36.709  27.089  1.00  0.00     0.022 A 
BRANCH  96  99
ATOM     99  S   UNL A   1      44.586  37.812  29.300  1.00  0.00     0.127 S 
ATOM    100  O   UNL A   1      45.984  37.438  29.478  1.00  0.00    -0.237 OA
ATOM    101  O   UNL A   1      44.325  38.970  28.449  1.00  0.00    -0.237 OA
ATOM    102  O   UNL A   1      43.789  37.783  30.528  1.00  0.00    -0.744 OA
ENDBRANCH  96  99
ENDBRANCH  69  92
ENDBRANCH  43  44
ENDBRANCH  35  38
ENDBRANCH  33  34
ENDBRANCH  32  33
ENDBRANCH   1  32
TORSDOF 18
ENDMDL
