MODEL 1
REMARK VINA RESULT:     -12.3      0.000      0.000
REMARK SMILES Nc1nccc(N2CCC[C@@](Cc3ccc(F)cc3F)(C(=O)NCCCCCCNC(=O)c3ccc(-c4c5nc(c(-c6cccc(S(=O)(=O)[O-])c6F)c6ccc([nH]6)c(-c6cccc(S(=O)(=O)[O-])c6F)c6nc(c(-c7cccc(S(=O)(=O)[O-])c7F)c7ccc4[nH]7)C=C6)C=C5)cc3)C2)n1
REMARK SMILES IDX 27 1 26 2 25 3 24 4 23 5 21 6 22 7 11 9 7 10 8 11 96 12 9 13
REMARK SMILES IDX 10 14 6 15 2 16 3 17 97 18 4 19 5 20 1 21 12 24 13 25 14 26
REMARK SMILES IDX 19 27 15 28 18 29 20 30 16 31 17 32 28 33 29 34 30 35 31 36
REMARK SMILES IDX 32 38 33 39 34 40 95 41 35 42 94 43 36 44 37 45 38 46 88 47
REMARK SMILES IDX 39 48 93 49 87 50 89 51 40 52 92 53 86 54 85 55 41 57 73 58
REMARK SMILES IDX 53 59 72 60 54 61 57 62 71 63 90 64 55 65 56 66 70 68 91 69
REMARK SMILES IDX 58 70 42 71 43 72 51 73 44 74 46 75 52 76 45 77 47 78 48 79
REMARK SMILES IDX 49 80 50 81 74 82 75 83 83 84 76 85 78 86 84 87 77 88 79 89
REMARK SMILES IDX 80 90 81 91 82 92 59 93 60 94 68 95 61 96 63 97 69 98 62 99
REMARK SMILES IDX 64 100 65 101 66 102 67 103
REMARK H PARENT 23 8 1 22 1 23 30 37 89 56 57 67
REMARK Flexibility Score: inf
ROOT
ATOM      1  C   UNL A   1      31.645  30.511  26.060  1.00  0.00     0.002 C 
ENDROOT
BRANCH   1   2
ATOM      2  C   UNL A   1      31.817  29.413  27.120  1.00  0.00     0.002 C 
BRANCH   2   3
ATOM      3  C   UNL A   1      33.178  28.709  27.139  1.00  0.00     0.021 C 
BRANCH   3   4
ATOM      4  C   UNL A   1      33.107  27.217  26.851  1.00  0.00     0.116 C 
BRANCH   4   5
ATOM      5  N   UNL A   1      31.761  26.692  26.810  1.00  0.00    -0.356 N 
ATOM      6  C   UNL A   1      31.246  25.566  26.243  1.00  0.00     0.228 C 
ATOM      7  O   UNL A   1      30.115  25.256  26.635  1.00  0.00    -0.274 OA
ATOM      8  H   UNL A   1      31.095  27.249  27.275  1.00  0.00     0.163 HD
BRANCH   6   9
ATOM      9  C   UNL A   1      31.991  24.707  25.194  1.00  0.00     0.071 C 
ATOM     10  N   UNL A   1      33.754  22.991  25.120  1.00  0.00    -0.355 N 
ATOM     11  C   UNL A   1      32.950  21.893  24.622  1.00  0.00     0.118 C 
ATOM     12  C   UNL A   1      33.096  23.941  26.011  1.00  0.00     0.135 C 
ATOM     13  C   UNL A   1      31.799  22.488  23.827  1.00  0.00     0.023 C 
ATOM     14  C   UNL A   1      31.072  23.609  24.582  1.00  0.00     0.021 C 
BRANCH  10  15
ATOM     15  C   UNL A   1      35.122  22.842  25.184  1.00  0.00     0.134 A 
ATOM     16  C   UNL A   1      36.997  21.540  25.103  1.00  0.00     0.221 A 
ATOM     17  N   UNL A   1      37.817  22.542  25.430  1.00  0.00    -0.222 NA
ATOM     18  N   UNL A   1      35.669  21.633  24.989  1.00  0.00    -0.196 NA
ATOM     19  C   UNL A   1      37.237  23.733  25.640  1.00  0.00     0.119 A 
ATOM     20  C   UNL A   1      35.889  23.943  25.510  1.00  0.00     0.067 A 
BRANCH  16  21
ATOM     21  N   UNL A   1      37.567  20.326  24.851  1.00  0.00    -0.368 N 
ATOM     22  H   UNL A   1      37.338  19.835  24.029  1.00  0.00     0.159 HD
ATOM     23  H   UNL A   1      38.208  19.941  25.492  1.00  0.00     0.159 HD
ENDBRANCH  16  21
ENDBRANCH  10  15
BRANCH   9  24
ATOM     24  C   UNL A   1      32.776  25.593  24.169  1.00  0.00     0.057 C 
BRANCH  24  25
ATOM     25  C   UNL A   1      32.129  26.799  23.537  1.00  0.00    -0.011 A 
ATOM     26  C   UNL A   1      30.773  26.770  23.170  1.00  0.00     0.010 A 
ATOM     27  C   UNL A   1      32.853  27.981  23.327  1.00  0.00     0.129 A 
ATOM     28  C   UNL A   1      30.191  27.875  22.544  1.00  0.00     0.040 A 
ATOM     29  C   UNL A   1      32.279  29.086  22.708  1.00  0.00     0.078 A 
ATOM     30  F   UNL A   1      34.134  28.052  23.708  1.00  0.00    -0.207 F 
ATOM     31  C   UNL A   1      30.954  29.014  22.306  1.00  0.00     0.126 A 
ATOM     32  F   UNL A   1      30.405  30.042  21.649  1.00  0.00    -0.207 F 
ENDBRANCH  24  25
ENDBRANCH   9  24
ENDBRANCH   6   9
ENDBRANCH   4   5
ENDBRANCH   3   4
ENDBRANCH   2   3
ENDBRANCH   1   2
BRANCH   1  33
ATOM     33  C   UNL A   1      31.464  31.935  26.596  1.00  0.00     0.021 C 
BRANCH  33  34
ATOM     34  C   UNL A   1      32.697  32.536  27.258  1.00  0.00     0.116 C 
BRANCH  34  35
ATOM     35  N   UNL A   1      32.513  33.939  27.593  1.00  0.00    -0.352 N 
ATOM     36  C   UNL A   1      33.128  34.688  28.560  1.00  0.00     0.251 C 
ATOM     37  H   UNL A   1      31.850  34.419  27.045  1.00  0.00     0.163 HD
ATOM     38  O   UNL A   1      32.709  35.819  28.813  1.00  0.00    -0.269 OA
BRANCH  36  39
ATOM     39  C   UNL A   1      34.280  34.140  29.307  1.00  0.00     0.039 A 
ATOM     40  C   UNL A   1      34.038  33.307  30.403  1.00  0.00     0.014 A 
ATOM     41  C   UNL A   1      35.591  34.459  28.946  1.00  0.00     0.014 A 
ATOM     42  C   UNL A   1      35.112  32.762  31.110  1.00  0.00     0.010 A 
ATOM     43  C   UNL A   1      36.660  33.852  29.600  1.00  0.00     0.010 A 
ATOM     44  C   UNL A   1      36.433  33.011  30.699  1.00  0.00    -0.014 A 
BRANCH  44  45
ATOM     45  C   UNL A   1      37.586  32.407  31.412  1.00  0.00     0.031 A 
ATOM     46  C   UNL A   1      38.357  31.276  30.784  1.00  0.00     0.074 A 
ATOM     47  C   UNL A   1      37.890  32.822  32.658  1.00  0.00     0.049 A 
ATOM     48  N   UNL A   1      39.369  30.603  31.265  1.00  0.00    -0.248 NA
ATOM     49  C   UNL A   1      37.918  30.825  29.454  1.00  0.00     0.031 C 
ATOM     50  C   UNL A   1      37.171  33.858  33.403  1.00  0.00     0.029 A 
ATOM     51  N   UNL A   1      38.871  32.410  33.525  1.00  0.00    -0.354 N 
ATOM     52  C   UNL A   1      39.658  29.623  30.321  1.00  0.00     0.074 A 
ATOM     53  C   UNL A   1      38.695  29.770  29.253  1.00  0.00     0.031 C 
ATOM     54  C   UNL A   1      37.745  34.011  34.607  1.00  0.00     0.029 A 
ATOM     55  C   UNL A   1      38.848  33.065  34.734  1.00  0.00     0.049 A 
ATOM     56  H   UNL A   1      39.528  31.712  33.302  1.00  0.00     0.167 HD
ATOM     57  C   UNL A   1      40.648  28.700  30.331  1.00  0.00     0.034 A 
ATOM     58  C   UNL A   1      39.627  32.918  35.823  1.00  0.00     0.034 A 
ATOM     59  C   UNL A   1      41.632  28.590  31.374  1.00  0.00     0.049 A 
ATOM     60  C   UNL A   1      40.745  31.911  35.790  1.00  0.00     0.074 A 
ATOM     61  C   UNL A   1      42.740  27.762  31.426  1.00  0.00     0.029 A 
ATOM     62  N   UNL A   1      41.621  29.318  32.553  1.00  0.00    -0.354 N 
ATOM     63  N   UNL A   1      41.106  31.109  34.818  1.00  0.00    -0.248 NA
ATOM     64  C   UNL A   1      41.584  31.812  36.993  1.00  0.00     0.031 C 
ATOM     65  C   UNL A   1      43.377  27.964  32.655  1.00  0.00     0.029 A 
ATOM     66  C   UNL A   1      42.689  28.946  33.350  1.00  0.00     0.049 A 
ATOM     67  H   UNL A   1      40.951  30.001  32.789  1.00  0.00     0.167 HD
ATOM     68  C   UNL A   1      42.239  30.443  35.274  1.00  0.00     0.074 A 
ATOM     69  C   UNL A   1      42.512  30.948  36.604  1.00  0.00     0.031 C 
ATOM     70  C   UNL A   1      42.979  29.492  34.652  1.00  0.00     0.034 A 
BRANCH  57  71
ATOM     71  C   UNL A   1      40.741  27.756  29.159  1.00  0.00     0.023 A 
ATOM     72  C   UNL A   1      39.933  26.601  29.122  1.00  0.00     0.012 A 
ATOM     73  C   UNL A   1      41.590  28.039  28.071  1.00  0.00     0.148 A 
ATOM     74  C   UNL A   1      39.999  25.722  28.041  1.00  0.00     0.002 A 
ATOM     75  C   UNL A   1      41.614  27.185  26.976  1.00  0.00     0.091 A 
ATOM     76  F   UNL A   1      42.367  29.130  28.133  1.00  0.00    -0.205 F 
ATOM     77  C   UNL A   1      40.830  26.020  26.964  1.00  0.00     0.022 A 
BRANCH  75  78
ATOM     78  S   UNL A   1      42.589  27.524  25.506  1.00  0.00     0.127 S 
ATOM     79  O   UNL A   1      43.940  27.598  26.059  1.00  0.00    -0.237 OA
ATOM     80  O   UNL A   1      42.331  26.338  24.686  1.00  0.00    -0.237 OA
ATOM     81  O   UNL A   1      42.068  28.767  24.955  1.00  0.00    -0.744 OA
ENDBRANCH  75  78
ENDBRANCH  57  71
BRANCH  58  82
ATOM     82  C   UNL A   1      39.428  33.798  37.009  1.00  0.00     0.023 A 
ATOM     83  C   UNL A   1      39.832  35.146  36.941  1.00  0.00     0.012 A 
ATOM     84  C   UNL A   1      38.824  33.321  38.188  1.00  0.00     0.148 A 
ATOM     85  C   UNL A   1      39.669  35.995  38.036  1.00  0.00     0.002 A 
ATOM     86  C   UNL A   1      38.616  34.187  39.257  1.00  0.00     0.091 A 
ATOM     87  F   UNL A   1      38.454  32.034  38.236  1.00  0.00    -0.205 F 
ATOM     88  C   UNL A   1      39.054  35.518  39.190  1.00  0.00     0.022 A 
BRANCH  86  89
ATOM     89  S   UNL A   1      37.721  33.697  40.736  1.00  0.00     0.127 S 
ATOM     90  O   UNL A   1      38.669  32.782  41.368  1.00  0.00    -0.237 OA
ATOM     91  O   UNL A   1      37.550  34.978  41.421  1.00  0.00    -0.237 OA
ATOM     92  O   UNL A   1      36.481  33.094  40.266  1.00  0.00    -0.744 OA
ENDBRANCH  86  89
ENDBRANCH  58  82
BRANCH  70  93
ATOM     93  C   UNL A   1      44.188  28.961  35.377  1.00  0.00     0.023 A 
ATOM     94  C   UNL A   1      45.444  29.572  35.195  1.00  0.00     0.012 A 
ATOM     95  C   UNL A   1      44.062  27.900  36.296  1.00  0.00     0.148 A 
ATOM     96  C   UNL A   1      46.563  29.113  35.890  1.00  0.00     0.002 A 
ATOM     97  C   UNL A   1      45.168  27.483  37.024  1.00  0.00     0.091 A 
ATOM     98  F   UNL A   1      42.862  27.319  36.441  1.00  0.00    -0.205 F 
ATOM     99  C   UNL A   1      46.423  28.078  36.813  1.00  0.00     0.022 A 
BRANCH  97 100
ATOM    100  S   UNL A   1      45.060  26.229  38.306  1.00  0.00     0.127 S 
ATOM    101  O   UNL A   1      43.877  26.661  39.046  1.00  0.00    -0.237 OA
ATOM    102  O   UNL A   1      44.878  25.004  37.525  1.00  0.00    -0.237 OA
ATOM    103  O   UNL A   1      46.316  26.295  39.039  1.00  0.00    -0.744 OA
ENDBRANCH  97 100
ENDBRANCH  70  93
ENDBRANCH  44  45
ENDBRANCH  36  39
ENDBRANCH  34  35
ENDBRANCH  33  34
ENDBRANCH   1  33
TORSDOF 20
ENDMDL
MODEL 2
REMARK VINA RESULT:     -12.3      6.212     11.498
REMARK SMILES Nc1nccc(N2CCC[C@@](Cc3ccc(F)cc3F)(C(=O)NCCCCCCNC(=O)c3ccc(-c4c5nc(c(-c6cccc(S(=O)(=O)[O-])c6F)c6ccc([nH]6)c(-c6cccc(S(=O)(=O)[O-])c6F)c6nc(c(-c7cccc(S(=O)(=O)[O-])c7F)c7ccc4[nH]7)C=C6)C=C5)cc3)C2)n1
REMARK SMILES IDX 27 1 26 2 25 3 24 4 23 5 21 6 22 7 11 9 7 10 8 11 96 12 9 13
REMARK SMILES IDX 10 14 6 15 2 16 3 17 97 18 4 19 5 20 1 21 12 24 13 25 14 26
REMARK SMILES IDX 19 27 15 28 18 29 20 30 16 31 17 32 28 33 29 34 30 35 31 36
REMARK SMILES IDX 32 38 33 39 34 40 95 41 35 42 94 43 36 44 37 45 38 46 88 47
REMARK SMILES IDX 39 48 93 49 87 50 89 51 40 52 92 53 86 54 85 55 41 57 73 58
REMARK SMILES IDX 53 59 72 60 54 61 57 62 71 63 90 64 55 65 56 66 70 68 91 69
REMARK SMILES IDX 58 70 42 71 43 72 51 73 44 74 46 75 52 76 45 77 47 78 48 79
REMARK SMILES IDX 49 80 50 81 74 82 75 83 83 84 76 85 78 86 84 87 77 88 79 89
REMARK SMILES IDX 80 90 81 91 82 92 59 93 60 94 68 95 61 96 63 97 69 98 62 99
REMARK SMILES IDX 64 100 65 101 66 102 67 103
REMARK H PARENT 23 8 1 22 1 23 30 37 89 56 57 67
REMARK Flexibility Score: inf
ROOT
ATOM      1  C   UNL A   1      36.275  19.826  25.003  1.00  0.00     0.002 C 
ENDROOT
BRANCH   1   2
ATOM      2  C   UNL A   1      35.072  18.941  24.643  1.00  0.00     0.002 C 
BRANCH   2   3
ATOM      3  C   UNL A   1      33.729  19.357  25.254  1.00  0.00     0.021 C 
BRANCH   3   4
ATOM      4  C   UNL A   1      33.378  20.821  25.038  1.00  0.00     0.116 C 
BRANCH   4   5
ATOM      5  N   UNL A   1      32.488  21.050  23.922  1.00  0.00    -0.356 N 
ATOM      6  C   UNL A   1      31.949  22.194  23.416  1.00  0.00     0.228 C 
ATOM      7  O   UNL A   1      31.466  22.085  22.282  1.00  0.00    -0.274 OA
ATOM      8  H   UNL A   1      32.225  20.234  23.440  1.00  0.00     0.163 HD
BRANCH   6   9
ATOM      9  C   UNL A   1      31.931  23.547  24.165  1.00  0.00     0.071 C 
ATOM     10  N   UNL A   1      30.477  25.521  24.390  1.00  0.00    -0.355 N 
ATOM     11  C   UNL A   1      30.154  25.378  25.795  1.00  0.00     0.118 C 
ATOM     12  C   UNL A   1      30.654  24.291  23.624  1.00  0.00     0.135 C 
ATOM     13  C   UNL A   1      31.300  24.631  26.458  1.00  0.00     0.023 C 
ATOM     14  C   UNL A   1      31.703  23.363  25.694  1.00  0.00     0.021 C 
BRANCH  10  15
ATOM     15  C   UNL A   1      30.114  26.677  23.734  1.00  0.00     0.134 A 
ATOM     16  C   UNL A   1      28.521  28.130  22.979  1.00  0.00     0.221 A 
ATOM     17  N   UNL A   1      29.402  28.902  22.335  1.00  0.00    -0.222 NA
ATOM     18  N   UNL A   1      28.820  27.020  23.661  1.00  0.00    -0.196 NA
ATOM     19  C   UNL A   1      30.685  28.519  22.410  1.00  0.00     0.119 A 
ATOM     20  C   UNL A   1      31.100  27.420  23.116  1.00  0.00     0.067 A 
BRANCH  16  21
ATOM     21  N   UNL A   1      27.214  28.517  22.947  1.00  0.00    -0.368 N 
ATOM     22  H   UNL A   1      26.778  28.711  22.086  1.00  0.00     0.159 HD
ATOM     23  H   UNL A   1      26.706  28.604  23.786  1.00  0.00     0.159 HD
ENDBRANCH  16  21
ENDBRANCH  10  15
BRANCH   9  24
ATOM     24  C   UNL A   1      33.141  24.454  23.758  1.00  0.00     0.057 C 
BRANCH  24  25
ATOM     25  C   UNL A   1      34.550  24.079  24.142  1.00  0.00    -0.011 A 
ATOM     26  C   UNL A   1      35.353  23.332  23.264  1.00  0.00     0.010 A 
ATOM     27  C   UNL A   1      35.099  24.490  25.364  1.00  0.00     0.129 A 
ATOM     28  C   UNL A   1      36.641  22.950  23.645  1.00  0.00     0.040 A 
ATOM     29  C   UNL A   1      36.382  24.117  25.748  1.00  0.00     0.078 A 
ATOM     30  F   UNL A   1      34.372  25.242  26.201  1.00  0.00    -0.207 F 
ATOM     31  C   UNL A   1      37.136  23.333  24.887  1.00  0.00     0.126 A 
ATOM     32  F   UNL A   1      38.346  22.909  25.268  1.00  0.00    -0.207 F 
ENDBRANCH  24  25
ENDBRANCH   9  24
ENDBRANCH   6   9
ENDBRANCH   4   5
ENDBRANCH   3   4
ENDBRANCH   2   3
ENDBRANCH   1   2
BRANCH   1  33
ATOM     33  C   UNL A   1      37.647  19.148  24.934  1.00  0.00     0.021 C 
BRANCH  33  34
ATOM     34  C   UNL A   1      38.751  19.845  25.718  1.00  0.00     0.116 C 
BRANCH  34  35
ATOM     35  N   UNL A   1      39.902  18.983  25.931  1.00  0.00    -0.352 N 
ATOM     36  C   UNL A   1      41.209  19.322  26.159  1.00  0.00     0.251 C 
ATOM     37  H   UNL A   1      39.715  18.017  25.908  1.00  0.00     0.163 HD
ATOM     38  O   UNL A   1      42.078  18.448  26.137  1.00  0.00    -0.269 OA
BRANCH  36  39
ATOM     39  C   UNL A   1      41.580  20.730  26.419  1.00  0.00     0.039 A 
ATOM     40  C   UNL A   1      41.826  21.130  27.735  1.00  0.00     0.014 A 
ATOM     41  C   UNL A   1      41.666  21.656  25.377  1.00  0.00     0.014 A 
ATOM     42  C   UNL A   1      42.198  22.450  27.999  1.00  0.00     0.010 A 
ATOM     43  C   UNL A   1      42.115  22.949  25.632  1.00  0.00     0.010 A 
ATOM     44  C   UNL A   1      42.369  23.365  26.947  1.00  0.00    -0.014 A 
BRANCH  44  45
ATOM     45  C   UNL A   1      42.805  24.760  27.205  1.00  0.00     0.031 A 
ATOM     46  C   UNL A   1      41.875  25.732  27.881  1.00  0.00     0.074 A 
ATOM     47  C   UNL A   1      44.009  25.174  26.761  1.00  0.00     0.049 A 
ATOM     48  N   UNL A   1      42.065  26.995  28.161  1.00  0.00    -0.248 NA
ATOM     49  C   UNL A   1      40.547  25.228  28.268  1.00  0.00     0.031 C 
ATOM     50  C   UNL A   1      44.969  24.347  26.027  1.00  0.00     0.029 A 
ATOM     51  N   UNL A   1      44.622  26.399  26.844  1.00  0.00    -0.354 N 
ATOM     52  C   UNL A   1      40.872  27.446  28.714  1.00  0.00     0.074 A 
ATOM     53  C   UNL A   1      39.953  26.330  28.701  1.00  0.00     0.031 C 
ATOM     54  C   UNL A   1      46.055  25.083  25.742  1.00  0.00     0.029 A 
ATOM     55  C   UNL A   1      45.857  26.439  26.242  1.00  0.00     0.049 A 
ATOM     56  H   UNL A   1      44.215  27.175  27.293  1.00  0.00     0.167 HD
ATOM     57  C   UNL A   1      40.575  28.671  29.208  1.00  0.00     0.034 A 
ATOM     58  C   UNL A   1      46.730  27.456  26.104  1.00  0.00     0.034 A 
ATOM     59  C   UNL A   1      41.509  29.763  29.261  1.00  0.00     0.049 A 
ATOM     60  C   UNL A   1      46.389  28.796  26.698  1.00  0.00     0.074 A 
ATOM     61  C   UNL A   1      41.342  31.009  29.839  1.00  0.00     0.029 A 
ATOM     62  N   UNL A   1      42.778  29.747  28.704  1.00  0.00    -0.354 N 
ATOM     63  N   UNL A   1      45.321  29.155  27.367  1.00  0.00    -0.248 NA
ATOM     64  C   UNL A   1      47.391  29.862  26.547  1.00  0.00     0.031 C 
ATOM     65  C   UNL A   1      42.499  31.759  29.599  1.00  0.00     0.029 A 
ATOM     66  C   UNL A   1      43.400  30.967  28.905  1.00  0.00     0.049 A 
ATOM     67  H   UNL A   1      43.179  28.980  28.234  1.00  0.00     0.167 HD
ATOM     68  C   UNL A   1      45.539  30.473  27.754  1.00  0.00     0.074 A 
ATOM     69  C   UNL A   1      46.849  30.842  27.258  1.00  0.00     0.031 C 
ATOM     70  C   UNL A   1      44.724  31.306  28.449  1.00  0.00     0.034 A 
BRANCH  57  71
ATOM     71  C   UNL A   1      39.191  28.887  29.766  1.00  0.00     0.023 A 
ATOM     72  C   UNL A   1      38.881  28.444  31.068  1.00  0.00     0.012 A 
ATOM     73  C   UNL A   1      38.213  29.575  29.021  1.00  0.00     0.148 A 
ATOM     74  C   UNL A   1      37.609  28.644  31.604  1.00  0.00     0.002 A 
ATOM     75  C   UNL A   1      36.964  29.814  29.580  1.00  0.00     0.091 A 
ATOM     76  F   UNL A   1      38.518  29.969  27.776  1.00  0.00    -0.205 F 
ATOM     77  C   UNL A   1      36.655  29.338  30.865  1.00  0.00     0.022 A 
BRANCH  75  78
ATOM     78  S   UNL A   1      35.696  30.769  28.740  1.00  0.00     0.127 S 
ATOM     79  O   UNL A   1      34.812  29.715  28.244  1.00  0.00    -0.237 OA
ATOM     80  O   UNL A   1      35.138  31.568  29.832  1.00  0.00    -0.237 OA
ATOM     81  O   UNL A   1      36.385  31.541  27.715  1.00  0.00    -0.744 OA
ENDBRANCH  75  78
ENDBRANCH  57  71
BRANCH  58  82
ATOM     82  C   UNL A   1      48.046  27.227  25.443  1.00  0.00     0.023 A 
ATOM     83  C   UNL A   1      49.129  26.756  26.210  1.00  0.00     0.012 A 
ATOM     84  C   UNL A   1      48.225  27.448  24.064  1.00  0.00     0.148 A 
ATOM     85  C   UNL A   1      50.377  26.540  25.624  1.00  0.00     0.002 A 
ATOM     86  C   UNL A   1      49.457  27.180  23.475  1.00  0.00     0.091 A 
ATOM     87  F   UNL A   1      47.185  27.904  23.353  1.00  0.00    -0.205 F 
ATOM     88  C   UNL A   1      50.538  26.743  24.256  1.00  0.00     0.022 A 
BRANCH  86  89
ATOM     89  S   UNL A   1      49.725  27.294  21.702  1.00  0.00     0.127 S 
ATOM     90  O   UNL A   1      51.130  26.909  21.589  1.00  0.00    -0.237 OA
ATOM     91  O   UNL A   1      48.773  26.308  21.191  1.00  0.00    -0.237 OA
ATOM     92  O   UNL A   1      49.418  28.672  21.344  1.00  0.00    -0.744 OA
ENDBRANCH  86  89
ENDBRANCH  58  82
BRANCH  70  93
ATOM     93  C   UNL A   1      45.236  32.688  28.760  1.00  0.00     0.023 A 
ATOM     94  C   UNL A   1      45.983  32.916  29.932  1.00  0.00     0.012 A 
ATOM     95  C   UNL A   1      45.038  33.745  27.849  1.00  0.00     0.148 A 
ATOM     96  C   UNL A   1      46.494  34.184  30.211  1.00  0.00     0.002 A 
ATOM     97  C   UNL A   1      45.595  34.991  28.107  1.00  0.00     0.091 A 
ATOM     98  F   UNL A   1      44.309  33.513  26.748  1.00  0.00    -0.205 F 
ATOM     99  C   UNL A   1      46.311  35.217  29.294  1.00  0.00     0.022 A 
BRANCH  97 100
ATOM    100  S   UNL A   1      45.498  36.349  26.936  1.00  0.00     0.127 S 
ATOM    101  O   UNL A   1      46.120  35.765  25.749  1.00  0.00    -0.237 OA
ATOM    102  O   UNL A   1      44.054  36.561  26.826  1.00  0.00    -0.237 OA
ATOM    103  O   UNL A   1      46.226  37.455  27.542  1.00  0.00    -0.744 OA
ENDBRANCH  97 100
ENDBRANCH  70  93
ENDBRANCH  44  45
ENDBRANCH  36  39
ENDBRANCH  34  35
ENDBRANCH  33  34
ENDBRANCH   1  33
TORSDOF 20
ENDMDL
MODEL 3
REMARK VINA RESULT:     -12.2      6.064     11.374
REMARK SMILES Nc1nccc(N2CCC[C@@](Cc3ccc(F)cc3F)(C(=O)NCCCCCCNC(=O)c3ccc(-c4c5nc(c(-c6cccc(S(=O)(=O)[O-])c6F)c6ccc([nH]6)c(-c6cccc(S(=O)(=O)[O-])c6F)c6nc(c(-c7cccc(S(=O)(=O)[O-])c7F)c7ccc4[nH]7)C=C6)C=C5)cc3)C2)n1
REMARK SMILES IDX 27 1 26 2 25 3 24 4 23 5 21 6 22 7 11 9 7 10 8 11 96 12 9 13
REMARK SMILES IDX 10 14 6 15 2 16 3 17 97 18 4 19 5 20 1 21 12 24 13 25 14 26
REMARK SMILES IDX 19 27 15 28 18 29 20 30 16 31 17 32 28 33 29 34 30 35 31 36
REMARK SMILES IDX 32 38 33 39 34 40 95 41 35 42 94 43 36 44 37 45 38 46 88 47
REMARK SMILES IDX 39 48 93 49 87 50 89 51 40 52 92 53 86 54 85 55 41 57 73 58
REMARK SMILES IDX 53 59 72 60 54 61 57 62 71 63 90 64 55 65 56 66 70 68 91 69
REMARK SMILES IDX 58 70 42 71 43 72 51 73 44 74 46 75 52 76 45 77 47 78 48 79
REMARK SMILES IDX 49 80 50 81 74 82 75 83 83 84 76 85 78 86 84 87 77 88 79 89
REMARK SMILES IDX 80 90 81 91 82 92 59 93 60 94 68 95 61 96 63 97 69 98 62 99
REMARK SMILES IDX 64 100 65 101 66 102 67 103
REMARK H PARENT 23 8 1 22 1 23 30 37 89 56 57 67
REMARK Flexibility Score: inf
ROOT
ATOM      1  C   UNL A   1      35.997  20.311  24.993  1.00  0.00     0.002 C 
ENDROOT
BRANCH   1   2
ATOM      2  C   UNL A   1      36.066  21.813  24.677  1.00  0.00     0.002 C 
BRANCH   2   3
ATOM      3  C   UNL A   1      35.266  22.730  25.609  1.00  0.00     0.021 C 
BRANCH   3   4
ATOM      4  C   UNL A   1      35.128  24.158  25.105  1.00  0.00     0.116 C 
BRANCH   4   5
ATOM      5  N   UNL A   1      34.304  24.997  25.945  1.00  0.00    -0.356 N 
ATOM      6  C   UNL A   1      33.176  25.714  25.678  1.00  0.00     0.228 C 
ATOM      7  O   UNL A   1      32.549  26.088  26.676  1.00  0.00    -0.274 OA
ATOM      8  H   UNL A   1      34.612  25.064  26.877  1.00  0.00     0.163 HD
BRANCH   6   9
ATOM      9  C   UNL A   1      32.679  26.045  24.251  1.00  0.00     0.071 C 
ATOM     10  N   UNL A   1      31.518  27.866  23.071  1.00  0.00    -0.355 N 
ATOM     11  C   UNL A   1      32.593  28.250  22.179  1.00  0.00     0.118 C 
ATOM     12  C   UNL A   1      31.897  27.403  24.402  1.00  0.00     0.135 C 
ATOM     13  C   UNL A   1      33.471  27.029  21.964  1.00  0.00     0.023 C 
ATOM     14  C   UNL A   1      33.858  26.336  23.277  1.00  0.00     0.021 C 
BRANCH  10  15
ATOM     15  C   UNL A   1      30.263  28.402  22.876  1.00  0.00     0.134 A 
ATOM     16  C   UNL A   1      27.992  28.302  23.096  1.00  0.00     0.221 A 
ATOM     17  N   UNL A   1      27.784  29.413  22.383  1.00  0.00    -0.222 NA
ATOM     18  N   UNL A   1      29.186  27.758  23.348  1.00  0.00    -0.196 NA
ATOM     19  C   UNL A   1      28.880  30.021  21.907  1.00  0.00     0.119 A 
ATOM     20  C   UNL A   1      30.151  29.566  22.143  1.00  0.00     0.067 A 
BRANCH  16  21
ATOM     21  N   UNL A   1      26.894  27.685  23.620  1.00  0.00    -0.368 N 
ATOM     22  H   UNL A   1      26.992  26.833  24.106  1.00  0.00     0.159 HD
ATOM     23  H   UNL A   1      26.003  28.089  23.512  1.00  0.00     0.159 HD
ENDBRANCH  16  21
ENDBRANCH  10  15
BRANCH   9  24
ATOM     24  C   UNL A   1      31.616  25.010  23.751  1.00  0.00     0.057 C 
BRANCH  24  25
ATOM     25  C   UNL A   1      31.830  23.530  23.943  1.00  0.00    -0.011 A 
ATOM     26  C   UNL A   1      31.387  22.893  25.114  1.00  0.00     0.010 A 
ATOM     27  C   UNL A   1      32.447  22.754  22.952  1.00  0.00     0.129 A 
ATOM     28  C   UNL A   1      31.628  21.530  25.306  1.00  0.00     0.040 A 
ATOM     29  C   UNL A   1      32.687  21.397  23.134  1.00  0.00     0.078 A 
ATOM     30  F   UNL A   1      32.838  23.327  21.807  1.00  0.00    -0.207 F 
ATOM     31  C   UNL A   1      32.288  20.801  24.322  1.00  0.00     0.126 A 
ATOM     32  F   UNL A   1      32.571  19.512  24.542  1.00  0.00    -0.207 F 
ENDBRANCH  24  25
ENDBRANCH   9  24
ENDBRANCH   6   9
ENDBRANCH   4   5
ENDBRANCH   3   4
ENDBRANCH   2   3
ENDBRANCH   1   2
BRANCH   1  33
ATOM     33  C   UNL A   1      37.328  19.554  24.931  1.00  0.00     0.021 C 
BRANCH  33  34
ATOM     34  C   UNL A   1      38.493  20.239  25.634  1.00  0.00     0.116 C 
BRANCH  34  35
ATOM     35  N   UNL A   1      39.600  19.329  25.877  1.00  0.00    -0.352 N 
ATOM     36  C   UNL A   1      40.908  19.612  26.168  1.00  0.00     0.251 C 
ATOM     37  H   UNL A   1      39.377  18.371  25.825  1.00  0.00     0.163 HD
ATOM     38  O   UNL A   1      41.743  18.706  26.163  1.00  0.00    -0.269 OA
BRANCH  36  39
ATOM     39  C   UNL A   1      41.320  20.999  26.474  1.00  0.00     0.039 A 
ATOM     40  C   UNL A   1      42.063  21.242  27.632  1.00  0.00     0.014 A 
ATOM     41  C   UNL A   1      40.962  22.059  25.636  1.00  0.00     0.014 A 
ATOM     42  C   UNL A   1      42.481  22.541  27.928  1.00  0.00     0.010 A 
ATOM     43  C   UNL A   1      41.447  23.339  25.890  1.00  0.00     0.010 A 
ATOM     44  C   UNL A   1      42.196  23.597  27.047  1.00  0.00    -0.014 A 
BRANCH  44  45
ATOM     45  C   UNL A   1      42.668  24.977  27.324  1.00  0.00     0.031 A 
ATOM     46  C   UNL A   1      41.761  25.966  28.006  1.00  0.00     0.074 A 
ATOM     47  C   UNL A   1      43.885  25.363  26.891  1.00  0.00     0.049 A 
ATOM     48  N   UNL A   1      41.983  27.220  28.302  1.00  0.00    -0.248 NA
ATOM     49  C   UNL A   1      40.417  25.493  28.380  1.00  0.00     0.031 C 
ATOM     50  C   UNL A   1      44.827  24.519  26.154  1.00  0.00     0.029 A 
ATOM     51  N   UNL A   1      44.530  26.570  26.993  1.00  0.00    -0.354 N 
ATOM     52  C   UNL A   1      40.799  27.697  28.853  1.00  0.00     0.074 A 
ATOM     53  C   UNL A   1      39.851  26.606  28.823  1.00  0.00     0.031 C 
ATOM     54  C   UNL A   1      45.934  25.229  25.884  1.00  0.00     0.029 A 
ATOM     55  C   UNL A   1      45.770  26.585  26.398  1.00  0.00     0.049 A 
ATOM     56  H   UNL A   1      44.142  27.352  27.449  1.00  0.00     0.167 HD
ATOM     57  C   UNL A   1      40.532  28.924  29.360  1.00  0.00     0.034 A 
ATOM     58  C   UNL A   1      46.670  27.579  26.277  1.00  0.00     0.034 A 
ATOM     59  C   UNL A   1      41.494  29.989  29.431  1.00  0.00     0.049 A 
ATOM     60  C   UNL A   1      46.362  28.921  26.885  1.00  0.00     0.074 A 
ATOM     61  C   UNL A   1      41.358  31.233  30.023  1.00  0.00     0.029 A 
ATOM     62  N   UNL A   1      42.766  29.945  28.881  1.00  0.00    -0.354 N 
ATOM     63  N   UNL A   1      45.301  29.301  27.552  1.00  0.00    -0.248 NA
ATOM     64  C   UNL A   1      47.393  29.961  26.752  1.00  0.00     0.031 C 
ATOM     65  C   UNL A   1      42.535  31.954  29.798  1.00  0.00     0.029 A 
ATOM     66  C   UNL A   1      43.419  31.146  29.100  1.00  0.00     0.049 A 
ATOM     67  H   UNL A   1      43.149  29.174  28.404  1.00  0.00     0.167 HD
ATOM     68  C   UNL A   1      45.551  30.608  27.956  1.00  0.00     0.074 A 
ATOM     69  C   UNL A   1      46.874  30.947  27.472  1.00  0.00     0.031 C 
ATOM     70  C   UNL A   1      44.755  31.454  28.656  1.00  0.00     0.034 A 
BRANCH  57  71
ATOM     71  C   UNL A   1      39.151  29.170  29.913  1.00  0.00     0.023 A 
ATOM     72  C   UNL A   1      38.825  28.728  31.211  1.00  0.00     0.012 A 
ATOM     73  C   UNL A   1      38.193  29.885  29.167  1.00  0.00     0.148 A 
ATOM     74  C   UNL A   1      37.555  28.957  31.742  1.00  0.00     0.002 A 
ATOM     75  C   UNL A   1      36.948  30.152  29.720  1.00  0.00     0.091 A 
ATOM     76  F   UNL A   1      38.513  30.278  27.925  1.00  0.00    -0.205 F 
ATOM     77  C   UNL A   1      36.622  29.677  31.002  1.00  0.00     0.022 A 
BRANCH  75  78
ATOM     78  S   UNL A   1      35.707  31.141  28.879  1.00  0.00     0.127 S 
ATOM     79  O   UNL A   1      35.023  30.132  28.071  1.00  0.00    -0.237 OA
ATOM     80  O   UNL A   1      34.919  31.662  29.998  1.00  0.00    -0.237 OA
ATOM     81  O   UNL A   1      36.439  32.153  28.130  1.00  0.00    -0.744 OA
ENDBRANCH  75  78
ENDBRANCH  57  71
BRANCH  58  82
ATOM     82  C   UNL A   1      47.983  27.322  25.620  1.00  0.00     0.023 A 
ATOM     83  C   UNL A   1      49.066  26.870  26.400  1.00  0.00     0.012 A 
ATOM     84  C   UNL A   1      48.161  27.498  24.235  1.00  0.00     0.148 A 
ATOM     85  C   UNL A   1      50.311  26.630  25.818  1.00  0.00     0.002 A 
ATOM     86  C   UNL A   1      49.390  27.205  23.652  1.00  0.00     0.091 A 
ATOM     87  F   UNL A   1      47.121  27.936  23.511  1.00  0.00    -0.205 F 
ATOM     88  C   UNL A   1      50.471  26.788  24.445  1.00  0.00     0.022 A 
BRANCH  86  89
ATOM     89  S   UNL A   1      49.654  27.260  21.876  1.00  0.00     0.127 S 
ATOM     90  O   UNL A   1      49.394  28.666  21.580  1.00  0.00    -0.237 OA
ATOM     91  O   UNL A   1      51.057  26.856  21.769  1.00  0.00    -0.237 OA
ATOM     92  O   UNL A   1      48.708  26.309  21.306  1.00  0.00    -0.744 OA
ENDBRANCH  86  89
ENDBRANCH  58  82
BRANCH  70  93
ATOM     93  C   UNL A   1      45.302  32.818  28.985  1.00  0.00     0.023 A 
ATOM     94  C   UNL A   1      46.037  33.015  30.171  1.00  0.00     0.012 A 
ATOM     95  C   UNL A   1      45.148  33.888  28.081  1.00  0.00     0.148 A 
ATOM     96  C   UNL A   1      46.581  34.266  30.467  1.00  0.00     0.002 A 
ATOM     97  C   UNL A   1      45.737  35.115  28.357  1.00  0.00     0.091 A 
ATOM     98  F   UNL A   1      44.429  33.685  26.967  1.00  0.00    -0.205 F 
ATOM     99  C   UNL A   1      46.442  35.310  29.556  1.00  0.00     0.022 A 
BRANCH  97 100
ATOM    100  S   UNL A   1      45.697  36.485  27.196  1.00  0.00     0.127 S 
ATOM    101  O   UNL A   1      46.241  35.868  25.988  1.00  0.00    -0.237 OA
ATOM    102  O   UNL A   1      44.268  36.794  27.132  1.00  0.00    -0.237 OA
ATOM    103  O   UNL A   1      46.516  37.535  27.785  1.00  0.00    -0.744 OA
ENDBRANCH  97 100
ENDBRANCH  70  93
ENDBRANCH  44  45
ENDBRANCH  36  39
ENDBRANCH  34  35
ENDBRANCH  33  34
ENDBRANCH   1  33
TORSDOF 20
ENDMDL
