MODEL 1
REMARK VINA RESULT:     -10.7      0.000      0.000
REMARK SMILES CCCC1(CCC)CN(c2cncc(C(=O)NCCCCCCNC(=O)c3ccc(-c4c5nc(c(-c6cccc(S(=O)(=O)[O-])c6F)c6ccc([nH]6)c(-c6cccc(S(=O)(=O)[O-])c6F)c6nc(c(-c7cccc(S(=O)(=O)[O-])c7F)c7ccc4[nH]7)C=C6)C=C5)cc3)c2)C1
REMARK SMILES IDX 20 1 19 2 18 3 17 4 15 5 16 6 14 8 10 9 11 10 90 11 12 12
REMARK SMILES IDX 13 13 9 14 4 15 8 16 91 17 3 18 2 19 1 20 5 21 6 22 7 23
REMARK SMILES IDX 21 24 22 25 23 26 24 27 25 28 26 30 27 31 28 32 89 33 29 34
REMARK SMILES IDX 88 35 30 36 31 37 32 38 82 39 33 40 87 41 81 42 83 43 34 44
REMARK SMILES IDX 86 45 80 46 79 47 35 49 67 50 47 51 66 52 48 53 51 54 65 55
REMARK SMILES IDX 84 56 49 57 50 58 64 60 85 61 52 62 36 63 37 64 45 65 38 66
REMARK SMILES IDX 40 67 46 68 39 69 41 70 42 71 43 72 44 73 68 74 69 75 77 76
REMARK SMILES IDX 70 77 72 78 78 79 71 80 73 81 74 82 75 83 76 84 53 85 54 86
REMARK SMILES IDX 62 87 55 88 57 89 63 90 56 91 58 92 59 93 60 94 61 95
REMARK H PARENT 17 7 24 29 83 48 51 59
REMARK Flexibility Score: inf
ROOT
ATOM      1  C   UNL A   1      33.619  27.705  25.088  1.00  0.00     0.002 C 
ENDROOT
BRANCH   1   2
ATOM      2  C   UNL A   1      33.985  28.295  23.718  1.00  0.00     0.021 C 
BRANCH   2   3
ATOM      3  C   UNL A   1      32.793  28.342  22.758  1.00  0.00     0.116 C 
BRANCH   3   4
ATOM      4  N   UNL A   1      33.024  27.449  21.640  1.00  0.00    -0.352 N 
ATOM      5  C   UNL A   1      32.779  26.117  21.428  1.00  0.00     0.252 C 
ATOM      6  O   UNL A   1      33.148  25.652  20.347  1.00  0.00    -0.269 OA
ATOM      7  H   UNL A   1      33.446  27.892  20.870  1.00  0.00     0.163 HD
BRANCH   5   8
ATOM      8  C   UNL A   1      32.059  25.232  22.377  1.00  0.00     0.060 A 
ATOM      9  C   UNL A   1      31.679  23.213  23.669  1.00  0.00     0.056 A 
ATOM     10  C   UNL A   1      30.640  23.884  24.307  1.00  0.00     0.136 A 
ATOM     11  C   UNL A   1      32.341  23.893  22.642  1.00  0.00     0.043 A 
ATOM     12  N   UNL A   1      30.268  25.155  24.029  1.00  0.00    -0.262 NA
ATOM     13  C   UNL A   1      31.002  25.799  23.087  1.00  0.00     0.125 A 
BRANCH   9  14
ATOM     14  N   UNL A   1      32.077  21.934  24.090  1.00  0.00    -0.369 N 
ATOM     15  C   UNL A   1      33.462  20.507  24.790  1.00  0.00     0.005 C 
ATOM     16  C   UNL A   1      33.011  21.086  23.417  1.00  0.00     0.125 C 
ATOM     17  C   UNL A   1      32.485  21.543  25.407  1.00  0.00     0.125 C 
BRANCH  15  18
ATOM     18  C   UNL A   1      33.206  18.981  24.821  1.00  0.00     0.010 C 
BRANCH  18  19
ATOM     19  C   UNL A   1      34.378  18.092  24.408  1.00  0.00    -0.003 C 
ATOM     20  C   UNL A   1      34.032  17.087  23.320  1.00  0.00     0.004 C 
ENDBRANCH  18  19
ENDBRANCH  15  18
BRANCH  15  21
ATOM     21  C   UNL A   1      34.948  20.853  25.080  1.00  0.00     0.010 C 
BRANCH  21  22
ATOM     22  C   UNL A   1      35.537  21.979  24.214  1.00  0.00    -0.003 C 
ATOM     23  C   UNL A   1      35.649  23.337  24.885  1.00  0.00     0.004 C 
ENDBRANCH  21  22
ENDBRANCH  15  21
ENDBRANCH   9  14
ENDBRANCH   5   8
ENDBRANCH   3   4
ENDBRANCH   2   3
ENDBRANCH   1   2
BRANCH   1  24
ATOM     24  C   UNL A   1      32.196  28.028  25.563  1.00  0.00     0.002 C 
BRANCH  24  25
ATOM     25  C   UNL A   1      32.080  28.375  27.050  1.00  0.00     0.021 C 
BRANCH  25  26
ATOM     26  C   UNL A   1      33.383  28.857  27.675  1.00  0.00     0.116 C 
BRANCH  26  27
ATOM     27  N   UNL A   1      33.527  30.300  27.551  1.00  0.00    -0.352 N 
ATOM     28  C   UNL A   1      34.522  31.114  28.031  1.00  0.00     0.251 C 
ATOM     29  H   UNL A   1      32.811  30.756  27.051  1.00  0.00     0.163 HD
ATOM     30  O   UNL A   1      34.361  32.329  28.061  1.00  0.00    -0.269 OA
BRANCH  28  31
ATOM     31  C   UNL A   1      35.785  30.516  28.511  1.00  0.00     0.039 A 
ATOM     32  C   UNL A   1      36.950  30.696  27.762  1.00  0.00     0.014 A 
ATOM     33  C   UNL A   1      35.810  29.761  29.687  1.00  0.00     0.014 A 
ATOM     34  C   UNL A   1      38.151  30.146  28.215  1.00  0.00     0.010 A 
ATOM     35  C   UNL A   1      37.021  29.281  30.175  1.00  0.00     0.010 A 
ATOM     36  C   UNL A   1      38.200  29.450  29.434  1.00  0.00    -0.014 A 
BRANCH  36  37
ATOM     37  C   UNL A   1      39.466  28.866  29.939  1.00  0.00     0.031 A 
ATOM     38  C   UNL A   1      40.135  29.457  31.152  1.00  0.00     0.074 A 
ATOM     39  C   UNL A   1      40.055  27.858  29.265  1.00  0.00     0.049 A 
ATOM     40  N   UNL A   1      41.273  29.131  31.707  1.00  0.00    -0.248 NA
ATOM     41  C   UNL A   1      39.449  30.583  31.810  1.00  0.00     0.031 C 
ATOM     42  C   UNL A   1      39.541  27.249  28.035  1.00  0.00     0.029 A 
ATOM     43  N   UNL A   1      41.226  27.186  29.503  1.00  0.00    -0.354 N 
ATOM     44  C   UNL A   1      41.457  30.030  32.751  1.00  0.00     0.074 A 
ATOM     45  C   UNL A   1      40.335  30.940  32.729  1.00  0.00     0.031 C 
ATOM     46  C   UNL A   1      40.391  26.292  27.630  1.00  0.00     0.029 A 
ATOM     47  C   UNL A   1      41.523  26.239  28.551  1.00  0.00     0.049 A 
ATOM     48  H   UNL A   1      41.801  27.364  30.283  1.00  0.00     0.167 HD
ATOM     49  C   UNL A   1      42.456  30.076  33.665  1.00  0.00     0.034 A 
ATOM     50  C   UNL A   1      42.591  25.426  28.429  1.00  0.00     0.034 A 
ATOM     51  C   UNL A   1      43.545  29.141  33.710  1.00  0.00     0.049 A 
ATOM     52  C   UNL A   1      43.666  25.473  29.481  1.00  0.00     0.074 A 
ATOM     53  C   UNL A   1      44.562  29.048  34.645  1.00  0.00     0.029 A 
ATOM     54  N   UNL A   1      43.766  28.138  32.779  1.00  0.00    -0.354 N 
ATOM     55  N   UNL A   1      43.747  26.232  30.547  1.00  0.00    -0.248 NA
ATOM     56  C   UNL A   1      44.779  24.523  29.336  1.00  0.00     0.031 C 
ATOM     57  C   UNL A   1      45.413  28.007  34.262  1.00  0.00     0.029 A 
ATOM     58  C   UNL A   1      44.905  27.426  33.110  1.00  0.00     0.049 A 
ATOM     59  H   UNL A   1      43.195  27.958  31.997  1.00  0.00     0.167 HD
ATOM     60  C   UNL A   1      44.892  25.823  31.220  1.00  0.00     0.074 A 
ATOM     61  C   UNL A   1      45.464  24.738  30.451  1.00  0.00     0.031 C 
ATOM     62  C   UNL A   1      45.430  26.311  32.365  1.00  0.00     0.034 A 
BRANCH  49  63
ATOM     63  C   UNL A   1      42.388  31.146  34.724  1.00  0.00     0.023 A 
ATOM     64  C   UNL A   1      41.814  30.853  35.978  1.00  0.00     0.012 A 
ATOM     65  C   UNL A   1      42.946  32.421  34.502  1.00  0.00     0.148 A 
ATOM     66  C   UNL A   1      41.760  31.820  36.981  1.00  0.00     0.002 A 
ATOM     67  C   UNL A   1      42.933  33.364  35.523  1.00  0.00     0.091 A 
ATOM     68  F   UNL A   1      43.469  32.688  33.297  1.00  0.00    -0.205 F 
ATOM     69  C   UNL A   1      42.329  33.070  36.757  1.00  0.00     0.022 A 
BRANCH  67  70
ATOM     70  S   UNL A   1      43.711  34.976  35.364  1.00  0.00     0.127 S 
ATOM     71  O   UNL A   1      45.092  34.608  35.055  1.00  0.00    -0.237 OA
ATOM     72  O   UNL A   1      42.971  35.564  34.246  1.00  0.00    -0.237 OA
ATOM     73  O   UNL A   1      43.515  35.645  36.642  1.00  0.00    -0.744 OA
ENDBRANCH  67  70
ENDBRANCH  49  63
BRANCH  50  74
ATOM     74  C   UNL A   1      42.667  24.457  27.299  1.00  0.00     0.023 A 
ATOM     75  C   UNL A   1      43.337  24.823  26.115  1.00  0.00     0.012 A 
ATOM     76  C   UNL A   1      42.094  23.174  27.395  1.00  0.00     0.148 A 
ATOM     77  C   UNL A   1      43.402  23.945  25.034  1.00  0.00     0.002 A 
ATOM     78  C   UNL A   1      42.211  22.283  26.335  1.00  0.00     0.091 A 
ATOM     79  F   UNL A   1      41.453  22.849  28.526  1.00  0.00    -0.205 F 
ATOM     80  C   UNL A   1      42.847  22.672  25.146  1.00  0.00     0.022 A 
BRANCH  78  81
ATOM     81  S   UNL A   1      41.643  20.583  26.442  1.00  0.00     0.127 S 
ATOM     82  O   UNL A   1      42.366  19.955  25.340  1.00  0.00    -0.237 OA
ATOM     83  O   UNL A   1      42.097  20.196  27.779  1.00  0.00    -0.237 OA
ATOM     84  O   UNL A   1      40.194  20.642  26.297  1.00  0.00    -0.744 OA
ENDBRANCH  78  81
ENDBRANCH  50  74
BRANCH  62  85
ATOM     85  C   UNL A   1      46.673  25.645  32.894  1.00  0.00     0.023 A 
ATOM     86  C   UNL A   1      47.944  26.134  32.532  1.00  0.00     0.012 A 
ATOM     87  C   UNL A   1      46.576  24.582  33.813  1.00  0.00     0.148 A 
ATOM     88  C   UNL A   1      49.100  25.551  33.050  1.00  0.00     0.002 A 
ATOM     89  C   UNL A   1      47.730  24.042  34.366  1.00  0.00     0.091 A 
ATOM     90  F   UNL A   1      45.358  24.120  34.132  1.00  0.00    -0.205 F 
ATOM     91  C   UNL A   1      48.993  24.514  33.976  1.00  0.00     0.022 A 
BRANCH  89  92
ATOM     92  S   UNL A   1      47.686  22.776  35.640  1.00  0.00     0.127 S 
ATOM     93  O   UNL A   1      46.912  23.437  36.690  1.00  0.00    -0.237 OA
ATOM     94  O   UNL A   1      46.988  21.681  34.965  1.00  0.00    -0.237 OA
ATOM     95  O   UNL A   1      49.075  22.493  35.973  1.00  0.00    -0.744 OA
ENDBRANCH  89  92
ENDBRANCH  62  85
ENDBRANCH  36  37
ENDBRANCH  28  31
ENDBRANCH  26  27
ENDBRANCH  25  26
ENDBRANCH  24  25
ENDBRANCH   1  24
TORSDOF 21
ENDMDL
MODEL 2
REMARK VINA RESULT:     -10.4      3.607      8.524
REMARK SMILES CCCC1(CCC)CN(c2cncc(C(=O)NCCCCCCNC(=O)c3ccc(-c4c5nc(c(-c6cccc(S(=O)(=O)[O-])c6F)c6ccc([nH]6)c(-c6cccc(S(=O)(=O)[O-])c6F)c6nc(c(-c7cccc(S(=O)(=O)[O-])c7F)c7ccc4[nH]7)C=C6)C=C5)cc3)c2)C1
REMARK SMILES IDX 20 1 19 2 18 3 17 4 15 5 16 6 14 8 10 9 11 10 90 11 12 12
REMARK SMILES IDX 13 13 9 14 4 15 8 16 91 17 3 18 2 19 1 20 5 21 6 22 7 23
REMARK SMILES IDX 21 24 22 25 23 26 24 27 25 28 26 30 27 31 28 32 89 33 29 34
REMARK SMILES IDX 88 35 30 36 31 37 32 38 82 39 33 40 87 41 81 42 83 43 34 44
REMARK SMILES IDX 86 45 80 46 79 47 35 49 67 50 47 51 66 52 48 53 51 54 65 55
REMARK SMILES IDX 84 56 49 57 50 58 64 60 85 61 52 62 36 63 37 64 45 65 38 66
REMARK SMILES IDX 40 67 46 68 39 69 41 70 42 71 43 72 44 73 68 74 69 75 77 76
REMARK SMILES IDX 70 77 72 78 78 79 71 80 73 81 74 82 75 83 76 84 53 85 54 86
REMARK SMILES IDX 62 87 55 88 57 89 63 90 56 91 58 92 59 93 60 94 61 95
REMARK H PARENT 17 7 24 29 83 48 51 59
REMARK Flexibility Score: inf
ROOT
ATOM      1  C   UNL A   1      35.198  30.036  27.600  1.00  0.00     0.002 C 
ENDROOT
BRANCH   1   2
ATOM      2  C   UNL A   1      34.573  29.130  26.528  1.00  0.00     0.021 C 
BRANCH   2   3
ATOM      3  C   UNL A   1      33.269  28.477  26.994  1.00  0.00     0.116 C 
BRANCH   3   4
ATOM      4  N   UNL A   1      32.189  28.838  26.098  1.00  0.00    -0.352 N 
ATOM      5  C   UNL A   1      31.801  28.397  24.860  1.00  0.00     0.252 C 
ATOM      6  O   UNL A   1      30.832  28.963  24.349  1.00  0.00    -0.269 OA
ATOM      7  H   UNL A   1      31.612  29.552  26.453  1.00  0.00     0.163 HD
BRANCH   5   8
ATOM      8  C   UNL A   1      32.426  27.261  24.137  1.00  0.00     0.060 A 
ATOM      9  C   UNL A   1      33.638  25.170  23.923  1.00  0.00     0.056 A 
ATOM     10  C   UNL A   1      33.320  25.188  22.568  1.00  0.00     0.136 A 
ATOM     11  C   UNL A   1      33.235  26.268  24.688  1.00  0.00     0.043 A 
ATOM     12  N   UNL A   1      32.610  26.170  21.964  1.00  0.00    -0.262 NA
ATOM     13  C   UNL A   1      32.166  27.167  22.770  1.00  0.00     0.125 A 
BRANCH   9  14
ATOM     14  N   UNL A   1      34.281  24.061  24.496  1.00  0.00    -0.369 N 
ATOM     15  C   UNL A   1      34.406  22.059  25.146  1.00  0.00     0.005 C 
ATOM     16  C   UNL A   1      33.908  23.419  25.718  1.00  0.00     0.125 C 
ATOM     17  C   UNL A   1      34.676  22.850  23.838  1.00  0.00     0.125 C 
BRANCH  15  18
ATOM     18  C   UNL A   1      35.535  21.499  26.042  1.00  0.00     0.010 C 
BRANCH  18  19
ATOM     19  C   UNL A   1      36.775  20.976  25.318  1.00  0.00    -0.003 C 
ATOM     20  C   UNL A   1      37.958  21.931  25.360  1.00  0.00     0.004 C 
ENDBRANCH  18  19
ENDBRANCH  15  18
BRANCH  15  21
ATOM     21  C   UNL A   1      33.230  21.056  24.995  1.00  0.00     0.010 C 
BRANCH  21  22
ATOM     22  C   UNL A   1      33.587  19.730  24.303  1.00  0.00    -0.003 C 
ATOM     23  C   UNL A   1      32.417  18.950  23.728  1.00  0.00     0.004 C 
ENDBRANCH  21  22
ENDBRANCH  15  21
ENDBRANCH   9  14
ENDBRANCH   5   8
ENDBRANCH   3   4
ENDBRANCH   2   3
ENDBRANCH   1   2
BRANCH   1  24
ATOM     24  C   UNL A   1      34.219  31.018  28.256  1.00  0.00     0.002 C 
BRANCH  24  25
ATOM     25  C   UNL A   1      33.880  32.247  27.409  1.00  0.00     0.021 C 
BRANCH  25  26
ATOM     26  C   UNL A   1      32.524  32.864  27.730  1.00  0.00     0.116 C 
BRANCH  26  27
ATOM     27  N   UNL A   1      32.617  34.311  27.858  1.00  0.00    -0.352 N 
ATOM     28  C   UNL A   1      33.404  35.054  28.700  1.00  0.00     0.251 C 
ATOM     29  H   UNL A   1      32.034  34.828  27.256  1.00  0.00     0.163 HD
ATOM     30  O   UNL A   1      33.176  36.248  28.860  1.00  0.00    -0.269 OA
BRANCH  28  31
ATOM     31  C   UNL A   1      34.527  34.407  29.410  1.00  0.00     0.039 A 
ATOM     32  C   UNL A   1      35.806  34.456  28.848  1.00  0.00     0.014 A 
ATOM     33  C   UNL A   1      34.311  33.736  30.616  1.00  0.00     0.014 A 
ATOM     34  C   UNL A   1      36.875  33.859  29.518  1.00  0.00     0.010 A 
ATOM     35  C   UNL A   1      35.390  33.210  31.319  1.00  0.00     0.010 A 
ATOM     36  C   UNL A   1      36.679  33.247  30.768  1.00  0.00    -0.014 A 
BRANCH  36  37
ATOM     37  C   UNL A   1      37.803  32.616  31.502  1.00  0.00     0.031 A 
ATOM     38  C   UNL A   1      38.536  31.449  30.896  1.00  0.00     0.074 A 
ATOM     39  C   UNL A   1      38.111  33.039  32.744  1.00  0.00     0.049 A 
ATOM     40  N   UNL A   1      39.498  30.725  31.405  1.00  0.00    -0.248 NA
ATOM     41  C   UNL A   1      38.113  31.020  29.551  1.00  0.00     0.031 C 
ATOM     42  C   UNL A   1      37.425  34.112  33.468  1.00  0.00     0.029 A 
ATOM     43  N   UNL A   1      39.064  32.600  33.628  1.00  0.00    -0.354 N 
ATOM     44  C   UNL A   1      39.769  29.737  30.466  1.00  0.00     0.074 A 
ATOM     45  C   UNL A   1      38.844  29.930  29.372  1.00  0.00     0.031 C 
ATOM     46  C   UNL A   1      37.982  34.250  34.682  1.00  0.00     0.029 A 
ATOM     47  C   UNL A   1      39.041  33.257  34.836  1.00  0.00     0.049 A 
ATOM     48  H   UNL A   1      39.705  31.882  33.417  1.00  0.00     0.167 HD
ATOM     49  C   UNL A   1      40.721  28.775  30.496  1.00  0.00     0.034 A 
ATOM     50  C   UNL A   1      39.785  33.075  35.945  1.00  0.00     0.034 A 
ATOM     51  C   UNL A   1      41.668  28.616  31.565  1.00  0.00     0.049 A 
ATOM     52  C   UNL A   1      40.862  32.023  35.935  1.00  0.00     0.074 A 
ATOM     53  C   UNL A   1      42.725  27.728  31.654  1.00  0.00     0.029 A 
ATOM     54  N   UNL A   1      41.670  29.360  32.736  1.00  0.00    -0.354 N 
ATOM     55  N   UNL A   1      41.200  31.196  34.976  1.00  0.00    -0.248 NA
ATOM     56  C   UNL A   1      41.686  31.906  37.147  1.00  0.00     0.031 C 
ATOM     57  C   UNL A   1      43.349  27.916  32.891  1.00  0.00     0.029 A 
ATOM     58  C   UNL A   1      42.704  28.946  33.556  1.00  0.00     0.049 A 
ATOM     59  H   UNL A   1      41.030  30.077  32.950  1.00  0.00     0.167 HD
ATOM     60  C   UNL A   1      42.301  30.492  35.451  1.00  0.00     0.074 A 
ATOM     61  C   UNL A   1      42.582  31.002  36.777  1.00  0.00     0.031 C 
ATOM     62  C   UNL A   1      43.007  29.503  34.849  1.00  0.00     0.034 A 
BRANCH  49  63
ATOM     63  C   UNL A   1      40.819  27.848  29.312  1.00  0.00     0.023 A 
ATOM     64  C   UNL A   1      39.998  26.703  29.252  1.00  0.00     0.012 A 
ATOM     65  C   UNL A   1      41.675  28.139  28.232  1.00  0.00     0.148 A 
ATOM     66  C   UNL A   1      40.054  25.842  28.157  1.00  0.00     0.002 A 
ATOM     67  C   UNL A   1      41.690  27.303  27.122  1.00  0.00     0.091 A 
ATOM     68  F   UNL A   1      42.463  29.220  28.315  1.00  0.00    -0.205 F 
ATOM     69  C   UNL A   1      40.891  26.148  27.088  1.00  0.00     0.022 A 
BRANCH  67  70
ATOM     70  S   UNL A   1      42.673  27.652  25.659  1.00  0.00     0.127 S 
ATOM     71  O   UNL A   1      42.398  26.478  24.832  1.00  0.00    -0.237 OA
ATOM     72  O   UNL A   1      42.070  28.894  25.174  1.00  0.00    -0.237 OA
ATOM     73  O   UNL A   1      44.048  27.783  26.119  1.00  0.00    -0.744 OA
ENDBRANCH  67  70
ENDBRANCH  49  63
BRANCH  50  74
ATOM     74  C   UNL A   1      39.577  33.947  37.135  1.00  0.00     0.023 A 
ATOM     75  C   UNL A   1      39.994  35.292  37.090  1.00  0.00     0.012 A 
ATOM     76  C   UNL A   1      38.958  33.459  38.302  1.00  0.00     0.148 A 
ATOM     77  C   UNL A   1      39.834  36.124  38.199  1.00  0.00     0.002 A 
ATOM     78  C   UNL A   1      38.750  34.308  39.382  1.00  0.00     0.091 A 
ATOM     79  F   UNL A   1      38.577  32.174  38.328  1.00  0.00    -0.205 F 
ATOM     80  C   UNL A   1      39.204  35.635  39.341  1.00  0.00     0.022 A 
BRANCH  78  81
ATOM     81  S   UNL A   1      37.832  33.801  40.840  1.00  0.00     0.127 S 
ATOM     82  O   UNL A   1      38.783  32.909  41.498  1.00  0.00    -0.237 OA
ATOM     83  O   UNL A   1      37.613  35.079  41.519  1.00  0.00    -0.237 OA
ATOM     84  O   UNL A   1      36.616  33.173  40.341  1.00  0.00    -0.744 OA
ENDBRANCH  78  81
ENDBRANCH  50  74
BRANCH  62  85
ATOM     85  C   UNL A   1      44.190  28.937  35.590  1.00  0.00     0.023 A 
ATOM     86  C   UNL A   1      45.452  29.555  35.481  1.00  0.00     0.012 A 
ATOM     87  C   UNL A   1      44.029  27.838  36.457  1.00  0.00     0.148 A 
ATOM     88  C   UNL A   1      46.544  29.064  36.196  1.00  0.00     0.002 A 
ATOM     89  C   UNL A   1      45.109  27.388  37.207  1.00  0.00     0.091 A 
ATOM     90  F   UNL A   1      42.825  27.255  36.534  1.00  0.00    -0.205 F 
ATOM     91  C   UNL A   1      46.370  27.990  37.067  1.00  0.00     0.022 A 
BRANCH  89  92
ATOM     92  S   UNL A   1      44.954  26.080  38.427  1.00  0.00     0.127 S 
ATOM     93  O   UNL A   1      44.136  26.726  39.454  1.00  0.00    -0.237 OA
ATOM     94  O   UNL A   1      44.270  25.030  37.672  1.00  0.00    -0.237 OA
ATOM     95  O   UNL A   1      46.313  25.746  38.832  1.00  0.00    -0.744 OA
ENDBRANCH  89  92
ENDBRANCH  62  85
ENDBRANCH  36  37
ENDBRANCH  28  31
ENDBRANCH  26  27
ENDBRANCH  25  26
ENDBRANCH  24  25
ENDBRANCH   1  24
TORSDOF 21
ENDMDL
MODEL 3
REMARK VINA RESULT:     -10.4      2.824      8.066
REMARK SMILES CCCC1(CCC)CN(c2cncc(C(=O)NCCCCCCNC(=O)c3ccc(-c4c5nc(c(-c6cccc(S(=O)(=O)[O-])c6F)c6ccc([nH]6)c(-c6cccc(S(=O)(=O)[O-])c6F)c6nc(c(-c7cccc(S(=O)(=O)[O-])c7F)c7ccc4[nH]7)C=C6)C=C5)cc3)c2)C1
REMARK SMILES IDX 20 1 19 2 18 3 17 4 15 5 16 6 14 8 10 9 11 10 90 11 12 12
REMARK SMILES IDX 13 13 9 14 4 15 8 16 91 17 3 18 2 19 1 20 5 21 6 22 7 23
REMARK SMILES IDX 21 24 22 25 23 26 24 27 25 28 26 30 27 31 28 32 89 33 29 34
REMARK SMILES IDX 88 35 30 36 31 37 32 38 82 39 33 40 87 41 81 42 83 43 34 44
REMARK SMILES IDX 86 45 80 46 79 47 35 49 67 50 47 51 66 52 48 53 51 54 65 55
REMARK SMILES IDX 84 56 49 57 50 58 64 60 85 61 52 62 36 63 37 64 45 65 38 66
REMARK SMILES IDX 40 67 46 68 39 69 41 70 42 71 43 72 44 73 68 74 69 75 77 76
REMARK SMILES IDX 70 77 72 78 78 79 71 80 73 81 74 82 75 83 76 84 53 85 54 86
REMARK SMILES IDX 62 87 55 88 57 89 63 90 56 91 58 92 59 93 60 94 61 95
REMARK H PARENT 17 7 24 29 83 48 51 59
REMARK Flexibility Score: inf
ROOT
ATOM      1  C   UNL A   1      33.343  28.343  24.884  1.00  0.00     0.002 C 
ENDROOT
BRANCH   1   2
ATOM      2  C   UNL A   1      32.857  29.246  23.740  1.00  0.00     0.021 C 
BRANCH   2   3
ATOM      3  C   UNL A   1      31.407  28.963  23.340  1.00  0.00     0.116 C 
BRANCH   3   4
ATOM      4  N   UNL A   1      31.376  28.107  22.170  1.00  0.00    -0.352 N 
ATOM      5  C   UNL A   1      31.367  26.749  21.993  1.00  0.00     0.252 C 
ATOM      6  O   UNL A   1      31.379  26.342  20.830  1.00  0.00    -0.269 OA
ATOM      7  H   UNL A   1      31.357  28.608  21.324  1.00  0.00     0.163 HD
BRANCH   5   8
ATOM      8  C   UNL A   1      31.285  25.756  23.095  1.00  0.00     0.060 A 
ATOM      9  C   UNL A   1      31.964  23.813  24.379  1.00  0.00     0.056 A 
ATOM     10  C   UNL A   1      31.021  24.184  25.333  1.00  0.00     0.136 A 
ATOM     11  C   UNL A   1      32.033  24.587  23.216  1.00  0.00     0.043 A 
ATOM     12  N   UNL A   1      30.209  25.261  25.226  1.00  0.00    -0.262 NA
ATOM     13  C   UNL A   1      30.379  26.028  24.119  1.00  0.00     0.125 A 
BRANCH   9  14
ATOM     14  N   UNL A   1      32.847  22.747  24.614  1.00  0.00    -0.369 N 
ATOM     15  C   UNL A   1      33.462  20.732  24.528  1.00  0.00     0.005 C 
ATOM     16  C   UNL A   1      32.593  21.624  25.462  1.00  0.00     0.125 C 
ATOM     17  C   UNL A   1      33.582  21.997  23.638  1.00  0.00     0.125 C 
BRANCH  15  18
ATOM     18  C   UNL A   1      34.651  20.145  25.326  1.00  0.00     0.010 C 
BRANCH  18  19
ATOM     19  C   UNL A   1      35.896  21.025  25.427  1.00  0.00    -0.003 C 
ATOM     20  C   UNL A   1      37.160  20.363  24.902  1.00  0.00     0.004 C 
ENDBRANCH  18  19
ENDBRANCH  15  18
BRANCH  15  21
ATOM     21  C   UNL A   1      32.604  19.622  23.862  1.00  0.00     0.010 C 
BRANCH  21  22
ATOM     22  C   UNL A   1      32.961  18.185  24.273  1.00  0.00    -0.003 C 
ATOM     23  C   UNL A   1      33.514  17.300  23.168  1.00  0.00     0.004 C 
ENDBRANCH  21  22
ENDBRANCH  15  21
ENDBRANCH   9  14
ENDBRANCH   5   8
ENDBRANCH   3   4
ENDBRANCH   2   3
ENDBRANCH   1   2
BRANCH   1  24
ATOM     24  C   UNL A   1      33.440  29.037  26.248  1.00  0.00     0.002 C 
BRANCH  24  25
ATOM     25  C   UNL A   1      33.354  30.565  26.197  1.00  0.00     0.021 C 
BRANCH  25  26
ATOM     26  C   UNL A   1      32.161  31.141  26.950  1.00  0.00     0.116 C 
BRANCH  26  27
ATOM     27  N   UNL A   1      32.191  32.597  26.955  1.00  0.00    -0.352 N 
ATOM     28  C   UNL A   1      32.997  33.441  27.674  1.00  0.00     0.251 C 
ATOM     29  H   UNL A   1      31.541  33.036  26.358  1.00  0.00     0.163 HD
ATOM     30  O   UNL A   1      32.721  34.633  27.755  1.00  0.00    -0.269 OA
BRANCH  28  31
ATOM     31  C   UNL A   1      34.198  32.905  28.348  1.00  0.00     0.039 A 
ATOM     32  C   UNL A   1      35.460  33.351  27.947  1.00  0.00     0.014 A 
ATOM     33  C   UNL A   1      34.076  31.948  29.359  1.00  0.00     0.014 A 
ATOM     34  C   UNL A   1      36.599  32.860  28.587  1.00  0.00     0.010 A 
ATOM     35  C   UNL A   1      35.206  31.520  30.047  1.00  0.00     0.010 A 
ATOM     36  C   UNL A   1      36.481  31.954  29.654  1.00  0.00    -0.014 A 
BRANCH  36  37
ATOM     37  C   UNL A   1      37.677  31.428  30.356  1.00  0.00     0.031 A 
ATOM     38  C   UNL A   1      38.539  30.385  29.693  1.00  0.00     0.074 A 
ATOM     39  C   UNL A   1      37.943  31.826  31.615  1.00  0.00     0.049 A 
ATOM     40  N   UNL A   1      39.584  29.758  30.165  1.00  0.00    -0.248 NA
ATOM     41  C   UNL A   1      38.159  29.973  28.331  1.00  0.00     0.031 C 
ATOM     42  C   UNL A   1      37.140  32.775  32.390  1.00  0.00     0.029 A 
ATOM     43  N   UNL A   1      38.948  31.464  32.475  1.00  0.00    -0.354 N 
ATOM     44  C   UNL A   1      39.962  28.855  29.180  1.00  0.00     0.074 A 
ATOM     45  C   UNL A   1      39.012  28.987  28.098  1.00  0.00     0.031 C 
ATOM     46  C   UNL A   1      37.686  32.922  33.608  1.00  0.00     0.029 A 
ATOM     47  C   UNL A   1      38.857  32.056  33.713  1.00  0.00     0.049 A 
ATOM     48  H   UNL A   1      39.668  30.837  32.229  1.00  0.00     0.167 HD
ATOM     49  C   UNL A   1      41.022  28.012  29.162  1.00  0.00     0.034 A 
ATOM     50  C   UNL A   1      39.626  31.912  34.810  1.00  0.00     0.034 A 
ATOM     51  C   UNL A   1      41.989  27.918  30.221  1.00  0.00     0.049 A 
ATOM     52  C   UNL A   1      40.820  30.998  34.748  1.00  0.00     0.074 A 
ATOM     53  C   UNL A   1      43.145  27.159  30.265  1.00  0.00     0.029 A 
ATOM     54  N   UNL A   1      41.913  28.601  31.425  1.00  0.00    -0.354 N 
ATOM     55  N   UNL A   1      41.247  30.263  33.751  1.00  0.00    -0.248 NA
ATOM     56  C   UNL A   1      41.661  30.923  35.951  1.00  0.00     0.031 C 
ATOM     57  C   UNL A   1      43.753  27.361  31.508  1.00  0.00     0.029 A 
ATOM     58  C   UNL A   1      42.996  28.276  32.223  1.00  0.00     0.049 A 
ATOM     59  H   UNL A   1      41.194  29.226  31.675  1.00  0.00     0.167 HD
ATOM     60  C   UNL A   1      42.427  29.673  34.189  1.00  0.00     0.074 A 
ATOM     61  C   UNL A   1      42.656  30.151  35.537  1.00  0.00     0.031 C 
ATOM     62  C   UNL A   1      43.240  28.804  33.540  1.00  0.00     0.034 A 
BRANCH  49  63
ATOM     63  C   UNL A   1      41.220  27.159  27.936  1.00  0.00     0.023 A 
ATOM     64  C   UNL A   1      41.789  27.724  26.776  1.00  0.00     0.012 A 
ATOM     65  C   UNL A   1      40.901  25.787  27.950  1.00  0.00     0.148 A 
ATOM     66  C   UNL A   1      42.001  26.949  25.637  1.00  0.00     0.002 A 
ATOM     67  C   UNL A   1      41.161  25.010  26.827  1.00  0.00     0.091 A 
ATOM     68  F   UNL A   1      40.342  25.271  29.054  1.00  0.00    -0.205 F 
ATOM     69  C   UNL A   1      41.699  25.591  25.666  1.00  0.00     0.022 A 
BRANCH  67  70
ATOM     70  S   UNL A   1      40.883  23.235  26.790  1.00  0.00     0.127 S 
ATOM     71  O   UNL A   1      41.411  22.827  28.092  1.00  0.00    -0.237 OA
ATOM     72  O   UNL A   1      39.427  23.155  26.670  1.00  0.00    -0.237 OA
ATOM     73  O   UNL A   1      41.617  22.736  25.636  1.00  0.00    -0.744 OA
ENDBRANCH  67  70
ENDBRANCH  49  63
BRANCH  50  74
ATOM     74  C   UNL A   1      39.325  32.697  36.041  1.00  0.00     0.023 A 
ATOM     75  C   UNL A   1      39.886  33.981  36.198  1.00  0.00     0.012 A 
ATOM     76  C   UNL A   1      38.479  32.190  37.045  1.00  0.00     0.148 A 
ATOM     77  C   UNL A   1      39.641  34.727  37.351  1.00  0.00     0.002 A 
ATOM     78  C   UNL A   1      38.193  32.961  38.165  1.00  0.00     0.091 A 
ATOM     79  F   UNL A   1      37.963  30.963  36.880  1.00  0.00    -0.205 F 
ATOM     80  C   UNL A   1      38.788  34.222  38.330  1.00  0.00     0.022 A 
BRANCH  78  81
ATOM     81  S   UNL A   1      37.006  32.446  39.410  1.00  0.00     0.127 S 
ATOM     82  O   UNL A   1      37.444  31.084  39.696  1.00  0.00    -0.237 OA
ATOM     83  O   UNL A   1      37.252  33.413  40.481  1.00  0.00    -0.237 OA
ATOM     84  O   UNL A   1      35.698  32.572  38.781  1.00  0.00    -0.744 OA
ENDBRANCH  78  81
ENDBRANCH  50  74
BRANCH  62  85
ATOM     85  C   UNL A   1      44.488  28.349  34.251  1.00  0.00     0.023 A 
ATOM     86  C   UNL A   1      45.677  29.096  34.136  1.00  0.00     0.012 A 
ATOM     87  C   UNL A   1      44.457  27.222  35.095  1.00  0.00     0.148 A 
ATOM     88  C   UNL A   1      46.826  28.707  34.824  1.00  0.00     0.002 A 
ATOM     89  C   UNL A   1      45.589  26.871  35.819  1.00  0.00     0.091 A 
ATOM     90  F   UNL A   1      43.320  26.515  35.177  1.00  0.00    -0.205 F 
ATOM     91  C   UNL A   1      46.779  27.603  35.674  1.00  0.00     0.022 A 
BRANCH  89  92
ATOM     92  S   UNL A   1      45.592  25.530  37.012  1.00  0.00     0.127 S 
ATOM     93  O   UNL A   1      45.482  24.358  36.144  1.00  0.00    -0.237 OA
ATOM     94  O   UNL A   1      46.895  25.691  37.658  1.00  0.00    -0.237 OA
ATOM     95  O   UNL A   1      44.451  25.768  37.887  1.00  0.00    -0.744 OA
ENDBRANCH  89  92
ENDBRANCH  62  85
ENDBRANCH  36  37
ENDBRANCH  28  31
ENDBRANCH  26  27
ENDBRANCH  25  26
ENDBRANCH  24  25
ENDBRANCH   1  24
TORSDOF 21
ENDMDL
