MODEL 1
REMARK VINA RESULT:     -11.4      0.000      0.000
REMARK SMILES CC(C)(C)c1cc2c(cc1Cl)C=C(C(=O)NCCCCCCNC(=O)c1ccc(-c3c4nc(c(-c5cccc(S(=O)(=O)[O-])c5F)c5ccc([nH]5)c(-c5cccc(S(=O)(=O)[O-])c5F)c5nc(c(-c6cccc(S(=O)(=O)[O-])c6F)c6ccc3[nH]6)C=C5)C=C4)cc1)[C@@H](C(F)(F)F)O2
REMARK SMILES IDX 20 1 19 2 18 3 17 4 16 5 14 6 15 7 13 9 5 10 6 11 10 12 7 13
REMARK SMILES IDX 9 14 11 15 8 16 94 17 12 18 89 19 2 20 1 21 3 22 4 23 90 24
REMARK SMILES IDX 91 25 92 26 93 27 21 28 22 29 23 30 24 31 25 33 26 34 27 35
REMARK SMILES IDX 88 36 28 37 87 38 29 39 30 40 31 41 81 42 32 43 86 44 80 45
REMARK SMILES IDX 82 46 33 47 85 48 79 49 78 50 34 52 66 53 46 54 65 55 47 56
REMARK SMILES IDX 50 57 64 58 83 59 48 60 49 61 63 63 84 64 51 65 35 66 36 67
REMARK SMILES IDX 44 68 37 69 39 70 45 71 38 72 40 73 41 74 42 75 43 76 67 77
REMARK SMILES IDX 68 78 76 79 69 80 71 81 77 82 70 83 72 84 73 85 74 86 75 87
REMARK SMILES IDX 52 88 53 89 61 90 54 91 56 92 62 93 55 94 57 95 58 96 59 97
REMARK SMILES IDX 60 98
REMARK H PARENT 16 8 23 32 82 51 50 62
REMARK Flexibility Score: inf
ROOT
ATOM      1  C   UNL A   1      33.857  31.037  27.360  1.00  0.00     0.002 C 
ENDROOT
BRANCH   1   2
ATOM      2  C   UNL A   1      33.217  29.646  27.254  1.00  0.00     0.002 C 
BRANCH   2   3
ATOM      3  C   UNL A   1      31.770  29.618  26.749  1.00  0.00     0.021 C 
BRANCH   3   4
ATOM      4  C   UNL A   1      31.576  30.232  25.366  1.00  0.00     0.116 C 
BRANCH   4   5
ATOM      5  N   UNL A   1      30.646  29.462  24.555  1.00  0.00    -0.352 N 
ATOM      6  C   UNL A   1      30.632  28.264  23.927  1.00  0.00     0.251 C 
ATOM      7  O   UNL A   1      29.573  27.987  23.353  1.00  0.00    -0.270 OA
ATOM      8  H   UNL A   1      29.798  29.944  24.429  1.00  0.00     0.163 HD
BRANCH   6   9
ATOM      9  C   UNL A   1      31.770  27.296  23.875  1.00  0.00     0.067 C 
ATOM     10  C   UNL A   1      34.992  23.474  24.901  1.00  0.00    -0.020 A 
ATOM     11  C   UNL A   1      34.716  24.321  23.798  1.00  0.00     0.053 A 
ATOM     12  C   UNL A   1      34.216  23.707  26.056  1.00  0.00     0.045 A 
ATOM     13  C   UNL A   1      33.726  25.301  23.826  1.00  0.00     0.128 A 
ATOM     14  C   UNL A   1      33.208  24.696  26.073  1.00  0.00     0.032 A 
ATOM     15  Cl  UNL A   1      34.376  22.859  27.554  1.00  0.00    -0.084 Cl
ATOM     16  C   UNL A   1      32.952  25.488  24.956  1.00  0.00     0.019 A 
ATOM     17  O   UNL A   1      33.547  26.004  22.674  1.00  0.00    -0.475 OA
ATOM     18  C   UNL A   1      31.871  26.464  24.929  1.00  0.00     0.025 C 
ATOM     19  C   UNL A   1      32.785  27.237  22.765  1.00  0.00     0.314 C 
BRANCH  10  20
ATOM     20  C   UNL A   1      36.098  22.412  24.679  1.00  0.00    -0.012 C 
ATOM     21  C   UNL A   1      37.267  22.370  25.682  1.00  0.00     0.016 C 
ATOM     22  C   UNL A   1      36.731  22.630  23.283  1.00  0.00     0.016 C 
ATOM     23  C   UNL A   1      35.463  20.995  24.726  1.00  0.00     0.016 C 
ENDBRANCH  10  20
BRANCH  19  24
ATOM     24  C   UNL A   1      33.764  28.423  22.799  1.00  0.00     0.429 C 
ATOM     25  F   UNL A   1      33.117  29.584  22.535  1.00  0.00    -0.167 F 
ATOM     26  F   UNL A   1      34.351  28.578  24.009  1.00  0.00    -0.167 F 
ATOM     27  F   UNL A   1      34.759  28.295  21.892  1.00  0.00    -0.167 F 
ENDBRANCH  19  24
ENDBRANCH   6   9
ENDBRANCH   4   5
ENDBRANCH   3   4
ENDBRANCH   2   3
ENDBRANCH   1   2
BRANCH   1  28
ATOM     28  C   UNL A   1      32.956  32.145  27.912  1.00  0.00     0.021 C 
BRANCH  28  29
ATOM     29  C   UNL A   1      33.239  33.540  27.367  1.00  0.00     0.116 C 
BRANCH  29  30
ATOM     30  N   UNL A   1      32.969  34.584  28.340  1.00  0.00    -0.352 N 
ATOM     31  C   UNL A   1      33.538  34.779  29.577  1.00  0.00     0.251 C 
ATOM     32  H   UNL A   1      32.286  35.243  28.078  1.00  0.00     0.163 HD
ATOM     33  O   UNL A   1      33.084  35.631  30.335  1.00  0.00    -0.269 OA
BRANCH  31  34
ATOM     34  C   UNL A   1      34.672  33.929  29.995  1.00  0.00     0.039 A 
ATOM     35  C   UNL A   1      34.477  32.871  30.886  1.00  0.00     0.014 A 
ATOM     36  C   UNL A   1      35.953  34.220  29.514  1.00  0.00     0.014 A 
ATOM     37  C   UNL A   1      35.577  32.200  31.412  1.00  0.00     0.010 A 
ATOM     38  C   UNL A   1      37.049  33.498  29.992  1.00  0.00     0.010 A 
ATOM     39  C   UNL A   1      36.876  32.514  30.979  1.00  0.00    -0.014 A 
BRANCH  39  40
ATOM     40  C   UNL A   1      38.042  31.806  31.566  1.00  0.00     0.031 A 
ATOM     41  C   UNL A   1      38.552  32.169  32.936  1.00  0.00     0.074 A 
ATOM     42  C   UNL A   1      38.632  30.816  30.869  1.00  0.00     0.049 A 
ATOM     43  N   UNL A   1      39.570  31.673  33.589  1.00  0.00    -0.248 NA
ATOM     44  C   UNL A   1      37.829  33.224  33.666  1.00  0.00     0.031 C 
ATOM     45  C   UNL A   1      38.236  30.378  29.529  1.00  0.00     0.029 A 
ATOM     46  N   UNL A   1      39.684  29.997  31.190  1.00  0.00    -0.354 N 
ATOM     47  C   UNL A   1      39.639  32.381  34.784  1.00  0.00     0.074 A 
ATOM     48  C   UNL A   1      38.557  33.340  34.770  1.00  0.00     0.031 C 
ATOM     49  C   UNL A   1      39.014  29.352  29.155  1.00  0.00     0.029 A 
ATOM     50  C   UNL A   1      39.994  29.091  30.204  1.00  0.00     0.049 A 
ATOM     51  H   UNL A   1      40.170  30.053  32.044  1.00  0.00     0.167 HD
ATOM     52  C   UNL A   1      40.513  32.231  35.806  1.00  0.00     0.034 A 
ATOM     53  C   UNL A   1      40.966  28.160  30.143  1.00  0.00     0.034 A 
ATOM     54  C   UNL A   1      41.553  31.239  35.847  1.00  0.00     0.049 A 
ATOM     55  C   UNL A   1      41.914  28.009  31.295  1.00  0.00     0.074 A 
ATOM     56  C   UNL A   1      42.458  30.988  36.863  1.00  0.00     0.029 A 
ATOM     57  N   UNL A   1      41.823  30.332  34.836  1.00  0.00    -0.354 N 
ATOM     58  N   UNL A   1      41.921  28.646  32.440  1.00  0.00    -0.248 NA
ATOM     59  C   UNL A   1      42.981  27.008  31.154  1.00  0.00     0.031 C 
ATOM     60  C   UNL A   1      43.277  29.925  36.466  1.00  0.00     0.029 A 
ATOM     61  C   UNL A   1      42.878  29.516  35.204  1.00  0.00     0.049 A 
ATOM     62  H   UNL A   1      41.335  30.275  33.982  1.00  0.00     0.167 HD
ATOM     63  C   UNL A   1      42.986  28.119  33.161  1.00  0.00     0.074 A 
ATOM     64  C   UNL A   1      43.587  27.093  32.332  1.00  0.00     0.031 C 
ATOM     65  C   UNL A   1      43.437  28.471  34.387  1.00  0.00     0.034 A 
BRANCH  52  66
ATOM     66  C   UNL A   1      40.357  33.125  37.005  1.00  0.00     0.023 A 
ATOM     67  C   UNL A   1      39.368  32.824  37.961  1.00  0.00     0.012 A 
ATOM     68  C   UNL A   1      41.246  34.193  37.234  1.00  0.00     0.148 A 
ATOM     69  C   UNL A   1      39.259  33.578  39.128  1.00  0.00     0.002 A 
ATOM     70  C   UNL A   1      41.148  34.925  38.412  1.00  0.00     0.091 A 
ATOM     71  F   UNL A   1      42.169  34.467  36.302  1.00  0.00    -0.205 F 
ATOM     72  C   UNL A   1      40.154  34.621  39.359  1.00  0.00     0.022 A 
BRANCH  70  73
ATOM     73  S   UNL A   1      42.281  36.255  38.831  1.00  0.00     0.127 S 
ATOM     74  O   UNL A   1      41.614  36.855  39.986  1.00  0.00    -0.237 OA
ATOM     75  O   UNL A   1      43.508  35.523  39.147  1.00  0.00    -0.237 OA
ATOM     76  O   UNL A   1      42.361  37.104  37.651  1.00  0.00    -0.744 OA
ENDBRANCH  70  73
ENDBRANCH  52  66
BRANCH  53  77
ATOM     77  C   UNL A   1      41.045  27.273  28.951  1.00  0.00     0.023 A 
ATOM     78  C   UNL A   1      40.105  26.237  28.806  1.00  0.00     0.012 A 
ATOM     79  C   UNL A   1      41.985  27.505  27.930  1.00  0.00     0.148 A 
ATOM     80  C   UNL A   1      40.099  25.443  27.659  1.00  0.00     0.002 A 
ATOM     81  C   UNL A   1      41.946  26.740  26.771  1.00  0.00     0.091 A 
ATOM     82  F   UNL A   1      42.875  28.493  28.099  1.00  0.00    -0.205 F 
ATOM     83  C   UNL A   1      41.011  25.701  26.638  1.00  0.00     0.022 A 
BRANCH  81  84
ATOM     84  S   UNL A   1      42.998  27.073  25.354  1.00  0.00     0.127 S 
ATOM     85  O   UNL A   1      42.972  25.792  24.655  1.00  0.00    -0.237 OA
ATOM     86  O   UNL A   1      42.269  28.154  24.690  1.00  0.00    -0.237 OA
ATOM     87  O   UNL A   1      44.290  27.465  25.903  1.00  0.00    -0.744 OA
ENDBRANCH  81  84
ENDBRANCH  53  77
BRANCH  65  88
ATOM     88  C   UNL A   1      44.641  27.751  34.924  1.00  0.00     0.023 A 
ATOM     89  C   UNL A   1      45.915  28.330  34.759  1.00  0.00     0.012 A 
ATOM     90  C   UNL A   1      44.504  26.570  35.677  1.00  0.00     0.148 A 
ATOM     91  C   UNL A   1      47.038  27.737  35.332  1.00  0.00     0.002 A 
ATOM     92  C   UNL A   1      45.625  26.001  36.270  1.00  0.00     0.091 A 
ATOM     93  F   UNL A   1      43.282  26.033  35.805  1.00  0.00    -0.205 F 
ATOM     94  C   UNL A   1      46.893  26.580  36.094  1.00  0.00     0.022 A 
BRANCH  92  95
ATOM     95  S   UNL A   1      45.526  24.553  37.329  1.00  0.00     0.127 S 
ATOM     96  O   UNL A   1      44.571  24.994  38.344  1.00  0.00    -0.237 OA
ATOM     97  O   UNL A   1      45.015  23.533  36.412  1.00  0.00    -0.237 OA
ATOM     98  O   UNL A   1      46.880  24.311  37.809  1.00  0.00    -0.744 OA
ENDBRANCH  92  95
ENDBRANCH  65  88
ENDBRANCH  39  40
ENDBRANCH  31  34
ENDBRANCH  29  30
ENDBRANCH  28  29
ENDBRANCH   1  28
TORSDOF 18
ENDMDL
MODEL 2
REMARK VINA RESULT:     -11.3      1.851      7.637
REMARK SMILES CC(C)(C)c1cc2c(cc1Cl)C=C(C(=O)NCCCCCCNC(=O)c1ccc(-c3c4nc(c(-c5cccc(S(=O)(=O)[O-])c5F)c5ccc([nH]5)c(-c5cccc(S(=O)(=O)[O-])c5F)c5nc(c(-c6cccc(S(=O)(=O)[O-])c6F)c6ccc3[nH]6)C=C5)C=C4)cc1)[C@@H](C(F)(F)F)O2
REMARK SMILES IDX 20 1 19 2 18 3 17 4 16 5 14 6 15 7 13 9 5 10 6 11 10 12 7 13
REMARK SMILES IDX 9 14 11 15 8 16 94 17 12 18 89 19 2 20 1 21 3 22 4 23 90 24
REMARK SMILES IDX 91 25 92 26 93 27 21 28 22 29 23 30 24 31 25 33 26 34 27 35
REMARK SMILES IDX 88 36 28 37 87 38 29 39 30 40 31 41 81 42 32 43 86 44 80 45
REMARK SMILES IDX 82 46 33 47 85 48 79 49 78 50 34 52 66 53 46 54 65 55 47 56
REMARK SMILES IDX 50 57 64 58 83 59 48 60 49 61 63 63 84 64 51 65 35 66 36 67
REMARK SMILES IDX 44 68 37 69 39 70 45 71 38 72 40 73 41 74 42 75 43 76 67 77
REMARK SMILES IDX 68 78 76 79 69 80 71 81 77 82 70 83 72 84 73 85 74 86 75 87
REMARK SMILES IDX 52 88 53 89 61 90 54 91 56 92 62 93 55 94 57 95 58 96 59 97
REMARK SMILES IDX 60 98
REMARK H PARENT 16 8 23 32 82 51 50 62
REMARK Flexibility Score: inf
ROOT
ATOM      1  C   UNL A   1      34.819  31.015  28.204  1.00  0.00     0.002 C 
ENDROOT
BRANCH   1   2
ATOM      2  C   UNL A   1      35.020  29.708  27.425  1.00  0.00     0.002 C 
BRANCH   2   3
ATOM      3  C   UNL A   1      33.740  29.021  26.939  1.00  0.00     0.021 C 
BRANCH   3   4
ATOM      4  C   UNL A   1      33.698  28.764  25.435  1.00  0.00     0.116 C 
BRANCH   4   5
ATOM      5  N   UNL A   1      32.336  28.702  24.931  1.00  0.00    -0.352 N 
ATOM      6  C   UNL A   1      31.496  27.756  24.452  1.00  0.00     0.251 C 
ATOM      7  O   UNL A   1      30.367  28.162  24.154  1.00  0.00    -0.270 OA
ATOM      8  H   UNL A   1      31.911  29.589  24.940  1.00  0.00     0.163 HD
BRANCH   6   9
ATOM      9  C   UNL A   1      31.831  26.312  24.260  1.00  0.00     0.067 C 
ATOM     10  C   UNL A   1      33.075  21.429  25.066  1.00  0.00    -0.020 A 
ATOM     11  C   UNL A   1      32.546  22.194  23.997  1.00  0.00     0.053 A 
ATOM     12  C   UNL A   1      33.372  22.150  26.242  1.00  0.00     0.045 A 
ATOM     13  C   UNL A   1      32.299  23.562  24.094  1.00  0.00     0.128 A 
ATOM     14  C   UNL A   1      33.110  23.534  26.336  1.00  0.00     0.032 A 
ATOM     15  Cl  UNL A   1      34.070  21.481  27.675  1.00  0.00    -0.084 Cl
ATOM     16  C   UNL A   1      32.563  24.243  25.268  1.00  0.00     0.019 A 
ATOM     17  O   UNL A   1      31.745  24.151  22.999  1.00  0.00    -0.475 OA
ATOM     18  C   UNL A   1      32.219  25.654  25.369  1.00  0.00     0.025 C 
ATOM     19  C   UNL A   1      31.793  25.601  22.934  1.00  0.00     0.314 C 
BRANCH  10  20
ATOM     20  C   UNL A   1      33.245  19.913  24.794  1.00  0.00    -0.012 C 
ATOM     21  C   UNL A   1      32.694  18.928  25.843  1.00  0.00     0.016 C 
ATOM     22  C   UNL A   1      34.753  19.595  24.649  1.00  0.00     0.016 C 
ATOM     23  C   UNL A   1      32.525  19.548  23.467  1.00  0.00     0.016 C 
ENDBRANCH  10  20
BRANCH  19  24
ATOM     24  C   UNL A   1      32.948  26.017  22.008  1.00  0.00     0.429 C 
ATOM     25  F   UNL A   1      32.855  27.330  21.689  1.00  0.00    -0.167 F 
ATOM     26  F   UNL A   1      34.162  25.849  22.584  1.00  0.00    -0.167 F 
ATOM     27  F   UNL A   1      32.960  25.316  20.852  1.00  0.00    -0.167 F 
ENDBRANCH  19  24
ENDBRANCH   6   9
ENDBRANCH   4   5
ENDBRANCH   3   4
ENDBRANCH   2   3
ENDBRANCH   1   2
BRANCH   1  28
ATOM     28  C   UNL A   1      33.531  31.783  27.897  1.00  0.00     0.021 C 
BRANCH  28  29
ATOM     29  C   UNL A   1      33.730  33.137  27.227  1.00  0.00     0.116 C 
BRANCH  29  30
ATOM     30  N   UNL A   1      33.024  34.207  27.910  1.00  0.00    -0.352 N 
ATOM     31  C   UNL A   1      33.237  34.713  29.171  1.00  0.00     0.251 C 
ATOM     32  H   UNL A   1      32.293  34.626  27.402  1.00  0.00     0.163 HD
ATOM     33  O   UNL A   1      32.447  35.522  29.650  1.00  0.00    -0.269 OA
BRANCH  31  34
ATOM     34  C   UNL A   1      34.402  34.247  29.952  1.00  0.00     0.039 A 
ATOM     35  C   UNL A   1      35.703  34.494  29.503  1.00  0.00     0.014 A 
ATOM     36  C   UNL A   1      34.187  33.524  31.128  1.00  0.00     0.014 A 
ATOM     37  C   UNL A   1      36.780  33.892  30.147  1.00  0.00     0.010 A 
ATOM     38  C   UNL A   1      35.277  32.979  31.812  1.00  0.00     0.010 A 
ATOM     39  C   UNL A   1      36.577  33.119  31.302  1.00  0.00    -0.014 A 
BRANCH  39  40
ATOM     40  C   UNL A   1      37.733  32.464  31.964  1.00  0.00     0.031 A 
ATOM     41  C   UNL A   1      38.477  31.345  31.284  1.00  0.00     0.074 A 
ATOM     42  C   UNL A   1      38.129  32.894  33.178  1.00  0.00     0.049 A 
ATOM     43  N   UNL A   1      39.490  30.646  31.726  1.00  0.00    -0.248 NA
ATOM     44  C   UNL A   1      38.027  30.959  29.936  1.00  0.00     0.031 C 
ATOM     45  C   UNL A   1      37.485  33.963  33.943  1.00  0.00     0.029 A 
ATOM     46  N   UNL A   1      39.167  32.490  33.979  1.00  0.00    -0.354 N 
ATOM     47  C   UNL A   1      39.771  29.712  30.736  1.00  0.00     0.074 A 
ATOM     48  C   UNL A   1      38.825  29.933  29.665  1.00  0.00     0.031 C 
ATOM     49  C   UNL A   1      38.159  34.152  35.087  1.00  0.00     0.029 A 
ATOM     50  C   UNL A   1      39.251  33.187  35.160  1.00  0.00     0.049 A 
ATOM     51  H   UNL A   1      39.791  31.771  33.730  1.00  0.00     0.167 HD
ATOM     52  C   UNL A   1      40.741  28.769  30.714  1.00  0.00     0.034 A 
ATOM     53  C   UNL A   1      40.102  33.057  36.196  1.00  0.00     0.034 A 
ATOM     54  C   UNL A   1      41.719  28.585  31.752  1.00  0.00     0.049 A 
ATOM     55  C   UNL A   1      41.175  32.011  36.140  1.00  0.00     0.074 A 
ATOM     56  C   UNL A   1      42.765  27.680  31.793  1.00  0.00     0.029 A 
ATOM     57  N   UNL A   1      41.778  29.321  32.924  1.00  0.00    -0.354 N 
ATOM     58  N   UNL A   1      41.461  31.181  35.168  1.00  0.00    -0.248 NA
ATOM     59  C   UNL A   1      42.047  31.886  37.317  1.00  0.00     0.031 C 
ATOM     60  C   UNL A   1      43.460  27.870  32.992  1.00  0.00     0.029 A 
ATOM     61  C   UNL A   1      42.845  28.894  33.695  1.00  0.00     0.049 A 
ATOM     62  H   UNL A   1      41.154  30.041  33.172  1.00  0.00     0.167 HD
ATOM     63  C   UNL A   1      42.550  30.440  35.609  1.00  0.00     0.074 A 
ATOM     64  C   UNL A   1      42.888  30.936  36.928  1.00  0.00     0.031 C 
ATOM     65  C   UNL A   1      43.196  29.426  34.986  1.00  0.00     0.034 A 
BRANCH  52  66
ATOM     66  C   UNL A   1      40.839  27.884  29.502  1.00  0.00     0.023 A 
ATOM     67  C   UNL A   1      40.011  26.749  29.413  1.00  0.00     0.012 A 
ATOM     68  C   UNL A   1      41.669  28.229  28.417  1.00  0.00     0.148 A 
ATOM     69  C   UNL A   1      40.011  25.961  28.263  1.00  0.00     0.002 A 
ATOM     70  C   UNL A   1      41.644  27.454  27.264  1.00  0.00     0.091 A 
ATOM     71  F   UNL A   1      42.456  29.307  28.533  1.00  0.00    -0.205 F 
ATOM     72  C   UNL A   1      40.819  26.319  27.186  1.00  0.00     0.022 A 
BRANCH  70  73
ATOM     73  S   UNL A   1      42.607  27.853  25.800  1.00  0.00     0.127 S 
ATOM     74  O   UNL A   1      42.277  26.735  24.918  1.00  0.00    -0.237 OA
ATOM     75  O   UNL A   1      42.033  29.138  25.398  1.00  0.00    -0.237 OA
ATOM     76  O   UNL A   1      43.995  27.912  26.234  1.00  0.00    -0.744 OA
ENDBRANCH  70  73
ENDBRANCH  52  66
BRANCH  53  77
ATOM     77  C   UNL A   1      39.986  33.989  37.349  1.00  0.00     0.023 A 
ATOM     78  C   UNL A   1      40.484  35.300  37.224  1.00  0.00     0.012 A 
ATOM     79  C   UNL A   1      39.315  33.612  38.528  1.00  0.00     0.148 A 
ATOM     80  C   UNL A   1      40.314  36.222  38.256  1.00  0.00     0.002 A 
ATOM     81  C   UNL A   1      39.110  34.548  39.534  1.00  0.00     0.091 A 
ATOM     82  F   UNL A   1      38.859  32.355  38.623  1.00  0.00    -0.205 F 
ATOM     83  C   UNL A   1      39.618  35.851  39.405  1.00  0.00     0.022 A 
BRANCH  81  84
ATOM     84  S   UNL A   1      38.124  34.200  40.994  1.00  0.00     0.127 S 
ATOM     85  O   UNL A   1      37.831  35.544  41.483  1.00  0.00    -0.237 OA
ATOM     86  O   UNL A   1      36.981  33.489  40.420  1.00  0.00    -0.237 OA
ATOM     87  O   UNL A   1      38.969  33.387  41.858  1.00  0.00    -0.744 OA
ENDBRANCH  81  84
ENDBRANCH  53  77
BRANCH  65  88
ATOM     88  C   UNL A   1      44.336  28.771  35.711  1.00  0.00     0.023 A 
ATOM     89  C   UNL A   1      45.638  29.282  35.545  1.00  0.00     0.012 A 
ATOM     90  C   UNL A   1      44.107  27.730  36.631  1.00  0.00     0.148 A 
ATOM     91  C   UNL A   1      46.700  28.759  36.280  1.00  0.00     0.002 A 
ATOM     92  C   UNL A   1      45.166  27.234  37.382  1.00  0.00     0.091 A 
ATOM     93  F   UNL A   1      42.860  27.253  36.758  1.00  0.00    -0.205 F 
ATOM     94  C   UNL A   1      46.464  27.744  37.205  1.00  0.00     0.022 A 
BRANCH  92  95
ATOM     95  S   UNL A   1      44.946  25.979  38.648  1.00  0.00     0.127 S 
ATOM     96  O   UNL A   1      46.296  25.874  39.201  1.00  0.00    -0.237 OA
ATOM     97  O   UNL A   1      43.968  26.605  39.539  1.00  0.00    -0.237 OA
ATOM     98  O   UNL A   1      44.460  24.791  37.957  1.00  0.00    -0.744 OA
ENDBRANCH  92  95
ENDBRANCH  65  88
ENDBRANCH  39  40
ENDBRANCH  31  34
ENDBRANCH  29  30
ENDBRANCH  28  29
ENDBRANCH   1  28
TORSDOF 18
ENDMDL
MODEL 3
REMARK VINA RESULT:     -11.3      1.824      2.258
REMARK SMILES CC(C)(C)c1cc2c(cc1Cl)C=C(C(=O)NCCCCCCNC(=O)c1ccc(-c3c4nc(c(-c5cccc(S(=O)(=O)[O-])c5F)c5ccc([nH]5)c(-c5cccc(S(=O)(=O)[O-])c5F)c5nc(c(-c6cccc(S(=O)(=O)[O-])c6F)c6ccc3[nH]6)C=C5)C=C4)cc1)[C@@H](C(F)(F)F)O2
REMARK SMILES IDX 20 1 19 2 18 3 17 4 16 5 14 6 15 7 13 9 5 10 6 11 10 12 7 13
REMARK SMILES IDX 9 14 11 15 8 16 94 17 12 18 89 19 2 20 1 21 3 22 4 23 90 24
REMARK SMILES IDX 91 25 92 26 93 27 21 28 22 29 23 30 24 31 25 33 26 34 27 35
REMARK SMILES IDX 88 36 28 37 87 38 29 39 30 40 31 41 81 42 32 43 86 44 80 45
REMARK SMILES IDX 82 46 33 47 85 48 79 49 78 50 34 52 66 53 46 54 65 55 47 56
REMARK SMILES IDX 50 57 64 58 83 59 48 60 49 61 63 63 84 64 51 65 35 66 36 67
REMARK SMILES IDX 44 68 37 69 39 70 45 71 38 72 40 73 41 74 42 75 43 76 67 77
REMARK SMILES IDX 68 78 76 79 69 80 71 81 77 82 70 83 72 84 73 85 74 86 75 87
REMARK SMILES IDX 52 88 53 89 61 90 54 91 56 92 62 93 55 94 57 95 58 96 59 97
REMARK SMILES IDX 60 98
REMARK H PARENT 16 8 23 32 82 51 50 62
REMARK Flexibility Score: inf
ROOT
ATOM      1  C   UNL A   1      34.792  31.051  28.012  1.00  0.00     0.002 C 
ENDROOT
BRANCH   1   2
ATOM      2  C   UNL A   1      34.653  29.597  27.542  1.00  0.00     0.002 C 
BRANCH   2   3
ATOM      3  C   UNL A   1      33.302  29.225  26.923  1.00  0.00     0.021 C 
BRANCH   3   4
ATOM      4  C   UNL A   1      33.373  28.840  25.448  1.00  0.00     0.116 C 
BRANCH   4   5
ATOM      5  N   UNL A   1      32.053  28.750  24.845  1.00  0.00    -0.352 N 
ATOM      6  C   UNL A   1      31.272  27.786  24.304  1.00  0.00     0.251 C 
ATOM      7  O   UNL A   1      30.158  28.167  23.924  1.00  0.00    -0.270 OA
ATOM      8  H   UNL A   1      31.607  29.626  24.826  1.00  0.00     0.163 HD
BRANCH   6   9
ATOM      9  C   UNL A   1      31.654  26.352  24.131  1.00  0.00     0.067 C 
ATOM     10  C   UNL A   1      33.010  21.511  25.009  1.00  0.00    -0.020 A 
ATOM     11  C   UNL A   1      32.495  22.255  23.918  1.00  0.00     0.053 A 
ATOM     12  C   UNL A   1      33.248  22.246  26.189  1.00  0.00     0.045 A 
ATOM     13  C   UNL A   1      32.206  23.615  23.999  1.00  0.00     0.128 A 
ATOM     14  C   UNL A   1      32.943  23.624  26.266  1.00  0.00     0.032 A 
ATOM     15  Cl  UNL A   1      33.917  21.606  27.649  1.00  0.00    -0.084 Cl
ATOM     16  C   UNL A   1      32.412  24.310  25.177  1.00  0.00     0.019 A 
ATOM     17  O   UNL A   1      31.672  24.182  22.882  1.00  0.00    -0.475 OA
ATOM     18  C   UNL A   1      32.024  25.712  25.257  1.00  0.00     0.025 C 
ATOM     19  C   UNL A   1      31.680  25.632  22.810  1.00  0.00     0.314 C 
BRANCH  10  20
ATOM     20  C   UNL A   1      33.232  20.000  24.753  1.00  0.00    -0.012 C 
ATOM     21  C   UNL A   1      32.672  19.005  25.788  1.00  0.00     0.016 C 
ATOM     22  C   UNL A   1      34.753  19.723  24.663  1.00  0.00     0.016 C 
ATOM     23  C   UNL A   1      32.570  19.607  23.403  1.00  0.00     0.016 C 
ENDBRANCH  10  20
BRANCH  19  24
ATOM     24  C   UNL A   1      32.853  26.077  21.920  1.00  0.00     0.429 C 
ATOM     25  F   UNL A   1      32.613  25.768  20.623  1.00  0.00    -0.167 F 
ATOM     26  F   UNL A   1      33.060  27.414  21.963  1.00  0.00    -0.167 F 
ATOM     27  F   UNL A   1      34.019  25.487  22.270  1.00  0.00    -0.167 F 
ENDBRANCH  19  24
ENDBRANCH   6   9
ENDBRANCH   4   5
ENDBRANCH   3   4
ENDBRANCH   2   3
ENDBRANCH   1   2
BRANCH   1  28
ATOM     28  C   UNL A   1      33.512  31.890  27.975  1.00  0.00     0.021 C 
BRANCH  28  29
ATOM     29  C   UNL A   1      33.611  33.187  27.181  1.00  0.00     0.116 C 
BRANCH  29  30
ATOM     30  N   UNL A   1      32.957  34.300  27.847  1.00  0.00    -0.352 N 
ATOM     31  C   UNL A   1      33.215  34.835  29.087  1.00  0.00     0.251 C 
ATOM     32  H   UNL A   1      32.230  34.729  27.342  1.00  0.00     0.163 HD
ATOM     33  O   UNL A   1      32.464  35.684  29.558  1.00  0.00    -0.269 OA
BRANCH  31  34
ATOM     34  C   UNL A   1      34.381  34.352  29.857  1.00  0.00     0.039 A 
ATOM     35  C   UNL A   1      35.681  34.593  29.403  1.00  0.00     0.014 A 
ATOM     36  C   UNL A   1      34.166  33.620  31.028  1.00  0.00     0.014 A 
ATOM     37  C   UNL A   1      36.756  33.976  30.035  1.00  0.00     0.010 A 
ATOM     38  C   UNL A   1      35.255  33.059  31.700  1.00  0.00     0.010 A 
ATOM     39  C   UNL A   1      36.554  33.194  31.184  1.00  0.00    -0.014 A 
BRANCH  39  40
ATOM     40  C   UNL A   1      37.708  32.523  31.834  1.00  0.00     0.031 A 
ATOM     41  C   UNL A   1      38.172  32.944  33.203  1.00  0.00     0.074 A 
ATOM     42  C   UNL A   1      38.329  31.513  31.195  1.00  0.00     0.049 A 
ATOM     43  N   UNL A   1      39.174  32.486  33.907  1.00  0.00    -0.248 NA
ATOM     44  C   UNL A   1      37.416  34.019  33.869  1.00  0.00     0.031 C 
ATOM     45  C   UNL A   1      37.980  31.019  29.862  1.00  0.00     0.029 A 
ATOM     46  N   UNL A   1      39.380  30.719  31.580  1.00  0.00    -0.354 N 
ATOM     47  C   UNL A   1      39.199  33.241  35.074  1.00  0.00     0.074 A 
ATOM     48  C   UNL A   1      38.108  34.186  34.989  1.00  0.00     0.031 C 
ATOM     49  C   UNL A   1      38.779  29.988  29.553  1.00  0.00     0.029 A 
ATOM     50  C   UNL A   1      39.729  29.779  30.641  1.00  0.00     0.049 A 
ATOM     51  H   UNL A   1      39.838  30.814  32.445  1.00  0.00     0.167 HD
ATOM     52  C   UNL A   1      40.042  33.141  36.128  1.00  0.00     0.034 A 
ATOM     53  C   UNL A   1      40.712  28.858  30.645  1.00  0.00     0.034 A 
ATOM     54  C   UNL A   1      41.091  32.163  36.239  1.00  0.00     0.049 A 
ATOM     55  C   UNL A   1      41.625  28.762  31.831  1.00  0.00     0.074 A 
ATOM     56  C   UNL A   1      41.966  31.963  37.292  1.00  0.00     0.029 A 
ATOM     57  N   UNL A   1      41.401  31.220  35.273  1.00  0.00    -0.354 N 
ATOM     58  N   UNL A   1      41.590  29.443  32.950  1.00  0.00    -0.248 NA
ATOM     59  C   UNL A   1      42.706  27.768  31.762  1.00  0.00     0.031 C 
ATOM     60  C   UNL A   1      42.807  30.894  36.962  1.00  0.00     0.029 A 
ATOM     61  C   UNL A   1      42.452  30.432  35.706  1.00  0.00     0.049 A 
ATOM     62  H   UNL A   1      40.940  31.125  34.408  1.00  0.00     0.167 HD
ATOM     63  C   UNL A   1      42.637  28.957  33.723  1.00  0.00     0.074 A 
ATOM     64  C   UNL A   1      43.274  27.906  32.954  1.00  0.00     0.031 C 
ATOM     65  C   UNL A   1      43.047  29.361  34.948  1.00  0.00     0.034 A 
BRANCH  52  66
ATOM     66  C   UNL A   1      39.841  34.080  37.285  1.00  0.00     0.023 A 
ATOM     67  C   UNL A   1      40.223  35.428  37.148  1.00  0.00     0.012 A 
ATOM     68  C   UNL A   1      39.187  33.656  38.458  1.00  0.00     0.148 A 
ATOM     69  C   UNL A   1      39.965  36.343  38.167  1.00  0.00     0.002 A 
ATOM     70  C   UNL A   1      38.910  34.579  39.459  1.00  0.00     0.091 A 
ATOM     71  F   UNL A   1      38.846  32.365  38.568  1.00  0.00    -0.205 F 
ATOM     72  C   UNL A   1      39.300  35.922  39.317  1.00  0.00     0.022 A 
BRANCH  70  73
ATOM     73  S   UNL A   1      38.015  34.154  40.958  1.00  0.00     0.127 S 
ATOM     74  O   UNL A   1      36.876  33.413  40.419  1.00  0.00    -0.237 OA
ATOM     75  O   UNL A   1      38.991  33.335  41.675  1.00  0.00    -0.237 OA
ATOM     76  O   UNL A   1      37.684  35.417  41.602  1.00  0.00    -0.744 OA
ENDBRANCH  70  73
ENDBRANCH  52  66
BRANCH  53  77
ATOM     77  C   UNL A   1      40.836  27.926  29.493  1.00  0.00     0.023 A 
ATOM     78  C   UNL A   1      40.048  26.760  29.466  1.00  0.00     0.012 A 
ATOM     79  C   UNL A   1      41.660  28.230  28.393  1.00  0.00     0.148 A 
ATOM     80  C   UNL A   1      40.079  25.911  28.360  1.00  0.00     0.002 A 
ATOM     81  C   UNL A   1      41.653  27.404  27.277  1.00  0.00     0.091 A 
ATOM     82  F   UNL A   1      42.406  29.343  28.450  1.00  0.00    -0.205 F 
ATOM     83  C   UNL A   1      40.872  26.238  27.262  1.00  0.00     0.022 A 
BRANCH  81  84
ATOM     84  S   UNL A   1      42.546  27.804  25.771  1.00  0.00     0.127 S 
ATOM     85  O   UNL A   1      43.932  27.766  26.226  1.00  0.00    -0.237 OA
ATOM     86  O   UNL A   1      42.154  26.701  24.891  1.00  0.00    -0.237 OA
ATOM     87  O   UNL A   1      42.056  29.111  25.355  1.00  0.00    -0.744 OA
ENDBRANCH  81  84
ENDBRANCH  53  77
BRANCH  65  88
ATOM     88  C   UNL A   1      44.241  28.677  35.549  1.00  0.00     0.023 A 
ATOM     89  C   UNL A   1      45.531  29.145  35.231  1.00  0.00     0.012 A 
ATOM     90  C   UNL A   1      44.086  27.652  36.502  1.00  0.00     0.148 A 
ATOM     91  C   UNL A   1      46.653  28.596  35.849  1.00  0.00     0.002 A 
ATOM     92  C   UNL A   1      45.208  27.130  37.135  1.00  0.00     0.091 A 
ATOM     93  F   UNL A   1      42.848  27.215  36.774  1.00  0.00    -0.205 F 
ATOM     94  C   UNL A   1      46.492  27.598  36.807  1.00  0.00     0.022 A 
BRANCH  92  95
ATOM     95  S   UNL A   1      45.094  25.894  38.433  1.00  0.00     0.127 S 
ATOM     96  O   UNL A   1      46.491  25.763  38.843  1.00  0.00    -0.237 OA
ATOM     97  O   UNL A   1      44.229  26.552  39.413  1.00  0.00    -0.237 OA
ATOM     98  O   UNL A   1      44.513  24.711  37.812  1.00  0.00    -0.744 OA
ENDBRANCH  92  95
ENDBRANCH  65  88
ENDBRANCH  39  40
ENDBRANCH  31  34
ENDBRANCH  29  30
ENDBRANCH  28  29
ENDBRANCH   1  28
TORSDOF 18
ENDMDL
