MODEL 1
REMARK VINA RESULT:     -11.4      0.000      0.000
REMARK SMILES O=C(Cc1ccn(C(F)F)c(=O)c1)NCCCCCCNC(=O)c1ccc(-c2c3nc(c(-c4cccc(S(=O)(=O)[O-])c4F)c4ccc([nH]4)c(-c4cccc(S(=O)(=O)[O-])c4F)c4nc(c(-c5cccc(S(=O)(=O)[O-])c5F)c5ccc2[nH]5)C=C4)C=C3)cc1
REMARK SMILES IDX 18 1 17 2 16 3 15 4 14 5 1 6 2 7 3 9 4 10 5 11 13 12 6 13
REMARK SMILES IDX 11 14 7 15 12 16 8 17 9 18 10 19 19 20 20 21 21 22 22 23
REMARK SMILES IDX 23 25 24 26 25 27 86 28 26 29 85 30 27 31 28 32 29 33 79 34
REMARK SMILES IDX 30 35 84 36 78 37 80 38 31 39 83 40 77 41 76 42 32 44 64 45
REMARK SMILES IDX 44 46 63 47 45 48 48 49 62 50 81 51 46 52 47 53 61 55 82 56
REMARK SMILES IDX 49 57 33 58 34 59 42 60 35 61 37 62 43 63 36 64 38 65 39 66
REMARK SMILES IDX 40 67 41 68 65 69 66 70 74 71 67 72 69 73 75 74 68 75 70 76
REMARK SMILES IDX 71 77 72 78 73 79 50 80 51 81 59 82 52 83 54 84 60 85 53 86
REMARK SMILES IDX 55 87 56 88 57 89 58 90
REMARK H PARENT 14 8 21 24 80 43 48 54
REMARK Flexibility Score: inf
ROOT
ATOM      1  C   UNL A   1      35.348  23.287  25.993  1.00  0.00     0.002 C 
ENDROOT
BRANCH   1   2
ATOM      2  C   UNL A   1      33.910  23.315  26.520  1.00  0.00     0.002 C 
BRANCH   2   3
ATOM      3  C   UNL A   1      33.072  24.532  26.105  1.00  0.00     0.021 C 
BRANCH   3   4
ATOM      4  C   UNL A   1      32.893  24.710  24.599  1.00  0.00     0.116 C 
BRANCH   4   5
ATOM      5  N   UNL A   1      32.281  23.547  23.992  1.00  0.00    -0.356 N 
ATOM      6  O   UNL A   1      34.068  22.962  22.664  1.00  0.00    -0.275 OA
ATOM      7  C   UNL A   1      32.928  22.756  23.066  1.00  0.00     0.224 C 
ATOM      8  H   UNL A   1      31.361  23.311  24.250  1.00  0.00     0.163 HD
BRANCH   7   9
ATOM      9  C   UNL A   1      32.098  21.563  22.605  1.00  0.00     0.135 C 
BRANCH   9  10
ATOM     10  C   UNL A   1      32.365  20.258  23.321  1.00  0.00    -0.032 A 
ATOM     11  C   UNL A   1      32.434  18.992  22.615  1.00  0.00     0.022 A 
ATOM     12  C   UNL A   1      32.553  20.259  24.653  1.00  0.00     0.076 A 
ATOM     13  C   UNL A   1      32.701  17.858  23.273  1.00  0.00     0.095 A 
ATOM     14  C   UNL A   1      32.831  19.002  25.404  1.00  0.00     0.255 A 
ATOM     15  N   UNL A   1      32.905  17.852  24.639  1.00  0.00    -0.258 N 
ATOM     16  O   UNL A   1      32.979  19.069  26.621  1.00  0.00    -0.269 OA
BRANCH  15  17
ATOM     17  C   UNL A   1      33.154  16.615  25.333  1.00  0.00     0.451 C 
ATOM     18  F   UNL A   1      32.585  15.566  24.691  1.00  0.00    -0.185 F 
ATOM     19  F   UNL A   1      34.486  16.375  25.427  1.00  0.00    -0.185 F 
ENDBRANCH  15  17
ENDBRANCH   9  10
ENDBRANCH   7   9
ENDBRANCH   4   5
ENDBRANCH   3   4
ENDBRANCH   2   3
ENDBRANCH   1   2
BRANCH   1  20
ATOM     20  C   UNL A   1      35.948  21.894  25.797  1.00  0.00     0.021 C 
BRANCH  20  21
ATOM     21  C   UNL A   1      37.210  21.842  24.943  1.00  0.00     0.116 C 
BRANCH  21  22
ATOM     22  N   UNL A   1      38.109  20.760  25.316  1.00  0.00    -0.352 N 
ATOM     23  C   UNL A   1      39.298  20.823  26.007  1.00  0.00     0.251 C 
ATOM     24  H   UNL A   1      37.829  19.860  25.036  1.00  0.00     0.163 HD
ATOM     25  O   UNL A   1      39.988  19.815  26.128  1.00  0.00    -0.269 OA
BRANCH  23  26
ATOM     26  C   UNL A   1      39.756  22.116  26.564  1.00  0.00     0.039 A 
ATOM     27  C   UNL A   1      39.238  23.322  26.088  1.00  0.00     0.014 A 
ATOM     28  C   UNL A   1      40.743  22.121  27.555  1.00  0.00     0.014 A 
ATOM     29  C   UNL A   1      39.823  24.525  26.473  1.00  0.00     0.010 A 
ATOM     30  C   UNL A   1      41.271  23.338  28.003  1.00  0.00     0.010 A 
ATOM     31  C   UNL A   1      40.853  24.547  27.429  1.00  0.00    -0.014 A 
BRANCH  31  32
ATOM     32  C   UNL A   1      41.460  25.849  27.813  1.00  0.00     0.031 A 
ATOM     33  C   UNL A   1      42.848  26.223  27.364  1.00  0.00     0.074 A 
ATOM     34  C   UNL A   1      40.733  26.722  28.538  1.00  0.00     0.049 A 
ATOM     35  N   UNL A   1      43.499  27.341  27.562  1.00  0.00    -0.248 NA
ATOM     36  C   UNL A   1      43.608  25.221  26.598  1.00  0.00     0.031 C 
ATOM     37  C   UNL A   1      39.387  26.467  29.057  1.00  0.00     0.029 A 
ATOM     38  N   UNL A   1      41.010  28.001  28.948  1.00  0.00    -0.354 N 
ATOM     39  C   UNL A   1      44.751  27.165  26.986  1.00  0.00     0.074 A 
ATOM     40  C   UNL A   1      44.775  25.831  26.428  1.00  0.00     0.031 C 
ATOM     41  C   UNL A   1      38.937  27.570  29.671  1.00  0.00     0.029 A 
ATOM     42  C   UNL A   1      39.975  28.595  29.632  1.00  0.00     0.049 A 
ATOM     43  H   UNL A   1      41.867  28.452  28.768  1.00  0.00     0.167 HD
ATOM     44  C   UNL A   1      45.779  28.042  26.908  1.00  0.00     0.034 A 
ATOM     45  C   UNL A   1      39.867  29.826  30.168  1.00  0.00     0.034 A 
ATOM     46  C   UNL A   1      45.736  29.390  27.406  1.00  0.00     0.049 A 
ATOM     47  C   UNL A   1      41.011  30.789  30.042  1.00  0.00     0.074 A 
ATOM     48  C   UNL A   1      46.712  30.367  27.315  1.00  0.00     0.029 A 
ATOM     49  N   UNL A   1      44.665  29.954  28.081  1.00  0.00    -0.354 N 
ATOM     50  N   UNL A   1      42.150  30.629  29.414  1.00  0.00    -0.248 NA
ATOM     51  C   UNL A   1      40.854  32.101  30.684  1.00  0.00     0.031 C 
ATOM     52  C   UNL A   1      46.232  31.522  27.939  1.00  0.00     0.029 A 
ATOM     53  C   UNL A   1      44.956  31.265  28.413  1.00  0.00     0.049 A 
ATOM     54  H   UNL A   1      43.823  29.490  28.292  1.00  0.00     0.167 HD
ATOM     55  C   UNL A   1      42.841  31.824  29.572  1.00  0.00     0.074 A 
ATOM     56  C   UNL A   1      41.985  32.705  30.340  1.00  0.00     0.031 C 
ATOM     57  C   UNL A   1      44.080  32.149  29.134  1.00  0.00     0.034 A 
BRANCH  44  58
ATOM     58  C   UNL A   1      47.035  27.607  26.207  1.00  0.00     0.023 A 
ATOM     59  C   UNL A   1      47.972  26.819  26.904  1.00  0.00     0.012 A 
ATOM     60  C   UNL A   1      47.231  27.871  24.838  1.00  0.00     0.148 A 
ATOM     61  C   UNL A   1      49.090  26.304  26.251  1.00  0.00     0.002 A 
ATOM     62  C   UNL A   1      48.333  27.332  24.186  1.00  0.00     0.091 A 
ATOM     63  F   UNL A   1      46.330  28.632  24.201  1.00  0.00    -0.205 F 
ATOM     64  C   UNL A   1      49.265  26.551  24.892  1.00  0.00     0.022 A 
BRANCH  62  65
ATOM     65  S   UNL A   1      48.625  27.542  22.425  1.00  0.00     0.127 S 
ATOM     66  O   UNL A   1      48.665  26.154  21.968  1.00  0.00    -0.237 OA
ATOM     67  O   UNL A   1      47.440  28.289  22.005  1.00  0.00    -0.237 OA
ATOM     68  O   UNL A   1      49.881  28.269  22.308  1.00  0.00    -0.744 OA
ENDBRANCH  62  65
ENDBRANCH  44  58
BRANCH  45  69
ATOM     69  C   UNL A   1      38.587  30.223  30.814  1.00  0.00     0.023 A 
ATOM     70  C   UNL A   1      38.404  29.971  32.186  1.00  0.00     0.012 A 
ATOM     71  C   UNL A   1      37.599  30.930  30.101  1.00  0.00     0.148 A 
ATOM     72  C   UNL A   1      37.254  30.415  32.840  1.00  0.00     0.002 A 
ATOM     73  C   UNL A   1      36.479  31.408  30.768  1.00  0.00     0.091 A 
ATOM     74  F   UNL A   1      37.799  31.151  28.794  1.00  0.00    -0.205 F 
ATOM     75  C   UNL A   1      36.299  31.143  32.135  1.00  0.00     0.022 A 
BRANCH  73  76
ATOM     76  S   UNL A   1      35.255  32.457  29.975  1.00  0.00     0.127 S 
ATOM     77  O   UNL A   1      34.306  32.682  31.061  1.00  0.00    -0.237 OA
ATOM     78  O   UNL A   1      36.058  33.623  29.605  1.00  0.00    -0.237 OA
ATOM     79  O   UNL A   1      34.748  31.690  28.846  1.00  0.00    -0.744 OA
ENDBRANCH  73  76
ENDBRANCH  45  69
BRANCH  57  80
ATOM     80  C   UNL A   1      44.609  33.517  29.457  1.00  0.00     0.023 A 
ATOM     81  C   UNL A   1      45.396  33.693  30.611  1.00  0.00     0.012 A 
ATOM     82  C   UNL A   1      44.444  34.584  28.554  1.00  0.00     0.148 A 
ATOM     83  C   UNL A   1      46.012  34.918  30.863  1.00  0.00     0.002 A 
ATOM     84  C   UNL A   1      45.088  35.792  28.795  1.00  0.00     0.091 A 
ATOM     85  F   UNL A   1      43.683  34.388  27.466  1.00  0.00    -0.205 F 
ATOM     86  C   UNL A   1      45.868  35.961  29.951  1.00  0.00     0.022 A 
BRANCH  84  87
ATOM     87  S   UNL A   1      45.026  37.170  27.645  1.00  0.00     0.127 S 
ATOM     88  O   UNL A   1      43.644  37.100  27.169  1.00  0.00    -0.237 OA
ATOM     89  O   UNL A   1      45.314  38.310  28.515  1.00  0.00    -0.237 OA
ATOM     90  O   UNL A   1      46.041  36.902  26.636  1.00  0.00    -0.744 OA
ENDBRANCH  84  87
ENDBRANCH  57  80
ENDBRANCH  31  32
ENDBRANCH  23  26
ENDBRANCH  21  22
ENDBRANCH  20  21
ENDBRANCH   1  20
TORSDOF 18
ENDMDL
MODEL 2
REMARK VINA RESULT:     -11.1      1.009      7.724
REMARK SMILES O=C(Cc1ccn(C(F)F)c(=O)c1)NCCCCCCNC(=O)c1ccc(-c2c3nc(c(-c4cccc(S(=O)(=O)[O-])c4F)c4ccc([nH]4)c(-c4cccc(S(=O)(=O)[O-])c4F)c4nc(c(-c5cccc(S(=O)(=O)[O-])c5F)c5ccc2[nH]5)C=C4)C=C3)cc1
REMARK SMILES IDX 18 1 17 2 16 3 15 4 14 5 1 6 2 7 3 9 4 10 5 11 13 12 6 13
REMARK SMILES IDX 11 14 7 15 12 16 8 17 9 18 10 19 19 20 20 21 21 22 22 23
REMARK SMILES IDX 23 25 24 26 25 27 86 28 26 29 85 30 27 31 28 32 29 33 79 34
REMARK SMILES IDX 30 35 84 36 78 37 80 38 31 39 83 40 77 41 76 42 32 44 64 45
REMARK SMILES IDX 44 46 63 47 45 48 48 49 62 50 81 51 46 52 47 53 61 55 82 56
REMARK SMILES IDX 49 57 33 58 34 59 42 60 35 61 37 62 43 63 36 64 38 65 39 66
REMARK SMILES IDX 40 67 41 68 65 69 66 70 74 71 67 72 69 73 75 74 68 75 70 76
REMARK SMILES IDX 71 77 72 78 73 79 50 80 51 81 59 82 52 83 54 84 60 85 53 86
REMARK SMILES IDX 55 87 56 88 57 89 58 90
REMARK H PARENT 14 8 21 24 80 43 48 54
REMARK Flexibility Score: inf
ROOT
ATOM      1  C   UNL A   1      35.625  22.057  26.378  1.00  0.00     0.002 C 
ENDROOT
BRANCH   1   2
ATOM      2  C   UNL A   1      34.128  22.351  26.505  1.00  0.00     0.002 C 
BRANCH   2   3
ATOM      3  C   UNL A   1      33.704  23.793  26.194  1.00  0.00     0.021 C 
BRANCH   3   4
ATOM      4  C   UNL A   1      33.578  24.123  24.708  1.00  0.00     0.116 C 
BRANCH   4   5
ATOM      5  N   UNL A   1      33.323  22.937  23.917  1.00  0.00    -0.356 N 
ATOM      6  O   UNL A   1      31.027  23.001  24.061  1.00  0.00    -0.275 OA
ATOM      7  C   UNL A   1      32.054  22.471  23.651  1.00  0.00     0.224 C 
ATOM      8  H   UNL A   1      34.092  22.441  23.552  1.00  0.00     0.163 HD
BRANCH   7   9
ATOM      9  C   UNL A   1      32.038  21.235  22.758  1.00  0.00     0.135 C 
BRANCH   9  10
ATOM     10  C   UNL A   1      32.412  19.933  23.431  1.00  0.00    -0.032 A 
ATOM     11  C   UNL A   1      32.299  19.746  24.865  1.00  0.00     0.022 A 
ATOM     12  C   UNL A   1      32.859  18.906  22.685  1.00  0.00     0.076 A 
ATOM     13  C   UNL A   1      32.610  18.572  25.427  1.00  0.00     0.095 A 
ATOM     14  C   UNL A   1      33.229  17.598  23.297  1.00  0.00     0.255 A 
ATOM     15  N   UNL A   1      33.060  17.510  24.667  1.00  0.00    -0.258 N 
ATOM     16  O   UNL A   1      33.644  16.706  22.563  1.00  0.00    -0.269 OA
BRANCH  15  17
ATOM     17  C   UNL A   1      33.425  16.267  25.295  1.00  0.00     0.451 C 
ATOM     18  F   UNL A   1      34.724  16.274  25.685  1.00  0.00    -0.185 F 
ATOM     19  F   UNL A   1      32.662  16.039  26.393  1.00  0.00    -0.185 F 
ENDBRANCH  15  17
ENDBRANCH   9  10
ENDBRANCH   7   9
ENDBRANCH   4   5
ENDBRANCH   3   4
ENDBRANCH   2   3
ENDBRANCH   1   2
BRANCH   1  20
ATOM     20  C   UNL A   1      36.016  21.125  25.230  1.00  0.00     0.021 C 
BRANCH  20  21
ATOM     21  C   UNL A   1      37.442  21.286  24.716  1.00  0.00     0.116 C 
BRANCH  21  22
ATOM     22  N   UNL A   1      38.316  20.188  25.100  1.00  0.00    -0.352 N 
ATOM     23  C   UNL A   1      39.533  20.234  25.743  1.00  0.00     0.251 C 
ATOM     24  H   UNL A   1      37.993  19.287  24.869  1.00  0.00     0.163 HD
ATOM     25  O   UNL A   1      40.190  19.207  25.881  1.00  0.00    -0.269 OA
BRANCH  23  26
ATOM     26  C   UNL A   1      40.057  21.532  26.227  1.00  0.00     0.039 A 
ATOM     27  C   UNL A   1      39.200  22.611  26.449  1.00  0.00     0.014 A 
ATOM     28  C   UNL A   1      41.433  21.678  26.430  1.00  0.00     0.014 A 
ATOM     29  C   UNL A   1      39.729  23.872  26.704  1.00  0.00     0.010 A 
ATOM     30  C   UNL A   1      41.956  22.932  26.770  1.00  0.00     0.010 A 
ATOM     31  C   UNL A   1      41.115  24.050  26.859  1.00  0.00    -0.014 A 
BRANCH  31  32
ATOM     32  C   UNL A   1      41.647  25.413  27.124  1.00  0.00     0.031 A 
ATOM     33  C   UNL A   1      40.848  26.423  27.905  1.00  0.00     0.074 A 
ATOM     34  C   UNL A   1      42.885  25.727  26.692  1.00  0.00     0.049 A 
ATOM     35  N   UNL A   1      41.192  27.631  28.273  1.00  0.00    -0.248 NA
ATOM     36  C   UNL A   1      39.493  26.036  28.329  1.00  0.00     0.031 C 
ATOM     37  C   UNL A   1      43.747  24.846  25.901  1.00  0.00     0.029 A 
ATOM     38  N   UNL A   1      43.639  26.859  26.870  1.00  0.00    -0.354 N 
ATOM     39  C   UNL A   1      40.090  28.162  28.930  1.00  0.00     0.074 A 
ATOM     40  C   UNL A   1      39.060  27.147  28.914  1.00  0.00     0.031 C 
ATOM     41  C   UNL A   1      44.929  25.449  25.705  1.00  0.00     0.029 A 
ATOM     42  C   UNL A   1      44.894  26.775  26.314  1.00  0.00     0.049 A 
ATOM     43  H   UNL A   1      43.314  27.655  27.350  1.00  0.00     0.167 HD
ATOM     44  C   UNL A   1      39.954  29.376  29.514  1.00  0.00     0.034 A 
ATOM     45  C   UNL A   1      45.909  27.660  26.296  1.00  0.00     0.034 A 
ATOM     46  C   UNL A   1      40.997  30.363  29.587  1.00  0.00     0.049 A 
ATOM     47  C   UNL A   1      45.743  28.987  26.976  1.00  0.00     0.074 A 
ATOM     48  C   UNL A   1      40.965  31.596  30.214  1.00  0.00     0.029 A 
ATOM     49  N   UNL A   1      42.255  30.232  29.022  1.00  0.00    -0.354 N 
ATOM     50  N   UNL A   1      44.722  29.430  27.669  1.00  0.00    -0.248 NA
ATOM     51  C   UNL A   1      46.866  29.931  26.885  1.00  0.00     0.031 C 
ATOM     52  C   UNL A   1      42.205  32.214  30.025  1.00  0.00     0.029 A 
ATOM     53  C   UNL A   1      43.009  31.362  29.285  1.00  0.00     0.049 A 
ATOM     54  H   UNL A   1      42.567  29.450  28.510  1.00  0.00     0.167 HD
ATOM     55  C   UNL A   1      45.083  30.697  28.109  1.00  0.00     0.074 A 
ATOM     56  C   UNL A   1      46.425  30.945  27.620  1.00  0.00     0.031 C 
ATOM     57  C   UNL A   1      44.358  31.579  28.837  1.00  0.00     0.034 A 
BRANCH  44  58
ATOM     58  C   UNL A   1      38.649  29.702  30.184  1.00  0.00     0.023 A 
ATOM     59  C   UNL A   1      38.423  29.256  31.501  1.00  0.00     0.012 A 
ATOM     60  C   UNL A   1      37.705  30.543  29.563  1.00  0.00     0.148 A 
ATOM     61  C   UNL A   1      37.274  29.637  32.190  1.00  0.00     0.002 A 
ATOM     62  C   UNL A   1      36.574  30.942  30.266  1.00  0.00     0.091 A 
ATOM     63  F   UNL A   1      37.939  30.944  28.305  1.00  0.00    -0.205 F 
ATOM     64  C   UNL A   1      36.356  30.487  31.578  1.00  0.00     0.022 A 
BRANCH  62  65
ATOM     65  S   UNL A   1      35.357  32.078  29.592  1.00  0.00     0.127 S 
ATOM     66  O   UNL A   1      34.533  32.355  30.767  1.00  0.00    -0.237 OA
ATOM     67  O   UNL A   1      36.191  33.197  29.154  1.00  0.00    -0.237 OA
ATOM     68  O   UNL A   1      34.684  31.359  28.519  1.00  0.00    -0.744 OA
ENDBRANCH  62  65
ENDBRANCH  44  58
BRANCH  45  69
ATOM     69  C   UNL A   1      47.196  27.273  25.657  1.00  0.00     0.023 A 
ATOM     70  C   UNL A   1      48.093  26.452  26.364  1.00  0.00     0.012 A 
ATOM     71  C   UNL A   1      47.487  27.633  24.327  1.00  0.00     0.148 A 
ATOM     72  C   UNL A   1      49.264  25.997  25.758  1.00  0.00     0.002 A 
ATOM     73  C   UNL A   1      48.631  27.139  23.715  1.00  0.00     0.091 A 
ATOM     74  F   UNL A   1      46.616  28.421  23.680  1.00  0.00    -0.205 F 
ATOM     75  C   UNL A   1      49.526  26.329  24.431  1.00  0.00     0.022 A 
BRANCH  73  76
ATOM     76  S   UNL A   1      48.993  27.412  21.977  1.00  0.00     0.127 S 
ATOM     77  O   UNL A   1      50.452  27.467  21.981  1.00  0.00    -0.237 OA
ATOM     78  O   UNL A   1      48.422  26.213  21.362  1.00  0.00    -0.237 OA
ATOM     79  O   UNL A   1      48.319  28.653  21.622  1.00  0.00    -0.744 OA
ENDBRANCH  73  76
ENDBRANCH  45  69
BRANCH  57  80
ATOM     80  C   UNL A   1      44.981  32.904  29.169  1.00  0.00     0.023 A 
ATOM     81  C   UNL A   1      45.776  33.017  30.326  1.00  0.00     0.012 A 
ATOM     82  C   UNL A   1      44.895  33.986  28.272  1.00  0.00     0.148 A 
ATOM     83  C   UNL A   1      46.476  34.194  30.586  1.00  0.00     0.002 A 
ATOM     84  C   UNL A   1      45.621  35.143  28.522  1.00  0.00     0.091 A 
ATOM     85  F   UNL A   1      44.125  33.850  27.182  1.00  0.00    -0.205 F 
ATOM     86  C   UNL A   1      46.409  35.250  29.680  1.00  0.00     0.022 A 
BRANCH  84  87
ATOM     87  S   UNL A   1      45.660  36.529  27.379  1.00  0.00     0.127 S 
ATOM     88  O   UNL A   1      46.487  37.492  28.107  1.00  0.00    -0.237 OA
ATOM     89  O   UNL A   1      46.302  35.940  26.204  1.00  0.00    -0.237 OA
ATOM     90  O   UNL A   1      44.275  36.929  27.181  1.00  0.00    -0.744 OA
ENDBRANCH  84  87
ENDBRANCH  57  80
ENDBRANCH  31  32
ENDBRANCH  23  26
ENDBRANCH  21  22
ENDBRANCH  20  21
ENDBRANCH   1  20
TORSDOF 18
ENDMDL
MODEL 3
REMARK VINA RESULT:     -11.1      6.613     11.041
REMARK SMILES O=C(Cc1ccn(C(F)F)c(=O)c1)NCCCCCCNC(=O)c1ccc(-c2c3nc(c(-c4cccc(S(=O)(=O)[O-])c4F)c4ccc([nH]4)c(-c4cccc(S(=O)(=O)[O-])c4F)c4nc(c(-c5cccc(S(=O)(=O)[O-])c5F)c5ccc2[nH]5)C=C4)C=C3)cc1
REMARK SMILES IDX 18 1 17 2 16 3 15 4 14 5 1 6 2 7 3 9 4 10 5 11 13 12 6 13
REMARK SMILES IDX 11 14 7 15 12 16 8 17 9 18 10 19 19 20 20 21 21 22 22 23
REMARK SMILES IDX 23 25 24 26 25 27 86 28 26 29 85 30 27 31 28 32 29 33 79 34
REMARK SMILES IDX 30 35 84 36 78 37 80 38 31 39 83 40 77 41 76 42 32 44 64 45
REMARK SMILES IDX 44 46 63 47 45 48 48 49 62 50 81 51 46 52 47 53 61 55 82 56
REMARK SMILES IDX 49 57 33 58 34 59 42 60 35 61 37 62 43 63 36 64 38 65 39 66
REMARK SMILES IDX 40 67 41 68 65 69 66 70 74 71 67 72 69 73 75 74 68 75 70 76
REMARK SMILES IDX 71 77 72 78 73 79 50 80 51 81 59 82 52 83 54 84 60 85 53 86
REMARK SMILES IDX 55 87 56 88 57 89 58 90
REMARK H PARENT 14 8 21 24 80 43 48 54
REMARK Flexibility Score: inf
ROOT
ATOM      1  C   UNL A   1      38.026  33.278  29.719  1.00  0.00     0.002 C 
ENDROOT
BRANCH   1   2
ATOM      2  C   UNL A   1      38.506  34.510  30.491  1.00  0.00     0.002 C 
BRANCH   2   3
ATOM      3  C   UNL A   1      39.235  34.227  31.812  1.00  0.00     0.021 C 
BRANCH   3   4
ATOM      4  C   UNL A   1      38.459  33.364  32.805  1.00  0.00     0.116 C 
BRANCH   4   5
ATOM      5  N   UNL A   1      37.214  33.990  33.200  1.00  0.00    -0.356 N 
ATOM      6  O   UNL A   1      36.817  32.666  35.040  1.00  0.00    -0.275 OA
ATOM      7  C   UNL A   1      36.489  33.588  34.301  1.00  0.00     0.224 C 
ATOM      8  H   UNL A   1      36.870  34.735  32.657  1.00  0.00     0.163 HD
BRANCH   7   9
ATOM      9  C   UNL A   1      35.239  34.427  34.541  1.00  0.00     0.135 C 
BRANCH   9  10
ATOM     10  C   UNL A   1      34.601  35.026  33.307  1.00  0.00    -0.032 A 
ATOM     11  C   UNL A   1      34.372  34.249  32.104  1.00  0.00     0.022 A 
ATOM     12  C   UNL A   1      34.226  36.319  33.315  1.00  0.00     0.076 A 
ATOM     13  C   UNL A   1      33.779  34.800  31.038  1.00  0.00     0.095 A 
ATOM     14  C   UNL A   1      33.584  36.954  32.130  1.00  0.00     0.255 A 
ATOM     15  N   UNL A   1      33.382  36.123  31.042  1.00  0.00    -0.258 N 
ATOM     16  O   UNL A   1      33.278  38.141  32.197  1.00  0.00    -0.269 OA
BRANCH  15  17
ATOM     17  C   UNL A   1      32.780  36.707  29.872  1.00  0.00     0.451 C 
ATOM     18  F   UNL A   1      33.533  37.724  29.386  1.00  0.00    -0.185 F 
ATOM     19  F   UNL A   1      32.641  35.783  28.889  1.00  0.00    -0.185 F 
ENDBRANCH  15  17
ENDBRANCH   9  10
ENDBRANCH   7   9
ENDBRANCH   4   5
ENDBRANCH   3   4
ENDBRANCH   2   3
ENDBRANCH   1   2
BRANCH   1  20
ATOM     20  C   UNL A   1      36.508  33.126  29.606  1.00  0.00     0.021 C 
BRANCH  20  21
ATOM     21  C   UNL A   1      35.954  33.159  28.186  1.00  0.00     0.116 C 
BRANCH  21  22
ATOM     22  N   UNL A   1      34.886  32.195  27.965  1.00  0.00    -0.352 N 
ATOM     23  C   UNL A   1      34.951  30.820  27.949  1.00  0.00     0.251 C 
ATOM     24  H   UNL A   1      33.994  32.579  27.807  1.00  0.00     0.163 HD
ATOM     25  O   UNL A   1      33.964  30.165  27.626  1.00  0.00    -0.269 OA
BRANCH  23  26
ATOM     26  C   UNL A   1      36.225  30.142  28.280  1.00  0.00     0.039 A 
ATOM     27  C   UNL A   1      36.387  29.481  29.499  1.00  0.00     0.014 A 
ATOM     28  C   UNL A   1      37.285  30.197  27.369  1.00  0.00     0.014 A 
ATOM     29  C   UNL A   1      37.647  29.030  29.879  1.00  0.00     0.010 A 
ATOM     30  C   UNL A   1      38.532  29.667  27.720  1.00  0.00     0.010 A 
ATOM     31  C   UNL A   1      38.737  29.125  28.997  1.00  0.00    -0.014 A 
BRANCH  31  32
ATOM     32  C   UNL A   1      40.072  28.639  29.437  1.00  0.00     0.031 A 
ATOM     33  C   UNL A   1      40.754  27.493  28.736  1.00  0.00     0.074 A 
ATOM     34  C   UNL A   1      40.695  29.269  30.453  1.00  0.00     0.049 A 
ATOM     35  N   UNL A   1      41.941  26.989  28.957  1.00  0.00    -0.248 NA
ATOM     36  C   UNL A   1      40.017  26.825  27.651  1.00  0.00     0.031 C 
ATOM     37  C   UNL A   1      40.129  30.373  31.230  1.00  0.00     0.029 A 
ATOM     38  N   UNL A   1      41.943  29.087  30.993  1.00  0.00    -0.354 N 
ATOM     39  C   UNL A   1      42.077  25.924  28.074  1.00  0.00     0.074 A 
ATOM     40  C   UNL A   1      40.852  25.850  27.310  1.00  0.00     0.031 C 
ATOM     41  C   UNL A   1      41.043  30.803  32.113  1.00  0.00     0.029 A 
ATOM     42  C   UNL A   1      42.241  29.978  31.998  1.00  0.00     0.049 A 
ATOM     43  H   UNL A   1      42.566  28.386  30.692  1.00  0.00     0.167 HD
ATOM     44  C   UNL A   1      43.135  25.098  27.900  1.00  0.00     0.034 A 
ATOM     45  C   UNL A   1      43.353  30.123  32.744  1.00  0.00     0.034 A 
ATOM     46  C   UNL A   1      44.378  25.208  28.614  1.00  0.00     0.049 A 
ATOM     47  C   UNL A   1      44.522  29.211  32.510  1.00  0.00     0.074 A 
ATOM     48  C   UNL A   1      45.525  24.449  28.456  1.00  0.00     0.029 A 
ATOM     49  N   UNL A   1      44.641  26.131  29.612  1.00  0.00    -0.354 N 
ATOM     50  N   UNL A   1      44.659  28.271  31.608  1.00  0.00    -0.248 NA
ATOM     51  C   UNL A   1      45.691  29.386  33.383  1.00  0.00     0.031 C 
ATOM     52  C   UNL A   1      46.482  24.912  29.364  1.00  0.00     0.029 A 
ATOM     53  C   UNL A   1      45.932  25.962  30.081  1.00  0.00     0.049 A 
ATOM     54  H   UNL A   1      44.004  26.807  29.939  1.00  0.00     0.167 HD
ATOM     55  C   UNL A   1      45.933  27.750  31.794  1.00  0.00     0.074 A 
ATOM     56  C   UNL A   1      46.535  28.491  32.884  1.00  0.00     0.031 C 
ATOM     57  C   UNL A   1      46.538  26.736  31.131  1.00  0.00     0.034 A 
BRANCH  44  58
ATOM     58  C   UNL A   1      43.035  24.024  26.853  1.00  0.00     0.023 A 
ATOM     59  C   UNL A   1      43.708  24.196  25.628  1.00  0.00     0.012 A 
ATOM     60  C   UNL A   1      42.383  22.805  27.123  1.00  0.00     0.148 A 
ATOM     61  C   UNL A   1      43.730  23.172  24.682  1.00  0.00     0.002 A 
ATOM     62  C   UNL A   1      42.431  21.779  26.188  1.00  0.00     0.091 A 
ATOM     63  F   UNL A   1      41.740  22.672  28.293  1.00  0.00    -0.205 F 
ATOM     64  C   UNL A   1      43.101  21.962  24.965  1.00  0.00     0.022 A 
BRANCH  62  65
ATOM     65  S   UNL A   1      41.704  20.161  26.475  1.00  0.00     0.127 S 
ATOM     66  O   UNL A   1      40.276  20.477  26.466  1.00  0.00    -0.237 OA
ATOM     67  O   UNL A   1      42.169  19.405  25.313  1.00  0.00    -0.237 OA
ATOM     68  O   UNL A   1      42.229  19.704  27.753  1.00  0.00    -0.744 OA
ENDBRANCH  62  65
ENDBRANCH  44  58
BRANCH  45  69
ATOM     69  C   UNL A   1      43.419  31.228  33.737  1.00  0.00     0.023 A 
ATOM     70  C   UNL A   1      43.852  32.500  33.321  1.00  0.00     0.012 A 
ATOM     71  C   UNL A   1      42.967  31.047  35.059  1.00  0.00     0.148 A 
ATOM     72  C   UNL A   1      43.836  33.578  34.207  1.00  0.00     0.002 A 
ATOM     73  C   UNL A   1      42.910  32.134  35.922  1.00  0.00     0.091 A 
ATOM     74  F   UNL A   1      42.565  29.823  35.429  1.00  0.00    -0.205 F 
ATOM     75  C   UNL A   1      43.354  33.398  35.501  1.00  0.00     0.022 A 
BRANCH  73  76
ATOM     76  S   UNL A   1      42.195  32.029  37.565  1.00  0.00     0.127 S 
ATOM     77  O   UNL A   1      42.520  33.341  38.118  1.00  0.00    -0.237 OA
ATOM     78  O   UNL A   1      40.778  31.821  37.261  1.00  0.00    -0.237 OA
ATOM     79  O   UNL A   1      42.846  30.897  38.209  1.00  0.00    -0.744 OA
ENDBRANCH  73  76
ENDBRANCH  45  69
BRANCH  57  80
ATOM     80  C   UNL A   1      47.930  26.351  31.543  1.00  0.00     0.023 A 
ATOM     81  C   UNL A   1      49.027  26.985  30.929  1.00  0.00     0.012 A 
ATOM     82  C   UNL A   1      48.145  25.475  32.624  1.00  0.00     0.148 A 
ATOM     83  C   UNL A   1      50.323  26.749  31.386  1.00  0.00     0.002 A 
ATOM     84  C   UNL A   1      49.435  25.270  33.094  1.00  0.00     0.091 A 
ATOM     85  F   UNL A   1      47.080  24.881  33.185  1.00  0.00    -0.205 F 
ATOM     86  C   UNL A   1      50.526  25.902  32.473  1.00  0.00     0.022 A 
BRANCH  84  87
ATOM     87  S   UNL A   1      49.793  24.258  34.535  1.00  0.00     0.127 S 
ATOM     88  O   UNL A   1      51.250  24.142  34.463  1.00  0.00    -0.237 OA
ATOM     89  O   UNL A   1      49.301  25.096  35.628  1.00  0.00    -0.237 OA
ATOM     90  O   UNL A   1      49.064  23.012  34.346  1.00  0.00    -0.744 OA
ENDBRANCH  84  87
ENDBRANCH  57  80
ENDBRANCH  31  32
ENDBRANCH  23  26
ENDBRANCH  21  22
ENDBRANCH  20  21
ENDBRANCH   1  20
TORSDOF 18
ENDMDL
