MODEL 1
REMARK VINA RESULT:     -11.0      0.000      0.000
REMARK SMILES O=C(NCCCCCCNC(=O)c1cc(Cl)cn(Cc2ccc(Cl)cc2)c1=O)c1ccc(-c2c3nc(c(-c4cccc(S(=O)(=O)[O-])c4F)c4ccc([nH]4)c(-c4cccc(S(=O)(=O)[O-])c4F)c4nc(c(-c5cccc(S(=O)(=O)[O-])c5F)c5ccc2[nH]5)C=C4)C=C3)cc1
REMARK SMILES IDX 6 1 5 2 4 3 3 4 1 5 2 6 29 8 30 9 91 10 31 11 90 12 32 13
REMARK SMILES IDX 33 14 34 15 84 16 35 17 89 18 83 19 85 20 36 21 88 22 82 23
REMARK SMILES IDX 81 24 37 26 69 27 49 28 68 29 50 30 53 31 67 32 86 33 51 34
REMARK SMILES IDX 52 35 66 37 87 38 54 39 38 40 39 41 47 42 40 43 42 44 48 45
REMARK SMILES IDX 41 46 43 47 44 48 45 49 46 50 70 51 71 52 79 53 72 54 74 55
REMARK SMILES IDX 80 56 73 57 75 58 76 59 77 60 78 61 55 62 56 63 64 64 57 65
REMARK SMILES IDX 59 66 65 67 58 68 60 69 61 70 62 71 63 72 7 73 8 74 9 75
REMARK SMILES IDX 10 76 11 77 12 79 13 80 14 81 27 82 15 83 18 84 28 85 16 86
REMARK SMILES IDX 17 87 19 88 20 89 21 90 26 91 22 92 25 93 23 94 24 95
REMARK H PARENT 3 7 85 25 53 36 10 78
REMARK Flexibility Score: inf
ROOT
ATOM      1  C   UNL A   1      37.533  21.066  24.858  1.00  0.00     0.002 C 
ENDROOT
BRANCH   1   2
ATOM      2  C   UNL A   1      38.523  19.896  24.849  1.00  0.00     0.021 C 
BRANCH   2   3
ATOM      3  C   UNL A   1      39.016  19.449  26.222  1.00  0.00     0.116 C 
BRANCH   3   4
ATOM      4  N   UNL A   1      40.348  18.876  26.159  1.00  0.00    -0.352 N 
ATOM      5  O   UNL A   1      42.572  18.841  25.857  1.00  0.00    -0.269 OA
ATOM      6  C   UNL A   1      41.570  19.498  26.130  1.00  0.00     0.251 C 
ATOM      7  H   UNL A   1      40.379  17.893  26.132  1.00  0.00     0.163 HD
BRANCH   6   8
ATOM      8  C   UNL A   1      41.697  20.940  26.433  1.00  0.00     0.039 A 
ATOM      9  C   UNL A   1      41.573  21.859  25.385  1.00  0.00     0.014 A 
ATOM     10  C   UNL A   1      42.035  21.387  27.715  1.00  0.00     0.014 A 
ATOM     11  C   UNL A   1      41.785  23.220  25.619  1.00  0.00     0.010 A 
ATOM     12  C   UNL A   1      42.191  22.749  27.960  1.00  0.00     0.010 A 
ATOM     13  C   UNL A   1      42.103  23.673  26.907  1.00  0.00    -0.014 A 
BRANCH  13  14
ATOM     14  C   UNL A   1      42.457  25.091  27.163  1.00  0.00     0.031 A 
ATOM     15  C   UNL A   1      43.821  25.591  26.775  1.00  0.00     0.074 A 
ATOM     16  C   UNL A   1      41.587  25.914  27.773  1.00  0.00     0.049 A 
ATOM     17  N   UNL A   1      44.381  26.746  27.025  1.00  0.00    -0.248 NA
ATOM     18  C   UNL A   1      44.678  24.657  26.024  1.00  0.00     0.031 C 
ATOM     19  C   UNL A   1      40.239  25.551  28.208  1.00  0.00     0.029 A 
ATOM     20  N   UNL A   1      41.720  27.228  28.149  1.00  0.00    -0.354 N 
ATOM     21  C   UNL A   1      45.662  26.666  26.496  1.00  0.00     0.074 A 
ATOM     22  C   UNL A   1      45.809  25.341  25.934  1.00  0.00     0.031 C 
ATOM     23  C   UNL A   1      39.665  26.618  28.788  1.00  0.00     0.029 A 
ATOM     24  C   UNL A   1      40.616  27.728  28.794  1.00  0.00     0.049 A 
ATOM     25  H   UNL A   1      42.529  27.760  27.973  1.00  0.00     0.167 HD
ATOM     26  C   UNL A   1      46.623  27.619  26.450  1.00  0.00     0.034 A 
ATOM     27  C   UNL A   1      40.396  28.941  29.339  1.00  0.00     0.034 A 
ATOM     28  C   UNL A   1      46.463  28.953  26.957  1.00  0.00     0.049 A 
ATOM     29  C   UNL A   1      41.473  29.988  29.276  1.00  0.00     0.074 A 
ATOM     30  C   UNL A   1      47.368  29.999  26.928  1.00  0.00     0.029 A 
ATOM     31  N   UNL A   1      45.317  29.432  27.572  1.00  0.00    -0.354 N 
ATOM     32  N   UNL A   1      42.663  29.911  28.732  1.00  0.00    -0.248 NA
ATOM     33  C   UNL A   1      41.173  31.290  29.888  1.00  0.00     0.031 C 
ATOM     34  C   UNL A   1      46.765  31.114  27.522  1.00  0.00     0.029 A 
ATOM     35  C   UNL A   1      45.486  30.760  27.920  1.00  0.00     0.049 A 
ATOM     36  H   UNL A   1      44.502  28.904  27.737  1.00  0.00     0.167 HD
ATOM     37  C   UNL A   1      43.253  31.155  28.928  1.00  0.00     0.074 A 
ATOM     38  C   UNL A   1      42.279  31.974  29.621  1.00  0.00     0.031 C 
ATOM     39  C   UNL A   1      44.496  31.571  28.582  1.00  0.00     0.034 A 
BRANCH  26  40
ATOM     40  C   UNL A   1      47.911  27.260  25.764  1.00  0.00     0.023 A 
ATOM     41  C   UNL A   1      48.955  26.695  26.524  1.00  0.00     0.012 A 
ATOM     42  C   UNL A   1      48.086  27.457  24.381  1.00  0.00     0.148 A 
ATOM     43  C   UNL A   1      50.166  26.355  25.924  1.00  0.00     0.002 A 
ATOM     44  C   UNL A   1      49.285  27.086  23.783  1.00  0.00     0.091 A 
ATOM     45  F   UNL A   1      47.089  28.020  23.683  1.00  0.00    -0.205 F 
ATOM     46  C   UNL A   1      50.328  26.543  24.553  1.00  0.00     0.022 A 
BRANCH  44  47
ATOM     47  S   UNL A   1      49.579  27.246  22.019  1.00  0.00     0.127 S 
ATOM     48  O   UNL A   1      51.029  27.072  21.944  1.00  0.00    -0.237 OA
ATOM     49  O   UNL A   1      48.802  26.132  21.474  1.00  0.00    -0.237 OA
ATOM     50  O   UNL A   1      49.089  28.566  21.648  1.00  0.00    -0.744 OA
ENDBRANCH  44  47
ENDBRANCH  26  40
BRANCH  27  51
ATOM     51  C   UNL A   1      39.064  29.232  29.932  1.00  0.00     0.023 A 
ATOM     52  C   UNL A   1      38.855  28.968  31.298  1.00  0.00     0.012 A 
ATOM     53  C   UNL A   1      38.050  29.859  29.183  1.00  0.00     0.148 A 
ATOM     54  C   UNL A   1      37.655  29.324  31.913  1.00  0.00     0.002 A 
ATOM     55  C   UNL A   1      36.872  30.246  29.810  1.00  0.00     0.091 A 
ATOM     56  F   UNL A   1      38.282  30.106  27.887  1.00  0.00    -0.205 F 
ATOM     57  C   UNL A   1      36.669  29.972  31.173  1.00  0.00     0.022 A 
BRANCH  55  58
ATOM     58  S   UNL A   1      35.585  31.176  28.970  1.00  0.00     0.127 S 
ATOM     59  O   UNL A   1      36.367  32.037  28.082  1.00  0.00    -0.237 OA
ATOM     60  O   UNL A   1      34.846  30.107  28.295  1.00  0.00    -0.237 OA
ATOM     61  O   UNL A   1      34.848  31.871  30.012  1.00  0.00    -0.744 OA
ENDBRANCH  55  58
ENDBRANCH  27  51
BRANCH  39  62
ATOM     62  C   UNL A   1      44.893  32.972  28.958  1.00  0.00     0.023 A 
ATOM     63  C   UNL A   1      45.590  33.185  30.164  1.00  0.00     0.012 A 
ATOM     64  C   UNL A   1      44.669  34.053  28.085  1.00  0.00     0.148 A 
ATOM     65  C   UNL A   1      46.046  34.459  30.502  1.00  0.00     0.002 A 
ATOM     66  C   UNL A   1      45.154  35.315  28.413  1.00  0.00     0.091 A 
ATOM     67  F   UNL A   1      43.990  33.829  26.951  1.00  0.00    -0.205 F 
ATOM     68  C   UNL A   1      45.838  35.520  29.623  1.00  0.00     0.022 A 
BRANCH  66  69
ATOM     69  S   UNL A   1      44.997  36.725  27.313  1.00  0.00     0.127 S 
ATOM     70  O   UNL A   1      45.432  37.824  28.172  1.00  0.00    -0.237 OA
ATOM     71  O   UNL A   1      45.928  36.387  26.236  1.00  0.00    -0.237 OA
ATOM     72  O   UNL A   1      43.597  36.764  26.909  1.00  0.00    -0.744 OA
ENDBRANCH  66  69
ENDBRANCH  39  62
ENDBRANCH  13  14
ENDBRANCH   6   8
ENDBRANCH   3   4
ENDBRANCH   2   3
ENDBRANCH   1   2
BRANCH   1  73
ATOM     73  C   UNL A   1      37.932  22.263  25.725  1.00  0.00     0.002 C 
BRANCH  73  74
ATOM     74  C   UNL A   1      37.310  23.603  25.323  1.00  0.00     0.021 C 
BRANCH  74  75
ATOM     75  C   UNL A   1      35.995  23.944  26.021  1.00  0.00     0.116 C 
BRANCH  75  76
ATOM     76  N   UNL A   1      35.524  22.864  26.875  1.00  0.00    -0.352 N 
ATOM     77  C   UNL A   1      34.301  22.256  26.886  1.00  0.00     0.256 C 
ATOM     78  H   UNL A   1      36.174  22.528  27.534  1.00  0.00     0.163 HD
ATOM     79  O   UNL A   1      34.050  21.384  27.715  1.00  0.00    -0.269 OA
BRANCH  77  80
ATOM     80  C   UNL A   1      33.261  22.757  25.967  1.00  0.00     0.106 A 
ATOM     81  C   UNL A   1      33.231  22.209  24.740  1.00  0.00     0.041 A 
ATOM     82  C   UNL A   1      32.231  23.760  26.376  1.00  0.00     0.263 A 
ATOM     83  C   UNL A   1      32.164  22.525  23.830  1.00  0.00     0.058 A 
ATOM     84  N   UNL A   1      31.188  23.959  25.462  1.00  0.00    -0.309 N 
ATOM     85  O   UNL A   1      32.300  24.325  27.464  1.00  0.00    -0.268 OA
ATOM     86  Cl  UNL A   1      32.153  21.786  22.277  1.00  0.00    -0.083 Cl
ATOM     87  C   UNL A   1      31.177  23.341  24.217  1.00  0.00     0.110 A 
BRANCH  84  88
ATOM     88  C   UNL A   1      30.095  24.860  25.831  1.00  0.00     0.161 C 
BRANCH  88  89
ATOM     89  C   UNL A   1      30.035  26.093  24.955  1.00  0.00    -0.028 A 
ATOM     90  C   UNL A   1      31.099  27.009  24.926  1.00  0.00     0.007 A 
ATOM     91  C   UNL A   1      28.904  26.347  24.163  1.00  0.00     0.007 A 
ATOM     92  C   UNL A   1      31.029  28.160  24.139  1.00  0.00     0.021 A 
ATOM     93  C   UNL A   1      28.841  27.490  23.362  1.00  0.00     0.021 A 
ATOM     94  C   UNL A   1      29.900  28.395  23.359  1.00  0.00     0.041 A 
ATOM     95  Cl  UNL A   1      29.817  29.814  22.390  1.00  0.00    -0.084 Cl
ENDBRANCH  88  89
ENDBRANCH  84  88
ENDBRANCH  77  80
ENDBRANCH  75  76
ENDBRANCH  74  75
ENDBRANCH  73  74
ENDBRANCH   1  73
TORSDOF 18
ENDMDL
MODEL 2
REMARK VINA RESULT:     -11.0      5.383     10.606
REMARK SMILES O=C(NCCCCCCNC(=O)c1cc(Cl)cn(Cc2ccc(Cl)cc2)c1=O)c1ccc(-c2c3nc(c(-c4cccc(S(=O)(=O)[O-])c4F)c4ccc([nH]4)c(-c4cccc(S(=O)(=O)[O-])c4F)c4nc(c(-c5cccc(S(=O)(=O)[O-])c5F)c5ccc2[nH]5)C=C4)C=C3)cc1
REMARK SMILES IDX 6 1 5 2 4 3 3 4 1 5 2 6 29 8 30 9 91 10 31 11 90 12 32 13
REMARK SMILES IDX 33 14 34 15 84 16 35 17 89 18 83 19 85 20 36 21 88 22 82 23
REMARK SMILES IDX 81 24 37 26 69 27 49 28 68 29 50 30 53 31 67 32 86 33 51 34
REMARK SMILES IDX 52 35 66 37 87 38 54 39 38 40 39 41 47 42 40 43 42 44 48 45
REMARK SMILES IDX 41 46 43 47 44 48 45 49 46 50 70 51 71 52 79 53 72 54 74 55
REMARK SMILES IDX 80 56 73 57 75 58 76 59 77 60 78 61 55 62 56 63 64 64 57 65
REMARK SMILES IDX 59 66 65 67 58 68 60 69 61 70 62 71 63 72 7 73 8 74 9 75
REMARK SMILES IDX 10 76 11 77 12 79 13 80 14 81 27 82 15 83 18 84 28 85 16 86
REMARK SMILES IDX 17 87 19 88 20 89 21 90 26 91 22 92 25 93 23 94 24 95
REMARK H PARENT 3 7 85 25 53 36 10 78
REMARK Flexibility Score: inf
ROOT
ATOM      1  C   UNL A   1      33.561  28.651  24.832  1.00  0.00     0.002 C 
ENDROOT
BRANCH   1   2
ATOM      2  C   UNL A   1      32.465  29.687  25.098  1.00  0.00     0.021 C 
BRANCH   2   3
ATOM      3  C   UNL A   1      32.294  30.095  26.558  1.00  0.00     0.116 C 
BRANCH   3   4
ATOM      4  N   UNL A   1      32.366  31.535  26.730  1.00  0.00    -0.352 N 
ATOM      5  O   UNL A   1      33.035  33.479  27.631  1.00  0.00    -0.269 OA
ATOM      6  C   UNL A   1      33.272  32.291  27.427  1.00  0.00     0.251 C 
ATOM      7  H   UNL A   1      31.655  32.046  26.279  1.00  0.00     0.163 HD
BRANCH   6   8
ATOM      8  C   UNL A   1      34.534  31.698  27.925  1.00  0.00     0.039 A 
ATOM      9  C   UNL A   1      34.549  30.342  28.267  1.00  0.00     0.014 A 
ATOM     10  C   UNL A   1      35.667  32.487  28.152  1.00  0.00     0.014 A 
ATOM     11  C   UNL A   1      35.694  29.776  28.832  1.00  0.00     0.010 A 
ATOM     12  C   UNL A   1      36.827  31.910  28.663  1.00  0.00     0.010 A 
ATOM     13  C   UNL A   1      36.839  30.558  29.041  1.00  0.00    -0.014 A 
BRANCH  13  14
ATOM     14  C   UNL A   1      38.024  30.020  29.752  1.00  0.00     0.031 A 
ATOM     15  C   UNL A   1      38.324  30.494  31.148  1.00  0.00     0.074 A 
ATOM     16  C   UNL A   1      38.850  29.150  29.146  1.00  0.00     0.049 A 
ATOM     17  N   UNL A   1      39.370  30.257  31.895  1.00  0.00    -0.248 NA
ATOM     18  C   UNL A   1      37.320  31.370  31.777  1.00  0.00     0.031 C 
ATOM     19  C   UNL A   1      38.678  28.620  27.794  1.00  0.00     0.029 A 
ATOM     20  N   UNL A   1      40.013  28.572  29.589  1.00  0.00    -0.354 N 
ATOM     21  C   UNL A   1      39.169  30.980  33.064  1.00  0.00     0.074 A 
ATOM     22  C   UNL A   1      37.914  31.685  32.919  1.00  0.00     0.031 C 
ATOM     23  C   UNL A   1      39.697  27.790  27.518  1.00  0.00     0.029 A 
ATOM     24  C   UNL A   1      40.609  27.755  28.659  1.00  0.00     0.049 A 
ATOM     25  H   UNL A   1      40.386  28.728  30.487  1.00  0.00     0.167 HD
ATOM     26  C   UNL A   1      39.941  31.029  34.175  1.00  0.00     0.034 A 
ATOM     27  C   UNL A   1      41.764  27.063  28.716  1.00  0.00     0.034 A 
ATOM     28  C   UNL A   1      41.159  30.288  34.347  1.00  0.00     0.049 A 
ATOM     29  C   UNL A   1      42.607  27.127  29.958  1.00  0.00     0.074 A 
ATOM     30  C   UNL A   1      41.994  30.249  35.449  1.00  0.00     0.029 A 
ATOM     31  N   UNL A   1      41.710  29.445  33.396  1.00  0.00    -0.354 N 
ATOM     32  N   UNL A   1      42.380  27.779  31.072  1.00  0.00    -0.248 NA
ATOM     33  C   UNL A   1      43.854  26.351  29.957  1.00  0.00     0.031 C 
ATOM     34  C   UNL A   1      43.049  29.374  35.165  1.00  0.00     0.029 A 
ATOM     35  C   UNL A   1      42.869  28.871  33.886  1.00  0.00     0.049 A 
ATOM     36  H   UNL A   1      41.332  29.278  32.501  1.00  0.00     0.167 HD
ATOM     37  C   UNL A   1      43.451  27.488  31.910  1.00  0.00     0.074 A 
ATOM     38  C   UNL A   1      44.315  26.581  31.182  1.00  0.00     0.031 C 
ATOM     39  C   UNL A   1      43.703  27.947  33.160  1.00  0.00     0.034 A 
BRANCH  26  40
ATOM     40  C   UNL A   1      39.442  31.869  35.318  1.00  0.00     0.023 A 
ATOM     41  C   UNL A   1      38.513  31.311  36.220  1.00  0.00     0.012 A 
ATOM     42  C   UNL A   1      39.899  33.185  35.516  1.00  0.00     0.148 A 
ATOM     43  C   UNL A   1      38.024  32.061  37.288  1.00  0.00     0.002 A 
ATOM     44  C   UNL A   1      39.430  33.916  36.602  1.00  0.00     0.091 A 
ATOM     45  F   UNL A   1      40.763  33.703  34.630  1.00  0.00    -0.205 F 
ATOM     46  C   UNL A   1      38.488  33.360  37.483  1.00  0.00     0.022 A 
BRANCH  44  47
ATOM     47  S   UNL A   1      39.998  35.580  36.967  1.00  0.00     0.127 S 
ATOM     48  O   UNL A   1      39.255  35.884  38.190  1.00  0.00    -0.237 OA
ATOM     49  O   UNL A   1      41.434  35.381  37.160  1.00  0.00    -0.237 OA
ATOM     50  O   UNL A   1      39.647  36.388  35.807  1.00  0.00    -0.744 OA
ENDBRANCH  44  47
ENDBRANCH  26  40
BRANCH  27  51
ATOM     51  C   UNL A   1      42.141  26.200  27.566  1.00  0.00     0.023 A 
ATOM     52  C   UNL A   1      42.991  26.722  26.572  1.00  0.00     0.012 A 
ATOM     53  C   UNL A   1      41.751  24.848  27.505  1.00  0.00     0.148 A 
ATOM     54  C   UNL A   1      43.450  25.911  25.536  1.00  0.00     0.002 A 
ATOM     55  C   UNL A   1      42.243  24.036  26.490  1.00  0.00     0.091 A 
ATOM     56  F   UNL A   1      40.949  24.378  28.469  1.00  0.00    -0.205 F 
ATOM     57  C   UNL A   1      43.086  24.567  25.499  1.00  0.00     0.022 A 
BRANCH  55  58
ATOM     58  S   UNL A   1      41.915  22.271  26.415  1.00  0.00     0.127 S 
ATOM     59  O   UNL A   1      40.478  22.244  26.140  1.00  0.00    -0.237 OA
ATOM     60  O   UNL A   1      42.763  21.864  25.292  1.00  0.00    -0.237 OA
ATOM     61  O   UNL A   1      42.307  21.735  27.708  1.00  0.00    -0.744 OA
ENDBRANCH  55  58
ENDBRANCH  27  51
BRANCH  39  62
ATOM     62  C   UNL A   1      44.974  27.495  33.827  1.00  0.00     0.023 A 
ATOM     63  C   UNL A   1      46.098  28.344  33.802  1.00  0.00     0.012 A 
ATOM     64  C   UNL A   1      45.027  26.292  34.556  1.00  0.00     0.148 A 
ATOM     65  C   UNL A   1      47.264  27.993  34.482  1.00  0.00     0.002 A 
ATOM     66  C   UNL A   1      46.182  25.963  35.257  1.00  0.00     0.091 A 
ATOM     67  F   UNL A   1      43.949  25.494  34.552  1.00  0.00    -0.205 F 
ATOM     68  C   UNL A   1      47.303  26.810  35.217  1.00  0.00     0.022 A 
BRANCH  66  69
ATOM     69  S   UNL A   1      46.301  24.498  36.288  1.00  0.00     0.127 S 
ATOM     70  O   UNL A   1      47.721  24.488  36.630  1.00  0.00    -0.237 OA
ATOM     71  O   UNL A   1      45.407  24.824  37.400  1.00  0.00    -0.237 OA
ATOM     72  O   UNL A   1      45.849  23.387  35.459  1.00  0.00    -0.744 OA
ENDBRANCH  66  69
ENDBRANCH  39  62
ENDBRANCH  13  14
ENDBRANCH   6   8
ENDBRANCH   3   4
ENDBRANCH   2   3
ENDBRANCH   1   2
BRANCH   1  73
ATOM     73  C   UNL A   1      33.107  27.376  24.115  1.00  0.00     0.002 C 
BRANCH  73  74
ATOM     74  C   UNL A   1      31.623  27.324  23.743  1.00  0.00     0.021 C 
BRANCH  74  75
ATOM     75  C   UNL A   1      30.941  25.979  23.984  1.00  0.00     0.116 C 
BRANCH  75  76
ATOM     76  N   UNL A   1      30.894  25.625  25.395  1.00  0.00    -0.352 N 
ATOM     77  C   UNL A   1      31.572  24.638  26.051  1.00  0.00     0.256 C 
ATOM     78  H   UNL A   1      30.291  26.171  25.951  1.00  0.00     0.163 HD
ATOM     79  O   UNL A   1      31.377  24.441  27.248  1.00  0.00    -0.269 OA
BRANCH  77  80
ATOM     80  C   UNL A   1      32.443  23.744  25.263  1.00  0.00     0.106 A 
ATOM     81  C   UNL A   1      33.766  23.876  25.453  1.00  0.00     0.041 A 
ATOM     82  C   UNL A   1      31.907  22.683  24.356  1.00  0.00     0.263 A 
ATOM     83  C   UNL A   1      34.683  22.950  24.843  1.00  0.00     0.058 A 
ATOM     84  N   UNL A   1      32.856  21.780  23.859  1.00  0.00    -0.309 N 
ATOM     85  O   UNL A   1      30.705  22.609  24.114  1.00  0.00    -0.268 OA
ATOM     86  Cl  UNL A   1      36.367  23.143  25.129  1.00  0.00    -0.083 Cl
ATOM     87  C   UNL A   1      34.214  21.932  24.112  1.00  0.00     0.110 A 
BRANCH  84  88
ATOM     88  C   UNL A   1      32.395  20.661  23.035  1.00  0.00     0.161 C 
BRANCH  88  89
ATOM     89  C   UNL A   1      32.628  19.318  23.694  1.00  0.00    -0.028 A 
ATOM     90  C   UNL A   1      32.931  18.183  22.926  1.00  0.00     0.007 A 
ATOM     91  C   UNL A   1      32.532  19.184  25.088  1.00  0.00     0.007 A 
ATOM     92  C   UNL A   1      33.117  16.939  23.533  1.00  0.00     0.021 A 
ATOM     93  C   UNL A   1      32.735  17.944  25.698  1.00  0.00     0.021 A 
ATOM     94  C   UNL A   1      33.019  16.825  24.917  1.00  0.00     0.041 A 
ATOM     95  Cl  UNL A   1      33.249  15.292  25.663  1.00  0.00    -0.084 Cl
ENDBRANCH  88  89
ENDBRANCH  84  88
ENDBRANCH  77  80
ENDBRANCH  75  76
ENDBRANCH  74  75
ENDBRANCH  73  74
ENDBRANCH   1  73
TORSDOF 18
ENDMDL
MODEL 3
REMARK VINA RESULT:     -10.9      5.520      8.964
REMARK SMILES O=C(NCCCCCCNC(=O)c1cc(Cl)cn(Cc2ccc(Cl)cc2)c1=O)c1ccc(-c2c3nc(c(-c4cccc(S(=O)(=O)[O-])c4F)c4ccc([nH]4)c(-c4cccc(S(=O)(=O)[O-])c4F)c4nc(c(-c5cccc(S(=O)(=O)[O-])c5F)c5ccc2[nH]5)C=C4)C=C3)cc1
REMARK SMILES IDX 6 1 5 2 4 3 3 4 1 5 2 6 29 8 30 9 91 10 31 11 90 12 32 13
REMARK SMILES IDX 33 14 34 15 84 16 35 17 89 18 83 19 85 20 36 21 88 22 82 23
REMARK SMILES IDX 81 24 37 26 69 27 49 28 68 29 50 30 53 31 67 32 86 33 51 34
REMARK SMILES IDX 52 35 66 37 87 38 54 39 38 40 39 41 47 42 40 43 42 44 48 45
REMARK SMILES IDX 41 46 43 47 44 48 45 49 46 50 70 51 71 52 79 53 72 54 74 55
REMARK SMILES IDX 80 56 73 57 75 58 76 59 77 60 78 61 55 62 56 63 64 64 57 65
REMARK SMILES IDX 59 66 65 67 58 68 60 69 61 70 62 71 63 72 7 73 8 74 9 75
REMARK SMILES IDX 10 76 11 77 12 79 13 80 14 81 27 82 15 83 18 84 28 85 16 86
REMARK SMILES IDX 17 87 19 88 20 89 21 90 26 91 22 92 25 93 23 94 24 95
REMARK H PARENT 3 7 85 25 53 36 10 78
REMARK Flexibility Score: inf
ROOT
ATOM      1  C   UNL A   1      33.814  28.555  25.042  1.00  0.00     0.002 C 
ENDROOT
BRANCH   1   2
ATOM      2  C   UNL A   1      32.683  29.587  25.093  1.00  0.00     0.021 C 
BRANCH   2   3
ATOM      3  C   UNL A   1      32.248  30.008  26.494  1.00  0.00     0.116 C 
BRANCH   3   4
ATOM      4  N   UNL A   1      32.162  31.452  26.623  1.00  0.00    -0.352 N 
ATOM      5  O   UNL A   1      32.594  33.481  27.480  1.00  0.00    -0.269 OA
ATOM      6  C   UNL A   1      32.962  32.319  27.320  1.00  0.00     0.251 C 
ATOM      7  H   UNL A   1      31.415  31.870  26.137  1.00  0.00     0.163 HD
BRANCH   6   8
ATOM      8  C   UNL A   1      34.264  31.880  27.870  1.00  0.00     0.039 A 
ATOM      9  C   UNL A   1      34.391  30.561  28.319  1.00  0.00     0.014 A 
ATOM     10  C   UNL A   1      35.322  32.778  28.038  1.00  0.00     0.014 A 
ATOM     11  C   UNL A   1      35.574  30.142  28.934  1.00  0.00     0.010 A 
ATOM     12  C   UNL A   1      36.521  32.346  28.600  1.00  0.00     0.010 A 
ATOM     13  C   UNL A   1      36.644  31.035  29.085  1.00  0.00    -0.014 A 
BRANCH  13  14
ATOM     14  C   UNL A   1      37.863  30.660  29.843  1.00  0.00     0.031 A 
ATOM     15  C   UNL A   1      38.846  29.701  29.229  1.00  0.00     0.074 A 
ATOM     16  C   UNL A   1      38.072  31.135  31.083  1.00  0.00     0.049 A 
ATOM     17  N   UNL A   1      39.899  29.141  29.764  1.00  0.00    -0.248 NA
ATOM     18  C   UNL A   1      38.597  29.304  27.833  1.00  0.00     0.031 C 
ATOM     19  C   UNL A   1      37.192  32.061  31.795  1.00  0.00     0.029 A 
ATOM     20  N   UNL A   1      39.088  30.885  31.971  1.00  0.00    -0.354 N 
ATOM     21  C   UNL A   1      40.416  28.301  28.787  1.00  0.00     0.074 A 
ATOM     22  C   UNL A   1      39.548  28.403  27.634  1.00  0.00     0.031 C 
ATOM     23  C   UNL A   1      37.709  32.307  33.010  1.00  0.00     0.029 A 
ATOM     24  C   UNL A   1      38.936  31.532  33.174  1.00  0.00     0.049 A 
ATOM     25  H   UNL A   1      39.852  30.299  31.767  1.00  0.00     0.167 HD
ATOM     26  C   UNL A   1      41.533  27.537  28.828  1.00  0.00     0.034 A 
ATOM     27  C   UNL A   1      39.695  31.495  34.288  1.00  0.00     0.034 A 
ATOM     28  C   UNL A   1      42.429  27.474  29.949  1.00  0.00     0.049 A 
ATOM     29  C   UNL A   1      40.932  30.643  34.314  1.00  0.00     0.074 A 
ATOM     30  C   UNL A   1      43.602  26.751  30.072  1.00  0.00     0.029 A 
ATOM     31  N   UNL A   1      42.259  28.170  31.134  1.00  0.00    -0.354 N 
ATOM     32  N   UNL A   1      41.432  29.890  33.366  1.00  0.00    -0.248 NA
ATOM     33  C   UNL A   1      41.716  30.647  35.557  1.00  0.00     0.031 C 
ATOM     34  C   UNL A   1      44.146  27.018  31.335  1.00  0.00     0.029 A 
ATOM     35  C   UNL A   1      43.310  27.904  31.994  1.00  0.00     0.049 A 
ATOM     36  H   UNL A   1      41.502  28.767  31.336  1.00  0.00     0.167 HD
ATOM     37  C   UNL A   1      42.593  29.334  33.891  1.00  0.00     0.074 A 
ATOM     38  C   UNL A   1      42.734  29.857  35.235  1.00  0.00     0.031 C 
ATOM     39  C   UNL A   1      43.452  28.456  33.318  1.00  0.00     0.034 A 
BRANCH  26  40
ATOM     40  C   UNL A   1      41.876  26.759  27.588  1.00  0.00     0.023 A 
ATOM     41  C   UNL A   1      42.369  27.450  26.463  1.00  0.00     0.012 A 
ATOM     42  C   UNL A   1      41.736  25.359  27.537  1.00  0.00     0.148 A 
ATOM     43  C   UNL A   1      42.691  26.764  25.294  1.00  0.00     0.002 A 
ATOM     44  C   UNL A   1      42.089  24.678  26.378  1.00  0.00     0.091 A 
ATOM     45  F   UNL A   1      41.240  24.726  28.610  1.00  0.00    -0.205 F 
ATOM     46  C   UNL A   1      42.560  25.378  25.254  1.00  0.00     0.022 A 
BRANCH  44  47
ATOM     47  S   UNL A   1      41.998  22.889  26.239  1.00  0.00     0.127 S 
ATOM     48  O   UNL A   1      42.774  22.464  27.404  1.00  0.00    -0.237 OA
ATOM     49  O   UNL A   1      40.560  22.644  26.342  1.00  0.00    -0.237 OA
ATOM     50  O   UNL A   1      42.580  22.557  24.946  1.00  0.00    -0.744 OA
ENDBRANCH  44  47
ENDBRANCH  26  40
BRANCH  27  51
ATOM     51  C   UNL A   1      39.319  32.356  35.440  1.00  0.00     0.023 A 
ATOM     52  C   UNL A   1      38.525  31.810  36.466  1.00  0.00     0.012 A 
ATOM     53  C   UNL A   1      39.825  33.662  35.575  1.00  0.00     0.148 A 
ATOM     54  C   UNL A   1      38.240  32.552  37.612  1.00  0.00     0.002 A 
ATOM     55  C   UNL A   1      39.569  34.382  36.737  1.00  0.00     0.091 A 
ATOM     56  F   UNL A   1      40.585  34.152  34.586  1.00  0.00    -0.205 F 
ATOM     57  C   UNL A   1      38.770  33.832  37.752  1.00  0.00     0.022 A 
BRANCH  55  58
ATOM     58  S   UNL A   1      40.289  35.997  37.056  1.00  0.00     0.127 S 
ATOM     59  O   UNL A   1      39.746  36.792  35.953  1.00  0.00    -0.237 OA
ATOM     60  O   UNL A   1      39.731  36.311  38.373  1.00  0.00    -0.237 OA
ATOM     61  O   UNL A   1      41.729  35.806  37.028  1.00  0.00    -0.744 OA
ENDBRANCH  55  58
ENDBRANCH  27  51
BRANCH  39  62
ATOM     62  C   UNL A   1      44.619  27.982  34.140  1.00  0.00     0.023 A 
ATOM     63  C   UNL A   1      45.785  28.770  34.190  1.00  0.00     0.012 A 
ATOM     64  C   UNL A   1      44.530  26.822  34.932  1.00  0.00     0.148 A 
ATOM     65  C   UNL A   1      46.853  28.402  35.008  1.00  0.00     0.002 A 
ATOM     66  C   UNL A   1      45.586  26.477  35.769  1.00  0.00     0.091 A 
ATOM     67  F   UNL A   1      43.416  26.079  34.855  1.00  0.00    -0.205 F 
ATOM     68  C   UNL A   1      46.750  27.264  35.804  1.00  0.00     0.022 A 
BRANCH  66  69
ATOM     69  S   UNL A   1      45.515  25.070  36.882  1.00  0.00     0.127 S 
ATOM     70  O   UNL A   1      44.998  25.682  38.104  1.00  0.00    -0.237 OA
ATOM     71  O   UNL A   1      44.574  24.179  36.201  1.00  0.00    -0.237 OA
ATOM     72  O   UNL A   1      46.877  24.557  36.967  1.00  0.00    -0.744 OA
ENDBRANCH  66  69
ENDBRANCH  39  62
ENDBRANCH  13  14
ENDBRANCH   6   8
ENDBRANCH   3   4
ENDBRANCH   2   3
ENDBRANCH   1   2
BRANCH   1  73
ATOM     73  C   UNL A   1      33.372  27.095  24.906  1.00  0.00     0.002 C 
BRANCH  73  74
ATOM     74  C   UNL A   1      31.928  26.885  24.444  1.00  0.00     0.021 C 
BRANCH  74  75
ATOM     75  C   UNL A   1      31.419  25.448  24.537  1.00  0.00     0.116 C 
BRANCH  75  76
ATOM     76  N   UNL A   1      31.271  24.999  25.912  1.00  0.00    -0.352 N 
ATOM     77  C   UNL A   1      31.877  23.947  26.538  1.00  0.00     0.256 C 
ATOM     78  H   UNL A   1      30.650  25.525  26.467  1.00  0.00     0.163 HD
ATOM     79  O   UNL A   1      31.599  23.675  27.704  1.00  0.00    -0.269 OA
BRANCH  77  80
ATOM     80  C   UNL A   1      32.771  23.081  25.745  1.00  0.00     0.106 A 
ATOM     81  C   UNL A   1      34.080  23.143  26.038  1.00  0.00     0.041 A 
ATOM     82  C   UNL A   1      32.267  22.117  24.719  1.00  0.00     0.263 A 
ATOM     83  C   UNL A   1      35.006  22.230  25.423  1.00  0.00     0.058 A 
ATOM     84  N   UNL A   1      33.217  21.218  24.220  1.00  0.00    -0.309 N 
ATOM     85  O   UNL A   1      31.085  22.113  24.387  1.00  0.00    -0.268 OA
ATOM     86  Cl  UNL A   1      36.671  22.330  25.843  1.00  0.00    -0.083 Cl
ATOM     87  C   UNL A   1      34.557  21.292  24.581  1.00  0.00     0.110 A 
BRANCH  84  88
ATOM     88  C   UNL A   1      32.779  20.186  23.278  1.00  0.00     0.161 C 
BRANCH  88  89
ATOM     89  C   UNL A   1      32.883  18.789  23.854  1.00  0.00    -0.028 A 
ATOM     90  C   UNL A   1      33.435  17.741  23.102  1.00  0.00     0.007 A 
ATOM     91  C   UNL A   1      32.414  18.518  25.148  1.00  0.00     0.007 A 
ATOM     92  C   UNL A   1      33.503  16.447  23.624  1.00  0.00     0.021 A 
ATOM     93  C   UNL A   1      32.498  17.228  25.678  1.00  0.00     0.021 A 
ATOM     94  C   UNL A   1      33.035  16.197  24.911  1.00  0.00     0.041 A 
ATOM     95  Cl  UNL A   1      33.120  14.602  25.552  1.00  0.00    -0.084 Cl
ENDBRANCH  88  89
ENDBRANCH  84  88
ENDBRANCH  77  80
ENDBRANCH  75  76
ENDBRANCH  74  75
ENDBRANCH  73  74
ENDBRANCH   1  73
TORSDOF 18
ENDMDL
