MODEL 1
REMARK VINA RESULT:     -11.5      0.000      0.000
REMARK SMILES O=C(NCCCCCCNC(=O)c1ccc(C[NH2+][C@@H]2CCCc3sccc32)nc1)c1ccc(-c2c3nc(c(-c4cccc(S(=O)(=O)[O-])c4F)c4ccc([nH]4)c(-c4cccc(S(=O)(=O)[O-])c4F)c4nc(c(-c5cccc(S(=O)(=O)[O-])c5F)c5ccc2[nH]5)C=C4)C=C3)cc1
REMARK SMILES IDX 6 1 5 2 4 3 3 4 1 5 2 6 30 8 31 9 92 10 32 11 91 12 33 13
REMARK SMILES IDX 34 14 35 15 85 16 36 17 90 18 84 19 86 20 37 21 89 22 83 23
REMARK SMILES IDX 82 24 38 26 70 27 50 28 69 29 51 30 54 31 68 32 87 33 52 34
REMARK SMILES IDX 53 35 67 37 88 38 55 39 39 40 40 41 48 42 41 43 43 44 49 45
REMARK SMILES IDX 42 46 44 47 45 48 46 49 47 50 71 51 72 52 80 53 73 54 75 55
REMARK SMILES IDX 81 56 74 57 76 58 77 59 78 60 79 61 56 62 57 63 65 64 58 65
REMARK SMILES IDX 60 66 66 67 59 68 61 69 62 70 63 71 64 72 7 73 8 74 9 75
REMARK SMILES IDX 10 76 11 77 12 79 13 80 14 81 29 82 15 83 28 84 16 85 17 86
REMARK SMILES IDX 18 87 19 90 20 91 27 92 21 93 23 94 26 95 22 96 24 97 25 98
REMARK H PARENT 3 7 86 25 54 36 10 78 18 88 18 89
REMARK Flexibility Score: inf
ROOT
ATOM      1  C   UNL A   1      37.384  21.047  24.400  1.00  0.00     0.002 C 
ENDROOT
BRANCH   1   2
ATOM      2  C   UNL A   1      38.092  19.823  24.978  1.00  0.00     0.021 C 
BRANCH   2   3
ATOM      3  C   UNL A   1      39.158  20.128  26.022  1.00  0.00     0.116 C 
BRANCH   3   4
ATOM      4  N   UNL A   1      40.287  19.217  25.952  1.00  0.00    -0.352 N 
ATOM      5  O   UNL A   1      42.453  18.620  25.778  1.00  0.00    -0.269 OA
ATOM      6  C   UNL A   1      41.631  19.499  26.021  1.00  0.00     0.251 C 
ATOM      7  H   UNL A   1      40.057  18.266  25.839  1.00  0.00     0.163 HD
BRANCH   6   8
ATOM      8  C   UNL A   1      42.073  20.870  26.357  1.00  0.00     0.039 A 
ATOM      9  C   UNL A   1      42.325  21.232  27.682  1.00  0.00     0.014 A 
ATOM     10  C   UNL A   1      42.235  21.806  25.332  1.00  0.00     0.014 A 
ATOM     11  C   UNL A   1      42.594  22.559  27.997  1.00  0.00     0.010 A 
ATOM     12  C   UNL A   1      42.591  23.122  25.644  1.00  0.00     0.010 A 
ATOM     13  C   UNL A   1      42.743  23.517  26.981  1.00  0.00    -0.014 A 
BRANCH  13  14
ATOM     14  C   UNL A   1      43.130  24.905  27.342  1.00  0.00     0.031 A 
ATOM     15  C   UNL A   1      44.513  25.431  27.072  1.00  0.00     0.074 A 
ATOM     16  C   UNL A   1      42.207  25.699  27.922  1.00  0.00     0.049 A 
ATOM     17  N   UNL A   1      44.992  26.629  27.293  1.00  0.00    -0.248 NA
ATOM     18  C   UNL A   1      45.488  24.498  26.487  1.00  0.00     0.031 C 
ATOM     19  C   UNL A   1      40.848  25.282  28.279  1.00  0.00     0.029 A 
ATOM     20  N   UNL A   1      42.264  27.011  28.313  1.00  0.00    -0.354 N 
ATOM     21  C   UNL A   1      46.328  26.586  26.914  1.00  0.00     0.074 A 
ATOM     22  C   UNL A   1      46.589  25.238  26.453  1.00  0.00     0.031 C 
ATOM     23  C   UNL A   1      40.192  26.324  28.808  1.00  0.00     0.029 A 
ATOM     24  C   UNL A   1      41.095  27.467  28.875  1.00  0.00     0.049 A 
ATOM     25  H   UNL A   1      43.065  27.573  28.201  1.00  0.00     0.167 HD
ATOM     26  C   UNL A   1      47.248  27.581  26.931  1.00  0.00     0.034 A 
ATOM     27  C   UNL A   1      40.783  28.668  29.398  1.00  0.00     0.034 A 
ATOM     28  C   UNL A   1      46.972  28.928  27.358  1.00  0.00     0.049 A 
ATOM     29  C   UNL A   1      41.814  29.759  29.374  1.00  0.00     0.074 A 
ATOM     30  C   UNL A   1      47.819  30.023  27.350  1.00  0.00     0.029 A 
ATOM     31  N   UNL A   1      45.763  29.365  27.876  1.00  0.00    -0.354 N 
ATOM     32  N   UNL A   1      43.029  29.733  28.884  1.00  0.00    -0.248 NA
ATOM     33  C   UNL A   1      41.421  31.052  29.950  1.00  0.00     0.031 C 
ATOM     34  C   UNL A   1      47.127  31.118  27.879  1.00  0.00     0.029 A 
ATOM     35  C   UNL A   1      45.842  30.711  28.199  1.00  0.00     0.049 A 
ATOM     36  H   UNL A   1      44.964  28.803  27.997  1.00  0.00     0.167 HD
ATOM     37  C   UNL A   1      43.540  31.011  29.070  1.00  0.00     0.074 A 
ATOM     38  C   UNL A   1      42.490  31.794  29.691  1.00  0.00     0.031 C 
ATOM     39  C   UNL A   1      44.774  31.489  28.772  1.00  0.00     0.034 A 
BRANCH  26  40
ATOM     40  C   UNL A   1      48.636  27.268  26.434  1.00  0.00     0.023 A 
ATOM     41  C   UNL A   1      49.552  26.624  27.291  1.00  0.00     0.012 A 
ATOM     42  C   UNL A   1      49.011  27.539  25.103  1.00  0.00     0.148 A 
ATOM     43  C   UNL A   1      50.826  26.279  26.841  1.00  0.00     0.002 A 
ATOM     44  C   UNL A   1      50.270  27.158  24.650  1.00  0.00     0.091 A 
ATOM     45  F   UNL A   1      48.136  28.171  24.307  1.00  0.00    -0.205 F 
ATOM     46  C   UNL A   1      51.181  26.536  25.520  1.00  0.00     0.022 A 
BRANCH  44  47
ATOM     47  S   UNL A   1      50.792  27.378  22.945  1.00  0.00     0.127 S 
ATOM     48  O   UNL A   1      50.806  28.836  22.827  1.00  0.00    -0.237 OA
ATOM     49  O   UNL A   1      52.117  26.755  22.944  1.00  0.00    -0.237 OA
ATOM     50  O   UNL A   1      49.800  26.691  22.132  1.00  0.00    -0.744 OA
ENDBRANCH  44  47
ENDBRANCH  26  40
BRANCH  27  51
ATOM     51  C   UNL A   1      39.414  28.904  29.934  1.00  0.00     0.023 A 
ATOM     52  C   UNL A   1      39.111  28.519  31.253  1.00  0.00     0.012 A 
ATOM     53  C   UNL A   1      38.431  29.558  29.166  1.00  0.00     0.148 A 
ATOM     54  C   UNL A   1      37.847  28.761  31.791  1.00  0.00     0.002 A 
ATOM     55  C   UNL A   1      37.195  29.850  29.728  1.00  0.00     0.091 A 
ATOM     56  F   UNL A   1      38.734  29.902  27.906  1.00  0.00    -0.205 F 
ATOM     57  C   UNL A   1      36.895  29.438  31.034  1.00  0.00     0.022 A 
BRANCH  55  58
ATOM     58  S   UNL A   1      35.970  30.847  28.872  1.00  0.00     0.127 S 
ATOM     59  O   UNL A   1      35.251  29.839  28.098  1.00  0.00    -0.237 OA
ATOM     60  O   UNL A   1      35.215  31.425  29.985  1.00  0.00    -0.237 OA
ATOM     61  O   UNL A   1      36.732  31.821  28.101  1.00  0.00    -0.744 OA
ENDBRANCH  55  58
ENDBRANCH  27  51
BRANCH  39  62
ATOM     62  C   UNL A   1      45.051  32.932  29.093  1.00  0.00     0.023 A 
ATOM     63  C   UNL A   1      45.583  33.277  30.352  1.00  0.00     0.012 A 
ATOM     64  C   UNL A   1      44.839  33.940  28.133  1.00  0.00     0.148 A 
ATOM     65  C   UNL A   1      45.869  34.606  30.661  1.00  0.00     0.002 A 
ATOM     66  C   UNL A   1      45.169  35.256  28.431  1.00  0.00     0.091 A 
ATOM     67  F   UNL A   1      44.310  33.595  26.949  1.00  0.00    -0.205 F 
ATOM     68  C   UNL A   1      45.673  35.593  29.698  1.00  0.00     0.022 A 
BRANCH  66  69
ATOM     69  S   UNL A   1      45.033  36.575  27.219  1.00  0.00     0.127 S 
ATOM     70  O   UNL A   1      45.990  36.146  26.202  1.00  0.00    -0.237 OA
ATOM     71  O   UNL A   1      43.630  36.484  26.813  1.00  0.00    -0.237 OA
ATOM     72  O   UNL A   1      45.373  37.802  27.927  1.00  0.00    -0.744 OA
ENDBRANCH  66  69
ENDBRANCH  39  62
ENDBRANCH  13  14
ENDBRANCH   6   8
ENDBRANCH   3   4
ENDBRANCH   2   3
ENDBRANCH   1   2
BRANCH   1  73
ATOM     73  C   UNL A   1      35.921  21.219  24.818  1.00  0.00     0.002 C 
BRANCH  73  74
ATOM     74  C   UNL A   1      35.694  21.899  26.171  1.00  0.00     0.021 C 
BRANCH  74  75
ATOM     75  C   UNL A   1      34.453  21.435  26.929  1.00  0.00     0.116 C 
BRANCH  75  76
ATOM     76  N   UNL A   1      33.841  20.270  26.311  1.00  0.00    -0.352 N 
ATOM     77  C   UNL A   1      32.740  20.211  25.496  1.00  0.00     0.252 C 
ATOM     78  H   UNL A   1      34.274  19.407  26.504  1.00  0.00     0.163 HD
ATOM     79  O   UNL A   1      32.237  19.136  25.188  1.00  0.00    -0.269 OA
BRANCH  77  80
ATOM     80  C   UNL A   1      32.154  21.460  24.998  1.00  0.00     0.058 A 
ATOM     81  C   UNL A   1      31.312  22.243  25.786  1.00  0.00     0.017 A 
ATOM     82  C   UNL A   1      32.433  21.867  23.705  1.00  0.00     0.125 A 
ATOM     83  C   UNL A   1      30.726  23.373  25.225  1.00  0.00     0.030 A 
ATOM     84  N   UNL A   1      31.871  22.959  23.137  1.00  0.00    -0.255 NA
ATOM     85  C   UNL A   1      31.012  23.691  23.896  1.00  0.00     0.094 A 
BRANCH  85  86
ATOM     86  C   UNL A   1      30.328  24.878  23.240  1.00  0.00     0.318 C 
BRANCH  86  87
ATOM     87  N   UNL A   1      29.565  25.680  24.204  1.00  0.00    -0.335 N 
ATOM     88  H   UNL A   1      29.759  25.318  25.138  1.00  0.00     0.347 HD
ATOM     89  H   UNL A   1      28.586  25.596  23.932  1.00  0.00     0.347 HD
BRANCH  87  90
ATOM     90  C   UNL A   1      29.869  27.111  24.200  1.00  0.00     0.215 C 
ATOM     91  C   UNL A   1      29.749  27.745  22.792  1.00  0.00     0.071 C 
ATOM     92  C   UNL A   1      31.197  27.409  24.852  1.00  0.00     0.023 A 
ATOM     93  C   UNL A   1      30.323  29.170  22.761  1.00  0.00     0.012 C 
ATOM     94  C   UNL A   1      32.064  28.359  24.343  1.00  0.00     0.014 A 
ATOM     95  C   UNL A   1      31.723  26.831  26.053  1.00  0.00     0.022 A 
ATOM     96  C   UNL A   1      31.819  29.178  23.114  1.00  0.00     0.047 C 
ATOM     97  S   UNL A   1      33.502  28.495  25.244  1.00  0.00    -0.148 S 
ATOM     98  C   UNL A   1      32.977  27.311  26.361  1.00  0.00     0.065 A 
ENDBRANCH  87  90
ENDBRANCH  86  87
ENDBRANCH  85  86
ENDBRANCH  77  80
ENDBRANCH  75  76
ENDBRANCH  74  75
ENDBRANCH  73  74
ENDBRANCH   1  73
TORSDOF 19
ENDMDL
MODEL 2
REMARK VINA RESULT:     -10.9      1.588      1.951
REMARK SMILES O=C(NCCCCCCNC(=O)c1ccc(C[NH2+][C@@H]2CCCc3sccc32)nc1)c1ccc(-c2c3nc(c(-c4cccc(S(=O)(=O)[O-])c4F)c4ccc([nH]4)c(-c4cccc(S(=O)(=O)[O-])c4F)c4nc(c(-c5cccc(S(=O)(=O)[O-])c5F)c5ccc2[nH]5)C=C4)C=C3)cc1
REMARK SMILES IDX 6 1 5 2 4 3 3 4 1 5 2 6 30 8 31 9 92 10 32 11 91 12 33 13
REMARK SMILES IDX 34 14 35 15 85 16 36 17 90 18 84 19 86 20 37 21 89 22 83 23
REMARK SMILES IDX 82 24 38 26 70 27 50 28 69 29 51 30 54 31 68 32 87 33 52 34
REMARK SMILES IDX 53 35 67 37 88 38 55 39 39 40 40 41 48 42 41 43 43 44 49 45
REMARK SMILES IDX 42 46 44 47 45 48 46 49 47 50 71 51 72 52 80 53 73 54 75 55
REMARK SMILES IDX 81 56 74 57 76 58 77 59 78 60 79 61 56 62 57 63 65 64 58 65
REMARK SMILES IDX 60 66 66 67 59 68 61 69 62 70 63 71 64 72 7 73 8 74 9 75
REMARK SMILES IDX 10 76 11 77 12 79 13 80 14 81 29 82 15 83 28 84 16 85 17 86
REMARK SMILES IDX 18 87 19 90 20 91 27 92 21 93 23 94 26 95 22 96 24 97 25 98
REMARK H PARENT 3 7 86 25 54 36 10 78 18 88 18 89
REMARK Flexibility Score: inf
ROOT
ATOM      1  C   UNL A   1      38.402  22.097  25.653  1.00  0.00     0.002 C 
ENDROOT
BRANCH   1   2
ATOM      2  C   UNL A   1      38.953  20.716  25.299  1.00  0.00     0.021 C 
BRANCH   2   3
ATOM      3  C   UNL A   1      39.567  19.950  26.463  1.00  0.00     0.116 C 
BRANCH   3   4
ATOM      4  N   UNL A   1      40.802  19.276  26.098  1.00  0.00    -0.352 N 
ATOM      5  O   UNL A   1      42.964  19.113  25.486  1.00  0.00    -0.269 OA
ATOM      6  C   UNL A   1      42.065  19.801  25.961  1.00  0.00     0.251 C 
ATOM      7  H   UNL A   1      40.722  18.310  25.927  1.00  0.00     0.163 HD
BRANCH   6   8
ATOM      8  C   UNL A   1      42.321  21.203  26.358  1.00  0.00     0.039 A 
ATOM      9  C   UNL A   1      42.346  22.220  25.401  1.00  0.00     0.014 A 
ATOM     10  C   UNL A   1      42.544  21.502  27.705  1.00  0.00     0.014 A 
ATOM     11  C   UNL A   1      42.735  23.504  25.767  1.00  0.00     0.010 A 
ATOM     12  C   UNL A   1      42.850  22.812  28.083  1.00  0.00     0.010 A 
ATOM     13  C   UNL A   1      42.980  23.818  27.114  1.00  0.00    -0.014 A 
BRANCH  13  14
ATOM     14  C   UNL A   1      43.295  25.222  27.487  1.00  0.00     0.031 A 
ATOM     15  C   UNL A   1      44.677  25.789  27.318  1.00  0.00     0.074 A 
ATOM     16  C   UNL A   1      42.304  25.991  27.983  1.00  0.00     0.049 A 
ATOM     17  N   UNL A   1      45.099  27.004  27.560  1.00  0.00    -0.248 NA
ATOM     18  C   UNL A   1      45.723  24.882  26.821  1.00  0.00     0.031 C 
ATOM     19  C   UNL A   1      40.936  25.534  28.239  1.00  0.00     0.029 A 
ATOM     20  N   UNL A   1      42.290  27.308  28.360  1.00  0.00    -0.354 N 
ATOM     21  C   UNL A   1      46.462  27.000  27.286  1.00  0.00     0.074 A 
ATOM     22  C   UNL A   1      46.799  25.657  26.863  1.00  0.00     0.031 C 
ATOM     23  C   UNL A   1      40.208  26.560  28.703  1.00  0.00     0.029 A 
ATOM     24  C   UNL A   1      41.067  27.732  28.825  1.00  0.00     0.049 A 
ATOM     25  H   UNL A   1      43.079  27.894  28.304  1.00  0.00     0.167 HD
ATOM     26  C   UNL A   1      47.346  28.024  27.362  1.00  0.00     0.034 A 
ATOM     27  C   UNL A   1      40.678  28.927  29.307  1.00  0.00     0.034 A 
ATOM     28  C   UNL A   1      46.995  29.366  27.749  1.00  0.00     0.049 A 
ATOM     29  C   UNL A   1      41.673  30.051  29.350  1.00  0.00     0.074 A 
ATOM     30  C   UNL A   1      47.806  30.488  27.793  1.00  0.00     0.029 A 
ATOM     31  N   UNL A   1      45.736  29.769  28.166  1.00  0.00    -0.354 N 
ATOM     32  N   UNL A   1      42.923  30.059  28.955  1.00  0.00    -0.248 NA
ATOM     33  C   UNL A   1      41.196  31.336  29.877  1.00  0.00     0.031 C 
ATOM     34  C   UNL A   1      47.041  31.565  28.253  1.00  0.00     0.029 A 
ATOM     35  C   UNL A   1      45.748  31.120  28.477  1.00  0.00     0.049 A 
ATOM     36  H   UNL A   1      44.949  29.183  28.232  1.00  0.00     0.167 HD
ATOM     37  C   UNL A   1      43.377  31.355  29.164  1.00  0.00     0.074 A 
ATOM     38  C   UNL A   1      42.258  32.109  29.692  1.00  0.00     0.031 C 
ATOM     39  C   UNL A   1      44.615  31.869  28.956  1.00  0.00     0.034 A 
BRANCH  26  40
ATOM     40  C   UNL A   1      48.777  27.751  26.977  1.00  0.00     0.023 A 
ATOM     41  C   UNL A   1      49.145  27.766  25.617  1.00  0.00     0.012 A 
ATOM     42  C   UNL A   1      49.770  27.555  27.958  1.00  0.00     0.148 A 
ATOM     43  C   UNL A   1      50.472  27.565  25.236  1.00  0.00     0.002 A 
ATOM     44  C   UNL A   1      51.097  27.393  27.573  1.00  0.00     0.091 A 
ATOM     45  F   UNL A   1      49.400  27.523  29.246  1.00  0.00    -0.205 F 
ATOM     46  C   UNL A   1      51.448  27.389  26.213  1.00  0.00     0.022 A 
BRANCH  44  47
ATOM     47  S   UNL A   1      52.437  27.235  28.760  1.00  0.00     0.127 S 
ATOM     48  O   UNL A   1      52.045  26.029  29.487  1.00  0.00    -0.237 OA
ATOM     49  O   UNL A   1      53.603  27.070  27.890  1.00  0.00    -0.237 OA
ATOM     50  O   UNL A   1      52.430  28.467  29.535  1.00  0.00    -0.744 OA
ENDBRANCH  44  47
ENDBRANCH  26  40
BRANCH  27  51
ATOM     51  C   UNL A   1      39.264  29.125  29.732  1.00  0.00     0.023 A 
ATOM     52  C   UNL A   1      38.879  28.773  31.040  1.00  0.00     0.012 A 
ATOM     53  C   UNL A   1      38.317  29.710  28.870  1.00  0.00     0.148 A 
ATOM     54  C   UNL A   1      37.570  28.981  31.474  1.00  0.00     0.002 A 
ATOM     55  C   UNL A   1      37.032  29.970  29.329  1.00  0.00     0.091 A 
ATOM     56  F   UNL A   1      38.698  30.022  27.624  1.00  0.00    -0.205 F 
ATOM     57  C   UNL A   1      36.651  29.591  30.625  1.00  0.00     0.022 A 
BRANCH  55  58
ATOM     58  S   UNL A   1      35.836  30.885  28.350  1.00  0.00     0.127 S 
ATOM     59  O   UNL A   1      35.458  29.899  27.341  1.00  0.00    -0.237 OA
ATOM     60  O   UNL A   1      34.798  31.185  29.337  1.00  0.00    -0.237 OA
ATOM     61  O   UNL A   1      36.549  32.056  27.861  1.00  0.00    -0.744 OA
ENDBRANCH  55  58
ENDBRANCH  27  51
BRANCH  39  62
ATOM     62  C   UNL A   1      44.820  33.324  29.280  1.00  0.00     0.023 A 
ATOM     63  C   UNL A   1      45.269  33.696  30.563  1.00  0.00     0.012 A 
ATOM     64  C   UNL A   1      44.625  34.316  28.301  1.00  0.00     0.148 A 
ATOM     65  C   UNL A   1      45.488  35.037  30.876  1.00  0.00     0.002 A 
ATOM     66  C   UNL A   1      44.890  35.646  28.605  1.00  0.00     0.091 A 
ATOM     67  F   UNL A   1      44.176  33.945  27.093  1.00  0.00    -0.205 F 
ATOM     68  C   UNL A   1      45.310  36.010  29.895  1.00  0.00     0.022 A 
BRANCH  66  69
ATOM     69  S   UNL A   1      44.774  36.951  27.376  1.00  0.00     0.127 S 
ATOM     70  O   UNL A   1      45.133  38.132  28.159  1.00  0.00    -0.237 OA
ATOM     71  O   UNL A   1      45.778  36.544  26.392  1.00  0.00    -0.237 OA
ATOM     72  O   UNL A   1      43.403  36.913  26.885  1.00  0.00    -0.744 OA
ENDBRANCH  66  69
ENDBRANCH  39  62
ENDBRANCH  13  14
ENDBRANCH   6   8
ENDBRANCH   3   4
ENDBRANCH   2   3
ENDBRANCH   1   2
BRANCH   1  73
ATOM     73  C   UNL A   1      37.242  22.586  24.782  1.00  0.00     0.002 C 
BRANCH  73  74
ATOM     74  C   UNL A   1      36.091  21.593  24.593  1.00  0.00     0.021 C 
BRANCH  74  75
ATOM     75  C   UNL A   1      35.196  21.399  25.815  1.00  0.00     0.116 C 
BRANCH  75  76
ATOM     76  N   UNL A   1      34.424  20.169  25.735  1.00  0.00    -0.352 N 
ATOM     77  C   UNL A   1      33.106  20.006  25.394  1.00  0.00     0.252 C 
ATOM     78  H   UNL A   1      34.912  19.343  25.955  1.00  0.00     0.163 HD
ATOM     79  O   UNL A   1      32.544  18.926  25.536  1.00  0.00    -0.269 OA
BRANCH  77  80
ATOM     80  C   UNL A   1      32.360  21.152  24.861  1.00  0.00     0.058 A 
ATOM     81  C   UNL A   1      32.529  21.593  23.550  1.00  0.00     0.017 A 
ATOM     82  C   UNL A   1      31.474  21.822  25.686  1.00  0.00     0.125 A 
ATOM     83  C   UNL A   1      31.851  22.734  23.134  1.00  0.00     0.030 A 
ATOM     84  N   UNL A   1      30.809  22.936  25.305  1.00  0.00    -0.255 NA
ATOM     85  C   UNL A   1      31.016  23.390  24.039  1.00  0.00     0.094 A 
BRANCH  85  86
ATOM     86  C   UNL A   1      30.322  24.678  23.630  1.00  0.00     0.318 C 
BRANCH  86  87
ATOM     87  N   UNL A   1      30.030  25.539  24.782  1.00  0.00    -0.335 N 
ATOM     88  H   UNL A   1      30.688  25.304  25.526  1.00  0.00     0.347 HD
ATOM     89  H   UNL A   1      29.057  25.362  25.030  1.00  0.00     0.347 HD
BRANCH  87  90
ATOM     90  C   UNL A   1      30.130  26.976  24.525  1.00  0.00     0.215 C 
ATOM     91  C   UNL A   1      29.093  27.472  23.486  1.00  0.00     0.071 C 
ATOM     92  C   UNL A   1      31.537  27.391  24.173  1.00  0.00     0.023 A 
ATOM     93  C   UNL A   1      29.385  28.913  23.038  1.00  0.00     0.012 C 
ATOM     94  C   UNL A   1      31.799  28.328  23.189  1.00  0.00     0.014 A 
ATOM     95  C   UNL A   1      32.752  26.949  24.791  1.00  0.00     0.022 A 
ATOM     96  C   UNL A   1      30.761  29.019  22.361  1.00  0.00     0.047 C 
ATOM     97  S   UNL A   1      33.462  28.609  22.967  1.00  0.00    -0.148 S 
ATOM     98  C   UNL A   1      33.869  27.511  24.213  1.00  0.00     0.065 A 
ENDBRANCH  87  90
ENDBRANCH  86  87
ENDBRANCH  85  86
ENDBRANCH  77  80
ENDBRANCH  75  76
ENDBRANCH  74  75
ENDBRANCH  73  74
ENDBRANCH   1  73
TORSDOF 19
ENDMDL
MODEL 3
REMARK VINA RESULT:     -10.7      6.409     11.365
REMARK SMILES O=C(NCCCCCCNC(=O)c1ccc(C[NH2+][C@@H]2CCCc3sccc32)nc1)c1ccc(-c2c3nc(c(-c4cccc(S(=O)(=O)[O-])c4F)c4ccc([nH]4)c(-c4cccc(S(=O)(=O)[O-])c4F)c4nc(c(-c5cccc(S(=O)(=O)[O-])c5F)c5ccc2[nH]5)C=C4)C=C3)cc1
REMARK SMILES IDX 6 1 5 2 4 3 3 4 1 5 2 6 30 8 31 9 92 10 32 11 91 12 33 13
REMARK SMILES IDX 34 14 35 15 85 16 36 17 90 18 84 19 86 20 37 21 89 22 83 23
REMARK SMILES IDX 82 24 38 26 70 27 50 28 69 29 51 30 54 31 68 32 87 33 52 34
REMARK SMILES IDX 53 35 67 37 88 38 55 39 39 40 40 41 48 42 41 43 43 44 49 45
REMARK SMILES IDX 42 46 44 47 45 48 46 49 47 50 71 51 72 52 80 53 73 54 75 55
REMARK SMILES IDX 81 56 74 57 76 58 77 59 78 60 79 61 56 62 57 63 65 64 58 65
REMARK SMILES IDX 60 66 66 67 59 68 61 69 62 70 63 71 64 72 7 73 8 74 9 75
REMARK SMILES IDX 10 76 11 77 12 79 13 80 14 81 29 82 15 83 28 84 16 85 17 86
REMARK SMILES IDX 18 87 19 90 20 91 27 92 21 93 23 94 26 95 22 96 24 97 25 98
REMARK H PARENT 3 7 86 25 54 36 10 78 18 88 18 89
REMARK Flexibility Score: inf
ROOT
ATOM      1  C   UNL A   1      35.352  32.753  28.088  1.00  0.00     0.002 C 
ENDROOT
BRANCH   1   2
ATOM      2  C   UNL A   1      34.101  33.624  27.978  1.00  0.00     0.021 C 
BRANCH   2   3
ATOM      3  C   UNL A   1      34.257  35.046  28.501  1.00  0.00     0.116 C 
BRANCH   3   4
ATOM      4  N   UNL A   1      33.358  35.337  29.605  1.00  0.00    -0.352 N 
ATOM      5  O   UNL A   1      32.504  35.143  31.681  1.00  0.00    -0.269 OA
ATOM      6  C   UNL A   1      33.444  34.939  30.918  1.00  0.00     0.251 C 
ATOM      7  H   UNL A   1      32.580  35.897  29.380  1.00  0.00     0.163 HD
BRANCH   6   8
ATOM      8  C   UNL A   1      34.658  34.239  31.391  1.00  0.00     0.039 A 
ATOM      9  C   UNL A   1      35.910  34.852  31.311  1.00  0.00     0.014 A 
ATOM     10  C   UNL A   1      34.541  32.949  31.918  1.00  0.00     0.014 A 
ATOM     11  C   UNL A   1      37.056  34.127  31.620  1.00  0.00     0.010 A 
ATOM     12  C   UNL A   1      35.689  32.254  32.310  1.00  0.00     0.010 A 
ATOM     13  C   UNL A   1      36.958  32.824  32.134  1.00  0.00    -0.014 A 
BRANCH  13  14
ATOM     14  C   UNL A   1      38.195  32.113  32.550  1.00  0.00     0.031 A 
ATOM     15  C   UNL A   1      38.876  32.417  33.856  1.00  0.00     0.074 A 
ATOM     16  C   UNL A   1      38.702  31.174  31.726  1.00  0.00     0.049 A 
ATOM     17  N   UNL A   1      39.938  31.856  34.377  1.00  0.00    -0.248 NA
ATOM     18  C   UNL A   1      38.301  33.489  34.683  1.00  0.00     0.031 C 
ATOM     19  C   UNL A   1      38.157  30.829  30.410  1.00  0.00     0.029 A 
ATOM     20  N   UNL A   1      39.781  30.341  31.866  1.00  0.00    -0.354 N 
ATOM     21  C   UNL A   1      40.183  32.529  35.568  1.00  0.00     0.074 A 
ATOM     22  C   UNL A   1      39.161  33.547  35.692  1.00  0.00     0.031 C 
ATOM     23  C   UNL A   1      38.885  29.837  29.877  1.00  0.00     0.029 A 
ATOM     24  C   UNL A   1      39.976  29.510  30.787  1.00  0.00     0.049 A 
ATOM     25  H   UNL A   1      40.361  30.337  32.662  1.00  0.00     0.167 HD
ATOM     26  C   UNL A   1      41.159  32.307  36.482  1.00  0.00     0.034 A 
ATOM     27  C   UNL A   1      40.933  28.594  30.547  1.00  0.00     0.034 A 
ATOM     28  C   UNL A   1      42.151  31.269  36.369  1.00  0.00     0.049 A 
ATOM     29  C   UNL A   1      41.983  28.350  31.592  1.00  0.00     0.074 A 
ATOM     30  C   UNL A   1      43.140  30.922  37.273  1.00  0.00     0.029 A 
ATOM     31  N   UNL A   1      42.288  30.416  35.284  1.00  0.00    -0.354 N 
ATOM     32  N   UNL A   1      42.113  28.904  32.773  1.00  0.00    -0.248 NA
ATOM     33  C   UNL A   1      42.998  27.334  31.285  1.00  0.00     0.031 C 
ATOM     34  C   UNL A   1      43.885  29.871  36.728  1.00  0.00     0.029 A 
ATOM     35  C   UNL A   1      43.348  29.549  35.492  1.00  0.00     0.049 A 
ATOM     36  H   UNL A   1      41.715  30.425  34.484  1.00  0.00     0.167 HD
ATOM     37  C   UNL A   1      43.212  28.290  33.361  1.00  0.00     0.074 A 
ATOM     38  C   UNL A   1      43.690  27.300  32.416  1.00  0.00     0.031 C 
ATOM     39  C   UNL A   1      43.784  28.537  34.565  1.00  0.00     0.034 A 
BRANCH  26  40
ATOM     40  C   UNL A   1      41.183  33.175  37.714  1.00  0.00     0.023 A 
ATOM     41  C   UNL A   1      40.411  32.808  38.835  1.00  0.00     0.012 A 
ATOM     42  C   UNL A   1      42.020  34.305  37.793  1.00  0.00     0.148 A 
ATOM     43  C   UNL A   1      40.451  33.566  40.005  1.00  0.00     0.002 A 
ATOM     44  C   UNL A   1      42.084  35.034  38.976  1.00  0.00     0.091 A 
ATOM     45  F   UNL A   1      42.732  34.652  36.711  1.00  0.00    -0.205 F 
ATOM     46  C   UNL A   1      41.294  34.671  40.079  1.00  0.00     0.022 A 
BRANCH  44  47
ATOM     47  S   UNL A   1      43.196  36.429  39.194  1.00  0.00     0.127 S 
ATOM     48  O   UNL A   1      42.649  37.393  38.240  1.00  0.00    -0.237 OA
ATOM     49  O   UNL A   1      42.984  36.776  40.600  1.00  0.00    -0.237 OA
ATOM     50  O   UNL A   1      44.528  35.928  38.889  1.00  0.00    -0.744 OA
ENDBRANCH  44  47
ENDBRANCH  26  40
BRANCH  27  51
ATOM     51  C   UNL A   1      40.898  27.807  29.283  1.00  0.00     0.023 A 
ATOM     52  C   UNL A   1      39.969  26.760  29.145  1.00  0.00     0.012 A 
ATOM     53  C   UNL A   1      41.739  28.129  28.199  1.00  0.00     0.148 A 
ATOM     54  C   UNL A   1      39.892  26.031  27.958  1.00  0.00     0.002 A 
ATOM     55  C   UNL A   1      41.615  27.439  27.000  1.00  0.00     0.091 A 
ATOM     56  F   UNL A   1      42.629  29.118  28.357  1.00  0.00    -0.205 F 
ATOM     57  C   UNL A   1      40.705  26.378  26.882  1.00  0.00     0.022 A 
BRANCH  55  58
ATOM     58  S   UNL A   1      42.519  27.922  25.525  1.00  0.00     0.127 S 
ATOM     59  O   UNL A   1      42.308  26.770  24.653  1.00  0.00    -0.237 OA
ATOM     60  O   UNL A   1      41.813  29.139  25.120  1.00  0.00    -0.237 OA
ATOM     61  O   UNL A   1      43.889  28.147  25.965  1.00  0.00    -0.744 OA
ENDBRANCH  55  58
ENDBRANCH  27  51
BRANCH  39  62
ATOM     62  C   UNL A   1      44.982  27.707  34.941  1.00  0.00     0.023 A 
ATOM     63  C   UNL A   1      46.276  28.171  34.631  1.00  0.00     0.012 A 
ATOM     64  C   UNL A   1      44.831  26.501  35.650  1.00  0.00     0.148 A 
ATOM     65  C   UNL A   1      47.400  27.429  34.993  1.00  0.00     0.002 A 
ATOM     66  C   UNL A   1      45.957  25.789  36.048  1.00  0.00     0.091 A 
ATOM     67  F   UNL A   1      43.590  26.064  35.916  1.00  0.00    -0.205 F 
ATOM     68  C   UNL A   1      47.241  26.246  35.710  1.00  0.00     0.022 A 
BRANCH  66  69
ATOM     69  S   UNL A   1      45.846  24.304  37.051  1.00  0.00     0.127 S 
ATOM     70  O   UNL A   1      45.103  24.784  38.215  1.00  0.00    -0.237 OA
ATOM     71  O   UNL A   1      45.097  23.394  36.183  1.00  0.00    -0.237 OA
ATOM     72  O   UNL A   1      47.219  23.893  37.307  1.00  0.00    -0.744 OA
ENDBRANCH  66  69
ENDBRANCH  39  62
ENDBRANCH  13  14
ENDBRANCH   6   8
ENDBRANCH   3   4
ENDBRANCH   2   3
ENDBRANCH   1   2
BRANCH   1  73
ATOM     73  C   UNL A   1      35.118  31.328  28.598  1.00  0.00     0.002 C 
BRANCH  73  74
ATOM     74  C   UNL A   1      35.556  30.206  27.652  1.00  0.00     0.021 C 
BRANCH  74  75
ATOM     75  C   UNL A   1      34.428  29.316  27.138  1.00  0.00     0.116 C 
BRANCH  75  76
ATOM     76  N   UNL A   1      33.305  30.092  26.638  1.00  0.00    -0.352 N 
ATOM     77  C   UNL A   1      32.225  29.665  25.910  1.00  0.00     0.252 C 
ATOM     78  H   UNL A   1      33.321  31.053  26.851  1.00  0.00     0.163 HD
ATOM     79  O   UNL A   1      31.441  30.465  25.412  1.00  0.00    -0.269 OA
BRANCH  77  80
ATOM     80  C   UNL A   1      32.017  28.225  25.720  1.00  0.00     0.058 A 
ATOM     81  C   UNL A   1      31.354  27.446  26.666  1.00  0.00     0.017 A 
ATOM     82  C   UNL A   1      32.505  27.619  24.576  1.00  0.00     0.125 A 
ATOM     83  C   UNL A   1      31.262  26.074  26.462  1.00  0.00     0.030 A 
ATOM     84  N   UNL A   1      32.432  26.286  24.358  1.00  0.00    -0.255 NA
ATOM     85  C   UNL A   1      31.826  25.525  25.310  1.00  0.00     0.094 A 
BRANCH  85  86
ATOM     86  C   UNL A   1      31.803  24.021  25.100  1.00  0.00     0.318 C 
BRANCH  86  87
ATOM     87  N   UNL A   1      33.009  23.538  24.418  1.00  0.00    -0.335 N 
ATOM     88  H   UNL A   1      33.555  24.351  24.130  1.00  0.00     0.347 HD
ATOM     89  H   UNL A   1      32.685  22.969  23.636  1.00  0.00     0.347 HD
BRANCH  87  90
ATOM     90  C   UNL A   1      33.873  22.673  25.221  1.00  0.00     0.215 C 
ATOM     91  C   UNL A   1      35.372  23.051  25.108  1.00  0.00     0.071 C 
ATOM     92  C   UNL A   1      33.628  21.211  24.939  1.00  0.00     0.023 A 
ATOM     93  C   UNL A   1      36.275  21.979  25.738  1.00  0.00     0.012 C 
ATOM     94  C   UNL A   1      34.664  20.297  24.862  1.00  0.00     0.014 A 
ATOM     95  C   UNL A   1      32.363  20.562  24.763  1.00  0.00     0.022 A 
ATOM     96  C   UNL A   1      36.116  20.625  25.028  1.00  0.00     0.047 C 
ATOM     97  S   UNL A   1      34.132  18.719  24.515  1.00  0.00    -0.148 S 
ATOM     98  C   UNL A   1      32.496  19.216  24.498  1.00  0.00     0.065 A 
ENDBRANCH  87  90
ENDBRANCH  86  87
ENDBRANCH  85  86
ENDBRANCH  77  80
ENDBRANCH  75  76
ENDBRANCH  74  75
ENDBRANCH  73  74
ENDBRANCH   1  73
TORSDOF 19
ENDMDL
