MODEL 1
REMARK VINA RESULT:     -12.5      0.000      0.000
REMARK SMILES Cc1ccc2c(c1)OCCN2c1sc(C(=O)NCCCCCCNC(=O)c2ccc(-c3c4nc(c(-c5cccc(S(=O)(=O)[O-])c5F)c5ccc([nH]5)c(-c5cccc(S(=O)(=O)[O-])c5F)c5nc(c(-c6cccc(S(=O)(=O)[O-])c6F)c6ccc3[nH]6)C=C5)C=C4)cc2)cc1C
REMARK SMILES IDX 21 1 20 2 19 3 18 4 17 5 15 6 16 7 14 9 12 10 13 11 91 12
REMARK SMILES IDX 90 13 92 14 11 15 1 16 2 17 3 18 7 19 4 20 6 21 5 22 8 23
REMARK SMILES IDX 9 24 10 25 22 26 23 27 24 28 25 29 26 31 27 32 28 33 89 34
REMARK SMILES IDX 29 35 88 36 30 37 31 38 32 39 82 40 33 41 87 42 81 43 83 44
REMARK SMILES IDX 34 45 86 46 80 47 79 48 35 50 67 51 47 52 66 53 48 54 51 55
REMARK SMILES IDX 65 56 84 57 49 58 50 59 64 61 85 62 52 63 36 64 37 65 45 66
REMARK SMILES IDX 38 67 40 68 46 69 39 70 41 71 42 72 43 73 44 74 68 75 69 76
REMARK SMILES IDX 77 77 70 78 72 79 78 80 71 81 73 82 74 83 75 84 76 85 53 86
REMARK SMILES IDX 54 87 62 88 55 89 57 90 63 91 56 92 58 93 59 94 60 95 61 96
REMARK H PARENT 17 8 24 30 83 49 51 60
REMARK Flexibility Score: inf
ROOT
ATOM      1  C   UNL A   1      32.001  30.122  26.769  1.00  0.00     0.002 C 
ENDROOT
BRANCH   1   2
ATOM      2  C   UNL A   1      32.114  29.679  25.304  1.00  0.00     0.002 C 
BRANCH   2   3
ATOM      3  C   UNL A   1      33.420  28.959  24.931  1.00  0.00     0.021 C 
BRANCH   3   4
ATOM      4  C   UNL A   1      33.640  28.831  23.424  1.00  0.00     0.116 C 
BRANCH   4   5
ATOM      5  N   UNL A   1      32.388  28.542  22.751  1.00  0.00    -0.351 N 
ATOM      6  C   UNL A   1      31.589  27.432  22.655  1.00  0.00     0.261 C 
ATOM      7  O   UNL A   1      30.581  27.593  21.956  1.00  0.00    -0.268 OA
ATOM      8  H   UNL A   1      32.033  29.314  22.255  1.00  0.00     0.163 HD
BRANCH   6   9
ATOM      9  C   UNL A   1      31.820  26.174  23.352  1.00  0.00     0.094 A 
ATOM     10  C   UNL A   1      32.712  24.132  24.462  1.00  0.00     0.099 A 
ATOM     11  S   UNL A   1      33.102  25.086  23.086  1.00  0.00    -0.112 S 
ATOM     12  C   UNL A   1      31.455  24.465  24.942  1.00  0.00    -0.015 A 
ATOM     13  C   UNL A   1      30.956  25.642  24.295  1.00  0.00     0.031 A 
ATOM     14  C   UNL A   1      30.712  23.775  26.036  1.00  0.00     0.047 C 
BRANCH  10  15
ATOM     15  N   UNL A   1      33.531  23.147  24.933  1.00  0.00    -0.327 N 
ATOM     16  C   UNL A   1      33.316  17.515  23.704  1.00  0.00     0.044 C 
ATOM     17  C   UNL A   1      33.359  18.978  24.028  1.00  0.00    -0.047 A 
ATOM     18  C   UNL A   1      32.391  19.851  23.527  1.00  0.00     0.006 A 
ATOM     19  C   UNL A   1      34.406  19.504  24.789  1.00  0.00     0.052 A 
ATOM     20  C   UNL A   1      32.450  21.222  23.809  1.00  0.00     0.030 A 
ATOM     21  C   UNL A   1      34.462  20.874  25.070  1.00  0.00     0.143 A 
ATOM     22  C   UNL A   1      33.466  21.765  24.612  1.00  0.00     0.085 A 
ATOM     23  O   UNL A   1      35.552  21.267  25.817  1.00  0.00    -0.490 OA
ATOM     24  C   UNL A   1      35.770  22.679  25.757  1.00  0.00     0.251 C 
ATOM     25  C   UNL A   1      34.480  23.451  26.003  1.00  0.00     0.165 C 
ENDBRANCH  10  15
ENDBRANCH   6   9
ENDBRANCH   4   5
ENDBRANCH   3   4
ENDBRANCH   2   3
ENDBRANCH   1   2
BRANCH   1  26
ATOM     26  C   UNL A   1      31.718  31.611  26.982  1.00  0.00     0.021 C 
BRANCH  26  27
ATOM     27  C   UNL A   1      32.949  32.457  27.280  1.00  0.00     0.116 C 
BRANCH  27  28
ATOM     28  N   UNL A   1      32.610  33.835  27.600  1.00  0.00    -0.352 N 
ATOM     29  C   UNL A   1      33.145  34.650  28.571  1.00  0.00     0.251 C 
ATOM     30  H   UNL A   1      31.902  34.239  27.048  1.00  0.00     0.163 HD
ATOM     31  O   UNL A   1      32.632  35.738  28.814  1.00  0.00    -0.269 OA
BRANCH  29  32
ATOM     32  C   UNL A   1      34.321  34.186  29.339  1.00  0.00     0.039 A 
ATOM     33  C   UNL A   1      35.614  34.494  28.907  1.00  0.00     0.014 A 
ATOM     34  C   UNL A   1      34.127  33.403  30.480  1.00  0.00     0.014 A 
ATOM     35  C   UNL A   1      36.706  33.893  29.524  1.00  0.00     0.010 A 
ATOM     36  C   UNL A   1      35.232  32.860  31.143  1.00  0.00     0.010 A 
ATOM     37  C   UNL A   1      36.527  33.063  30.644  1.00  0.00    -0.014 A 
BRANCH  37  38
ATOM     38  C   UNL A   1      37.711  32.427  31.277  1.00  0.00     0.031 A 
ATOM     39  C   UNL A   1      38.183  32.853  32.640  1.00  0.00     0.074 A 
ATOM     40  C   UNL A   1      38.334  31.421  30.634  1.00  0.00     0.049 A 
ATOM     41  N   UNL A   1      39.177  32.380  33.349  1.00  0.00    -0.248 NA
ATOM     42  C   UNL A   1      37.450  33.948  33.297  1.00  0.00     0.031 C 
ATOM     43  C   UNL A   1      37.973  30.923  29.305  1.00  0.00     0.029 A 
ATOM     44  N   UNL A   1      39.381  30.622  31.017  1.00  0.00    -0.354 N 
ATOM     45  C   UNL A   1      39.211  33.136  34.514  1.00  0.00     0.074 A 
ATOM     46  C   UNL A   1      38.142  34.107  34.418  1.00  0.00     0.031 C 
ATOM     47  C   UNL A   1      38.749  29.871  29.006  1.00  0.00     0.029 A 
ATOM     48  C   UNL A   1      39.693  29.650  30.098  1.00  0.00     0.049 A 
ATOM     49  H   UNL A   1      39.863  30.735  31.868  1.00  0.00     0.167 HD
ATOM     50  C   UNL A   1      40.038  33.017  35.579  1.00  0.00     0.034 A 
ATOM     51  C   UNL A   1      40.631  28.684  30.125  1.00  0.00     0.034 A 
ATOM     52  C   UNL A   1      41.071  32.023  35.695  1.00  0.00     0.049 A 
ATOM     53  C   UNL A   1      41.534  28.568  31.316  1.00  0.00     0.074 A 
ATOM     54  C   UNL A   1      41.950  31.819  36.745  1.00  0.00     0.029 A 
ATOM     55  N   UNL A   1      41.357  31.060  34.740  1.00  0.00    -0.354 N 
ATOM     56  N   UNL A   1      41.519  29.266  32.426  1.00  0.00    -0.248 NA
ATOM     57  C   UNL A   1      42.574  27.532  31.267  1.00  0.00     0.031 C 
ATOM     58  C   UNL A   1      42.766  30.728  36.425  1.00  0.00     0.029 A 
ATOM     59  C   UNL A   1      42.392  30.254  35.178  1.00  0.00     0.049 A 
ATOM     60  H   UNL A   1      40.892  30.966  33.877  1.00  0.00     0.167 HD
ATOM     61  C   UNL A   1      42.541  28.750  33.212  1.00  0.00     0.074 A 
ATOM     62  C   UNL A   1      43.142  27.666  32.460  1.00  0.00     0.031 C 
ATOM     63  C   UNL A   1      42.954  29.153  34.437  1.00  0.00     0.034 A 
BRANCH  50  64
ATOM     64  C   UNL A   1      39.824  33.948  36.740  1.00  0.00     0.023 A 
ATOM     65  C   UNL A   1      40.180  35.305  36.602  1.00  0.00     0.012 A 
ATOM     66  C   UNL A   1      39.210  33.507  37.927  1.00  0.00     0.148 A 
ATOM     67  C   UNL A   1      39.940  36.208  37.635  1.00  0.00     0.002 A 
ATOM     68  C   UNL A   1      38.948  34.421  38.944  1.00  0.00     0.091 A 
ATOM     69  F   UNL A   1      38.898  32.209  38.043  1.00  0.00    -0.205 F 
ATOM     70  C   UNL A   1      39.316  35.769  38.800  1.00  0.00     0.022 A 
BRANCH  68  71
ATOM     71  S   UNL A   1      38.104  33.967  40.463  1.00  0.00     0.127 S 
ATOM     72  O   UNL A   1      39.108  33.129  41.118  1.00  0.00    -0.237 OA
ATOM     73  O   UNL A   1      37.890  35.268  41.099  1.00  0.00    -0.237 OA
ATOM     74  O   UNL A   1      36.886  33.282  40.055  1.00  0.00    -0.744 OA
ENDBRANCH  68  71
ENDBRANCH  50  64
BRANCH  51  75
ATOM     75  C   UNL A   1      40.693  27.712  29.000  1.00  0.00     0.023 A 
ATOM     76  C   UNL A   1      39.698  26.722  28.899  1.00  0.00     0.012 A 
ATOM     77  C   UNL A   1      41.653  27.838  27.979  1.00  0.00     0.148 A 
ATOM     78  C   UNL A   1      39.653  25.875  27.792  1.00  0.00     0.002 A 
ATOM     79  C   UNL A   1      41.578  27.020  26.859  1.00  0.00     0.091 A 
ATOM     80  F   UNL A   1      42.587  28.792  28.103  1.00  0.00    -0.205 F 
ATOM     81  C   UNL A   1      40.584  26.032  26.767  1.00  0.00     0.022 A 
BRANCH  79  82
ATOM     82  S   UNL A   1      42.652  27.223  25.434  1.00  0.00     0.127 S 
ATOM     83  O   UNL A   1      43.968  27.317  26.063  1.00  0.00    -0.237 OA
ATOM     84  O   UNL A   1      42.407  25.982  24.699  1.00  0.00    -0.237 OA
ATOM     85  O   UNL A   1      42.197  28.431  24.761  1.00  0.00    -0.744 OA
ENDBRANCH  79  82
ENDBRANCH  51  75
BRANCH  63  86
ATOM     86  C   UNL A   1      44.115  28.431  35.060  1.00  0.00     0.023 A 
ATOM     87  C   UNL A   1      45.425  28.824  34.726  1.00  0.00     0.012 A 
ATOM     88  C   UNL A   1      43.911  27.454  36.053  1.00  0.00     0.148 A 
ATOM     89  C   UNL A   1      46.519  28.249  35.369  1.00  0.00     0.002 A 
ATOM     90  C   UNL A   1      45.005  26.907  36.712  1.00  0.00     0.091 A 
ATOM     91  F   UNL A   1      42.652  27.092  36.344  1.00  0.00    -0.205 F 
ATOM     92  C   UNL A   1      46.311  27.301  36.368  1.00  0.00     0.022 A 
BRANCH  90  93
ATOM     93  S   UNL A   1      44.838  25.732  38.059  1.00  0.00     0.127 S 
ATOM     94  O   UNL A   1      43.979  26.464  38.989  1.00  0.00    -0.237 OA
ATOM     95  O   UNL A   1      44.195  24.595  37.401  1.00  0.00    -0.237 OA
ATOM     96  O   UNL A   1      46.189  25.472  38.538  1.00  0.00    -0.744 OA
ENDBRANCH  90  93
ENDBRANCH  63  86
ENDBRANCH  37  38
ENDBRANCH  29  32
ENDBRANCH  27  28
ENDBRANCH  26  27
ENDBRANCH   1  26
TORSDOF 17
ENDMDL
MODEL 2
REMARK VINA RESULT:     -12.5      1.465      1.874
REMARK SMILES Cc1ccc2c(c1)OCCN2c1sc(C(=O)NCCCCCCNC(=O)c2ccc(-c3c4nc(c(-c5cccc(S(=O)(=O)[O-])c5F)c5ccc([nH]5)c(-c5cccc(S(=O)(=O)[O-])c5F)c5nc(c(-c6cccc(S(=O)(=O)[O-])c6F)c6ccc3[nH]6)C=C5)C=C4)cc2)cc1C
REMARK SMILES IDX 21 1 20 2 19 3 18 4 17 5 15 6 16 7 14 9 12 10 13 11 91 12
REMARK SMILES IDX 90 13 92 14 11 15 1 16 2 17 3 18 7 19 4 20 6 21 5 22 8 23
REMARK SMILES IDX 9 24 10 25 22 26 23 27 24 28 25 29 26 31 27 32 28 33 89 34
REMARK SMILES IDX 29 35 88 36 30 37 31 38 32 39 82 40 33 41 87 42 81 43 83 44
REMARK SMILES IDX 34 45 86 46 80 47 79 48 35 50 67 51 47 52 66 53 48 54 51 55
REMARK SMILES IDX 65 56 84 57 49 58 50 59 64 61 85 62 52 63 36 64 37 65 45 66
REMARK SMILES IDX 38 67 40 68 46 69 39 70 41 71 42 72 43 73 44 74 68 75 69 76
REMARK SMILES IDX 77 77 70 78 72 79 78 80 71 81 73 82 74 83 75 84 76 85 53 86
REMARK SMILES IDX 54 87 62 88 55 89 57 90 63 91 56 92 58 93 59 94 60 95 61 96
REMARK H PARENT 17 8 24 30 83 49 51 60
REMARK Flexibility Score: inf
ROOT
ATOM      1  C   UNL A   1      31.237  30.845  26.080  1.00  0.00     0.002 C 
ENDROOT
BRANCH   1   2
ATOM      2  C   UNL A   1      32.309  29.952  26.720  1.00  0.00     0.002 C 
BRANCH   2   3
ATOM      3  C   UNL A   1      32.437  28.542  26.121  1.00  0.00     0.021 C 
BRANCH   3   4
ATOM      4  C   UNL A   1      33.006  28.528  24.703  1.00  0.00     0.116 C 
BRANCH   4   5
ATOM      5  N   UNL A   1      31.973  28.179  23.746  1.00  0.00    -0.351 N 
ATOM      6  C   UNL A   1      31.406  26.999  23.339  1.00  0.00     0.261 C 
ATOM      7  O   UNL A   1      30.538  27.129  22.467  1.00  0.00    -0.268 OA
ATOM      8  H   UNL A   1      31.595  28.964  23.288  1.00  0.00     0.163 HD
BRANCH   6   9
ATOM      9  C   UNL A   1      31.708  25.690  23.902  1.00  0.00     0.094 A 
ATOM     10  C   UNL A   1      32.713  23.581  24.763  1.00  0.00     0.099 A 
ATOM     11  S   UNL A   1      32.991  24.664  23.458  1.00  0.00    -0.112 S 
ATOM     12  C   UNL A   1      31.483  23.837  25.351  1.00  0.00    -0.015 A 
ATOM     13  C   UNL A   1      30.919  25.053  24.846  1.00  0.00     0.031 A 
ATOM     14  C   UNL A   1      30.828  23.032  26.422  1.00  0.00     0.047 C 
BRANCH  10  15
ATOM     15  N   UNL A   1      33.580  22.580  25.089  1.00  0.00    -0.327 N 
ATOM     16  C   UNL A   1      33.364  17.062  23.420  1.00  0.00     0.044 C 
ATOM     17  C   UNL A   1      33.408  18.495  23.860  1.00  0.00    -0.047 A 
ATOM     18  C   UNL A   1      32.390  19.384  23.506  1.00  0.00     0.006 A 
ATOM     19  C   UNL A   1      34.501  18.981  24.581  1.00  0.00     0.052 A 
ATOM     20  C   UNL A   1      32.448  20.729  23.894  1.00  0.00     0.030 A 
ATOM     21  C   UNL A   1      34.555  20.324  24.969  1.00  0.00     0.143 A 
ATOM     22  C   UNL A   1      33.513  21.228  24.661  1.00  0.00     0.085 A 
ATOM     23  O   UNL A   1      35.692  20.680  25.664  1.00  0.00    -0.490 OA
ATOM     24  C   UNL A   1      35.883  22.097  25.704  1.00  0.00     0.251 C 
ATOM     25  C   UNL A   1      34.603  22.817  26.108  1.00  0.00     0.165 C 
ENDBRANCH  10  15
ENDBRANCH   6   9
ENDBRANCH   4   5
ENDBRANCH   3   4
ENDBRANCH   2   3
ENDBRANCH   1   2
BRANCH   1  26
ATOM     26  C   UNL A   1      31.251  32.307  26.529  1.00  0.00     0.021 C 
BRANCH  26  27
ATOM     27  C   UNL A   1      32.618  32.831  26.950  1.00  0.00     0.116 C 
BRANCH  27  28
ATOM     28  N   UNL A   1      32.530  34.087  27.678  1.00  0.00    -0.352 N 
ATOM     29  C   UNL A   1      33.305  34.532  28.725  1.00  0.00     0.251 C 
ATOM     30  H   UNL A   1      31.820  34.703  27.382  1.00  0.00     0.163 HD
ATOM     31  O   UNL A   1      32.993  35.551  29.333  1.00  0.00    -0.269 OA
BRANCH  29  32
ATOM     32  C   UNL A   1      34.493  33.749  29.130  1.00  0.00     0.039 A 
ATOM     33  C   UNL A   1      34.346  32.570  29.866  1.00  0.00     0.014 A 
ATOM     34  C   UNL A   1      35.766  34.221  28.801  1.00  0.00     0.014 A 
ATOM     35  C   UNL A   1      35.469  31.952  30.403  1.00  0.00     0.010 A 
ATOM     36  C   UNL A   1      36.897  33.552  29.281  1.00  0.00     0.010 A 
ATOM     37  C   UNL A   1      36.757  32.439  30.123  1.00  0.00    -0.014 A 
BRANCH  37  38
ATOM     38  C   UNL A   1      37.938  31.764  30.718  1.00  0.00     0.031 A 
ATOM     39  C   UNL A   1      38.349  32.032  32.141  1.00  0.00     0.074 A 
ATOM     40  C   UNL A   1      38.616  30.863  29.983  1.00  0.00     0.049 A 
ATOM     41  N   UNL A   1      39.333  31.505  32.824  1.00  0.00    -0.248 NA
ATOM     42  C   UNL A   1      37.557  33.016  32.898  1.00  0.00     0.031 C 
ATOM     43  C   UNL A   1      38.318  30.522  28.590  1.00  0.00     0.029 A 
ATOM     44  N   UNL A   1      39.675  30.054  30.305  1.00  0.00    -0.354 N 
ATOM     45  C   UNL A   1      39.301  32.111  34.073  1.00  0.00     0.074 A 
ATOM     46  C   UNL A   1      38.204  33.055  34.055  1.00  0.00     0.031 C 
ATOM     47  C   UNL A   1      39.139  29.539  28.194  1.00  0.00     0.029 A 
ATOM     48  C   UNL A   1      40.052  29.212  29.286  1.00  0.00     0.049 A 
ATOM     49  H   UNL A   1      40.124  30.074  31.181  1.00  0.00     0.167 HD
ATOM     50  C   UNL A   1      40.095  31.886  35.147  1.00  0.00     0.034 A 
ATOM     51  C   UNL A   1      41.020  28.277  29.232  1.00  0.00     0.034 A 
ATOM     52  C   UNL A   1      41.155  30.916  35.181  1.00  0.00     0.049 A 
ATOM     53  C   UNL A   1      41.884  28.042  30.433  1.00  0.00     0.074 A 
ATOM     54  C   UNL A   1      42.004  30.609  36.230  1.00  0.00     0.029 A 
ATOM     55  N   UNL A   1      41.506  30.087  34.127  1.00  0.00    -0.354 N 
ATOM     56  N   UNL A   1      41.808  28.597  31.619  1.00  0.00    -0.248 NA
ATOM     57  C   UNL A   1      42.960  27.050  30.298  1.00  0.00     0.031 C 
ATOM     58  C   UNL A   1      42.867  29.590  35.811  1.00  0.00     0.029 A 
ATOM     59  C   UNL A   1      42.552  29.262  34.502  1.00  0.00     0.049 A 
ATOM     60  H   UNL A   1      41.075  30.085  33.241  1.00  0.00     0.167 HD
ATOM     61  C   UNL A   1      42.819  28.017  32.374  1.00  0.00     0.074 A 
ATOM     62  C   UNL A   1      43.481  27.053  31.519  1.00  0.00     0.031 C 
ATOM     63  C   UNL A   1      43.175  28.278  33.654  1.00  0.00     0.034 A 
BRANCH  50  64
ATOM     64  C   UNL A   1      39.810  32.661  36.403  1.00  0.00     0.023 A 
ATOM     65  C   UNL A   1      40.495  33.871  36.630  1.00  0.00     0.012 A 
ATOM     66  C   UNL A   1      38.822  32.239  37.315  1.00  0.00     0.148 A 
ATOM     67  C   UNL A   1      40.212  34.645  37.754  1.00  0.00     0.002 A 
ATOM     68  C   UNL A   1      38.527  33.030  38.419  1.00  0.00     0.091 A 
ATOM     69  F   UNL A   1      38.197  31.075  37.088  1.00  0.00    -0.205 F 
ATOM     70  C   UNL A   1      39.223  34.231  38.642  1.00  0.00     0.022 A 
BRANCH  68  71
ATOM     71  S   UNL A   1      37.235  32.612  39.596  1.00  0.00     0.127 S 
ATOM     72  O   UNL A   1      36.045  32.640  38.747  1.00  0.00    -0.237 OA
ATOM     73  O   UNL A   1      37.638  31.275  40.035  1.00  0.00    -0.237 OA
ATOM     74  O   UNL A   1      37.290  33.634  40.632  1.00  0.00    -0.744 OA
ENDBRANCH  68  71
ENDBRANCH  50  64
BRANCH  51  75
ATOM     75  C   UNL A   1      41.153  27.453  28.000  1.00  0.00     0.023 A 
ATOM     76  C   UNL A   1      41.804  28.002  26.880  1.00  0.00     0.012 A 
ATOM     77  C   UNL A   1      40.748  26.105  27.976  1.00  0.00     0.148 A 
ATOM     78  C   UNL A   1      42.057  27.218  25.754  1.00  0.00     0.002 A 
ATOM     79  C   UNL A   1      41.041  25.318  26.869  1.00  0.00     0.091 A 
ATOM     80  F   UNL A   1      40.131  25.610  29.059  1.00  0.00    -0.205 F 
ATOM     81  C   UNL A   1      41.688  25.875  25.754  1.00  0.00     0.022 A 
BRANCH  79  82
ATOM     82  S   UNL A   1      40.716  23.552  26.819  1.00  0.00     0.127 S 
ATOM     83  O   UNL A   1      41.119  23.137  28.161  1.00  0.00    -0.237 OA
ATOM     84  O   UNL A   1      39.274  23.523  26.571  1.00  0.00    -0.237 OA
ATOM     85  O   UNL A   1      41.532  23.028  25.734  1.00  0.00    -0.744 OA
ENDBRANCH  79  82
ENDBRANCH  51  75
BRANCH  63  86
ATOM     86  C   UNL A   1      44.338  27.519  34.229  1.00  0.00     0.023 A 
ATOM     87  C   UNL A   1      45.637  28.041  34.081  1.00  0.00     0.012 A 
ATOM     88  C   UNL A   1      44.133  26.363  35.006  1.00  0.00     0.148 A 
ATOM     89  C   UNL A   1      46.721  27.418  34.697  1.00  0.00     0.002 A 
ATOM     90  C   UNL A   1      45.215  25.765  35.642  1.00  0.00     0.091 A 
ATOM     91  F   UNL A   1      42.887  25.882  35.120  1.00  0.00    -0.205 F 
ATOM     92  C   UNL A   1      46.510  26.289  35.485  1.00  0.00     0.022 A 
BRANCH  90  93
ATOM     93  S   UNL A   1      45.037  24.349  36.733  1.00  0.00     0.127 S 
ATOM     94  O   UNL A   1      44.465  23.349  35.832  1.00  0.00    -0.237 OA
ATOM     95  O   UNL A   1      46.420  24.091  37.134  1.00  0.00    -0.237 OA
ATOM     96  O   UNL A   1      44.161  24.780  37.814  1.00  0.00    -0.744 OA
ENDBRANCH  90  93
ENDBRANCH  63  86
ENDBRANCH  37  38
ENDBRANCH  29  32
ENDBRANCH  27  28
ENDBRANCH  26  27
ENDBRANCH   1  26
TORSDOF 17
ENDMDL
MODEL 3
REMARK VINA RESULT:     -12.4      6.255     11.525
REMARK SMILES Cc1ccc2c(c1)OCCN2c1sc(C(=O)NCCCCCCNC(=O)c2ccc(-c3c4nc(c(-c5cccc(S(=O)(=O)[O-])c5F)c5ccc([nH]5)c(-c5cccc(S(=O)(=O)[O-])c5F)c5nc(c(-c6cccc(S(=O)(=O)[O-])c6F)c6ccc3[nH]6)C=C5)C=C4)cc2)cc1C
REMARK SMILES IDX 21 1 20 2 19 3 18 4 17 5 15 6 16 7 14 9 12 10 13 11 91 12
REMARK SMILES IDX 90 13 92 14 11 15 1 16 2 17 3 18 7 19 4 20 6 21 5 22 8 23
REMARK SMILES IDX 9 24 10 25 22 26 23 27 24 28 25 29 26 31 27 32 28 33 89 34
REMARK SMILES IDX 29 35 88 36 30 37 31 38 32 39 82 40 33 41 87 42 81 43 83 44
REMARK SMILES IDX 34 45 86 46 80 47 79 48 35 50 67 51 47 52 66 53 48 54 51 55
REMARK SMILES IDX 65 56 84 57 49 58 50 59 64 61 85 62 52 63 36 64 37 65 45 66
REMARK SMILES IDX 38 67 40 68 46 69 39 70 41 71 42 72 43 73 44 74 68 75 69 76
REMARK SMILES IDX 77 77 70 78 72 79 78 80 71 81 73 82 74 83 75 84 76 85 53 86
REMARK SMILES IDX 54 87 62 88 55 89 57 90 63 91 56 92 58 93 59 94 60 95 61 96
REMARK H PARENT 17 8 24 30 83 49 51 60
REMARK Flexibility Score: inf
ROOT
ATOM      1  C   UNL A   1      37.224  21.183  24.525  1.00  0.00     0.002 C 
ENDROOT
BRANCH   1   2
ATOM      2  C   UNL A   1      35.779  21.271  25.033  1.00  0.00     0.002 C 
BRANCH   2   3
ATOM      3  C   UNL A   1      35.531  22.302  26.146  1.00  0.00     0.021 C 
BRANCH   3   4
ATOM      4  C   UNL A   1      34.419  21.904  27.115  1.00  0.00     0.116 C 
BRANCH   4   5
ATOM      5  N   UNL A   1      33.375  21.176  26.416  1.00  0.00    -0.351 N 
ATOM      6  C   UNL A   1      32.448  21.514  25.465  1.00  0.00     0.261 C 
ATOM      7  O   UNL A   1      31.707  20.582  25.127  1.00  0.00    -0.268 OA
ATOM      8  H   UNL A   1      33.322  20.232  26.686  1.00  0.00     0.163 HD
BRANCH   6   9
ATOM      9  C   UNL A   1      32.348  22.817  24.822  1.00  0.00     0.094 A 
ATOM     10  C   UNL A   1      32.302  25.225  24.189  1.00  0.00     0.099 A 
ATOM     11  S   UNL A   1      31.855  24.275  25.550  1.00  0.00    -0.112 S 
ATOM     12  C   UNL A   1      32.545  24.413  23.091  1.00  0.00    -0.015 A 
ATOM     13  C   UNL A   1      32.570  23.032  23.471  1.00  0.00     0.031 A 
ATOM     14  C   UNL A   1      32.828  24.868  21.698  1.00  0.00     0.047 C 
BRANCH  10  15
ATOM     15  N   UNL A   1      32.328  26.588  24.217  1.00  0.00    -0.327 N 
ATOM     16  C   UNL A   1      27.998  30.211  23.028  1.00  0.00     0.044 C 
ATOM     17  C   UNL A   1      29.123  29.264  23.325  1.00  0.00    -0.047 A 
ATOM     18  C   UNL A   1      28.959  27.886  23.167  1.00  0.00     0.006 A 
ATOM     19  C   UNL A   1      30.337  29.741  23.823  1.00  0.00     0.052 A 
ATOM     20  C   UNL A   1      30.002  27.002  23.472  1.00  0.00     0.030 A 
ATOM     21  C   UNL A   1      31.378  28.856  24.125  1.00  0.00     0.143 A 
ATOM     22  C   UNL A   1      31.248  27.463  23.928  1.00  0.00     0.085 A 
ATOM     23  O   UNL A   1      32.518  29.452  24.623  1.00  0.00    -0.490 OA
ATOM     24  C   UNL A   1      33.388  28.513  25.260  1.00  0.00     0.251 C 
ATOM     25  C   UNL A   1      33.605  27.280  24.392  1.00  0.00     0.165 C 
ENDBRANCH  10  15
ENDBRANCH   6   9
ENDBRANCH   4   5
ENDBRANCH   3   4
ENDBRANCH   2   3
ENDBRANCH   1   2
BRANCH   1  26
ATOM     26  C   UNL A   1      38.009  19.957  24.995  1.00  0.00     0.021 C 
BRANCH  26  27
ATOM     27  C   UNL A   1      39.159  20.263  25.945  1.00  0.00     0.116 C 
BRANCH  27  28
ATOM     28  N   UNL A   1      40.183  19.230  25.928  1.00  0.00    -0.352 N 
ATOM     29  C   UNL A   1      41.547  19.366  26.054  1.00  0.00     0.251 C 
ATOM     30  H   UNL A   1      39.857  18.308  25.809  1.00  0.00     0.163 HD
ATOM     31  O   UNL A   1      42.284  18.405  25.855  1.00  0.00    -0.269 OA
BRANCH  29  32
ATOM     32  C   UNL A   1      42.113  20.689  26.397  1.00  0.00     0.039 A 
ATOM     33  C   UNL A   1      42.334  21.039  27.733  1.00  0.00     0.014 A 
ATOM     34  C   UNL A   1      42.390  21.600  25.375  1.00  0.00     0.014 A 
ATOM     35  C   UNL A   1      42.681  22.347  28.051  1.00  0.00     0.010 A 
ATOM     36  C   UNL A   1      42.813  22.894  25.697  1.00  0.00     0.010 A 
ATOM     37  C   UNL A   1      42.918  23.291  27.038  1.00  0.00    -0.014 A 
BRANCH  37  38
ATOM     38  C   UNL A   1      43.279  24.684  27.408  1.00  0.00     0.031 A 
ATOM     39  C   UNL A   1      44.646  25.235  27.109  1.00  0.00     0.074 A 
ATOM     40  C   UNL A   1      42.346  25.472  27.975  1.00  0.00     0.049 A 
ATOM     41  N   UNL A   1      45.114  26.436  27.336  1.00  0.00    -0.248 NA
ATOM     42  C   UNL A   1      45.616  24.327  26.474  1.00  0.00     0.031 C 
ATOM     43  C   UNL A   1      40.987  25.050  28.320  1.00  0.00     0.029 A 
ATOM     44  N   UNL A   1      42.387  26.794  28.338  1.00  0.00    -0.354 N 
ATOM     45  C   UNL A   1      46.434  26.421  26.905  1.00  0.00     0.074 A 
ATOM     46  C   UNL A   1      46.701  25.088  26.409  1.00  0.00     0.031 C 
ATOM     47  C   UNL A   1      40.308  26.103  28.795  1.00  0.00     0.029 A 
ATOM     48  C   UNL A   1      41.194  27.263  28.833  1.00  0.00     0.049 A 
ATOM     49  H   UNL A   1      43.193  27.353  28.252  1.00  0.00     0.167 HD
ATOM     50  C   UNL A   1      47.336  27.431  26.898  1.00  0.00     0.034 A 
ATOM     51  C   UNL A   1      40.846  28.489  29.269  1.00  0.00     0.034 A 
ATOM     52  C   UNL A   1      47.059  28.768  27.348  1.00  0.00     0.049 A 
ATOM     53  C   UNL A   1      41.860  29.593  29.249  1.00  0.00     0.074 A 
ATOM     54  C   UNL A   1      47.909  29.861  27.366  1.00  0.00     0.029 A 
ATOM     55  N   UNL A   1      45.840  29.201  27.847  1.00  0.00    -0.354 N 
ATOM     56  N   UNL A   1      43.090  29.567  28.797  1.00  0.00    -0.248 NA
ATOM     57  C   UNL A   1      41.441  30.894  29.788  1.00  0.00     0.031 C 
ATOM     58  C   UNL A   1      47.201  30.956  27.872  1.00  0.00     0.029 A 
ATOM     59  C   UNL A   1      45.911  30.545  28.167  1.00  0.00     0.049 A 
ATOM     60  H   UNL A   1      45.042  28.634  27.957  1.00  0.00     0.167 HD
ATOM     61  C   UNL A   1      43.591  30.848  28.988  1.00  0.00     0.074 A 
ATOM     62  C   UNL A   1      42.524  31.632  29.579  1.00  0.00     0.031 C 
ATOM     63  C   UNL A   1      44.830  31.323  28.716  1.00  0.00     0.034 A 
BRANCH  50  64
ATOM     64  C   UNL A   1      48.699  27.149  26.328  1.00  0.00     0.023 A 
ATOM     65  C   UNL A   1      49.658  26.507  27.136  1.00  0.00     0.012 A 
ATOM     66  C   UNL A   1      49.006  27.446  24.986  1.00  0.00     0.148 A 
ATOM     67  C   UNL A   1      50.911  26.176  26.622  1.00  0.00     0.002 A 
ATOM     68  C   UNL A   1      50.248  27.088  24.472  1.00  0.00     0.091 A 
ATOM     69  F   UNL A   1      48.085  28.073  24.242  1.00  0.00    -0.205 F 
ATOM     70  C   UNL A   1      51.202  26.457  25.290  1.00  0.00     0.022 A 
BRANCH  68  71
ATOM     71  S   UNL A   1      50.704  27.359  22.756  1.00  0.00     0.127 S 
ATOM     72  O   UNL A   1      49.600  26.707  22.053  1.00  0.00    -0.237 OA
ATOM     73  O   UNL A   1      50.706  28.820  22.663  1.00  0.00    -0.237 OA
ATOM     74  O   UNL A   1      52.009  26.738  22.585  1.00  0.00    -0.744 OA
ENDBRANCH  68  71
ENDBRANCH  50  64
BRANCH  51  75
ATOM     75  C   UNL A   1      39.439  28.727  29.690  1.00  0.00     0.023 A 
ATOM     76  C   UNL A   1      39.044  28.358  30.989  1.00  0.00     0.012 A 
ATOM     77  C   UNL A   1      38.536  29.419  28.860  1.00  0.00     0.148 A 
ATOM     78  C   UNL A   1      37.770  28.679  31.459  1.00  0.00     0.002 A 
ATOM     79  C   UNL A   1      37.285  29.774  29.349  1.00  0.00     0.091 A 
ATOM     80  F   UNL A   1      38.942  29.759  27.628  1.00  0.00    -0.205 F 
ATOM     81  C   UNL A   1      36.897  29.398  30.645  1.00  0.00     0.022 A 
BRANCH  79  82
ATOM     82  S   UNL A   1      36.137  30.800  28.426  1.00  0.00     0.127 S 
ATOM     83  O   UNL A   1      35.060  30.990  29.396  1.00  0.00    -0.237 OA
ATOM     84  O   UNL A   1      36.947  31.989  28.163  1.00  0.00    -0.237 OA
ATOM     85  O   UNL A   1      35.779  30.032  27.242  1.00  0.00    -0.744 OA
ENDBRANCH  79  82
ENDBRANCH  51  75
BRANCH  63  86
ATOM     86  C   UNL A   1      45.121  32.758  29.051  1.00  0.00     0.023 A 
ATOM     87  C   UNL A   1      45.748  33.063  30.275  1.00  0.00     0.012 A 
ATOM     88  C   UNL A   1      44.885  33.782  28.113  1.00  0.00     0.148 A 
ATOM     89  C   UNL A   1      46.131  34.371  30.564  1.00  0.00     0.002 A 
ATOM     90  C   UNL A   1      45.297  35.078  28.397  1.00  0.00     0.091 A 
ATOM     91  F   UNL A   1      44.277  33.464  26.961  1.00  0.00    -0.205 F 
ATOM     92  C   UNL A   1      45.916  35.376  29.623  1.00  0.00     0.022 A 
BRANCH  90  93
ATOM     93  S   UNL A   1      45.128  36.427  27.223  1.00  0.00     0.127 S 
ATOM     94  O   UNL A   1      45.632  37.561  27.998  1.00  0.00    -0.237 OA
ATOM     95  O   UNL A   1      46.002  35.999  26.130  1.00  0.00    -0.237 OA
ATOM     96  O   UNL A   1      43.714  36.491  26.880  1.00  0.00    -0.744 OA
ENDBRANCH  90  93
ENDBRANCH  63  86
ENDBRANCH  37  38
ENDBRANCH  29  32
ENDBRANCH  27  28
ENDBRANCH  26  27
ENDBRANCH   1  26
TORSDOF 17
ENDMDL
