MODEL 1
REMARK VINA RESULT:     -11.0      0.000      0.000
REMARK SMILES O=C(NCCCCCCNC(=O)[C@H](CO)NC(=O)[C@H](Cc1c[nH]c2ccccc12)NC(=O)[C@H](Cc1ccc(O)cc1)NC(=O)c1ccc(F)cc1)c1ccc(-c2c3nc(c(-c4cccc(S(=O)(=O)[O-])c4F)c4ccc([nH]4)c(-c4cccc(S(=O)(=O)[O-])c4F)c4nc(c(-c5cccc(S(=O)(=O)[O-])c5F)c5ccc2[nH]5)C=C4)C=C3)cc1
REMARK SMILES IDX 8 1 7 2 6 3 5 4 4 5 3 6 1 7 2 8 52 10 53 11 114 12 54 13
REMARK SMILES IDX 113 14 55 15 56 16 57 17 107 18 58 19 112 20 106 21 108 22
REMARK SMILES IDX 59 23 111 24 105 25 104 26 60 28 92 29 72 30 91 31 73 32
REMARK SMILES IDX 76 33 90 34 109 35 74 36 75 37 89 39 110 40 77 41 61 42
REMARK SMILES IDX 62 43 70 44 63 45 65 46 71 47 64 48 66 49 67 50 68 51 69 52
REMARK SMILES IDX 93 53 94 54 102 55 95 56 97 57 103 58 96 59 98 60 99 61
REMARK SMILES IDX 100 62 101 63 78 64 79 65 87 66 80 67 82 68 88 69 81 70
REMARK SMILES IDX 83 71 84 72 85 73 86 74 9 75 10 76 11 77 12 79 13 80 16 81
REMARK SMILES IDX 17 82 18 84 19 85 30 86 31 87 32 89 33 90 42 91 43 92 44 94
REMARK SMILES IDX 45 95 46 96 51 97 47 98 50 99 48 100 49 101 34 102 35 103
REMARK SMILES IDX 36 104 41 105 37 106 40 107 38 108 39 109 20 111 21 112
REMARK SMILES IDX 22 113 29 114 23 115 24 116 28 117 25 119 27 120 26 121
REMARK SMILES IDX 14 122 15 123
REMARK H PARENT 3 9 108 27 76 38 10 78 16 83 30 88 42 93 39 110 23 118 15 124
REMARK Flexibility Score: inf
ROOT
ATOM      1  C   UNL A   1      40.718  21.433  27.371  1.00  0.00     0.021 C 
ENDROOT
BRANCH   1   2
ATOM      2  C   UNL A   1      41.468  22.584  28.042  1.00  0.00     0.002 C 
BRANCH   2   3
ATOM      3  C   UNL A   1      41.292  23.966  27.405  1.00  0.00     0.002 C 
BRANCH   3   4
ATOM      4  C   UNL A   1      41.336  25.161  28.359  1.00  0.00     0.021 C 
BRANCH   4   5
ATOM      5  C   UNL A   1      42.714  25.761  28.604  1.00  0.00     0.116 C 
BRANCH   5   6
ATOM      6  N   UNL A   1      43.550  25.776  27.417  1.00  0.00    -0.352 N 
ATOM      7  O   UNL A   1      44.722  26.672  25.715  1.00  0.00    -0.269 OA
ATOM      8  C   UNL A   1      44.156  26.841  26.794  1.00  0.00     0.251 C 
ATOM      9  H   UNL A   1      43.704  24.898  26.998  1.00  0.00     0.163 HD
BRANCH   8  10
ATOM     10  C   UNL A   1      44.096  28.191  27.402  1.00  0.00     0.039 A 
ATOM     11  C   UNL A   1      45.037  28.590  28.354  1.00  0.00     0.014 A 
ATOM     12  C   UNL A   1      43.085  29.076  27.010  1.00  0.00     0.014 A 
ATOM     13  C   UNL A   1      44.880  29.804  29.015  1.00  0.00     0.010 A 
ATOM     14  C   UNL A   1      42.984  30.334  27.613  1.00  0.00     0.010 A 
ATOM     15  C   UNL A   1      43.860  30.698  28.645  1.00  0.00    -0.014 A 
BRANCH  15  16
ATOM     16  C   UNL A   1      43.806  32.033  29.297  1.00  0.00     0.031 A 
ATOM     17  C   UNL A   1      42.974  32.286  30.521  1.00  0.00     0.074 A 
ATOM     18  C   UNL A   1      44.563  33.021  28.781  1.00  0.00     0.049 A 
ATOM     19  N   UNL A   1      42.933  33.357  31.271  1.00  0.00    -0.248 NA
ATOM     20  C   UNL A   1      42.069  31.214  30.961  1.00  0.00     0.031 C 
ATOM     21  C   UNL A   1      45.360  32.908  27.558  1.00  0.00     0.029 A 
ATOM     22  N   UNL A   1      44.810  34.296  29.221  1.00  0.00    -0.354 N 
ATOM     23  C   UNL A   1      41.975  33.108  32.245  1.00  0.00     0.074 A 
ATOM     24  C   UNL A   1      41.452  31.783  31.990  1.00  0.00     0.031 C 
ATOM     25  C   UNL A   1      46.056  34.038  27.379  1.00  0.00     0.029 A 
ATOM     26  C   UNL A   1      45.719  34.977  28.446  1.00  0.00     0.049 A 
ATOM     27  H   UNL A   1      44.378  34.686  30.016  1.00  0.00     0.167 HD
ATOM     28  C   UNL A   1      41.583  33.905  33.267  1.00  0.00     0.034 A 
ATOM     29  C   UNL A   1      46.238  36.213  28.576  1.00  0.00     0.034 A 
ATOM     30  C   UNL A   1      42.141  35.203  33.540  1.00  0.00     0.049 A 
ATOM     31  C   UNL A   1      45.833  37.053  29.752  1.00  0.00     0.074 A 
ATOM     32  C   UNL A   1      41.865  36.049  34.601  1.00  0.00     0.029 A 
ATOM     33  N   UNL A   1      43.079  35.849  32.748  1.00  0.00    -0.354 N 
ATOM     34  N   UNL A   1      45.031  36.741  30.742  1.00  0.00    -0.248 NA
ATOM     35  C   UNL A   1      46.412  38.399  29.845  1.00  0.00     0.031 C 
ATOM     36  C   UNL A   1      42.626  37.211  34.442  1.00  0.00     0.029 A 
ATOM     37  C   UNL A   1      43.387  37.085  33.290  1.00  0.00     0.049 A 
ATOM     38  H   UNL A   1      43.470  35.481  31.923  1.00  0.00     0.167 HD
ATOM     39  C   UNL A   1      45.016  37.847  31.582  1.00  0.00     0.074 A 
ATOM     40  C   UNL A   1      45.910  38.827  30.998  1.00  0.00     0.031 C 
ATOM     41  C   UNL A   1      44.308  38.036  32.721  1.00  0.00     0.034 A 
BRANCH  28  42
ATOM     42  C   UNL A   1      40.533  33.383  34.213  1.00  0.00     0.023 A 
ATOM     43  C   UNL A   1      40.932  32.736  35.400  1.00  0.00     0.012 A 
ATOM     44  C   UNL A   1      39.163  33.618  33.981  1.00  0.00     0.148 A 
ATOM     45  C   UNL A   1      39.986  32.314  36.332  1.00  0.00     0.002 A 
ATOM     46  C   UNL A   1      38.227  33.227  34.933  1.00  0.00     0.091 A 
ATOM     47  F   UNL A   1      38.799  34.212  32.836  1.00  0.00    -0.205 F 
ATOM     48  C   UNL A   1      38.635  32.570  36.106  1.00  0.00     0.022 A 
BRANCH  46  49
ATOM     49  S   UNL A   1      36.474  33.585  34.760  1.00  0.00     0.127 S 
ATOM     50  O   UNL A   1      36.034  33.583  36.154  1.00  0.00    -0.237 OA
ATOM     51  O   UNL A   1      36.484  34.905  34.127  1.00  0.00    -0.237 OA
ATOM     52  O   UNL A   1      35.935  32.521  33.925  1.00  0.00    -0.744 OA
ENDBRANCH  46  49
ENDBRANCH  28  42
BRANCH  29  53
ATOM     53  C   UNL A   1      47.265  36.666  27.596  1.00  0.00     0.023 A 
ATOM     54  C   UNL A   1      46.863  37.406  26.470  1.00  0.00     0.012 A 
ATOM     55  C   UNL A   1      48.640  36.490  27.852  1.00  0.00     0.148 A 
ATOM     56  C   UNL A   1      47.812  37.970  25.617  1.00  0.00     0.002 A 
ATOM     57  C   UNL A   1      49.578  37.110  27.036  1.00  0.00     0.091 A 
ATOM     58  F   UNL A   1      49.000  35.768  28.922  1.00  0.00    -0.205 F 
ATOM     59  C   UNL A   1      49.167  37.840  25.910  1.00  0.00     0.022 A 
BRANCH  57  60
ATOM     60  S   UNL A   1      51.329  37.145  27.441  1.00  0.00     0.127 S 
ATOM     61  O   UNL A   1      51.711  35.750  27.240  1.00  0.00    -0.237 OA
ATOM     62  O   UNL A   1      51.851  38.079  26.442  1.00  0.00    -0.237 OA
ATOM     63  O   UNL A   1      51.405  37.632  28.812  1.00  0.00    -0.744 OA
ENDBRANCH  57  60
ENDBRANCH  29  53
BRANCH  41  64
ATOM     64  C   UNL A   1      44.452  39.357  33.428  1.00  0.00     0.023 A 
ATOM     65  C   UNL A   1      45.526  39.547  34.320  1.00  0.00     0.012 A 
ATOM     66  C   UNL A   1      43.608  40.440  33.116  1.00  0.00     0.148 A 
ATOM     67  C   UNL A   1      45.753  40.796  34.898  1.00  0.00     0.002 A 
ATOM     68  C   UNL A   1      43.864  41.691  33.664  1.00  0.00     0.091 A 
ATOM     69  F   UNL A   1      42.583  40.229  32.277  1.00  0.00    -0.205 F 
ATOM     70  C   UNL A   1      44.932  41.869  34.560  1.00  0.00     0.022 A 
BRANCH  68  71
ATOM     71  S   UNL A   1      42.920  43.153  33.216  1.00  0.00     0.127 S 
ATOM     72  O   UNL A   1      43.963  44.175  33.160  1.00  0.00    -0.237 OA
ATOM     73  O   UNL A   1      42.364  42.777  31.916  1.00  0.00    -0.237 OA
ATOM     74  O   UNL A   1      41.930  43.329  34.270  1.00  0.00    -0.744 OA
ENDBRANCH  68  71
ENDBRANCH  41  64
ENDBRANCH  15  16
ENDBRANCH   8  10
ENDBRANCH   5   6
ENDBRANCH   4   5
ENDBRANCH   3   4
ENDBRANCH   2   3
ENDBRANCH   1   2
BRANCH   1  75
ATOM     75  C   UNL A   1      39.496  21.835  26.557  1.00  0.00     0.116 C 
BRANCH  75  76
ATOM     76  N   UNL A   1      38.949  20.759  25.744  1.00  0.00    -0.354 N 
ATOM     77  C   UNL A   1      37.725  20.708  25.114  1.00  0.00     0.244 C 
ATOM     78  H   UNL A   1      39.524  19.969  25.632  1.00  0.00     0.163 HD
ATOM     79  O   UNL A   1      37.491  19.806  24.312  1.00  0.00    -0.273 OA
BRANCH  77  80
ATOM     80  C   UNL A   1      36.695  21.795  25.461  1.00  0.00     0.197 C 
BRANCH  80  81
ATOM     81  N   UNL A   1      35.790  21.415  26.544  1.00  0.00    -0.340 N 
ATOM     82  C   UNL A   1      34.483  21.737  26.766  1.00  0.00     0.243 C 
ATOM     83  H   UNL A   1      36.189  20.828  27.227  1.00  0.00     0.164 HD
ATOM     84  O   UNL A   1      33.937  21.243  27.757  1.00  0.00    -0.273 OA
BRANCH  82  85
ATOM     85  C   UNL A   1      33.633  22.540  25.745  1.00  0.00     0.175 C 
BRANCH  85  86
ATOM     86  N   UNL A   1      34.323  22.805  24.480  1.00  0.00    -0.342 N 
ATOM     87  C   UNL A   1      34.338  23.870  23.650  1.00  0.00     0.243 C 
ATOM     88  H   UNL A   1      34.888  22.059  24.174  1.00  0.00     0.164 HD
ATOM     89  O   UNL A   1      35.186  23.819  22.750  1.00  0.00    -0.273 OA
BRANCH  87  90
ATOM     90  C   UNL A   1      33.414  25.086  23.809  1.00  0.00     0.176 C 
BRANCH  90  91
ATOM     91  N   UNL A   1      32.067  24.502  23.667  1.00  0.00    -0.340 N 
ATOM     92  C   UNL A   1      30.860  25.044  23.316  1.00  0.00     0.251 C 
ATOM     93  H   UNL A   1      32.028  23.538  23.864  1.00  0.00     0.164 HD
ATOM     94  O   UNL A   1      29.866  24.334  23.192  1.00  0.00    -0.269 OA
BRANCH  92  95
ATOM     95  C   UNL A   1      30.711  26.502  23.151  1.00  0.00     0.040 A 
ATOM     96  C   UNL A   1      29.761  27.232  23.869  1.00  0.00     0.017 A 
ATOM     97  C   UNL A   1      31.556  27.149  22.239  1.00  0.00     0.017 A 
ATOM     98  C   UNL A   1      29.581  28.589  23.596  1.00  0.00     0.040 A 
ATOM     99  C   UNL A   1      31.380  28.507  21.974  1.00  0.00     0.040 A 
ATOM    100  C   UNL A   1      30.381  29.209  22.641  1.00  0.00     0.123 A 
ATOM    101  F   UNL A   1      30.191  30.505  22.363  1.00  0.00    -0.207 F 
ENDBRANCH  92  95
ENDBRANCH  90  91
BRANCH  90 102
ATOM    102  C   UNL A   1      33.701  25.644  25.226  1.00  0.00     0.070 C 
BRANCH 102 103
ATOM    103  C   UNL A   1      33.095  26.960  25.659  1.00  0.00    -0.045 A 
ATOM    104  C   UNL A   1      32.110  27.077  26.641  1.00  0.00     0.007 A 
ATOM    105  C   UNL A   1      33.538  28.134  25.025  1.00  0.00     0.007 A 
ATOM    106  C   UNL A   1      31.656  28.330  27.064  1.00  0.00     0.046 A 
ATOM    107  C   UNL A   1      33.064  29.387  25.417  1.00  0.00     0.046 A 
ATOM    108  C   UNL A   1      32.149  29.477  26.455  1.00  0.00     0.115 A 
BRANCH 108 109
ATOM    109  O   UNL A   1      31.751  30.718  26.852  1.00  0.00    -0.508 OA
ATOM    110  H   UNL A   1      31.310  30.829  27.671  1.00  0.00     0.293 HD
ENDBRANCH 108 109
ENDBRANCH 102 103
ENDBRANCH  90 102
ENDBRANCH  87  90
ENDBRANCH  85  86
BRANCH  85 111
ATOM    111  C   UNL A   1      32.295  21.807  25.552  1.00  0.00     0.072 C 
BRANCH 111 112
ATOM    112  C   UNL A   1      32.319  20.859  24.395  1.00  0.00    -0.020 A 
ATOM    113  C   UNL A   1      31.982  21.161  23.090  1.00  0.00     0.087 A 
ATOM    114  C   UNL A   1      32.679  19.473  24.423  1.00  0.00     0.003 A 
ATOM    115  N   UNL A   1      32.125  20.028  22.335  1.00  0.00    -0.361 N 
ATOM    116  C   UNL A   1      32.542  18.983  23.125  1.00  0.00     0.046 A 
ATOM    117  C   UNL A   1      33.107  18.586  25.432  1.00  0.00     0.010 A 
ATOM    118  H   UNL A   1      31.953  19.969  21.368  1.00  0.00     0.166 HD
ATOM    119  C   UNL A   1      32.804  17.651  22.786  1.00  0.00     0.026 A 
ATOM    120  C   UNL A   1      33.374  17.249  25.111  1.00  0.00     0.001 A 
ATOM    121  C   UNL A   1      33.222  16.792  23.805  1.00  0.00     0.002 A 
ENDBRANCH 111 112
ENDBRANCH  85 111
ENDBRANCH  82  85
ENDBRANCH  80  81
BRANCH  80 122
ATOM    122  C   UNL A   1      37.401  23.128  25.747  1.00  0.00     0.191 C 
BRANCH 122 123
ATOM    123  O   UNL A   1      37.753  23.810  24.543  1.00  0.00    -0.394 OA
ATOM    124  H   UNL A   1      37.055  24.441  24.313  1.00  0.00     0.210 HD
ENDBRANCH 122 123
ENDBRANCH  80 122
ENDBRANCH  77  80
ENDBRANCH  75  76
ENDBRANCH   1  75
TORSDOF 29
ENDMDL
MODEL 2
REMARK VINA RESULT:     -10.5      7.457     14.951
REMARK SMILES O=C(NCCCCCCNC(=O)[C@H](CO)NC(=O)[C@H](Cc1c[nH]c2ccccc12)NC(=O)[C@H](Cc1ccc(O)cc1)NC(=O)c1ccc(F)cc1)c1ccc(-c2c3nc(c(-c4cccc(S(=O)(=O)[O-])c4F)c4ccc([nH]4)c(-c4cccc(S(=O)(=O)[O-])c4F)c4nc(c(-c5cccc(S(=O)(=O)[O-])c5F)c5ccc2[nH]5)C=C4)C=C3)cc1
REMARK SMILES IDX 8 1 7 2 6 3 5 4 4 5 3 6 1 7 2 8 52 10 53 11 114 12 54 13
REMARK SMILES IDX 113 14 55 15 56 16 57 17 107 18 58 19 112 20 106 21 108 22
REMARK SMILES IDX 59 23 111 24 105 25 104 26 60 28 92 29 72 30 91 31 73 32
REMARK SMILES IDX 76 33 90 34 109 35 74 36 75 37 89 39 110 40 77 41 61 42
REMARK SMILES IDX 62 43 70 44 63 45 65 46 71 47 64 48 66 49 67 50 68 51 69 52
REMARK SMILES IDX 93 53 94 54 102 55 95 56 97 57 103 58 96 59 98 60 99 61
REMARK SMILES IDX 100 62 101 63 78 64 79 65 87 66 80 67 82 68 88 69 81 70
REMARK SMILES IDX 83 71 84 72 85 73 86 74 9 75 10 76 11 77 12 79 13 80 16 81
REMARK SMILES IDX 17 82 18 84 19 85 30 86 31 87 32 89 33 90 42 91 43 92 44 94
REMARK SMILES IDX 45 95 46 96 51 97 47 98 50 99 48 100 49 101 34 102 35 103
REMARK SMILES IDX 36 104 41 105 37 106 40 107 38 108 39 109 20 111 21 112
REMARK SMILES IDX 22 113 29 114 23 115 24 116 28 117 25 119 27 120 26 121
REMARK SMILES IDX 14 122 15 123
REMARK H PARENT 3 9 108 27 76 38 10 78 16 83 30 88 42 93 39 110 23 118 15 124
REMARK Flexibility Score: inf
ROOT
ATOM      1  C   UNL A   1      43.451  33.997  33.659  1.00  0.00     0.021 C 
ENDROOT
BRANCH   1   2
ATOM      2  C   UNL A   1      43.987  34.259  32.251  1.00  0.00     0.002 C 
BRANCH   2   3
ATOM      3  C   UNL A   1      42.937  34.436  31.151  1.00  0.00     0.002 C 
BRANCH   3   4
ATOM      4  C   UNL A   1      43.469  34.588  29.726  1.00  0.00     0.021 C 
BRANCH   4   5
ATOM      5  C   UNL A   1      43.116  33.460  28.764  1.00  0.00     0.116 C 
BRANCH   5   6
ATOM      6  N   UNL A   1      43.646  33.662  27.428  1.00  0.00    -0.352 N 
ATOM      7  O   UNL A   1      45.103  33.465  25.722  1.00  0.00    -0.269 OA
ATOM      8  C   UNL A   1      44.728  33.066  26.823  1.00  0.00     0.251 C 
ATOM      9  H   UNL A   1      43.162  34.319  26.877  1.00  0.00     0.163 HD
BRANCH   8  10
ATOM     10  C   UNL A   1      45.456  31.973  27.509  1.00  0.00     0.039 A 
ATOM     11  C   UNL A   1      46.271  32.237  28.611  1.00  0.00     0.014 A 
ATOM     12  C   UNL A   1      45.314  30.660  27.047  1.00  0.00     0.014 A 
ATOM     13  C   UNL A   1      47.054  31.223  29.151  1.00  0.00     0.010 A 
ATOM     14  C   UNL A   1      46.035  29.624  27.651  1.00  0.00     0.010 A 
ATOM     15  C   UNL A   1      46.938  29.901  28.688  1.00  0.00    -0.014 A 
BRANCH  15  16
ATOM     16  C   UNL A   1      47.706  28.830  29.377  1.00  0.00     0.031 A 
ATOM     17  C   UNL A   1      49.152  28.566  29.068  1.00  0.00     0.074 A 
ATOM     18  C   UNL A   1      47.079  28.113  30.329  1.00  0.00     0.049 A 
ATOM     19  N   UNL A   1      49.981  27.759  29.679  1.00  0.00    -0.248 NA
ATOM     20  C   UNL A   1      49.747  29.285  27.931  1.00  0.00     0.031 C 
ATOM     21  C   UNL A   1      45.660  28.238  30.668  1.00  0.00     0.029 A 
ATOM     22  N   UNL A   1      47.545  27.161  31.200  1.00  0.00    -0.354 N 
ATOM     23  C   UNL A   1      51.180  27.841  28.982  1.00  0.00     0.074 A 
ATOM     24  C   UNL A   1      50.972  28.774  27.897  1.00  0.00     0.031 C 
ATOM     25  C   UNL A   1      45.384  27.446  31.712  1.00  0.00     0.029 A 
ATOM     26  C   UNL A   1      46.593  26.719  32.088  1.00  0.00     0.049 A 
ATOM     27  H   UNL A   1      48.472  26.828  31.191  1.00  0.00     0.167 HD
ATOM     28  C   UNL A   1      52.350  27.210  29.239  1.00  0.00     0.034 A 
ATOM     29  C   UNL A   1      46.676  25.835  33.102  1.00  0.00     0.034 A 
ATOM     30  C   UNL A   1      52.561  26.317  30.348  1.00  0.00     0.049 A 
ATOM     31  C   UNL A   1      48.000  25.195  33.403  1.00  0.00     0.074 A 
ATOM     32  C   UNL A   1      53.736  25.695  30.737  1.00  0.00     0.029 A 
ATOM     33  N   UNL A   1      51.581  25.914  31.243  1.00  0.00    -0.354 N 
ATOM     34  N   UNL A   1      49.157  25.396  32.820  1.00  0.00    -0.248 NA
ATOM     35  C   UNL A   1      48.040  24.227  34.507  1.00  0.00     0.031 C 
ATOM     36  C   UNL A   1      53.461  24.903  31.856  1.00  0.00     0.029 A 
ATOM     37  C   UNL A   1      52.119  25.043  32.175  1.00  0.00     0.049 A 
ATOM     38  H   UNL A   1      50.641  26.204  31.219  1.00  0.00     0.167 HD
ATOM     39  C   UNL A   1      50.066  24.588  33.491  1.00  0.00     0.074 A 
ATOM     40  C   UNL A   1      49.330  23.915  34.542  1.00  0.00     0.031 C 
ATOM     41  C   UNL A   1      51.386  24.409  33.241  1.00  0.00     0.034 A 
BRANCH  28  42
ATOM     42  C   UNL A   1      53.524  27.495  28.339  1.00  0.00     0.023 A 
ATOM     43  C   UNL A   1      54.405  28.546  28.665  1.00  0.00     0.012 A 
ATOM     44  C   UNL A   1      53.813  26.669  27.235  1.00  0.00     0.148 A 
ATOM     45  C   UNL A   1      55.544  28.784  27.897  1.00  0.00     0.002 A 
ATOM     46  C   UNL A   1      54.970  26.889  26.495  1.00  0.00     0.091 A 
ATOM     47  F   UNL A   1      52.952  25.690  26.925  1.00  0.00    -0.205 F 
ATOM     48  C   UNL A   1      55.833  27.949  26.820  1.00  0.00     0.022 A 
BRANCH  46  49
ATOM     49  S   UNL A   1      55.462  25.816  25.140  1.00  0.00     0.127 S 
ATOM     50  O   UNL A   1      54.636  26.324  24.046  1.00  0.00    -0.237 OA
ATOM     51  O   UNL A   1      56.891  26.108  25.010  1.00  0.00    -0.237 OA
ATOM     52  O   UNL A   1      55.163  24.461  25.582  1.00  0.00    -0.744 OA
ENDBRANCH  46  49
ENDBRANCH  28  42
BRANCH  29  53
ATOM     53  C   UNL A   1      45.471  25.595  33.943  1.00  0.00     0.023 A 
ATOM     54  C   UNL A   1      44.659  24.477  33.680  1.00  0.00     0.012 A 
ATOM     55  C   UNL A   1      45.211  26.384  35.082  1.00  0.00     0.148 A 
ATOM     56  C   UNL A   1      43.612  24.143  34.541  1.00  0.00     0.002 A 
ATOM     57  C   UNL A   1      44.210  26.007  35.969  1.00  0.00     0.091 A 
ATOM     58  F   UNL A   1      45.988  27.454  35.304  1.00  0.00    -0.205 F 
ATOM     59  C   UNL A   1      43.401  24.894  35.694  1.00  0.00     0.022 A 
BRANCH  57  60
ATOM     60  S   UNL A   1      43.988  26.808  37.563  1.00  0.00     0.127 S 
ATOM     61  O   UNL A   1      43.527  28.136  37.168  1.00  0.00    -0.237 OA
ATOM     62  O   UNL A   1      42.969  25.961  38.186  1.00  0.00    -0.237 OA
ATOM     63  O   UNL A   1      45.290  26.756  38.214  1.00  0.00    -0.744 OA
ENDBRANCH  57  60
ENDBRANCH  29  53
BRANCH  41  64
ATOM     64  C   UNL A   1      52.141  23.439  34.109  1.00  0.00     0.023 A 
ATOM     65  C   UNL A   1      52.623  23.867  35.362  1.00  0.00     0.012 A 
ATOM     66  C   UNL A   1      52.259  22.084  33.745  1.00  0.00     0.148 A 
ATOM     67  C   UNL A   1      53.222  22.960  36.236  1.00  0.00     0.002 A 
ATOM     68  C   UNL A   1      52.819  21.178  34.638  1.00  0.00     0.091 A 
ATOM     69  F   UNL A   1      51.806  21.705  32.541  1.00  0.00    -0.205 F 
ATOM     70  C   UNL A   1      53.307  21.616  35.881  1.00  0.00     0.022 A 
BRANCH  68  71
ATOM     71  S   UNL A   1      52.887  19.413  34.309  1.00  0.00     0.127 S 
ATOM     72  O   UNL A   1      53.507  19.381  32.986  1.00  0.00    -0.237 OA
ATOM     73  O   UNL A   1      53.739  18.927  35.395  1.00  0.00    -0.237 OA
ATOM     74  O   UNL A   1      51.509  18.942  34.364  1.00  0.00    -0.744 OA
ENDBRANCH  68  71
ENDBRANCH  41  64
ENDBRANCH  15  16
ENDBRANCH   8  10
ENDBRANCH   5   6
ENDBRANCH   4   5
ENDBRANCH   3   4
ENDBRANCH   2   3
ENDBRANCH   1   2
BRANCH   1  75
ATOM     75  C   UNL A   1      42.070  33.358  33.724  1.00  0.00     0.116 C 
BRANCH  75  76
ATOM     76  N   UNL A   1      41.602  33.104  35.078  1.00  0.00    -0.354 N 
ATOM     77  C   UNL A   1      40.519  33.662  35.721  1.00  0.00     0.244 C 
ATOM     78  H   UNL A   1      42.124  32.452  35.599  1.00  0.00     0.163 HD
ATOM     79  O   UNL A   1      40.149  33.201  36.800  1.00  0.00    -0.273 OA
BRANCH  77  80
ATOM     80  C   UNL A   1      39.828  34.859  35.053  1.00  0.00     0.197 C 
BRANCH  80  81
ATOM     81  N   UNL A   1      38.376  34.868  35.229  1.00  0.00    -0.340 N 
ATOM     82  C   UNL A   1      37.417  34.019  34.758  1.00  0.00     0.243 C 
ATOM     83  H   UNL A   1      38.034  35.608  35.782  1.00  0.00     0.164 HD
ATOM     84  O   UNL A   1      36.250  34.241  35.094  1.00  0.00    -0.273 OA
BRANCH  82  85
ATOM     85  C   UNL A   1      37.758  32.719  33.981  1.00  0.00     0.175 C 
BRANCH  85  86
ATOM     86  N   UNL A   1      38.066  31.577  34.845  1.00  0.00    -0.342 N 
ATOM     87  C   UNL A   1      38.912  30.533  34.715  1.00  0.00     0.243 C 
ATOM     88  H   UNL A   1      37.557  31.570  35.687  1.00  0.00     0.164 HD
ATOM     89  O   UNL A   1      39.052  29.844  35.734  1.00  0.00    -0.273 OA
BRANCH  87  90
ATOM     90  C   UNL A   1      39.688  30.221  33.428  1.00  0.00     0.176 C 
BRANCH  90  91
ATOM     91  N   UNL A   1      40.923  29.588  33.928  1.00  0.00    -0.340 N 
ATOM     92  C   UNL A   1      42.092  29.233  33.310  1.00  0.00     0.251 C 
ATOM     93  H   UNL A   1      40.903  29.380  34.890  1.00  0.00     0.164 HD
ATOM     94  O   UNL A   1      43.030  28.776  33.957  1.00  0.00    -0.269 OA
BRANCH  92  95
ATOM     95  C   UNL A   1      42.224  29.323  31.844  1.00  0.00     0.040 A 
ATOM     96  C   UNL A   1      42.709  30.473  31.216  1.00  0.00     0.017 A 
ATOM     97  C   UNL A   1      41.840  28.212  31.081  1.00  0.00     0.017 A 
ATOM     98  C   UNL A   1      42.708  30.553  29.823  1.00  0.00     0.040 A 
ATOM     99  C   UNL A   1      41.848  28.291  29.688  1.00  0.00     0.040 A 
ATOM    100  C   UNL A   1      42.264  29.468  29.073  1.00  0.00     0.123 A 
ATOM    101  F   UNL A   1      42.241  29.555  27.738  1.00  0.00    -0.207 F 
ENDBRANCH  92  95
ENDBRANCH  90  91
BRANCH  90 102
ATOM    102  C   UNL A   1      38.782  29.258  32.620  1.00  0.00     0.070 C 
BRANCH 102 103
ATOM    103  C   UNL A   1      38.304  29.646  31.239  1.00  0.00    -0.045 A 
ATOM    104  C   UNL A   1      38.974  30.544  30.407  1.00  0.00     0.007 A 
ATOM    105  C   UNL A   1      37.105  29.081  30.771  1.00  0.00     0.007 A 
ATOM    106  C   UNL A   1      38.532  30.792  29.105  1.00  0.00     0.046 A 
ATOM    107  C   UNL A   1      36.637  29.350  29.483  1.00  0.00     0.046 A 
ATOM    108  C   UNL A   1      37.371  30.180  28.649  1.00  0.00     0.115 A 
BRANCH 108 109
ATOM    109  O   UNL A   1      36.917  30.376  27.379  1.00  0.00    -0.508 OA
ATOM    110  H   UNL A   1      37.521  30.395  26.664  1.00  0.00     0.293 HD
ENDBRANCH 108 109
ENDBRANCH 102 103
ENDBRANCH  90 102
ENDBRANCH  87  90
ENDBRANCH  85  86
BRANCH  85 111
ATOM    111  C   UNL A   1      36.608  32.431  33.001  1.00  0.00     0.072 C 
BRANCH 111 112
ATOM    112  C   UNL A   1      36.792  33.110  31.681  1.00  0.00    -0.020 A 
ATOM    113  C   UNL A   1      37.805  33.991  31.355  1.00  0.00     0.087 A 
ATOM    114  C   UNL A   1      35.957  32.987  30.524  1.00  0.00     0.003 A 
ATOM    115  N   UNL A   1      37.620  34.399  30.061  1.00  0.00    -0.361 N 
ATOM    116  C   UNL A   1      36.497  33.806  29.534  1.00  0.00     0.046 A 
ATOM    117  C   UNL A   1      34.790  32.255  30.224  1.00  0.00     0.010 A 
ATOM    118  H   UNL A   1      38.205  35.026  29.579  1.00  0.00     0.166 HD
ATOM    119  C   UNL A   1      35.925  33.938  28.263  1.00  0.00     0.026 A 
ATOM    120  C   UNL A   1      34.204  32.375  28.958  1.00  0.00     0.001 A 
ATOM    121  C   UNL A   1      34.766  33.207  27.995  1.00  0.00     0.002 A 
ENDBRANCH 111 112
ENDBRANCH  85 111
ENDBRANCH  82  85
ENDBRANCH  80  81
BRANCH  80 122
ATOM    122  C   UNL A   1      40.468  36.175  35.520  1.00  0.00     0.191 C 
BRANCH 122 123
ATOM    123  O   UNL A   1      40.111  36.488  36.866  1.00  0.00    -0.394 OA
ATOM    124  H   UNL A   1      40.631  35.940  37.474  1.00  0.00     0.210 HD
ENDBRANCH 122 123
ENDBRANCH  80 122
ENDBRANCH  77  80
ENDBRANCH  75  76
ENDBRANCH   1  75
TORSDOF 29
ENDMDL
MODEL 3
REMARK VINA RESULT:     -10.0      0.673      6.902
REMARK SMILES O=C(NCCCCCCNC(=O)[C@H](CO)NC(=O)[C@H](Cc1c[nH]c2ccccc12)NC(=O)[C@H](Cc1ccc(O)cc1)NC(=O)c1ccc(F)cc1)c1ccc(-c2c3nc(c(-c4cccc(S(=O)(=O)[O-])c4F)c4ccc([nH]4)c(-c4cccc(S(=O)(=O)[O-])c4F)c4nc(c(-c5cccc(S(=O)(=O)[O-])c5F)c5ccc2[nH]5)C=C4)C=C3)cc1
REMARK SMILES IDX 8 1 7 2 6 3 5 4 4 5 3 6 1 7 2 8 52 10 53 11 114 12 54 13
REMARK SMILES IDX 113 14 55 15 56 16 57 17 107 18 58 19 112 20 106 21 108 22
REMARK SMILES IDX 59 23 111 24 105 25 104 26 60 28 92 29 72 30 91 31 73 32
REMARK SMILES IDX 76 33 90 34 109 35 74 36 75 37 89 39 110 40 77 41 61 42
REMARK SMILES IDX 62 43 70 44 63 45 65 46 71 47 64 48 66 49 67 50 68 51 69 52
REMARK SMILES IDX 93 53 94 54 102 55 95 56 97 57 103 58 96 59 98 60 99 61
REMARK SMILES IDX 100 62 101 63 78 64 79 65 87 66 80 67 82 68 88 69 81 70
REMARK SMILES IDX 83 71 84 72 85 73 86 74 9 75 10 76 11 77 12 79 13 80 16 81
REMARK SMILES IDX 17 82 18 84 19 85 30 86 31 87 32 89 33 90 42 91 43 92 44 94
REMARK SMILES IDX 45 95 46 96 51 97 47 98 50 99 48 100 49 101 34 102 35 103
REMARK SMILES IDX 36 104 41 105 37 106 40 107 38 108 39 109 20 111 21 112
REMARK SMILES IDX 22 113 29 114 23 115 24 116 28 117 25 119 27 120 26 121
REMARK SMILES IDX 14 122 15 123
REMARK H PARENT 3 9 108 27 76 38 10 78 16 83 30 88 42 93 39 110 23 118 15 124
REMARK Flexibility Score: inf
ROOT
ATOM      1  C   UNL A   1      40.652  21.113  27.231  1.00  0.00     0.021 C 
ENDROOT
BRANCH   1   2
ATOM      2  C   UNL A   1      41.372  22.188  28.046  1.00  0.00     0.002 C 
BRANCH   2   3
ATOM      3  C   UNL A   1      41.265  23.621  27.516  1.00  0.00     0.002 C 
BRANCH   3   4
ATOM      4  C   UNL A   1      41.595  24.736  28.509  1.00  0.00     0.021 C 
BRANCH   4   5
ATOM      5  C   UNL A   1      42.728  25.669  28.102  1.00  0.00     0.116 C 
BRANCH   5   6
ATOM      6  N   UNL A   1      42.752  25.952  26.679  1.00  0.00    -0.352 N 
ATOM      7  O   UNL A   1      42.730  27.214  24.814  1.00  0.00    -0.269 OA
ATOM      8  C   UNL A   1      42.861  27.162  26.035  1.00  0.00     0.251 C 
ATOM      9  H   UNL A   1      42.679  25.166  26.090  1.00  0.00     0.163 HD
BRANCH   8  10
ATOM     10  C   UNL A   1      43.101  28.400  26.814  1.00  0.00     0.039 A 
ATOM     11  C   UNL A   1      44.394  28.780  27.175  1.00  0.00     0.014 A 
ATOM     12  C   UNL A   1      42.012  29.198  27.184  1.00  0.00     0.014 A 
ATOM     13  C   UNL A   1      44.585  29.865  28.024  1.00  0.00     0.010 A 
ATOM     14  C   UNL A   1      42.216  30.342  27.964  1.00  0.00     0.010 A 
ATOM     15  C   UNL A   1      43.501  30.668  28.420  1.00  0.00    -0.014 A 
BRANCH  15  16
ATOM     16  C   UNL A   1      43.769  31.886  29.228  1.00  0.00     0.031 A 
ATOM     17  C   UNL A   1      44.712  32.958  28.761  1.00  0.00     0.074 A 
ATOM     18  C   UNL A   1      43.108  32.032  30.393  1.00  0.00     0.049 A 
ATOM     19  N   UNL A   1      44.942  34.130  29.294  1.00  0.00    -0.248 NA
ATOM     20  C   UNL A   1      45.504  32.687  27.552  1.00  0.00     0.031 C 
ATOM     21  C   UNL A   1      42.218  31.027  30.978  1.00  0.00     0.029 A 
ATOM     22  N   UNL A   1      43.057  33.077  31.281  1.00  0.00    -0.354 N 
ATOM     23  C   UNL A   1      45.928  34.720  28.515  1.00  0.00     0.074 A 
ATOM     24  C   UNL A   1      46.260  33.775  27.471  1.00  0.00     0.031 C 
ATOM     25  C   UNL A   1      41.660  31.525  32.089  1.00  0.00     0.029 A 
ATOM     26  C   UNL A   1      42.188  32.865  32.326  1.00  0.00     0.049 A 
ATOM     27  H   UNL A   1      43.591  33.899  31.179  1.00  0.00     0.167 HD
ATOM     28  C   UNL A   1      46.490  35.945  28.648  1.00  0.00     0.034 A 
ATOM     29  C   UNL A   1      41.841  33.659  33.357  1.00  0.00     0.034 A 
ATOM     30  C   UNL A   1      46.122  36.897  29.664  1.00  0.00     0.049 A 
ATOM     31  C   UNL A   1      42.432  35.036  33.448  1.00  0.00     0.074 A 
ATOM     32  C   UNL A   1      46.577  38.195  29.828  1.00  0.00     0.029 A 
ATOM     33  N   UNL A   1      45.218  36.658  30.689  1.00  0.00    -0.354 N 
ATOM     34  N   UNL A   1      43.257  35.628  32.618  1.00  0.00    -0.248 NA
ATOM     35  C   UNL A   1      42.036  35.860  34.597  1.00  0.00     0.031 C 
ATOM     36  C   UNL A   1      45.960  38.734  30.961  1.00  0.00     0.029 A 
ATOM     37  C   UNL A   1      45.109  37.778  31.495  1.00  0.00     0.049 A 
ATOM     38  H   UNL A   1      44.726  35.817  30.823  1.00  0.00     0.167 HD
ATOM     39  C   UNL A   1      43.472  36.898  33.138  1.00  0.00     0.074 A 
ATOM     40  C   UNL A   1      42.669  36.999  34.340  1.00  0.00     0.031 C 
ATOM     41  C   UNL A   1      44.277  37.881  32.667  1.00  0.00     0.034 A 
BRANCH  28  42
ATOM     42  C   UNL A   1      47.530  36.364  27.643  1.00  0.00     0.023 A 
ATOM     43  C   UNL A   1      47.129  37.051  26.480  1.00  0.00     0.012 A 
ATOM     44  C   UNL A   1      48.903  36.170  27.892  1.00  0.00     0.148 A 
ATOM     45  C   UNL A   1      48.075  37.522  25.570  1.00  0.00     0.002 A 
ATOM     46  C   UNL A   1      49.843  36.674  26.999  1.00  0.00     0.091 A 
ATOM     47  F   UNL A   1      49.266  35.494  28.991  1.00  0.00    -0.205 F 
ATOM     48  C   UNL A   1      49.432  37.344  25.835  1.00  0.00     0.022 A 
BRANCH  46  49
ATOM     49  S   UNL A   1      51.611  36.560  27.299  1.00  0.00     0.127 S 
ATOM     50  O   UNL A   1      52.088  37.822  26.735  1.00  0.00    -0.237 OA
ATOM     51  O   UNL A   1      51.678  36.484  28.760  1.00  0.00    -0.237 OA
ATOM     52  O   UNL A   1      52.051  35.353  26.613  1.00  0.00    -0.744 OA
ENDBRANCH  46  49
ENDBRANCH  28  42
BRANCH  29  53
ATOM     53  C   UNL A   1      40.812  33.174  34.319  1.00  0.00     0.023 A 
ATOM     54  C   UNL A   1      41.219  32.678  35.571  1.00  0.00     0.012 A 
ATOM     55  C   UNL A   1      39.437  33.336  34.055  1.00  0.00     0.148 A 
ATOM     56  C   UNL A   1      40.276  32.358  36.547  1.00  0.00     0.002 A 
ATOM     57  C   UNL A   1      38.507  33.077  35.055  1.00  0.00     0.091 A 
ATOM     58  F   UNL A   1      39.072  33.795  32.850  1.00  0.00    -0.205 F 
ATOM     59  C   UNL A   1      38.923  32.576  36.298  1.00  0.00     0.022 A 
BRANCH  57  60
ATOM     60  S   UNL A   1      36.769  33.500  34.881  1.00  0.00     0.127 S 
ATOM     61  O   UNL A   1      36.841  34.815  34.253  1.00  0.00    -0.237 OA
ATOM     62  O   UNL A   1      36.283  32.426  34.012  1.00  0.00    -0.237 OA
ATOM     63  O   UNL A   1      36.221  33.470  36.231  1.00  0.00    -0.744 OA
ENDBRANCH  57  60
ENDBRANCH  29  53
BRANCH  41  64
ATOM     64  C   UNL A   1      44.352  39.164  33.450  1.00  0.00     0.023 A 
ATOM     65  C   UNL A   1      45.324  39.298  34.461  1.00  0.00     0.012 A 
ATOM     66  C   UNL A   1      43.556  40.272  33.101  1.00  0.00     0.148 A 
ATOM     67  C   UNL A   1      45.495  40.514  35.122  1.00  0.00     0.002 A 
ATOM     68  C   UNL A   1      43.760  41.492  33.734  1.00  0.00     0.091 A 
ATOM     69  F   UNL A   1      42.628  40.115  32.145  1.00  0.00    -0.205 F 
ATOM     70  C   UNL A   1      44.724  41.613  34.749  1.00  0.00     0.022 A 
BRANCH  68  71
ATOM     71  S   UNL A   1      42.882  42.986  33.258  1.00  0.00     0.127 S 
ATOM     72  O   UNL A   1      41.866  43.079  34.303  1.00  0.00    -0.237 OA
ATOM     73  O   UNL A   1      43.933  44.002  33.336  1.00  0.00    -0.237 OA
ATOM     74  O   UNL A   1      42.376  42.742  31.914  1.00  0.00    -0.744 OA
ENDBRANCH  68  71
ENDBRANCH  41  64
ENDBRANCH  15  16
ENDBRANCH   8  10
ENDBRANCH   5   6
ENDBRANCH   4   5
ENDBRANCH   3   4
ENDBRANCH   2   3
ENDBRANCH   1   2
BRANCH   1  75
ATOM     75  C   UNL A   1      39.624  21.628  26.233  1.00  0.00     0.116 C 
BRANCH  75  76
ATOM     76  N   UNL A   1      38.901  20.575  25.535  1.00  0.00    -0.354 N 
ATOM     77  C   UNL A   1      37.604  20.596  25.074  1.00  0.00     0.244 C 
ATOM     78  H   UNL A   1      39.402  19.743  25.372  1.00  0.00     0.163 HD
ATOM     79  O   UNL A   1      37.203  19.694  24.340  1.00  0.00    -0.273 OA
BRANCH  77  80
ATOM     80  C   UNL A   1      36.704  21.760  25.520  1.00  0.00     0.197 C 
BRANCH  80  81
ATOM     81  N   UNL A   1      35.843  21.430  26.655  1.00  0.00    -0.340 N 
ATOM     82  C   UNL A   1      34.541  21.749  26.907  1.00  0.00     0.243 C 
ATOM     83  H   UNL A   1      36.275  20.885  27.353  1.00  0.00     0.164 HD
ATOM     84  O   UNL A   1      34.038  21.304  27.943  1.00  0.00    -0.273 OA
BRANCH  82  85
ATOM     85  C   UNL A   1      33.645  22.487  25.875  1.00  0.00     0.175 C 
BRANCH  85  86
ATOM     86  N   UNL A   1      34.295  22.713  24.582  1.00  0.00    -0.342 N 
ATOM     87  C   UNL A   1      34.254  23.738  23.704  1.00  0.00     0.243 C 
ATOM     88  H   UNL A   1      34.878  21.973  24.298  1.00  0.00     0.164 HD
ATOM     89  O   UNL A   1      35.082  23.672  22.786  1.00  0.00    -0.273 OA
BRANCH  87  90
ATOM     90  C   UNL A   1      33.293  24.928  23.828  1.00  0.00     0.176 C 
BRANCH  90  91
ATOM     91  N   UNL A   1      31.975  24.324  23.555  1.00  0.00    -0.340 N 
ATOM     92  C   UNL A   1      30.764  24.866  23.219  1.00  0.00     0.251 C 
ATOM     93  H   UNL A   1      31.965  23.342  23.630  1.00  0.00     0.164 HD
ATOM     94  O   UNL A   1      29.804  24.146  22.964  1.00  0.00    -0.269 OA
BRANCH  92  95
ATOM     95  C   UNL A   1      30.568  26.328  23.227  1.00  0.00     0.040 A 
ATOM     96  C   UNL A   1      29.893  26.975  24.264  1.00  0.00     0.017 A 
ATOM     97  C   UNL A   1      31.079  27.065  22.150  1.00  0.00     0.017 A 
ATOM     98  C   UNL A   1      29.633  28.344  24.172  1.00  0.00     0.040 A 
ATOM     99  C   UNL A   1      30.826  28.433  22.064  1.00  0.00     0.040 A 
ATOM    100  C   UNL A   1      30.088  29.056  23.067  1.00  0.00     0.123 A 
ATOM    101  F   UNL A   1      29.817  30.363  22.968  1.00  0.00    -0.207 F 
ENDBRANCH  92  95
ENDBRANCH  90  91
BRANCH  90 102
ATOM    102  C   UNL A   1      33.450  25.439  25.283  1.00  0.00     0.070 C 
BRANCH 102 103
ATOM    103  C   UNL A   1      33.150  26.883  25.616  1.00  0.00    -0.045 A 
ATOM    104  C   UNL A   1      32.536  27.298  26.798  1.00  0.00     0.007 A 
ATOM    105  C   UNL A   1      33.495  27.866  24.671  1.00  0.00     0.007 A 
ATOM    106  C   UNL A   1      32.370  28.655  27.089  1.00  0.00     0.046 A 
ATOM    107  C   UNL A   1      33.301  29.222  24.939  1.00  0.00     0.046 A 
ATOM    108  C   UNL A   1      32.767  29.607  26.160  1.00  0.00     0.115 A 
BRANCH 108 109
ATOM    109  O   UNL A   1      32.644  30.941  26.413  1.00  0.00    -0.508 OA
ATOM    110  H   UNL A   1      32.827  31.564  25.738  1.00  0.00     0.293 HD
ENDBRANCH 108 109
ENDBRANCH 102 103
ENDBRANCH  90 102
ENDBRANCH  87  90
ENDBRANCH  85  86
BRANCH  85 111
ATOM    111  C   UNL A   1      32.322  21.713  25.750  1.00  0.00     0.072 C 
BRANCH 111 112
ATOM    112  C   UNL A   1      32.485  20.401  25.050  1.00  0.00    -0.020 A 
ATOM    113  C   UNL A   1      32.865  19.209  25.637  1.00  0.00     0.087 A 
ATOM    114  C   UNL A   1      32.294  20.137  23.656  1.00  0.00     0.003 A 
ATOM    115  N   UNL A   1      32.908  18.245  24.665  1.00  0.00    -0.361 N 
ATOM    116  C   UNL A   1      32.571  18.787  23.447  1.00  0.00     0.046 A 
ATOM    117  C   UNL A   1      31.913  20.922  22.547  1.00  0.00     0.010 A 
ATOM    118  H   UNL A   1      33.146  17.303  24.816  1.00  0.00     0.166 HD
ATOM    119  C   UNL A   1      32.493  18.183  22.187  1.00  0.00     0.026 A 
ATOM    120  C   UNL A   1      31.831  20.334  21.280  1.00  0.00     0.001 A 
ATOM    121  C   UNL A   1      32.119  18.984  21.106  1.00  0.00     0.002 A 
ENDBRANCH 111 112
ENDBRANCH  85 111
ENDBRANCH  82  85
ENDBRANCH  80  81
BRANCH  80 122
ATOM    122  C   UNL A   1      37.549  23.014  25.789  1.00  0.00     0.191 C 
BRANCH 122 123
ATOM    123  O   UNL A   1      36.979  24.175  25.185  1.00  0.00    -0.394 OA
ATOM    124  H   UNL A   1      37.113  24.940  25.766  1.00  0.00     0.210 HD
ENDBRANCH 122 123
ENDBRANCH  80 122
ENDBRANCH  77  80
ENDBRANCH  75  76
ENDBRANCH   1  75
TORSDOF 29
ENDMDL
