MODEL 1
REMARK VINA RESULT:     -11.6      0.000      0.000
REMARK SMILES CC[C@@](C)(Nc1cc([N+](=O)[O-])ccc1C)C(=O)NCCCCCCNC(=O)c1ccc(-c2c3nc(c(-c4cccc(S(=O)(=O)[O-])c4F)c4ccc([nH]4)c(-c4cccc(S(=O)(=O)[O-])c4F)c4nc(c(-c5cccc(S(=O)(=O)[O-])c5F)c5ccc2[nH]5)C=C4)C=C3)cc1
REMARK SMILES IDX 21 1 20 2 19 3 18 4 16 5 17 6 3 8 4 9 2 10 1 11 5 12 6 14
REMARK SMILES IDX 7 15 14 16 8 17 13 18 15 19 12 20 9 21 10 22 11 23 22 24
REMARK SMILES IDX 23 25 24 26 25 27 26 28 27 30 28 31 29 32 90 33 30 34 89 35
REMARK SMILES IDX 31 36 32 37 33 38 83 39 34 40 88 41 82 42 84 43 35 44 87 45
REMARK SMILES IDX 81 46 80 47 36 49 68 50 48 51 67 52 49 53 52 54 66 55 85 56
REMARK SMILES IDX 50 57 51 58 65 60 86 61 53 62 37 63 38 64 46 65 39 66 41 67
REMARK SMILES IDX 47 68 40 69 42 70 43 71 44 72 45 73 69 74 70 75 78 76 71 77
REMARK SMILES IDX 73 78 79 79 72 80 74 81 75 82 76 83 77 84 54 85 55 86 63 87
REMARK SMILES IDX 56 88 58 89 64 90 57 91 59 92 60 93 61 94 62 95
REMARK H PARENT 18 7 5 13 25 29 84 48 52 59
REMARK Flexibility Score: inf
ROOT
ATOM      1  C   UNL A   1      31.785  28.816  24.285  1.00  0.00     0.002 C 
ENDROOT
BRANCH   1   2
ATOM      2  C   UNL A   1      30.421  28.103  24.241  1.00  0.00     0.021 C 
BRANCH   2   3
ATOM      3  C   UNL A   1      30.423  26.561  24.307  1.00  0.00     0.116 C 
BRANCH   3   4
ATOM      4  N   UNL A   1      31.464  25.952  25.132  1.00  0.00    -0.354 N 
ATOM      5  C   UNL A   1      32.142  24.770  25.193  1.00  0.00     0.245 C 
ATOM      6  O   UNL A   1      33.023  24.760  26.070  1.00  0.00    -0.272 OA
ATOM      7  H   UNL A   1      31.757  26.566  25.843  1.00  0.00     0.163 HD
BRANCH   5   8
ATOM      8  C   UNL A   1      31.926  23.502  24.284  1.00  0.00     0.113 C 
ATOM      9  C   UNL A   1      30.645  23.533  23.438  1.00  0.00     0.045 C 
BRANCH   8  10
ATOM     10  C   UNL A   1      33.144  23.464  23.280  1.00  0.00     0.035 C 
ATOM     11  C   UNL A   1      33.293  24.680  22.364  1.00  0.00     0.007 C 
ENDBRANCH   8  10
BRANCH   8  12
ATOM     12  N   UNL A   1      31.948  22.162  24.981  1.00  0.00    -0.371 N 
ATOM     13  H   UNL A   1      31.192  22.006  25.594  1.00  0.00     0.161 HD
BRANCH  12  14
ATOM     14  C   UNL A   1      32.853  21.117  24.903  1.00  0.00     0.045 A 
ATOM     15  C   UNL A   1      32.504  19.927  24.253  1.00  0.00     0.111 A 
ATOM     16  C   UNL A   1      34.089  21.082  25.550  1.00  0.00    -0.027 A 
ATOM     17  C   UNL A   1      33.419  18.853  24.170  1.00  0.00     0.271 A 
ATOM     18  C   UNL A   1      35.093  20.144  25.248  1.00  0.00     0.012 A 
ATOM     19  C   UNL A   1      34.212  21.663  26.919  1.00  0.00     0.046 C 
ATOM     20  C   UNL A   1      34.747  18.999  24.566  1.00  0.00     0.086 A 
BRANCH  17  21
ATOM     21  N   UNL A   1      32.947  17.522  23.782  1.00  0.00     0.062 N 
ATOM     22  O   UNL A   1      32.705  16.709  24.686  1.00  0.00    -0.258 OA
ATOM     23  O   UNL A   1      32.828  17.281  22.571  1.00  0.00    -0.258 OA
ENDBRANCH  17  21
ENDBRANCH  12  14
ENDBRANCH   8  12
ENDBRANCH   5   8
ENDBRANCH   3   4
ENDBRANCH   2   3
ENDBRANCH   1   2
BRANCH   1  24
ATOM     24  C   UNL A   1      31.974  29.859  25.386  1.00  0.00     0.002 C 
BRANCH  24  25
ATOM     25  C   UNL A   1      33.306  29.820  26.134  1.00  0.00     0.021 C 
BRANCH  25  26
ATOM     26  C   UNL A   1      33.216  30.128  27.626  1.00  0.00     0.116 C 
BRANCH  26  27
ATOM     27  N   UNL A   1      34.028  31.265  28.003  1.00  0.00    -0.352 N 
ATOM     28  C   UNL A   1      35.165  31.299  28.792  1.00  0.00     0.251 C 
ATOM     29  H   UNL A   1      33.731  32.135  27.648  1.00  0.00     0.163 HD
ATOM     30  O   UNL A   1      35.421  32.303  29.424  1.00  0.00    -0.269 OA
BRANCH  28  31
ATOM     31  C   UNL A   1      36.134  30.178  28.690  1.00  0.00     0.039 A 
ATOM     32  C   UNL A   1      36.532  29.591  29.900  1.00  0.00     0.014 A 
ATOM     33  C   UNL A   1      36.817  29.890  27.512  1.00  0.00     0.014 A 
ATOM     34  C   UNL A   1      37.745  28.914  29.975  1.00  0.00     0.010 A 
ATOM     35  C   UNL A   1      38.046  29.268  27.591  1.00  0.00     0.010 A 
ATOM     36  C   UNL A   1      38.536  28.851  28.833  1.00  0.00    -0.014 A 
BRANCH  36  37
ATOM     37  C   UNL A   1      39.913  28.395  28.821  1.00  0.00     0.031 A 
ATOM     38  C   UNL A   1      40.215  26.964  28.676  1.00  0.00     0.074 A 
ATOM     39  C   UNL A   1      40.894  29.322  28.770  1.00  0.00     0.049 A 
ATOM     40  N   UNL A   1      41.351  26.429  28.963  1.00  0.00    -0.248 NA
ATOM     41  C   UNL A   1      39.218  26.013  28.207  1.00  0.00     0.031 C 
ATOM     42  C   UNL A   1      42.277  29.128  28.359  1.00  0.00     0.029 A 
ATOM     43  N   UNL A   1      40.868  30.616  29.302  1.00  0.00    -0.354 N 
ATOM     44  C   UNL A   1      41.339  25.151  28.447  1.00  0.00     0.074 A 
ATOM     45  C   UNL A   1      39.964  24.912  28.073  1.00  0.00     0.031 C 
ATOM     46  C   UNL A   1      43.022  30.112  28.887  1.00  0.00     0.029 A 
ATOM     47  C   UNL A   1      42.162  30.853  29.795  1.00  0.00     0.049 A 
ATOM     48  H   UNL A   1      40.101  31.233  29.326  1.00  0.00     0.167 HD
ATOM     49  C   UNL A   1      42.526  24.513  28.239  1.00  0.00     0.034 A 
ATOM     50  C   UNL A   1      42.433  31.113  31.107  1.00  0.00     0.034 A 
ATOM     51  C   UNL A   1      43.651  25.321  28.736  1.00  0.00     0.049 A 
ATOM     52  C   UNL A   1      43.408  30.126  31.721  1.00  0.00     0.074 A 
ATOM     53  C   UNL A   1      44.544  26.179  28.114  1.00  0.00     0.029 A 
ATOM     54  N   UNL A   1      43.788  25.539  30.102  1.00  0.00    -0.354 N 
ATOM     55  N   UNL A   1      43.811  29.030  31.142  1.00  0.00    -0.248 NA
ATOM     56  C   UNL A   1      43.989  30.288  33.051  1.00  0.00     0.031 C 
ATOM     57  C   UNL A   1      45.172  26.966  29.115  1.00  0.00     0.029 A 
ATOM     58  C   UNL A   1      44.680  26.573  30.349  1.00  0.00     0.049 A 
ATOM     59  H   UNL A   1      43.318  25.029  30.801  1.00  0.00     0.167 HD
ATOM     60  C   UNL A   1      44.571  28.287  32.011  1.00  0.00     0.074 A 
ATOM     61  C   UNL A   1      44.719  29.163  33.162  1.00  0.00     0.031 C 
ATOM     62  C   UNL A   1      44.954  27.001  31.719  1.00  0.00     0.034 A 
BRANCH  49  63
ATOM     63  C   UNL A   1      42.708  23.345  27.279  1.00  0.00     0.023 A 
ATOM     64  C   UNL A   1      41.922  22.191  27.503  1.00  0.00     0.012 A 
ATOM     65  C   UNL A   1      43.645  23.251  26.226  1.00  0.00     0.148 A 
ATOM     66  C   UNL A   1      42.136  20.987  26.821  1.00  0.00     0.002 A 
ATOM     67  C   UNL A   1      43.917  22.030  25.599  1.00  0.00     0.091 A 
ATOM     68  F   UNL A   1      44.218  24.360  25.746  1.00  0.00    -0.205 F 
ATOM     69  C   UNL A   1      43.166  20.892  25.900  1.00  0.00     0.022 A 
BRANCH  67  70
ATOM     70  S   UNL A   1      45.301  21.818  24.465  1.00  0.00     0.127 S 
ATOM     71  O   UNL A   1      45.075  22.890  23.493  1.00  0.00    -0.237 OA
ATOM     72  O   UNL A   1      46.458  22.022  25.334  1.00  0.00    -0.237 OA
ATOM     73  O   UNL A   1      45.158  20.478  23.906  1.00  0.00    -0.744 OA
ENDBRANCH  67  70
ENDBRANCH  49  63
BRANCH  50  74
ATOM     74  C   UNL A   1      41.318  31.797  31.828  1.00  0.00     0.023 A 
ATOM     75  C   UNL A   1      40.938  33.073  31.349  1.00  0.00     0.012 A 
ATOM     76  C   UNL A   1      40.424  31.085  32.646  1.00  0.00     0.148 A 
ATOM     77  C   UNL A   1      39.649  33.566  31.561  1.00  0.00     0.002 A 
ATOM     78  C   UNL A   1      39.138  31.585  32.854  1.00  0.00     0.091 A 
ATOM     79  F   UNL A   1      40.807  29.900  33.138  1.00  0.00    -0.205 F 
ATOM     80  C   UNL A   1      38.739  32.805  32.282  1.00  0.00     0.022 A 
BRANCH  78  81
ATOM     81  S   UNL A   1      37.892  30.637  33.738  1.00  0.00     0.127 S 
ATOM     82  O   UNL A   1      36.659  31.234  33.234  1.00  0.00    -0.237 OA
ATOM     83  O   UNL A   1      38.148  29.274  33.274  1.00  0.00    -0.237 OA
ATOM     84  O   UNL A   1      38.191  30.853  35.146  1.00  0.00    -0.744 OA
ENDBRANCH  78  81
ENDBRANCH  50  74
BRANCH  62  85
ATOM     85  C   UNL A   1      45.605  26.009  32.678  1.00  0.00     0.023 A 
ATOM     86  C   UNL A   1      47.000  25.901  32.835  1.00  0.00     0.012 A 
ATOM     87  C   UNL A   1      44.816  25.225  33.568  1.00  0.00     0.148 A 
ATOM     88  C   UNL A   1      47.585  25.040  33.774  1.00  0.00     0.002 A 
ATOM     89  C   UNL A   1      45.400  24.460  34.576  1.00  0.00     0.091 A 
ATOM     90  F   UNL A   1      43.483  25.190  33.432  1.00  0.00    -0.205 F 
ATOM     91  C   UNL A   1      46.787  24.339  34.663  1.00  0.00     0.022 A 
BRANCH  89  92
ATOM     92  S   UNL A   1      44.404  23.735  35.888  1.00  0.00     0.127 S 
ATOM     93  O   UNL A   1      45.350  22.821  36.521  1.00  0.00    -0.237 OA
ATOM     94  O   UNL A   1      44.052  24.903  36.700  1.00  0.00    -0.237 OA
ATOM     95  O   UNL A   1      43.270  23.125  35.206  1.00  0.00    -0.744 OA
ENDBRANCH  89  92
ENDBRANCH  62  85
ENDBRANCH  36  37
ENDBRANCH  28  31
ENDBRANCH  26  27
ENDBRANCH  25  26
ENDBRANCH  24  25
ENDBRANCH   1  24
TORSDOF 20
ENDMDL
MODEL 2
REMARK VINA RESULT:     -10.7      2.635      3.637
REMARK SMILES CC[C@@](C)(Nc1cc([N+](=O)[O-])ccc1C)C(=O)NCCCCCCNC(=O)c1ccc(-c2c3nc(c(-c4cccc(S(=O)(=O)[O-])c4F)c4ccc([nH]4)c(-c4cccc(S(=O)(=O)[O-])c4F)c4nc(c(-c5cccc(S(=O)(=O)[O-])c5F)c5ccc2[nH]5)C=C4)C=C3)cc1
REMARK SMILES IDX 21 1 20 2 19 3 18 4 16 5 17 6 3 8 4 9 2 10 1 11 5 12 6 14
REMARK SMILES IDX 7 15 14 16 8 17 13 18 15 19 12 20 9 21 10 22 11 23 22 24
REMARK SMILES IDX 23 25 24 26 25 27 26 28 27 30 28 31 29 32 90 33 30 34 89 35
REMARK SMILES IDX 31 36 32 37 33 38 83 39 34 40 88 41 82 42 84 43 35 44 87 45
REMARK SMILES IDX 81 46 80 47 36 49 68 50 48 51 67 52 49 53 52 54 66 55 85 56
REMARK SMILES IDX 50 57 51 58 65 60 86 61 53 62 37 63 38 64 46 65 39 66 41 67
REMARK SMILES IDX 47 68 40 69 42 70 43 71 44 72 45 73 69 74 70 75 78 76 71 77
REMARK SMILES IDX 73 78 79 79 72 80 74 81 75 82 76 83 77 84 54 85 55 86 63 87
REMARK SMILES IDX 56 88 58 89 64 90 57 91 59 92 60 93 61 94 62 95
REMARK H PARENT 18 7 5 13 25 29 84 48 52 59
REMARK Flexibility Score: inf
ROOT
ATOM      1  C   UNL A   1      33.620  29.277  25.978  1.00  0.00     0.002 C 
ENDROOT
BRANCH   1   2
ATOM      2  C   UNL A   1      32.556  29.352  24.868  1.00  0.00     0.021 C 
BRANCH   2   3
ATOM      3  C   UNL A   1      31.884  28.032  24.437  1.00  0.00     0.116 C 
BRANCH   3   4
ATOM      4  N   UNL A   1      31.496  27.123  25.514  1.00  0.00    -0.354 N 
ATOM      5  C   UNL A   1      31.361  25.779  25.702  1.00  0.00     0.245 C 
ATOM      6  O   UNL A   1      31.061  25.481  26.872  1.00  0.00    -0.272 OA
ATOM      7  H   UNL A   1      31.267  27.621  26.332  1.00  0.00     0.163 HD
BRANCH   5   8
ATOM      8  C   UNL A   1      31.563  24.643  24.630  1.00  0.00     0.113 C 
ATOM      9  C   UNL A   1      30.725  24.812  23.356  1.00  0.00     0.045 C 
BRANCH   8  10
ATOM     10  C   UNL A   1      33.081  24.707  24.199  1.00  0.00     0.035 C 
ATOM     11  C   UNL A   1      33.344  24.999  22.720  1.00  0.00     0.007 C 
ENDBRANCH   8  10
BRANCH   8  12
ATOM     12  N   UNL A   1      31.346  23.225  25.102  1.00  0.00    -0.371 N 
ATOM     13  H   UNL A   1      30.436  23.035  25.426  1.00  0.00     0.161 HD
BRANCH  12  14
ATOM     14  C   UNL A   1      32.214  22.147  25.156  1.00  0.00     0.045 A 
ATOM     15  C   UNL A   1      31.924  20.971  24.456  1.00  0.00     0.111 A 
ATOM     16  C   UNL A   1      33.337  22.067  25.981  1.00  0.00    -0.027 A 
ATOM     17  C   UNL A   1      32.801  19.864  24.506  1.00  0.00     0.271 A 
ATOM     18  C   UNL A   1      34.340  21.094  25.829  1.00  0.00     0.012 A 
ATOM     19  C   UNL A   1      33.274  22.645  27.357  1.00  0.00     0.046 C 
ATOM     20  C   UNL A   1      34.060  19.961  25.097  1.00  0.00     0.086 A 
BRANCH  17  21
ATOM     21  N   UNL A   1      32.345  18.551  24.044  1.00  0.00     0.062 N 
ATOM     22  O   UNL A   1      32.079  17.698  24.904  1.00  0.00    -0.258 OA
ATOM     23  O   UNL A   1      32.263  18.364  22.821  1.00  0.00    -0.258 OA
ENDBRANCH  17  21
ENDBRANCH  12  14
ENDBRANCH   8  12
ENDBRANCH   5   8
ENDBRANCH   3   4
ENDBRANCH   2   3
ENDBRANCH   1   2
BRANCH   1  24
ATOM     24  C   UNL A   1      33.173  29.687  27.381  1.00  0.00     0.002 C 
BRANCH  24  25
ATOM     25  C   UNL A   1      34.158  30.535  28.185  1.00  0.00     0.021 C 
BRANCH  25  26
ATOM     26  C   UNL A   1      34.690  31.767  27.458  1.00  0.00     0.116 C 
BRANCH  26  27
ATOM     27  N   UNL A   1      34.169  32.999  28.012  1.00  0.00    -0.352 N 
ATOM     28  C   UNL A   1      34.337  33.520  29.284  1.00  0.00     0.251 C 
ATOM     29  H   UNL A   1      33.620  33.541  27.399  1.00  0.00     0.163 HD
ATOM     30  O   UNL A   1      33.475  34.234  29.753  1.00  0.00    -0.269 OA
BRANCH  28  31
ATOM     31  C   UNL A   1      35.651  33.346  29.955  1.00  0.00     0.039 A 
ATOM     32  C   UNL A   1      36.767  33.853  29.272  1.00  0.00     0.014 A 
ATOM     33  C   UNL A   1      35.822  32.507  31.052  1.00  0.00     0.014 A 
ATOM     34  C   UNL A   1      38.032  33.336  29.532  1.00  0.00     0.010 A 
ATOM     35  C   UNL A   1      37.063  31.951  31.277  1.00  0.00     0.010 A 
ATOM     36  C   UNL A   1      38.145  32.313  30.467  1.00  0.00    -0.014 A 
BRANCH  36  37
ATOM     37  C   UNL A   1      39.344  31.522  30.665  1.00  0.00     0.031 A 
ATOM     38  C   UNL A   1      39.491  30.224  29.991  1.00  0.00     0.074 A 
ATOM     39  C   UNL A   1      40.378  32.080  31.332  1.00  0.00     0.049 A 
ATOM     40  N   UNL A   1      40.343  29.321  30.334  1.00  0.00    -0.248 NA
ATOM     41  C   UNL A   1      38.645  29.840  28.871  1.00  0.00     0.031 C 
ATOM     42  C   UNL A   1      41.774  31.666  31.314  1.00  0.00     0.029 A 
ATOM     43  N   UNL A   1      40.312  33.035  32.352  1.00  0.00    -0.354 N 
ATOM     44  C   UNL A   1      40.370  28.384  29.322  1.00  0.00     0.074 A 
ATOM     45  C   UNL A   1      39.234  28.704  28.488  1.00  0.00     0.031 C 
ATOM     46  C   UNL A   1      42.371  32.128  32.423  1.00  0.00     0.029 A 
ATOM     47  C   UNL A   1      41.327  32.692  33.263  1.00  0.00     0.049 A 
ATOM     48  H   UNL A   1      39.685  33.790  32.420  1.00  0.00     0.167 HD
ATOM     49  C   UNL A   1      41.449  27.558  29.216  1.00  0.00     0.034 A 
ATOM     50  C   UNL A   1      41.092  32.360  34.564  1.00  0.00     0.034 A 
ATOM     51  C   UNL A   1      42.382  27.768  30.335  1.00  0.00     0.049 A 
ATOM     52  C   UNL A   1      41.610  30.983  34.931  1.00  0.00     0.074 A 
ATOM     53  C   UNL A   1      43.552  28.501  30.464  1.00  0.00     0.029 A 
ATOM     54  N   UNL A   1      41.999  27.416  31.624  1.00  0.00    -0.354 N 
ATOM     55  N   UNL A   1      42.063  30.112  34.072  1.00  0.00    -0.248 NA
ATOM     56  C   UNL A   1      41.637  30.468  36.297  1.00  0.00     0.031 C 
ATOM     57  C   UNL A   1      43.831  28.648  31.848  1.00  0.00     0.029 A 
ATOM     58  C   UNL A   1      42.848  27.985  32.563  1.00  0.00     0.049 A 
ATOM     59  H   UNL A   1      41.230  26.842  31.842  1.00  0.00     0.167 HD
ATOM     60  C   UNL A   1      42.317  28.917  34.699  1.00  0.00     0.074 A 
ATOM     61  C   UNL A   1      42.112  29.224  36.106  1.00  0.00     0.031 C 
ATOM     62  C   UNL A   1      42.613  27.779  33.991  1.00  0.00     0.034 A 
BRANCH  49  63
ATOM     63  C   UNL A   1      41.841  26.828  27.939  1.00  0.00     0.023 A 
ATOM     64  C   UNL A   1      41.908  27.590  26.750  1.00  0.00     0.012 A 
ATOM     65  C   UNL A   1      42.070  25.441  27.790  1.00  0.00     0.148 A 
ATOM     66  C   UNL A   1      42.058  27.007  25.485  1.00  0.00     0.002 A 
ATOM     67  C   UNL A   1      42.141  24.847  26.526  1.00  0.00     0.091 A 
ATOM     68  F   UNL A   1      42.321  24.691  28.867  1.00  0.00    -0.205 F 
ATOM     69  C   UNL A   1      42.129  25.628  25.369  1.00  0.00     0.022 A 
BRANCH  67  70
ATOM     70  S   UNL A   1      42.138  23.058  26.302  1.00  0.00     0.127 S 
ATOM     71  O   UNL A   1      40.709  22.740  26.354  1.00  0.00    -0.237 OA
ATOM     72  O   UNL A   1      42.746  22.903  24.983  1.00  0.00    -0.237 OA
ATOM     73  O   UNL A   1      42.903  22.515  27.419  1.00  0.00    -0.744 OA
ENDBRANCH  67  70
ENDBRANCH  49  63
BRANCH  50  74
ATOM     74  C   UNL A   1      39.882  33.017  35.144  1.00  0.00     0.023 A 
ATOM     75  C   UNL A   1      38.690  32.941  34.383  1.00  0.00     0.012 A 
ATOM     76  C   UNL A   1      39.795  33.324  36.512  1.00  0.00     0.148 A 
ATOM     77  C   UNL A   1      37.439  33.029  34.997  1.00  0.00     0.002 A 
ATOM     78  C   UNL A   1      38.540  33.411  37.118  1.00  0.00     0.091 A 
ATOM     79  F   UNL A   1      40.927  33.443  37.218  1.00  0.00    -0.205 F 
ATOM     80  C   UNL A   1      37.366  33.227  36.370  1.00  0.00     0.022 A 
BRANCH  78  81
ATOM     81  S   UNL A   1      38.366  33.620  38.895  1.00  0.00     0.127 S 
ATOM     82  O   UNL A   1      39.337  32.654  39.399  1.00  0.00    -0.237 OA
ATOM     83  O   UNL A   1      38.740  35.022  39.084  1.00  0.00    -0.237 OA
ATOM     84  O   UNL A   1      36.965  33.336  39.167  1.00  0.00    -0.744 OA
ENDBRANCH  78  81
ENDBRANCH  50  74
BRANCH  62  85
ATOM     85  C   UNL A   1      42.700  26.361  34.548  1.00  0.00     0.023 A 
ATOM     86  C   UNL A   1      41.666  25.771  35.300  1.00  0.00     0.012 A 
ATOM     87  C   UNL A   1      43.794  25.510  34.218  1.00  0.00     0.148 A 
ATOM     88  C   UNL A   1      41.725  24.442  35.742  1.00  0.00     0.002 A 
ATOM     89  C   UNL A   1      43.793  24.160  34.561  1.00  0.00     0.091 A 
ATOM     90  F   UNL A   1      44.866  26.008  33.587  1.00  0.00    -0.205 F 
ATOM     91  C   UNL A   1      42.775  23.627  35.351  1.00  0.00     0.022 A 
BRANCH  89  92
ATOM     92  S   UNL A   1      45.008  23.026  33.869  1.00  0.00     0.127 S 
ATOM     93  O   UNL A   1      44.602  21.750  34.452  1.00  0.00    -0.237 OA
ATOM     94  O   UNL A   1      44.764  23.140  32.429  1.00  0.00    -0.237 OA
ATOM     95  O   UNL A   1      46.298  23.551  34.295  1.00  0.00    -0.744 OA
ENDBRANCH  89  92
ENDBRANCH  62  85
ENDBRANCH  36  37
ENDBRANCH  28  31
ENDBRANCH  26  27
ENDBRANCH  25  26
ENDBRANCH  24  25
ENDBRANCH   1  24
TORSDOF 20
ENDMDL
MODEL 3
REMARK VINA RESULT:     -10.5      5.037      9.483
REMARK SMILES CC[C@@](C)(Nc1cc([N+](=O)[O-])ccc1C)C(=O)NCCCCCCNC(=O)c1ccc(-c2c3nc(c(-c4cccc(S(=O)(=O)[O-])c4F)c4ccc([nH]4)c(-c4cccc(S(=O)(=O)[O-])c4F)c4nc(c(-c5cccc(S(=O)(=O)[O-])c5F)c5ccc2[nH]5)C=C4)C=C3)cc1
REMARK SMILES IDX 21 1 20 2 19 3 18 4 16 5 17 6 3 8 4 9 2 10 1 11 5 12 6 14
REMARK SMILES IDX 7 15 14 16 8 17 13 18 15 19 12 20 9 21 10 22 11 23 22 24
REMARK SMILES IDX 23 25 24 26 25 27 26 28 27 30 28 31 29 32 90 33 30 34 89 35
REMARK SMILES IDX 31 36 32 37 33 38 83 39 34 40 88 41 82 42 84 43 35 44 87 45
REMARK SMILES IDX 81 46 80 47 36 49 68 50 48 51 67 52 49 53 52 54 66 55 85 56
REMARK SMILES IDX 50 57 51 58 65 60 86 61 53 62 37 63 38 64 46 65 39 66 41 67
REMARK SMILES IDX 47 68 40 69 42 70 43 71 44 72 45 73 69 74 70 75 78 76 71 77
REMARK SMILES IDX 73 78 79 79 72 80 74 81 75 82 76 83 77 84 54 85 55 86 63 87
REMARK SMILES IDX 56 88 58 89 64 90 57 91 59 92 60 93 61 94 62 95
REMARK H PARENT 18 7 5 13 25 29 84 48 52 59
REMARK Flexibility Score: inf
ROOT
ATOM      1  C   UNL A   1      38.998  28.833  27.694  1.00  0.00     0.002 C 
ENDROOT
BRANCH   1   2
ATOM      2  C   UNL A   1      37.942  29.911  27.998  1.00  0.00     0.021 C 
BRANCH   2   3
ATOM      3  C   UNL A   1      36.680  29.472  28.770  1.00  0.00     0.116 C 
BRANCH   3   4
ATOM      4  N   UNL A   1      36.841  29.269  30.208  1.00  0.00    -0.354 N 
ATOM      5  C   UNL A   1      36.665  29.986  31.355  1.00  0.00     0.245 C 
ATOM      6  O   UNL A   1      36.878  29.318  32.382  1.00  0.00    -0.272 OA
ATOM      7  H   UNL A   1      37.168  28.361  30.403  1.00  0.00     0.163 HD
BRANCH   5   8
ATOM      8  C   UNL A   1      36.223  31.493  31.476  1.00  0.00     0.113 C 
ATOM      9  C   UNL A   1      36.103  32.009  32.917  1.00  0.00     0.045 C 
BRANCH   8  10
ATOM     10  C   UNL A   1      37.350  32.344  30.770  1.00  0.00     0.035 C 
ATOM     11  C   UNL A   1      38.760  32.191  31.343  1.00  0.00     0.007 C 
ENDBRANCH   8  10
BRANCH   8  12
ATOM     12  N   UNL A   1      34.941  31.876  30.775  1.00  0.00    -0.371 N 
ATOM     13  H   UNL A   1      34.220  31.209  30.843  1.00  0.00     0.161 HD
BRANCH  12  14
ATOM     14  C   UNL A   1      34.611  33.010  30.051  1.00  0.00     0.045 A 
ATOM     15  C   UNL A   1      34.092  34.136  30.699  1.00  0.00     0.111 A 
ATOM     16  C   UNL A   1      34.623  33.099  28.658  1.00  0.00    -0.027 A 
ATOM     17  C   UNL A   1      33.748  35.297  29.971  1.00  0.00     0.271 A 
ATOM     18  C   UNL A   1      34.545  34.318  27.961  1.00  0.00     0.012 A 
ATOM     19  C   UNL A   1      34.188  31.923  27.848  1.00  0.00     0.046 C 
ATOM     20  C   UNL A   1      34.078  35.432  28.623  1.00  0.00     0.086 A 
BRANCH  17  21
ATOM     21  N   UNL A   1      32.922  36.332  30.595  1.00  0.00     0.062 N 
ATOM     22  O   UNL A   1      32.954  37.470  30.104  1.00  0.00    -0.258 OA
ATOM     23  O   UNL A   1      32.248  36.015  31.587  1.00  0.00    -0.258 OA
ENDBRANCH  17  21
ENDBRANCH  12  14
ENDBRANCH   8  12
ENDBRANCH   5   8
ENDBRANCH   3   4
ENDBRANCH   2   3
ENDBRANCH   1   2
BRANCH   1  24
ATOM     24  C   UNL A   1      40.054  29.187  26.647  1.00  0.00     0.002 C 
BRANCH  24  25
ATOM     25  C   UNL A   1      41.335  28.357  26.670  1.00  0.00     0.021 C 
BRANCH  25  26
ATOM     26  C   UNL A   1      41.311  27.110  25.790  1.00  0.00     0.116 C 
BRANCH  26  27
ATOM     27  N   UNL A   1      40.375  26.116  26.270  1.00  0.00    -0.352 N 
ATOM     28  C   UNL A   1      40.630  24.942  26.959  1.00  0.00     0.251 C 
ATOM     29  H   UNL A   1      39.426  26.300  26.081  1.00  0.00     0.163 HD
ATOM     30  O   UNL A   1      39.868  24.005  26.841  1.00  0.00    -0.269 OA
BRANCH  28  31
ATOM     31  C   UNL A   1      41.721  24.934  27.969  1.00  0.00     0.039 A 
ATOM     32  C   UNL A   1      41.860  26.098  28.738  1.00  0.00     0.014 A 
ATOM     33  C   UNL A   1      42.714  23.959  27.983  1.00  0.00     0.014 A 
ATOM     34  C   UNL A   1      43.084  26.396  29.328  1.00  0.00     0.010 A 
ATOM     35  C   UNL A   1      43.945  24.274  28.518  1.00  0.00     0.010 A 
ATOM     36  C   UNL A   1      44.144  25.521  29.121  1.00  0.00    -0.014 A 
BRANCH  36  37
ATOM     37  C   UNL A   1      45.522  25.816  29.465  1.00  0.00     0.031 A 
ATOM     38  C   UNL A   1      46.614  25.366  28.590  1.00  0.00     0.074 A 
ATOM     39  C   UNL A   1      45.760  26.653  30.499  1.00  0.00     0.049 A 
ATOM     40  N   UNL A   1      47.849  25.296  28.948  1.00  0.00    -0.248 NA
ATOM     41  C   UNL A   1      46.372  24.929  27.223  1.00  0.00     0.031 C 
ATOM     42  C   UNL A   1      46.981  27.394  30.778  1.00  0.00     0.029 A 
ATOM     43  N   UNL A   1      44.977  26.828  31.645  1.00  0.00    -0.354 N 
ATOM     44  C   UNL A   1      48.592  25.101  27.802  1.00  0.00     0.074 A 
ATOM     45  C   UNL A   1      47.623  24.788  26.778  1.00  0.00     0.031 C 
ATOM     46  C   UNL A   1      47.002  27.706  32.083  1.00  0.00     0.029 A 
ATOM     47  C   UNL A   1      45.884  27.015  32.703  1.00  0.00     0.049 A 
ATOM     48  H   UNL A   1      43.994  26.821  31.700  1.00  0.00     0.167 HD
ATOM     49  C   UNL A   1      49.923  25.398  27.822  1.00  0.00     0.034 A 
ATOM     50  C   UNL A   1      45.965  26.184  33.781  1.00  0.00     0.034 A 
ATOM     51  C   UNL A   1      50.354  25.791  29.173  1.00  0.00     0.049 A 
ATOM     52  C   UNL A   1      47.345  25.579  33.965  1.00  0.00     0.074 A 
ATOM     53  C   UNL A   1      50.553  27.021  29.780  1.00  0.00     0.029 A 
ATOM     54  N   UNL A   1      50.355  24.848  30.194  1.00  0.00    -0.354 N 
ATOM     55  N   UNL A   1      48.312  25.673  33.095  1.00  0.00    -0.248 NA
ATOM     56  C   UNL A   1      47.735  24.800  35.136  1.00  0.00     0.031 C 
ATOM     57  C   UNL A   1      50.604  26.818  31.185  1.00  0.00     0.029 A 
ATOM     58  C   UNL A   1      50.460  25.464  31.434  1.00  0.00     0.049 A 
ATOM     59  H   UNL A   1      50.289  23.875  30.059  1.00  0.00     0.167 HD
ATOM     60  C   UNL A   1      49.377  24.900  33.488  1.00  0.00     0.074 A 
ATOM     61  C   UNL A   1      48.992  24.445  34.815  1.00  0.00     0.031 C 
ATOM     62  C   UNL A   1      50.445  24.666  32.658  1.00  0.00     0.034 A 
BRANCH  49  63
ATOM     63  C   UNL A   1      50.750  25.683  26.576  1.00  0.00     0.023 A 
ATOM     64  C   UNL A   1      51.872  24.857  26.338  1.00  0.00     0.012 A 
ATOM     65  C   UNL A   1      50.568  26.745  25.661  1.00  0.00     0.148 A 
ATOM     66  C   UNL A   1      52.821  25.137  25.347  1.00  0.00     0.002 A 
ATOM     67  C   UNL A   1      51.553  27.075  24.723  1.00  0.00     0.091 A 
ATOM     68  F   UNL A   1      49.399  27.392  25.618  1.00  0.00    -0.205 F 
ATOM     69  C   UNL A   1      52.686  26.274  24.568  1.00  0.00     0.022 A 
BRANCH  67  70
ATOM     70  S   UNL A   1      51.483  28.589  23.748  1.00  0.00     0.127 S 
ATOM     71  O   UNL A   1      52.765  28.561  23.038  1.00  0.00    -0.237 OA
ATOM     72  O   UNL A   1      50.315  28.365  22.898  1.00  0.00    -0.237 OA
ATOM     73  O   UNL A   1      51.366  29.679  24.709  1.00  0.00    -0.744 OA
ENDBRANCH  67  70
ENDBRANCH  49  63
BRANCH  50  74
ATOM     74  C   UNL A   1      44.673  25.523  34.132  1.00  0.00     0.023 A 
ATOM     75  C   UNL A   1      44.586  24.129  33.896  1.00  0.00     0.012 A 
ATOM     76  C   UNL A   1      43.754  26.121  35.010  1.00  0.00     0.148 A 
ATOM     77  C   UNL A   1      43.700  23.331  34.623  1.00  0.00     0.002 A 
ATOM     78  C   UNL A   1      42.871  25.317  35.732  1.00  0.00     0.091 A 
ATOM     79  F   UNL A   1      43.808  27.447  35.192  1.00  0.00    -0.205 F 
ATOM     80  C   UNL A   1      42.869  23.921  35.567  1.00  0.00     0.022 A 
BRANCH  78  81
ATOM     81  S   UNL A   1      41.799  26.002  37.002  1.00  0.00     0.127 S 
ATOM     82  O   UNL A   1      42.769  26.421  38.009  1.00  0.00    -0.237 OA
ATOM     83  O   UNL A   1      41.135  27.097  36.296  1.00  0.00    -0.237 OA
ATOM     84  O   UNL A   1      40.913  24.907  37.370  1.00  0.00    -0.744 OA
ENDBRANCH  78  81
ENDBRANCH  50  74
BRANCH  62  85
ATOM     85  C   UNL A   1      51.572  23.664  32.891  1.00  0.00     0.023 A 
ATOM     86  C   UNL A   1      52.933  24.024  32.861  1.00  0.00     0.012 A 
ATOM     87  C   UNL A   1      51.292  22.324  33.285  1.00  0.00     0.148 A 
ATOM     88  C   UNL A   1      53.957  23.112  33.151  1.00  0.00     0.002 A 
ATOM     89  C   UNL A   1      52.306  21.456  33.685  1.00  0.00     0.091 A 
ATOM     90  F   UNL A   1      50.033  21.863  33.253  1.00  0.00    -0.205 F 
ATOM     91  C   UNL A   1      53.644  21.836  33.589  1.00  0.00     0.022 A 
BRANCH  89  92
ATOM     92  S   UNL A   1      51.926  19.889  34.483  1.00  0.00     0.127 S 
ATOM     93  O   UNL A   1      52.013  20.237  35.898  1.00  0.00    -0.237 OA
ATOM     94  O   UNL A   1      50.568  19.612  34.008  1.00  0.00    -0.237 OA
ATOM     95  O   UNL A   1      52.928  18.958  33.982  1.00  0.00    -0.744 OA
ENDBRANCH  89  92
ENDBRANCH  62  85
ENDBRANCH  36  37
ENDBRANCH  28  31
ENDBRANCH  26  27
ENDBRANCH  25  26
ENDBRANCH  24  25
ENDBRANCH   1  24
TORSDOF 20
ENDMDL
