MODEL 1
REMARK VINA RESULT:     -10.8      0.000      0.000
REMARK SMILES Cc1nc(C[N@@H+]2CCC[C@H]2C(=O)NCCCCCCNC(=O)c2ccc(-c3c4nc(c(-c5cccc(S(=O)(=O)[O-])c5F)c5ccc([nH]5)c(-c5cccc(S(=O)(=O)[O-])c5F)c5nc(c(-c6cccc(S(=O)(=O)[O-])c6F)c6ccc3[nH]6)C=C5)C=C4)cc2)cs1
REMARK SMILES IDX 17 1 16 2 15 3 14 4 13 5 11 6 12 7 10 9 6 10 7 11 8 13 9 14
REMARK SMILES IDX 5 15 4 16 1 17 2 18 3 19 87 20 86 21 18 22 19 23 20 24 21 25
REMARK SMILES IDX 22 27 23 28 24 29 85 30 25 31 84 32 26 33 27 34 28 35 78 36
REMARK SMILES IDX 29 37 83 38 77 39 79 40 30 41 82 42 76 43 75 44 31 46 63 47
REMARK SMILES IDX 43 48 62 49 44 50 47 51 61 52 80 53 45 54 46 55 60 57 81 58
REMARK SMILES IDX 48 59 32 60 33 61 41 62 34 63 36 64 42 65 35 66 37 67 38 68
REMARK SMILES IDX 39 69 40 70 64 71 65 72 73 73 66 74 68 75 74 76 67 77 69 78
REMARK SMILES IDX 70 79 71 80 72 81 49 82 50 83 58 84 51 85 53 86 59 87 52 88
REMARK SMILES IDX 54 89 55 90 56 91 57 92
REMARK H PARENT 13 8 6 12 20 26 79 45 47 56
REMARK Flexibility Score: inf
ROOT
ATOM      1  C   UNL A   1      37.279  20.585  25.010  1.00  0.00     0.002 C 
ENDROOT
BRANCH   1   2
ATOM      2  C   UNL A   1      37.681  22.022  24.663  1.00  0.00     0.002 C 
BRANCH   2   3
ATOM      3  C   UNL A   1      37.558  23.027  25.811  1.00  0.00     0.021 C 
BRANCH   3   4
ATOM      4  C   UNL A   1      36.167  23.631  25.979  1.00  0.00     0.116 C 
BRANCH   4   5
ATOM      5  N   UNL A   1      35.358  22.849  26.893  1.00  0.00    -0.351 N 
ATOM      6  C   UNL A   1      34.177  22.192  26.752  1.00  0.00     0.278 C 
ATOM      7  O   UNL A   1      33.737  21.672  27.789  1.00  0.00    -0.268 OA
ATOM      8  H   UNL A   1      35.740  22.781  27.797  1.00  0.00     0.163 HD
BRANCH   6   9
ATOM      9  C   UNL A   1      33.356  22.115  25.441  1.00  0.00     0.274 C 
ATOM     10  N   UNL A   1      32.219  21.188  25.505  1.00  0.00    -0.320 N 
ATOM     11  C   UNL A   1      31.014  21.944  25.801  1.00  0.00     0.263 C 
ATOM     12  H   UNL A   1      32.355  20.541  26.282  1.00  0.00     0.349 HD
ATOM     13  C   UNL A   1      31.229  23.303  25.172  1.00  0.00     0.068 C 
ATOM     14  C   UNL A   1      32.738  23.493  25.151  1.00  0.00     0.081 C 
BRANCH  10  15
ATOM     15  C   UNL A   1      32.147  20.215  24.411  1.00  0.00     0.321 C 
BRANCH  15  16
ATOM     16  C   UNL A   1      32.853  18.917  24.664  1.00  0.00     0.106 A 
ATOM     17  C   UNL A   1      32.451  15.434  25.689  1.00  0.00     0.079 C 
ATOM     18  C   UNL A   1      32.910  16.777  25.243  1.00  0.00     0.090 A 
ATOM     19  N   UNL A   1      32.132  17.834  25.154  1.00  0.00    -0.241 NA
ATOM     20  S   UNL A   1      34.552  17.026  24.806  1.00  0.00    -0.127 S 
ATOM     21  C   UNL A   1      34.184  18.646  24.401  1.00  0.00     0.096 A 
ENDBRANCH  15  16
ENDBRANCH  10  15
ENDBRANCH   6   9
ENDBRANCH   4   5
ENDBRANCH   3   4
ENDBRANCH   2   3
ENDBRANCH   1   2
BRANCH   1  22
ATOM     22  C   UNL A   1      38.436  19.587  25.106  1.00  0.00     0.021 C 
BRANCH  22  23
ATOM     23  C   UNL A   1      39.547  19.990  26.067  1.00  0.00     0.116 C 
BRANCH  23  24
ATOM     24  N   UNL A   1      40.711  19.127  25.952  1.00  0.00    -0.352 N 
ATOM     25  C   UNL A   1      42.041  19.465  25.941  1.00  0.00     0.251 C 
ATOM     26  H   UNL A   1      40.517  18.165  25.869  1.00  0.00     0.163 HD
ATOM     27  O   UNL A   1      42.883  18.625  25.644  1.00  0.00    -0.269 OA
BRANCH  25  28
ATOM     28  C   UNL A   1      42.452  20.846  26.277  1.00  0.00     0.039 A 
ATOM     29  C   UNL A   1      42.687  21.753  25.241  1.00  0.00     0.014 A 
ATOM     30  C   UNL A   1      42.623  21.240  27.608  1.00  0.00     0.014 A 
ATOM     31  C   UNL A   1      43.058  23.065  25.541  1.00  0.00     0.010 A 
ATOM     32  C   UNL A   1      42.914  22.569  27.905  1.00  0.00     0.010 A 
ATOM     33  C   UNL A   1      43.156  23.490  26.876  1.00  0.00    -0.014 A 
BRANCH  33  34
ATOM     34  C   UNL A   1      43.547  24.882  27.218  1.00  0.00     0.031 A 
ATOM     35  C   UNL A   1      44.994  25.297  27.131  1.00  0.00     0.074 A 
ATOM     36  C   UNL A   1      42.620  25.751  27.666  1.00  0.00     0.049 A 
ATOM     37  N   UNL A   1      45.547  26.437  27.450  1.00  0.00    -0.248 NA
ATOM     38  C   UNL A   1      45.951  24.285  26.644  1.00  0.00     0.031 C 
ATOM     39  C   UNL A   1      41.198  25.455  27.851  1.00  0.00     0.029 A 
ATOM     40  N   UNL A   1      42.740  27.059  28.067  1.00  0.00    -0.354 N 
ATOM     41  C   UNL A   1      46.911  26.275  27.230  1.00  0.00     0.074 A 
ATOM     42  C   UNL A   1      47.109  24.911  26.796  1.00  0.00     0.031 C 
ATOM     43  C   UNL A   1      40.577  26.550  28.324  1.00  0.00     0.029 A 
ATOM     44  C   UNL A   1      41.559  27.614  28.503  1.00  0.00     0.049 A 
ATOM     45  H   UNL A   1      43.591  27.554  28.044  1.00  0.00     0.167 HD
ATOM     46  C   UNL A   1      47.905  27.187  27.343  1.00  0.00     0.034 A 
ATOM     47  C   UNL A   1      41.301  28.841  28.999  1.00  0.00     0.034 A 
ATOM     48  C   UNL A   1      47.701  28.555  27.735  1.00  0.00     0.049 A 
ATOM     49  C   UNL A   1      42.425  29.840  29.095  1.00  0.00     0.074 A 
ATOM     50  C   UNL A   1      48.634  29.571  27.834  1.00  0.00     0.029 A 
ATOM     51  N   UNL A   1      46.476  29.099  28.088  1.00  0.00    -0.354 N 
ATOM     52  N   UNL A   1      43.685  29.700  28.763  1.00  0.00    -0.248 NA
ATOM     53  C   UNL A   1      42.081  31.180  29.594  1.00  0.00     0.031 C 
ATOM     54  C   UNL A   1      47.977  30.728  28.260  1.00  0.00     0.029 A 
ATOM     55  C   UNL A   1      46.628  30.440  28.396  1.00  0.00     0.049 A 
ATOM     56  H   UNL A   1      45.625  28.607  28.114  1.00  0.00     0.167 HD
ATOM     57  C   UNL A   1      44.270  30.947  28.960  1.00  0.00     0.074 A 
ATOM     58  C   UNL A   1      43.223  31.831  29.425  1.00  0.00     0.031 C 
ATOM     59  C   UNL A   1      45.560  31.324  28.784  1.00  0.00     0.034 A 
BRANCH  46  60
ATOM     60  C   UNL A   1      49.301  26.754  26.973  1.00  0.00     0.023 A 
ATOM     61  C   UNL A   1      50.008  25.891  27.836  1.00  0.00     0.012 A 
ATOM     62  C   UNL A   1      49.884  27.137  25.750  1.00  0.00     0.148 A 
ATOM     63  C   UNL A   1      51.286  25.443  27.505  1.00  0.00     0.002 A 
ATOM     64  C   UNL A   1      51.139  26.647  25.404  1.00  0.00     0.091 A 
ATOM     65  F   UNL A   1      49.204  27.970  24.951  1.00  0.00    -0.205 F 
ATOM     66  C   UNL A   1      51.846  25.812  26.285  1.00  0.00     0.022 A 
BRANCH  64  67
ATOM     67  S   UNL A   1      51.917  26.994  23.823  1.00  0.00     0.127 S 
ATOM     68  O   UNL A   1      52.352  28.379  24.005  1.00  0.00    -0.237 OA
ATOM     69  O   UNL A   1      53.002  26.014  23.794  1.00  0.00    -0.237 OA
ATOM     70  O   UNL A   1      50.887  26.795  22.814  1.00  0.00    -0.744 OA
ENDBRANCH  64  67
ENDBRANCH  46  60
BRANCH  47  71
ATOM     71  C   UNL A   1      39.913  29.227  29.385  1.00  0.00     0.023 A 
ATOM     72  C   UNL A   1      38.990  29.586  28.382  1.00  0.00     0.012 A 
ATOM     73  C   UNL A   1      39.506  29.261  30.732  1.00  0.00     0.148 A 
ATOM     74  C   UNL A   1      37.708  30.024  28.715  1.00  0.00     0.002 A 
ATOM     75  C   UNL A   1      38.208  29.644  31.054  1.00  0.00     0.091 A 
ATOM     76  F   UNL A   1      40.398  28.927  31.676  1.00  0.00    -0.205 F 
ATOM     77  C   UNL A   1      37.314  30.046  30.050  1.00  0.00     0.022 A 
BRANCH  75  78
ATOM     78  S   UNL A   1      37.579  29.581  32.736  1.00  0.00     0.127 S 
ATOM     79  O   UNL A   1      36.261  30.191  32.586  1.00  0.00    -0.237 OA
ATOM     80  O   UNL A   1      37.567  28.141  33.002  1.00  0.00    -0.237 OA
ATOM     81  O   UNL A   1      38.539  30.328  33.539  1.00  0.00    -0.744 OA
ENDBRANCH  75  78
ENDBRANCH  47  71
BRANCH  59  82
ATOM     82  C   UNL A   1      45.906  32.772  29.016  1.00  0.00     0.023 A 
ATOM     83  C   UNL A   1      46.496  33.174  30.229  1.00  0.00     0.012 A 
ATOM     84  C   UNL A   1      45.703  33.723  27.996  1.00  0.00     0.148 A 
ATOM     85  C   UNL A   1      46.843  34.508  30.439  1.00  0.00     0.002 A 
ATOM     86  C   UNL A   1      46.100  35.039  28.192  1.00  0.00     0.091 A 
ATOM     87  F   UNL A   1      45.121  33.323  26.855  1.00  0.00    -0.205 F 
ATOM     88  C   UNL A   1      46.657  35.437  29.418  1.00  0.00     0.022 A 
BRANCH  86  89
ATOM     89  S   UNL A   1      45.992  36.278  26.897  1.00  0.00     0.127 S 
ATOM     90  O   UNL A   1      46.750  35.647  25.817  1.00  0.00    -0.237 OA
ATOM     91  O   UNL A   1      44.549  36.357  26.664  1.00  0.00    -0.237 OA
ATOM     92  O   UNL A   1      46.581  37.490  27.450  1.00  0.00    -0.744 OA
ENDBRANCH  86  89
ENDBRANCH  59  82
ENDBRANCH  33  34
ENDBRANCH  25  28
ENDBRANCH  23  24
ENDBRANCH  22  23
ENDBRANCH   1  22
TORSDOF 18
ENDMDL
MODEL 2
REMARK VINA RESULT:     -10.7      3.423      4.956
REMARK SMILES Cc1nc(C[N@@H+]2CCC[C@H]2C(=O)NCCCCCCNC(=O)c2ccc(-c3c4nc(c(-c5cccc(S(=O)(=O)[O-])c5F)c5ccc([nH]5)c(-c5cccc(S(=O)(=O)[O-])c5F)c5nc(c(-c6cccc(S(=O)(=O)[O-])c6F)c6ccc3[nH]6)C=C5)C=C4)cc2)cs1
REMARK SMILES IDX 17 1 16 2 15 3 14 4 13 5 11 6 12 7 10 9 6 10 7 11 8 13 9 14
REMARK SMILES IDX 5 15 4 16 1 17 2 18 3 19 87 20 86 21 18 22 19 23 20 24 21 25
REMARK SMILES IDX 22 27 23 28 24 29 85 30 25 31 84 32 26 33 27 34 28 35 78 36
REMARK SMILES IDX 29 37 83 38 77 39 79 40 30 41 82 42 76 43 75 44 31 46 63 47
REMARK SMILES IDX 43 48 62 49 44 50 47 51 61 52 80 53 45 54 46 55 60 57 81 58
REMARK SMILES IDX 48 59 32 60 33 61 41 62 34 63 36 64 42 65 35 66 37 67 38 68
REMARK SMILES IDX 39 69 40 70 64 71 65 72 73 73 66 74 68 75 74 76 67 77 69 78
REMARK SMILES IDX 70 79 71 80 72 81 49 82 50 83 58 84 51 85 53 86 59 87 52 88
REMARK SMILES IDX 54 89 55 90 56 91 57 92
REMARK H PARENT 13 8 6 12 20 26 79 45 47 56
REMARK Flexibility Score: inf
ROOT
ATOM      1  C   UNL A   1      34.564  22.942  23.973  1.00  0.00     0.002 C 
ENDROOT
BRANCH   1   2
ATOM      2  C   UNL A   1      33.231  22.618  23.293  1.00  0.00     0.002 C 
BRANCH   2   3
ATOM      3  C   UNL A   1      32.021  22.555  24.229  1.00  0.00     0.021 C 
BRANCH   3   4
ATOM      4  C   UNL A   1      30.866  23.469  23.836  1.00  0.00     0.116 C 
BRANCH   4   5
ATOM      5  N   UNL A   1      30.466  24.322  24.938  1.00  0.00    -0.351 N 
ATOM      6  C   UNL A   1      30.822  25.578  25.313  1.00  0.00     0.278 C 
ATOM      7  O   UNL A   1      30.315  25.976  26.372  1.00  0.00    -0.268 OA
ATOM      8  H   UNL A   1      29.803  23.907  25.536  1.00  0.00     0.163 HD
BRANCH   6   9
ATOM      9  C   UNL A   1      31.832  26.476  24.555  1.00  0.00     0.274 C 
ATOM     10  N   UNL A   1      31.594  27.915  24.726  1.00  0.00    -0.320 N 
ATOM     11  C   UNL A   1      32.471  28.414  25.771  1.00  0.00     0.263 C 
ATOM     12  H   UNL A   1      30.638  28.061  25.053  1.00  0.00     0.349 HD
ATOM     13  C   UNL A   1      33.714  27.557  25.695  1.00  0.00     0.068 C 
ATOM     14  C   UNL A   1      33.244  26.232  25.115  1.00  0.00     0.081 C 
BRANCH  10  15
ATOM     15  C   UNL A   1      31.527  28.687  23.482  1.00  0.00     0.321 C 
BRANCH  15  16
ATOM     16  C   UNL A   1      30.147  29.081  23.048  1.00  0.00     0.106 A 
ATOM     17  C   UNL A   1      28.200  31.225  20.821  1.00  0.00     0.079 C 
ATOM     18  C   UNL A   1      28.719  30.250  21.818  1.00  0.00     0.090 A 
ATOM     19  N   UNL A   1      29.991  30.102  22.118  1.00  0.00    -0.241 NA
ATOM     20  S   UNL A   1      27.634  29.225  22.667  1.00  0.00    -0.127 S 
ATOM     21  C   UNL A   1      28.964  28.480  23.441  1.00  0.00     0.096 A 
ENDBRANCH  15  16
ENDBRANCH  10  15
ENDBRANCH   6   9
ENDBRANCH   4   5
ENDBRANCH   3   4
ENDBRANCH   2   3
ENDBRANCH   1   2
BRANCH   1  22
ATOM     22  C   UNL A   1      35.228  21.772  24.704  1.00  0.00     0.021 C 
BRANCH  22  23
ATOM     23  C   UNL A   1      36.416  22.157  25.576  1.00  0.00     0.116 C 
BRANCH  23  24
ATOM     24  N   UNL A   1      37.376  21.073  25.703  1.00  0.00    -0.352 N 
ATOM     25  C   UNL A   1      38.721  21.135  25.968  1.00  0.00     0.251 C 
ATOM     26  H   UNL A   1      37.009  20.167  25.582  1.00  0.00     0.163 HD
ATOM     27  O   UNL A   1      39.415  20.130  25.851  1.00  0.00    -0.269 OA
BRANCH  25  28
ATOM     28  C   UNL A   1      39.331  22.418  26.382  1.00  0.00     0.039 A 
ATOM     29  C   UNL A   1      40.351  22.404  27.336  1.00  0.00     0.014 A 
ATOM     30  C   UNL A   1      38.886  23.630  25.847  1.00  0.00     0.014 A 
ATOM     31  C   UNL A   1      40.950  23.604  27.726  1.00  0.00     0.010 A 
ATOM     32  C   UNL A   1      39.538  24.815  26.177  1.00  0.00     0.010 A 
ATOM     33  C   UNL A   1      40.563  24.818  27.135  1.00  0.00    -0.014 A 
BRANCH  33  34
ATOM     34  C   UNL A   1      41.188  26.106  27.533  1.00  0.00     0.031 A 
ATOM     35  C   UNL A   1      42.621  26.389  27.161  1.00  0.00     0.074 A 
ATOM     36  C   UNL A   1      40.495  26.989  28.278  1.00  0.00     0.049 A 
ATOM     37  N   UNL A   1      43.367  27.417  27.471  1.00  0.00    -0.248 NA
ATOM     38  C   UNL A   1      43.317  25.369  26.356  1.00  0.00     0.031 C 
ATOM     39  C   UNL A   1      39.121  26.806  28.753  1.00  0.00     0.029 A 
ATOM     40  N   UNL A   1      40.859  28.211  28.787  1.00  0.00    -0.354 N 
ATOM     41  C   UNL A   1      44.620  27.159  26.925  1.00  0.00     0.074 A 
ATOM     42  C   UNL A   1      44.549  25.855  26.305  1.00  0.00     0.031 C 
ATOM     43  C   UNL A   1      38.758  27.878  29.477  1.00  0.00     0.029 A 
ATOM     44  C   UNL A   1      39.879  28.810  29.544  1.00  0.00     0.049 A 
ATOM     45  H   UNL A   1      41.739  28.621  28.624  1.00  0.00     0.167 HD
ATOM     46  C   UNL A   1      45.720  27.948  26.908  1.00  0.00     0.034 A 
ATOM     47  C   UNL A   1      39.888  29.975  30.222  1.00  0.00     0.034 A 
ATOM     48  C   UNL A   1      45.776  29.261  27.489  1.00  0.00     0.049 A 
ATOM     49  C   UNL A   1      41.121  30.840  30.168  1.00  0.00     0.074 A 
ATOM     50  C   UNL A   1      46.827  30.161  27.485  1.00  0.00     0.029 A 
ATOM     51  N   UNL A   1      44.734  29.865  28.175  1.00  0.00    -0.354 N 
ATOM     52  N   UNL A   1      42.252  30.629  29.541  1.00  0.00    -0.248 NA
ATOM     53  C   UNL A   1      41.062  32.124  30.883  1.00  0.00     0.031 C 
ATOM     54  C   UNL A   1      46.425  31.305  28.180  1.00  0.00     0.029 A 
ATOM     55  C   UNL A   1      45.114  31.130  28.590  1.00  0.00     0.049 A 
ATOM     56  H   UNL A   1      43.854  29.457  28.341  1.00  0.00     0.167 HD
ATOM     57  C   UNL A   1      43.015  31.775  29.737  1.00  0.00     0.074 A 
ATOM     58  C   UNL A   1      42.212  32.682  30.529  1.00  0.00     0.031 C 
ATOM     59  C   UNL A   1      44.272  32.049  29.312  1.00  0.00     0.034 A 
BRANCH  46  60
ATOM     60  C   UNL A   1      46.938  27.439  26.179  1.00  0.00     0.023 A 
ATOM     61  C   UNL A   1      47.818  26.556  26.838  1.00  0.00     0.012 A 
ATOM     62  C   UNL A   1      47.174  27.774  24.832  1.00  0.00     0.148 A 
ATOM     63  C   UNL A   1      48.932  26.039  26.179  1.00  0.00     0.002 A 
ATOM     64  C   UNL A   1      48.261  27.217  24.167  1.00  0.00     0.091 A 
ATOM     65  F   UNL A   1      46.336  28.628  24.229  1.00  0.00    -0.205 F 
ATOM     66  C   UNL A   1      49.147  26.361  24.841  1.00  0.00     0.022 A 
BRANCH  64  67
ATOM     67  S   UNL A   1      48.584  27.500  22.423  1.00  0.00     0.127 S 
ATOM     68  O   UNL A   1      47.426  28.305  22.035  1.00  0.00    -0.237 OA
ATOM     69  O   UNL A   1      49.849  28.232  22.460  1.00  0.00    -0.237 OA
ATOM     70  O   UNL A   1      48.657  26.183  21.807  1.00  0.00    -0.744 OA
ENDBRANCH  64  67
ENDBRANCH  46  60
BRANCH  47  71
ATOM     71  C   UNL A   1      38.676  30.434  30.960  1.00  0.00     0.023 A 
ATOM     72  C   UNL A   1      38.544  30.129  32.330  1.00  0.00     0.012 A 
ATOM     73  C   UNL A   1      37.648  31.148  30.316  1.00  0.00     0.148 A 
ATOM     74  C   UNL A   1      37.389  30.478  33.031  1.00  0.00     0.002 A 
ATOM     75  C   UNL A   1      36.524  31.544  31.035  1.00  0.00     0.091 A 
ATOM     76  F   UNL A   1      37.783  31.422  29.011  1.00  0.00    -0.205 F 
ATOM     77  C   UNL A   1      36.383  31.191  32.386  1.00  0.00     0.022 A 
BRANCH  75  78
ATOM     78  S   UNL A   1      35.239  32.572  30.315  1.00  0.00     0.127 S 
ATOM     79  O   UNL A   1      34.301  32.700  31.426  1.00  0.00    -0.237 OA
ATOM     80  O   UNL A   1      35.976  33.794  29.985  1.00  0.00    -0.237 OA
ATOM     81  O   UNL A   1      34.755  31.836  29.154  1.00  0.00    -0.744 OA
ENDBRANCH  75  78
ENDBRANCH  47  71
BRANCH  59  82
ATOM     82  C   UNL A   1      44.837  33.411  29.621  1.00  0.00     0.023 A 
ATOM     83  C   UNL A   1      45.572  33.623  30.803  1.00  0.00     0.012 A 
ATOM     84  C   UNL A   1      44.691  34.466  28.698  1.00  0.00     0.148 A 
ATOM     85  C   UNL A   1      46.119  34.875  31.081  1.00  0.00     0.002 A 
ATOM     86  C   UNL A   1      45.285  35.695  28.956  1.00  0.00     0.091 A 
ATOM     87  F   UNL A   1      43.971  34.250  27.586  1.00  0.00    -0.205 F 
ATOM     88  C   UNL A   1      45.987  35.906  30.153  1.00  0.00     0.022 A 
BRANCH  86  89
ATOM     89  S   UNL A   1      45.252  37.045  27.772  1.00  0.00     0.127 S 
ATOM     90  O   UNL A   1      46.317  37.910  28.278  1.00  0.00    -0.237 OA
ATOM     91  O   UNL A   1      45.564  36.363  26.516  1.00  0.00    -0.237 OA
ATOM     92  O   UNL A   1      43.909  37.605  27.839  1.00  0.00    -0.744 OA
ENDBRANCH  86  89
ENDBRANCH  59  82
ENDBRANCH  33  34
ENDBRANCH  25  28
ENDBRANCH  23  24
ENDBRANCH  22  23
ENDBRANCH   1  22
TORSDOF 18
ENDMDL
MODEL 3
REMARK VINA RESULT:     -10.7      6.489     12.259
REMARK SMILES Cc1nc(C[N@@H+]2CCC[C@H]2C(=O)NCCCCCCNC(=O)c2ccc(-c3c4nc(c(-c5cccc(S(=O)(=O)[O-])c5F)c5ccc([nH]5)c(-c5cccc(S(=O)(=O)[O-])c5F)c5nc(c(-c6cccc(S(=O)(=O)[O-])c6F)c6ccc3[nH]6)C=C5)C=C4)cc2)cs1
REMARK SMILES IDX 17 1 16 2 15 3 14 4 13 5 11 6 12 7 10 9 6 10 7 11 8 13 9 14
REMARK SMILES IDX 5 15 4 16 1 17 2 18 3 19 87 20 86 21 18 22 19 23 20 24 21 25
REMARK SMILES IDX 22 27 23 28 24 29 85 30 25 31 84 32 26 33 27 34 28 35 78 36
REMARK SMILES IDX 29 37 83 38 77 39 79 40 30 41 82 42 76 43 75 44 31 46 63 47
REMARK SMILES IDX 43 48 62 49 44 50 47 51 61 52 80 53 45 54 46 55 60 57 81 58
REMARK SMILES IDX 48 59 32 60 33 61 41 62 34 63 36 64 42 65 35 66 37 67 38 68
REMARK SMILES IDX 39 69 40 70 64 71 65 72 73 73 66 74 68 75 74 76 67 77 69 78
REMARK SMILES IDX 70 79 71 80 72 81 49 82 50 83 58 84 51 85 53 86 59 87 52 88
REMARK SMILES IDX 54 89 55 90 56 91 57 92
REMARK H PARENT 13 8 6 12 20 26 79 45 47 56
REMARK Flexibility Score: inf
ROOT
ATOM      1  C   UNL A   1      36.363  32.846  30.462  1.00  0.00     0.002 C 
ENDROOT
BRANCH   1   2
ATOM      2  C   UNL A   1      37.749  33.083  29.855  1.00  0.00     0.002 C 
BRANCH   2   3
ATOM      3  C   UNL A   1      38.699  33.922  30.712  1.00  0.00     0.021 C 
BRANCH   3   4
ATOM      4  C   UNL A   1      38.030  34.660  31.867  1.00  0.00     0.116 C 
BRANCH   4   5
ATOM      5  N   UNL A   1      38.969  34.934  32.937  1.00  0.00    -0.351 N 
ATOM      6  C   UNL A   1      38.981  34.622  34.259  1.00  0.00     0.278 C 
ATOM      7  O   UNL A   1      39.936  35.087  34.900  1.00  0.00    -0.268 OA
ATOM      8  H   UNL A   1      39.755  35.449  32.647  1.00  0.00     0.163 HD
BRANCH   6   9
ATOM      9  C   UNL A   1      37.884  33.807  34.989  1.00  0.00     0.274 C 
ATOM     10  N   UNL A   1      36.787  33.373  34.116  1.00  0.00    -0.320 N 
ATOM     11  C   UNL A   1      37.033  32.003  33.700  1.00  0.00     0.263 C 
ATOM     12  H   UNL A   1      36.787  33.940  33.267  1.00  0.00     0.349 HD
ATOM     13  C   UNL A   1      37.777  31.363  34.850  1.00  0.00     0.068 C 
ATOM     14  C   UNL A   1      38.500  32.511  35.539  1.00  0.00     0.081 C 
BRANCH  10  15
ATOM     15  C   UNL A   1      35.441  33.695  34.600  1.00  0.00     0.321 C 
BRANCH  15  16
ATOM     16  C   UNL A   1      34.621  34.554  33.685  1.00  0.00     0.106 A 
ATOM     17  C   UNL A   1      34.028  37.957  32.499  1.00  0.00     0.079 C 
ATOM     18  C   UNL A   1      34.047  36.498  32.785  1.00  0.00     0.090 A 
ATOM     19  N   UNL A   1      34.803  35.932  33.701  1.00  0.00    -0.241 NA
ATOM     20  S   UNL A   1      33.037  35.432  31.896  1.00  0.00    -0.127 S 
ATOM     21  C   UNL A   1      33.707  34.109  32.747  1.00  0.00     0.096 A 
ENDBRANCH  15  16
ENDBRANCH  10  15
ENDBRANCH   6   9
ENDBRANCH   4   5
ENDBRANCH   3   4
ENDBRANCH   2   3
ENDBRANCH   1   2
BRANCH   1  22
ATOM     22  C   UNL A   1      35.188  33.381  29.639  1.00  0.00     0.021 C 
BRANCH  22  23
ATOM     23  C   UNL A   1      35.283  33.111  28.143  1.00  0.00     0.116 C 
BRANCH  23  24
ATOM     24  N   UNL A   1      34.377  32.057  27.718  1.00  0.00    -0.352 N 
ATOM     25  C   UNL A   1      34.617  30.712  27.587  1.00  0.00     0.251 C 
ATOM     26  H   UNL A   1      33.464  32.349  27.493  1.00  0.00     0.163 HD
ATOM     27  O   UNL A   1      33.791  29.994  27.034  1.00  0.00    -0.269 OA
BRANCH  25  28
ATOM     28  C   UNL A   1      35.877  30.135  28.105  1.00  0.00     0.039 A 
ATOM     29  C   UNL A   1      37.037  30.245  27.334  1.00  0.00     0.014 A 
ATOM     30  C   UNL A   1      35.911  29.473  29.336  1.00  0.00     0.014 A 
ATOM     31  C   UNL A   1      38.240  29.722  27.816  1.00  0.00     0.010 A 
ATOM     32  C   UNL A   1      37.126  29.024  29.848  1.00  0.00     0.010 A 
ATOM     33  C   UNL A   1      38.299  29.124  29.086  1.00  0.00    -0.014 A 
BRANCH  33  34
ATOM     34  C   UNL A   1      39.567  28.564  29.618  1.00  0.00     0.031 A 
ATOM     35  C   UNL A   1      40.223  29.200  30.817  1.00  0.00     0.074 A 
ATOM     36  C   UNL A   1      40.161  27.529  28.992  1.00  0.00     0.049 A 
ATOM     37  N   UNL A   1      41.361  28.906  31.389  1.00  0.00    -0.248 NA
ATOM     38  C   UNL A   1      39.519  30.336  31.439  1.00  0.00     0.031 C 
ATOM     39  C   UNL A   1      39.658  26.863  27.788  1.00  0.00     0.029 A 
ATOM     40  N   UNL A   1      41.332  26.868  29.270  1.00  0.00    -0.354 N 
ATOM     41  C   UNL A   1      41.522  29.830  32.416  1.00  0.00     0.074 A 
ATOM     42  C   UNL A   1      40.389  30.726  32.359  1.00  0.00     0.031 C 
ATOM     43  C   UNL A   1      40.511  25.886  27.435  1.00  0.00     0.029 A 
ATOM     44  C   UNL A   1      41.634  25.874  28.367  1.00  0.00     0.049 A 
ATOM     45  H   UNL A   1      41.902  27.084  30.043  1.00  0.00     0.167 HD
ATOM     46  C   UNL A   1      42.504  29.907  33.345  1.00  0.00     0.034 A 
ATOM     47  C   UNL A   1      42.701  25.053  28.296  1.00  0.00     0.034 A 
ATOM     48  C   UNL A   1      43.608  28.990  33.426  1.00  0.00     0.049 A 
ATOM     49  C   UNL A   1      43.767  25.150  29.356  1.00  0.00     0.074 A 
ATOM     50  C   UNL A   1      44.629  28.952  34.358  1.00  0.00     0.029 A 
ATOM     51  N   UNL A   1      43.832  27.946  32.542  1.00  0.00    -0.354 N 
ATOM     52  N   UNL A   1      43.834  25.953  30.390  1.00  0.00    -0.248 NA
ATOM     53  C   UNL A   1      44.885  24.199  29.261  1.00  0.00     0.031 C 
ATOM     54  C   UNL A   1      45.480  27.892  34.030  1.00  0.00     0.029 A 
ATOM     55  C   UNL A   1      44.971  27.251  32.912  1.00  0.00     0.049 A 
ATOM     56  H   UNL A   1      43.265  27.730  31.767  1.00  0.00     0.167 HD
ATOM     57  C   UNL A   1      44.967  25.565  31.098  1.00  0.00     0.074 A 
ATOM     58  C   UNL A   1      45.546  24.448  30.382  1.00  0.00     0.031 C 
ATOM     59  C   UNL A   1      45.489  26.094  32.232  1.00  0.00     0.034 A 
BRANCH  46  60
ATOM     60  C   UNL A   1      42.394  30.982  34.397  1.00  0.00     0.023 A 
ATOM     61  C   UNL A   1      41.828  30.668  35.649  1.00  0.00     0.012 A 
ATOM     62  C   UNL A   1      42.910  32.274  34.176  1.00  0.00     0.148 A 
ATOM     63  C   UNL A   1      41.746  31.630  36.655  1.00  0.00     0.002 A 
ATOM     64  C   UNL A   1      42.868  33.214  35.200  1.00  0.00     0.091 A 
ATOM     65  F   UNL A   1      43.429  32.558  32.973  1.00  0.00    -0.205 F 
ATOM     66  C   UNL A   1      42.276  32.898  36.434  1.00  0.00     0.022 A 
BRANCH  64  67
ATOM     67  S   UNL A   1      43.595  34.850  35.049  1.00  0.00     0.127 S 
ATOM     68  O   UNL A   1      43.245  35.449  36.337  1.00  0.00    -0.237 OA
ATOM     69  O   UNL A   1      45.015  34.541  34.887  1.00  0.00    -0.237 OA
ATOM     70  O   UNL A   1      42.967  35.465  33.888  1.00  0.00    -0.744 OA
ENDBRANCH  64  67
ENDBRANCH  46  60
BRANCH  47  71
ATOM     71  C   UNL A   1      42.794  24.021  27.223  1.00  0.00     0.023 A 
ATOM     72  C   UNL A   1      43.525  24.305  26.052  1.00  0.00     0.012 A 
ATOM     73  C   UNL A   1      42.152  22.774  27.343  1.00  0.00     0.148 A 
ATOM     74  C   UNL A   1      43.569  23.391  24.998  1.00  0.00     0.002 A 
ATOM     75  C   UNL A   1      42.248  21.844  26.313  1.00  0.00     0.091 A 
ATOM     76  F   UNL A   1      41.452  22.522  28.458  1.00  0.00    -0.205 F 
ATOM     77  C   UNL A   1      42.938  22.158  25.132  1.00  0.00     0.022 A 
BRANCH  75  78
ATOM     78  S   UNL A   1      41.570  20.186  26.453  1.00  0.00     0.127 S 
ATOM     79  O   UNL A   1      40.142  20.431  26.275  1.00  0.00    -0.237 OA
ATOM     80  O   UNL A   1      42.221  19.496  25.338  1.00  0.00    -0.237 OA
ATOM     81  O   UNL A   1      41.976  19.708  27.768  1.00  0.00    -0.744 OA
ENDBRANCH  75  78
ENDBRANCH  47  71
BRANCH  59  82
ATOM     82  C   UNL A   1      46.705  25.427  32.821  1.00  0.00     0.023 A 
ATOM     83  C   UNL A   1      47.996  25.842  32.440  1.00  0.00     0.012 A 
ATOM     84  C   UNL A   1      46.561  24.432  33.808  1.00  0.00     0.148 A 
ATOM     85  C   UNL A   1      49.124  25.247  33.002  1.00  0.00     0.002 A 
ATOM     86  C   UNL A   1      47.689  23.883  34.403  1.00  0.00     0.091 A 
ATOM     87  F   UNL A   1      45.322  24.038  34.144  1.00  0.00    -0.205 F 
ATOM     88  C   UNL A   1      48.972  24.277  33.991  1.00  0.00     0.022 A 
BRANCH  86  89
ATOM     89  S   UNL A   1      47.585  22.704  35.754  1.00  0.00     0.127 S 
ATOM     90  O   UNL A   1      47.227  23.569  36.877  1.00  0.00    -0.237 OA
ATOM     91  O   UNL A   1      46.514  21.812  35.306  1.00  0.00    -0.237 OA
ATOM     92  O   UNL A   1      48.897  22.076  35.842  1.00  0.00    -0.744 OA
ENDBRANCH  86  89
ENDBRANCH  59  82
ENDBRANCH  33  34
ENDBRANCH  25  28
ENDBRANCH  23  24
ENDBRANCH  22  23
ENDBRANCH   1  22
TORSDOF 18
ENDMDL
