MODEL 1
REMARK VINA RESULT:     -12.0      0.000      0.000
REMARK SMILES C[C@@H](C(=O)NCCCCCCNC(=O)c1ccc(-c2c3nc(c(-c4cccc(S(=O)(=O)[O-])c4F)c4ccc([nH]4)c(-c4cccc(S(=O)(=O)[O-])c4F)c4nc(c(-c5cccc(S(=O)(=O)[O-])c5F)c5ccc2[nH]5)C=C4)C=C3)cc1)c1ccccc1-c1ccn(C(F)F)c(=O)c1
REMARK SMILES IDX 8 1 7 2 6 3 5 4 3 5 4 6 2 8 1 9 78 10 79 11 83 12 80 13
REMARK SMILES IDX 82 14 81 15 84 16 85 17 93 18 86 19 91 20 87 21 92 22 88 23
REMARK SMILES IDX 89 24 90 25 9 26 10 27 11 28 12 29 13 30 14 32 15 33 16 34
REMARK SMILES IDX 77 35 17 36 76 37 18 38 19 39 20 40 70 41 21 42 75 43 69 44
REMARK SMILES IDX 71 45 22 46 74 47 68 48 67 49 23 51 55 52 35 53 54 54 36 55
REMARK SMILES IDX 39 56 53 57 72 58 37 59 38 60 52 62 73 63 40 64 24 65 25 66
REMARK SMILES IDX 33 67 26 68 28 69 34 70 27 71 29 72 30 73 31 74 32 75 56 76
REMARK SMILES IDX 57 77 65 78 58 79 60 80 66 81 59 82 61 83 62 84 63 85 64 86
REMARK SMILES IDX 41 87 42 88 50 89 43 90 45 91 51 92 44 93 46 94 47 95 48 96
REMARK SMILES IDX 49 97
REMARK H PARENT 5 7 12 31 71 50 39 61
REMARK Flexibility Score: inf
ROOT
ATOM      1  C   UNL A   1      33.211  27.390  25.899  1.00  0.00     0.002 C 
ENDROOT
BRANCH   1   2
ATOM      2  C   UNL A   1      33.805  25.986  26.076  1.00  0.00     0.021 C 
BRANCH   2   3
ATOM      3  C   UNL A   1      34.198  25.293  24.769  1.00  0.00     0.116 C 
BRANCH   3   4
ATOM      4  N   UNL A   1      35.357  24.445  24.962  1.00  0.00    -0.356 N 
ATOM      5  C   UNL A   1      35.490  23.243  25.598  1.00  0.00     0.227 C 
ATOM      6  O   UNL A   1      36.649  22.851  25.743  1.00  0.00    -0.274 OA
ATOM      7  H   UNL A   1      36.190  24.794  24.568  1.00  0.00     0.163 HD
BRANCH   5   8
ATOM      8  C   UNL A   1      34.232  22.483  26.068  1.00  0.00     0.106 C 
ATOM      9  C   UNL A   1      34.388  22.036  27.523  1.00  0.00     0.023 C 
BRANCH   8  10
ATOM     10  C   UNL A   1      33.751  21.300  25.205  1.00  0.00    -0.028 A 
ATOM     11  C   UNL A   1      34.400  20.051  25.246  1.00  0.00     0.005 A 
ATOM     12  C   UNL A   1      32.581  21.400  24.402  1.00  0.00    -0.014 A 
ATOM     13  C   UNL A   1      33.964  18.964  24.483  1.00  0.00     0.000 A 
ATOM     14  C   UNL A   1      32.153  20.294  23.639  1.00  0.00     0.009 A 
ATOM     15  C   UNL A   1      32.845  19.086  23.675  1.00  0.00     0.001 A 
BRANCH  12  16
ATOM     16  C   UNL A   1      31.713  22.602  24.394  1.00  0.00    -0.011 A 
ATOM     17  C   UNL A   1      31.410  23.375  23.206  1.00  0.00     0.027 A 
ATOM     18  C   UNL A   1      31.248  23.026  25.583  1.00  0.00     0.080 A 
ATOM     19  C   UNL A   1      30.784  24.555  23.307  1.00  0.00     0.095 A 
ATOM     20  C   UNL A   1      30.506  24.309  25.706  1.00  0.00     0.255 A 
ATOM     21  N   UNL A   1      30.362  25.034  24.535  1.00  0.00    -0.258 N 
ATOM     22  O   UNL A   1      30.107  24.644  26.817  1.00  0.00    -0.269 OA
BRANCH  21  23
ATOM     23  C   UNL A   1      29.756  26.338  24.648  1.00  0.00     0.451 C 
ATOM     24  F   UNL A   1      30.500  27.275  24.012  1.00  0.00    -0.185 F 
ATOM     25  F   UNL A   1      28.520  26.334  24.092  1.00  0.00    -0.185 F 
ENDBRANCH  21  23
ENDBRANCH  12  16
ENDBRANCH   8  10
ENDBRANCH   5   8
ENDBRANCH   3   4
ENDBRANCH   2   3
ENDBRANCH   1   2
BRANCH   1  26
ATOM     26  C   UNL A   1      32.178  27.794  26.953  1.00  0.00     0.002 C 
BRANCH  26  27
ATOM     27  C   UNL A   1      31.928  29.299  27.061  1.00  0.00     0.021 C 
BRANCH  27  28
ATOM     28  C   UNL A   1      32.951  30.164  26.332  1.00  0.00     0.116 C 
BRANCH  28  29
ATOM     29  N   UNL A   1      32.861  31.562  26.724  1.00  0.00    -0.352 N 
ATOM     30  C   UNL A   1      33.628  32.257  27.625  1.00  0.00     0.251 C 
ATOM     31  H   UNL A   1      32.150  32.082  26.281  1.00  0.00     0.163 HD
ATOM     32  O   UNL A   1      33.286  33.380  27.989  1.00  0.00    -0.269 OA
BRANCH  30  33
ATOM     33  C   UNL A   1      34.856  31.639  28.168  1.00  0.00     0.039 A 
ATOM     34  C   UNL A   1      36.030  32.394  28.218  1.00  0.00     0.014 A 
ATOM     35  C   UNL A   1      34.845  30.322  28.635  1.00  0.00     0.014 A 
ATOM     36  C   UNL A   1      37.179  31.845  28.791  1.00  0.00     0.010 A 
ATOM     37  C   UNL A   1      35.967  29.805  29.275  1.00  0.00     0.010 A 
ATOM     38  C   UNL A   1      37.149  30.558  29.355  1.00  0.00    -0.014 A 
BRANCH  38  39
ATOM     39  C   UNL A   1      38.339  29.990  30.040  1.00  0.00     0.031 A 
ATOM     40  C   UNL A   1      38.727  30.469  31.413  1.00  0.00     0.074 A 
ATOM     41  C   UNL A   1      39.115  29.098  29.392  1.00  0.00     0.049 A 
ATOM     42  N   UNL A   1      39.757  30.128  32.143  1.00  0.00    -0.248 NA
ATOM     43  C   UNL A   1      37.861  31.483  32.039  1.00  0.00     0.031 C 
ATOM     44  C   UNL A   1      38.888  28.610  28.030  1.00  0.00     0.029 A 
ATOM     45  N   UNL A   1      40.268  28.462  29.782  1.00  0.00    -0.354 N 
ATOM     46  C   UNL A   1      39.683  30.906  33.293  1.00  0.00     0.074 A 
ATOM     47  C   UNL A   1      38.527  31.761  33.151  1.00  0.00     0.031 C 
ATOM     48  C   UNL A   1      39.865  27.750  27.700  1.00  0.00     0.029 A 
ATOM     49  C   UNL A   1      40.808  27.652  28.810  1.00  0.00     0.049 A 
ATOM     50  H   UNL A   1      40.670  28.574  30.674  1.00  0.00     0.167 HD
ATOM     51  C   UNL A   1      40.491  30.891  34.380  1.00  0.00     0.034 A 
ATOM     52  C   UNL A   1      41.942  26.922  28.806  1.00  0.00     0.034 A 
ATOM     53  C   UNL A   1      41.619  30.012  34.534  1.00  0.00     0.049 A 
ATOM     54  C   UNL A   1      42.803  26.904  30.039  1.00  0.00     0.074 A 
ATOM     55  C   UNL A   1      42.444  29.861  35.634  1.00  0.00     0.029 A 
ATOM     56  N   UNL A   1      42.089  29.147  33.559  1.00  0.00    -0.354 N 
ATOM     57  N   UNL A   1      42.627  27.529  31.179  1.00  0.00    -0.248 NA
ATOM     58  C   UNL A   1      44.000  26.050  30.003  1.00  0.00     0.031 C 
ATOM     59  C   UNL A   1      43.437  28.930  35.310  1.00  0.00     0.029 A 
ATOM     60  C   UNL A   1      43.202  28.470  34.025  1.00  0.00     0.049 A 
ATOM     61  H   UNL A   1      41.690  29.033  32.667  1.00  0.00     0.167 HD
ATOM     62  C   UNL A   1      43.665  27.114  32.005  1.00  0.00     0.074 A 
ATOM     63  C   UNL A   1      44.453  26.168  31.243  1.00  0.00     0.031 C 
ATOM     64  C   UNL A   1      43.946  27.490  33.276  1.00  0.00     0.034 A 
BRANCH  51  65
ATOM     65  C   UNL A   1      40.162  31.825  35.516  1.00  0.00     0.023 A 
ATOM     66  C   UNL A   1      40.903  33.014  35.678  1.00  0.00     0.012 A 
ATOM     67  C   UNL A   1      39.074  31.567  36.372  1.00  0.00     0.148 A 
ATOM     68  C   UNL A   1      40.584  33.917  36.692  1.00  0.00     0.002 A 
ATOM     69  C   UNL A   1      38.732  32.494  37.349  1.00  0.00     0.091 A 
ATOM     70  F   UNL A   1      38.394  30.423  36.212  1.00  0.00    -0.205 F 
ATOM     71  C   UNL A   1      39.493  33.663  37.519  1.00  0.00     0.022 A 
BRANCH  69  72
ATOM     72  S   UNL A   1      37.295  32.303  38.409  1.00  0.00     0.127 S 
ATOM     73  O   UNL A   1      37.763  32.914  39.652  1.00  0.00    -0.237 OA
ATOM     74  O   UNL A   1      36.282  33.078  37.692  1.00  0.00    -0.237 OA
ATOM     75  O   UNL A   1      37.032  30.873  38.479  1.00  0.00    -0.744 OA
ENDBRANCH  69  72
ENDBRANCH  51  65
BRANCH  52  76
ATOM     76  C   UNL A   1      42.307  26.111  27.609  1.00  0.00     0.023 A 
ATOM     77  C   UNL A   1      43.063  26.697  26.576  1.00  0.00     0.012 A 
ATOM     78  C   UNL A   1      41.915  24.764  27.493  1.00  0.00     0.148 A 
ATOM     79  C   UNL A   1      43.384  25.970  25.429  1.00  0.00     0.002 A 
ATOM     80  C   UNL A   1      42.290  24.028  26.375  1.00  0.00     0.091 A 
ATOM     81  F   UNL A   1      41.189  24.225  28.482  1.00  0.00    -0.205 F 
ATOM     82  C   UNL A   1      43.006  24.634  25.332  1.00  0.00     0.022 A 
BRANCH  80  83
ATOM     83  S   UNL A   1      41.961  22.268  26.230  1.00  0.00     0.127 S 
ATOM     84  O   UNL A   1      42.677  21.928  25.003  1.00  0.00    -0.237 OA
ATOM     85  O   UNL A   1      42.561  21.745  27.458  1.00  0.00    -0.237 OA
ATOM     86  O   UNL A   1      40.511  22.141  26.172  1.00  0.00    -0.744 OA
ENDBRANCH  80  83
ENDBRANCH  52  76
BRANCH  64  87
ATOM     87  C   UNL A   1      45.127  26.845  33.955  1.00  0.00     0.023 A 
ATOM     88  C   UNL A   1      46.395  27.458  33.905  1.00  0.00     0.012 A 
ATOM     89  C   UNL A   1      44.959  25.664  34.704  1.00  0.00     0.148 A 
ATOM     90  C   UNL A   1      47.484  26.887  34.560  1.00  0.00     0.002 A 
ATOM     91  C   UNL A   1      46.037  25.130  35.400  1.00  0.00     0.091 A 
ATOM     92  F   UNL A   1      43.750  25.087  34.725  1.00  0.00    -0.205 F 
ATOM     93  C   UNL A   1      47.303  25.731  35.317  1.00  0.00     0.022 A 
BRANCH  91  94
ATOM     94  S   UNL A   1      45.875  23.703  36.479  1.00  0.00     0.127 S 
ATOM     95  O   UNL A   1      47.254  23.219  36.541  1.00  0.00    -0.237 OA
ATOM     96  O   UNL A   1      45.384  24.307  37.718  1.00  0.00    -0.237 OA
ATOM     97  O   UNL A   1      44.929  22.809  35.825  1.00  0.00    -0.744 OA
ENDBRANCH  91  94
ENDBRANCH  64  87
ENDBRANCH  38  39
ENDBRANCH  30  33
ENDBRANCH  28  29
ENDBRANCH  27  28
ENDBRANCH  26  27
ENDBRANCH   1  26
TORSDOF 19
ENDMDL
MODEL 2
REMARK VINA RESULT:     -11.8      2.005      2.557
REMARK SMILES C[C@@H](C(=O)NCCCCCCNC(=O)c1ccc(-c2c3nc(c(-c4cccc(S(=O)(=O)[O-])c4F)c4ccc([nH]4)c(-c4cccc(S(=O)(=O)[O-])c4F)c4nc(c(-c5cccc(S(=O)(=O)[O-])c5F)c5ccc2[nH]5)C=C4)C=C3)cc1)c1ccccc1-c1ccn(C(F)F)c(=O)c1
REMARK SMILES IDX 8 1 7 2 6 3 5 4 3 5 4 6 2 8 1 9 78 10 79 11 83 12 80 13
REMARK SMILES IDX 82 14 81 15 84 16 85 17 93 18 86 19 91 20 87 21 92 22 88 23
REMARK SMILES IDX 89 24 90 25 9 26 10 27 11 28 12 29 13 30 14 32 15 33 16 34
REMARK SMILES IDX 77 35 17 36 76 37 18 38 19 39 20 40 70 41 21 42 75 43 69 44
REMARK SMILES IDX 71 45 22 46 74 47 68 48 67 49 23 51 55 52 35 53 54 54 36 55
REMARK SMILES IDX 39 56 53 57 72 58 37 59 38 60 52 62 73 63 40 64 24 65 25 66
REMARK SMILES IDX 33 67 26 68 28 69 34 70 27 71 29 72 30 73 31 74 32 75 56 76
REMARK SMILES IDX 57 77 65 78 58 79 60 80 66 81 59 82 61 83 62 84 63 85 64 86
REMARK SMILES IDX 41 87 42 88 50 89 43 90 45 91 51 92 44 93 46 94 47 95 48 96
REMARK SMILES IDX 49 97
REMARK H PARENT 5 7 12 31 71 50 39 61
REMARK Flexibility Score: inf
ROOT
ATOM      1  C   UNL A   1      32.315  27.258  25.350  1.00  0.00     0.002 C 
ENDROOT
BRANCH   1   2
ATOM      2  C   UNL A   1      33.623  26.466  25.224  1.00  0.00     0.021 C 
BRANCH   2   3
ATOM      3  C   UNL A   1      33.630  25.127  25.966  1.00  0.00     0.116 C 
BRANCH   3   4
ATOM      4  N   UNL A   1      34.704  24.278  25.490  1.00  0.00    -0.356 N 
ATOM      5  C   UNL A   1      34.806  22.918  25.424  1.00  0.00     0.227 C 
ATOM      6  O   UNL A   1      35.922  22.488  25.127  1.00  0.00    -0.274 OA
ATOM      7  H   UNL A   1      35.493  24.765  25.158  1.00  0.00     0.163 HD
BRANCH   5   8
ATOM      8  C   UNL A   1      33.567  22.042  25.706  1.00  0.00     0.106 C 
ATOM      9  C   UNL A   1      33.732  21.290  27.028  1.00  0.00     0.023 C 
BRANCH   8  10
ATOM     10  C   UNL A   1      33.117  21.068  24.600  1.00  0.00    -0.028 A 
ATOM     11  C   UNL A   1      33.226  19.673  24.763  1.00  0.00     0.005 A 
ATOM     12  C   UNL A   1      32.492  21.537  23.411  1.00  0.00    -0.014 A 
ATOM     13  C   UNL A   1      32.805  18.777  23.777  1.00  0.00     0.000 A 
ATOM     14  C   UNL A   1      32.072  20.621  22.426  1.00  0.00     0.009 A 
ATOM     15  C   UNL A   1      32.233  19.249  22.606  1.00  0.00     0.001 A 
BRANCH  12  16
ATOM     16  C   UNL A   1      32.168  22.967  23.186  1.00  0.00    -0.011 A 
ATOM     17  C   UNL A   1      31.006  23.631  23.741  1.00  0.00     0.027 A 
ATOM     18  C   UNL A   1      32.976  23.652  22.356  1.00  0.00     0.080 A 
ATOM     19  C   UNL A   1      30.673  24.863  23.336  1.00  0.00     0.095 A 
ATOM     20  C   UNL A   1      32.648  25.041  21.937  1.00  0.00     0.255 A 
ATOM     21  N   UNL A   1      31.459  25.551  22.429  1.00  0.00    -0.258 N 
ATOM     22  O   UNL A   1      33.421  25.614  21.177  1.00  0.00    -0.269 OA
BRANCH  21  23
ATOM     23  C   UNL A   1      31.057  26.847  21.940  1.00  0.00     0.451 C 
ATOM     24  F   UNL A   1      29.904  27.251  22.526  1.00  0.00    -0.185 F 
ATOM     25  F   UNL A   1      32.011  27.772  22.211  1.00  0.00    -0.185 F 
ENDBRANCH  21  23
ENDBRANCH  12  16
ENDBRANCH   8  10
ENDBRANCH   5   8
ENDBRANCH   3   4
ENDBRANCH   2   3
ENDBRANCH   1   2
BRANCH   1  26
ATOM     26  C   UNL A   1      31.683  27.249  26.744  1.00  0.00     0.002 C 
BRANCH  26  27
ATOM     27  C   UNL A   1      32.104  28.410  27.645  1.00  0.00     0.021 C 
BRANCH  27  28
ATOM     28  C   UNL A   1      33.498  28.959  27.360  1.00  0.00     0.116 C 
BRANCH  28  29
ATOM     29  N   UNL A   1      33.573  30.397  27.576  1.00  0.00    -0.352 N 
ATOM     30  C   UNL A   1      34.548  31.123  28.212  1.00  0.00     0.251 C 
ATOM     31  H   UNL A   1      32.819  30.920  27.217  1.00  0.00     0.163 HD
ATOM     32  O   UNL A   1      34.356  32.305  28.487  1.00  0.00    -0.269 OA
BRANCH  30  33
ATOM     33  C   UNL A   1      35.822  30.470  28.581  1.00  0.00     0.039 A 
ATOM     34  C   UNL A   1      36.933  30.636  27.752  1.00  0.00     0.014 A 
ATOM     35  C   UNL A   1      35.920  29.706  29.747  1.00  0.00     0.014 A 
ATOM     36  C   UNL A   1      38.160  30.080  28.124  1.00  0.00     0.010 A 
ATOM     37  C   UNL A   1      37.159  29.221  30.154  1.00  0.00     0.010 A 
ATOM     38  C   UNL A   1      38.292  29.397  29.345  1.00  0.00    -0.014 A 
BRANCH  38  39
ATOM     39  C   UNL A   1      39.607  28.870  29.794  1.00  0.00     0.031 A 
ATOM     40  C   UNL A   1      40.368  29.562  30.893  1.00  0.00     0.074 A 
ATOM     41  C   UNL A   1      40.151  27.814  29.158  1.00  0.00     0.049 A 
ATOM     42  N   UNL A   1      41.547  29.279  31.381  1.00  0.00    -0.248 NA
ATOM     43  C   UNL A   1      39.734  30.742  31.507  1.00  0.00     0.031 C 
ATOM     44  C   UNL A   1      39.548  27.102  28.029  1.00  0.00     0.029 A 
ATOM     45  N   UNL A   1      41.348  27.169  29.352  1.00  0.00    -0.354 N 
ATOM     46  C   UNL A   1      41.812  30.260  32.331  1.00  0.00     0.074 A 
ATOM     47  C   UNL A   1      40.685  31.166  32.328  1.00  0.00     0.031 C 
ATOM     48  C   UNL A   1      40.374  26.120  27.634  1.00  0.00     0.029 A 
ATOM     49  C   UNL A   1      41.580  26.152  28.455  1.00  0.00     0.049 A 
ATOM     50  H   UNL A   1      41.981  27.412  30.066  1.00  0.00     0.167 HD
ATOM     51  C   UNL A   1      42.884  30.381  33.149  1.00  0.00     0.034 A 
ATOM     52  C   UNL A   1      42.649  25.345  28.300  1.00  0.00     0.034 A 
ATOM     53  C   UNL A   1      43.986  29.457  33.175  1.00  0.00     0.049 A 
ATOM     54  C   UNL A   1      43.813  25.485  29.244  1.00  0.00     0.074 A 
ATOM     55  C   UNL A   1      45.075  29.446  34.028  1.00  0.00     0.029 A 
ATOM     56  N   UNL A   1      44.148  28.392  32.304  1.00  0.00    -0.354 N 
ATOM     57  N   UNL A   1      43.972  26.323  30.240  1.00  0.00    -0.248 NA
ATOM     58  C   UNL A   1      44.930  24.545  29.067  1.00  0.00     0.031 C 
ATOM     59  C   UNL A   1      45.915  28.394  33.649  1.00  0.00     0.029 A 
ATOM     60  C   UNL A   1      45.327  27.724  32.589  1.00  0.00     0.049 A 
ATOM     61  H   UNL A   1      43.518  28.147  31.589  1.00  0.00     0.167 HD
ATOM     62  C   UNL A   1      45.183  25.984  30.832  1.00  0.00     0.074 A 
ATOM     63  C   UNL A   1      45.706  24.854  30.096  1.00  0.00     0.031 C 
ATOM     64  C   UNL A   1      45.810  26.566  31.884  1.00  0.00     0.034 A 
BRANCH  51  65
ATOM     65  C   UNL A   1      42.904  31.533  34.121  1.00  0.00     0.023 A 
ATOM     66  C   UNL A   1      43.498  32.755  33.742  1.00  0.00     0.012 A 
ATOM     67  C   UNL A   1      42.267  31.433  35.373  1.00  0.00     0.148 A 
ATOM     68  C   UNL A   1      43.483  33.849  34.607  1.00  0.00     0.002 A 
ATOM     69  C   UNL A   1      42.215  32.541  36.209  1.00  0.00     0.091 A 
ATOM     70  F   UNL A   1      41.724  30.257  35.720  1.00  0.00    -0.205 F 
ATOM     71  C   UNL A   1      42.833  33.746  35.834  1.00  0.00     0.022 A 
BRANCH  69  72
ATOM     72  S   UNL A   1      41.329  32.539  37.771  1.00  0.00     0.127 S 
ATOM     73  O   UNL A   1      40.035  31.986  37.375  1.00  0.00    -0.237 OA
ATOM     74  O   UNL A   1      42.151  31.645  38.587  1.00  0.00    -0.237 OA
ATOM     75  O   UNL A   1      41.302  33.924  38.222  1.00  0.00    -0.744 OA
ENDBRANCH  69  72
ENDBRANCH  51  65
BRANCH  52  76
ATOM     76  C   UNL A   1      42.651  24.299  27.237  1.00  0.00     0.023 A 
ATOM     77  C   UNL A   1      43.279  24.563  26.004  1.00  0.00     0.012 A 
ATOM     78  C   UNL A   1      42.042  23.047  27.443  1.00  0.00     0.148 A 
ATOM     79  C   UNL A   1      43.261  23.615  24.980  1.00  0.00     0.002 A 
ATOM     80  C   UNL A   1      42.080  22.085  26.441  1.00  0.00     0.091 A 
ATOM     81  F   UNL A   1      41.443  22.817  28.619  1.00  0.00    -0.205 F 
ATOM     82  C   UNL A   1      42.671  22.374  25.201  1.00  0.00     0.022 A 
BRANCH  80  83
ATOM     83  S   UNL A   1      41.463  20.416  26.687  1.00  0.00     0.127 S 
ATOM     84  O   UNL A   1      41.834  19.770  25.431  1.00  0.00    -0.237 OA
ATOM     85  O   UNL A   1      42.230  19.979  27.854  1.00  0.00    -0.237 OA
ATOM     86  O   UNL A   1      40.034  20.556  26.929  1.00  0.00    -0.744 OA
ENDBRANCH  80  83
ENDBRANCH  52  76
BRANCH  64  87
ATOM     87  C   UNL A   1      47.113  25.963  32.344  1.00  0.00     0.023 A 
ATOM     88  C   UNL A   1      48.331  26.391  31.779  1.00  0.00     0.012 A 
ATOM     89  C   UNL A   1      47.130  25.023  33.393  1.00  0.00     0.148 A 
ATOM     90  C   UNL A   1      49.542  25.865  32.225  1.00  0.00     0.002 A 
ATOM     91  C   UNL A   1      48.344  24.544  33.870  1.00  0.00     0.091 A 
ATOM     92  F   UNL A   1      45.960  24.616  33.906  1.00  0.00    -0.205 F 
ATOM     93  C   UNL A   1      49.549  24.952  33.278  1.00  0.00     0.022 A 
BRANCH  91  94
ATOM     94  S   UNL A   1      48.457  23.444  35.285  1.00  0.00     0.127 S 
ATOM     95  O   UNL A   1      48.051  22.165  34.702  1.00  0.00    -0.237 OA
ATOM     96  O   UNL A   1      49.876  23.533  35.632  1.00  0.00    -0.237 OA
ATOM     97  O   UNL A   1      47.553  23.986  36.291  1.00  0.00    -0.744 OA
ENDBRANCH  91  94
ENDBRANCH  64  87
ENDBRANCH  38  39
ENDBRANCH  30  33
ENDBRANCH  28  29
ENDBRANCH  27  28
ENDBRANCH  26  27
ENDBRANCH   1  26
TORSDOF 19
ENDMDL
MODEL 3
REMARK VINA RESULT:     -11.8      2.224      8.112
REMARK SMILES C[C@@H](C(=O)NCCCCCCNC(=O)c1ccc(-c2c3nc(c(-c4cccc(S(=O)(=O)[O-])c4F)c4ccc([nH]4)c(-c4cccc(S(=O)(=O)[O-])c4F)c4nc(c(-c5cccc(S(=O)(=O)[O-])c5F)c5ccc2[nH]5)C=C4)C=C3)cc1)c1ccccc1-c1ccn(C(F)F)c(=O)c1
REMARK SMILES IDX 8 1 7 2 6 3 5 4 3 5 4 6 2 8 1 9 78 10 79 11 83 12 80 13
REMARK SMILES IDX 82 14 81 15 84 16 85 17 93 18 86 19 91 20 87 21 92 22 88 23
REMARK SMILES IDX 89 24 90 25 9 26 10 27 11 28 12 29 13 30 14 32 15 33 16 34
REMARK SMILES IDX 77 35 17 36 76 37 18 38 19 39 20 40 70 41 21 42 75 43 69 44
REMARK SMILES IDX 71 45 22 46 74 47 68 48 67 49 23 51 55 52 35 53 54 54 36 55
REMARK SMILES IDX 39 56 53 57 72 58 37 59 38 60 52 62 73 63 40 64 24 65 25 66
REMARK SMILES IDX 33 67 26 68 28 69 34 70 27 71 29 72 30 73 31 74 32 75 56 76
REMARK SMILES IDX 57 77 65 78 58 79 60 80 66 81 59 82 61 83 62 84 63 85 64 86
REMARK SMILES IDX 41 87 42 88 50 89 43 90 45 91 51 92 44 93 46 94 47 95 48 96
REMARK SMILES IDX 49 97
REMARK H PARENT 5 7 12 31 71 50 39 61
REMARK Flexibility Score: inf
ROOT
ATOM      1  C   UNL A   1      32.557  29.638  27.031  1.00  0.00     0.002 C 
ENDROOT
BRANCH   1   2
ATOM      2  C   UNL A   1      32.595  28.117  26.836  1.00  0.00     0.021 C 
BRANCH   2   3
ATOM      3  C   UNL A   1      33.816  27.605  26.067  1.00  0.00     0.116 C 
BRANCH   3   4
ATOM      4  N   UNL A   1      34.040  28.391  24.870  1.00  0.00    -0.356 N 
ATOM      5  C   UNL A   1      33.728  28.141  23.564  1.00  0.00     0.227 C 
ATOM      6  O   UNL A   1      34.206  28.931  22.749  1.00  0.00    -0.274 OA
ATOM      7  H   UNL A   1      34.495  29.251  25.025  1.00  0.00     0.163 HD
BRANCH   5   8
ATOM      8  C   UNL A   1      32.828  26.939  23.210  1.00  0.00     0.106 C 
ATOM      9  C   UNL A   1      33.169  26.406  21.816  1.00  0.00     0.023 C 
BRANCH   8  10
ATOM     10  C   UNL A   1      31.304  27.128  23.340  1.00  0.00    -0.028 A 
ATOM     11  C   UNL A   1      30.660  28.273  22.831  1.00  0.00     0.005 A 
ATOM     12  C   UNL A   1      30.479  26.113  23.899  1.00  0.00    -0.014 A 
ATOM     13  C   UNL A   1      29.277  28.449  22.924  1.00  0.00     0.000 A 
ATOM     14  C   UNL A   1      29.085  26.305  23.986  1.00  0.00     0.009 A 
ATOM     15  C   UNL A   1      28.489  27.469  23.507  1.00  0.00     0.001 A 
BRANCH  12  16
ATOM     16  C   UNL A   1      31.007  24.793  24.323  1.00  0.00    -0.011 A 
ATOM     17  C   UNL A   1      31.485  24.503  25.660  1.00  0.00     0.027 A 
ATOM     18  C   UNL A   1      31.106  23.843  23.375  1.00  0.00     0.080 A 
ATOM     19  C   UNL A   1      32.127  23.356  25.916  1.00  0.00     0.095 A 
ATOM     20  C   UNL A   1      31.771  22.542  23.657  1.00  0.00     0.255 A 
ATOM     21  N   UNL A   1      32.296  22.400  24.930  1.00  0.00    -0.258 N 
ATOM     22  O   UNL A   1      31.833  21.716  22.752  1.00  0.00    -0.269 OA
BRANCH  21  23
ATOM     23  C   UNL A   1      33.053  21.200  25.189  1.00  0.00     0.451 C 
ATOM     24  F   UNL A   1      33.757  21.310  26.342  1.00  0.00    -0.185 F 
ATOM     25  F   UNL A   1      32.224  20.134  25.304  1.00  0.00    -0.185 F 
ENDBRANCH  21  23
ENDBRANCH  12  16
ENDBRANCH   8  10
ENDBRANCH   5   8
ENDBRANCH   3   4
ENDBRANCH   2   3
ENDBRANCH   1   2
BRANCH   1  26
ATOM     26  C   UNL A   1      31.470  30.366  26.238  1.00  0.00     0.002 C 
BRANCH  26  27
ATOM     27  C   UNL A   1      31.419  31.878  26.462  1.00  0.00     0.021 C 
BRANCH  27  28
ATOM     28  C   UNL A   1      32.673  32.466  27.100  1.00  0.00     0.116 C 
BRANCH  28  29
ATOM     29  N   UNL A   1      32.506  33.872  27.437  1.00  0.00    -0.352 N 
ATOM     30  C   UNL A   1      33.118  34.601  28.425  1.00  0.00     0.251 C 
ATOM     31  H   UNL A   1      31.864  34.370  26.878  1.00  0.00     0.163 HD
ATOM     32  O   UNL A   1      32.711  35.726  28.705  1.00  0.00    -0.269 OA
BRANCH  30  33
ATOM     33  C   UNL A   1      34.257  34.016  29.165  1.00  0.00     0.039 A 
ATOM     34  C   UNL A   1      34.016  32.998  30.089  1.00  0.00     0.014 A 
ATOM     35  C   UNL A   1      35.560  34.468  28.937  1.00  0.00     0.014 A 
ATOM     36  C   UNL A   1      35.091  32.392  30.743  1.00  0.00     0.010 A 
ATOM     37  C   UNL A   1      36.634  33.810  29.531  1.00  0.00     0.010 A 
ATOM     38  C   UNL A   1      36.411  32.769  30.446  1.00  0.00    -0.014 A 
BRANCH  38  39
ATOM     39  C   UNL A   1      37.569  32.080  31.072  1.00  0.00     0.031 A 
ATOM     40  C   UNL A   1      38.335  31.034  30.309  1.00  0.00     0.074 A 
ATOM     41  C   UNL A   1      37.880  32.340  32.358  1.00  0.00     0.049 A 
ATOM     42  N   UNL A   1      39.337  30.294  30.706  1.00  0.00    -0.248 NA
ATOM     43  C   UNL A   1      37.906  30.765  28.925  1.00  0.00     0.031 C 
ATOM     44  C   UNL A   1      37.166  33.277  33.229  1.00  0.00     0.029 A 
ATOM     45  N   UNL A   1      38.861  31.821  33.166  1.00  0.00    -0.354 N 
ATOM     46  C   UNL A   1      39.635  29.451  29.642  1.00  0.00     0.074 A 
ATOM     47  C   UNL A   1      38.686  29.747  28.591  1.00  0.00     0.031 C 
ATOM     48  C   UNL A   1      37.735  33.269  34.445  1.00  0.00     0.029 A 
ATOM     49  C   UNL A   1      38.828  32.303  34.454  1.00  0.00     0.049 A 
ATOM     50  H   UNL A   1      39.526  31.166  32.853  1.00  0.00     0.167 HD
ATOM     51  C   UNL A   1      40.624  28.532  29.538  1.00  0.00     0.034 A 
ATOM     52  C   UNL A   1      39.583  31.992  35.527  1.00  0.00     0.034 A 
ATOM     53  C   UNL A   1      41.588  28.266  30.571  1.00  0.00     0.049 A 
ATOM     54  C   UNL A   1      40.693  30.987  35.373  1.00  0.00     0.074 A 
ATOM     55  C   UNL A   1      42.680  27.417  30.528  1.00  0.00     0.029 A 
ATOM     56  N   UNL A   1      41.571  28.831  31.836  1.00  0.00    -0.354 N 
ATOM     57  N   UNL A   1      41.057  30.316  34.307  1.00  0.00    -0.248 NA
ATOM     58  C   UNL A   1      41.522  30.724  36.559  1.00  0.00     0.031 C 
ATOM     59  C   UNL A   1      43.302  27.442  31.780  1.00  0.00     0.029 A 
ATOM     60  C   UNL A   1      42.624  28.340  32.588  1.00  0.00     0.049 A 
ATOM     61  H   UNL A   1      40.908  29.486  32.153  1.00  0.00     0.167 HD
ATOM     62  C   UNL A   1      42.178  29.585  34.681  1.00  0.00     0.074 A 
ATOM     63  C   UNL A   1      42.445  29.911  36.066  1.00  0.00     0.031 C 
ATOM     64  C   UNL A   1      42.912  28.713  33.948  1.00  0.00     0.034 A 
BRANCH  51  65
ATOM     65  C   UNL A   1      40.745  27.769  28.244  1.00  0.00     0.023 A 
ATOM     66  C   UNL A   1      41.445  28.339  27.160  1.00  0.00     0.012 A 
ATOM     67  C   UNL A   1      40.238  26.460  28.127  1.00  0.00     0.148 A 
ATOM     68  C   UNL A   1      41.612  27.631  25.971  1.00  0.00     0.002 A 
ATOM     69  C   UNL A   1      40.450  25.743  26.956  1.00  0.00     0.091 A 
ATOM     70  F   UNL A   1      39.561  25.943  29.161  1.00  0.00    -0.205 F 
ATOM     71  C   UNL A   1      41.124  26.330  25.873  1.00  0.00     0.022 A 
BRANCH  69  72
ATOM     72  S   UNL A   1      39.938  24.033  26.759  1.00  0.00     0.127 S 
ATOM     73  O   UNL A   1      40.922  23.541  25.795  1.00  0.00    -0.237 OA
ATOM     74  O   UNL A   1      40.097  23.508  28.115  1.00  0.00    -0.237 OA
ATOM     75  O   UNL A   1      38.564  24.074  26.278  1.00  0.00    -0.744 OA
ENDBRANCH  69  72
ENDBRANCH  51  65
BRANCH  52  76
ATOM     76  C   UNL A   1      39.347  32.672  36.834  1.00  0.00     0.023 A 
ATOM     77  C   UNL A   1      40.087  33.824  37.161  1.00  0.00     0.012 A 
ATOM     78  C   UNL A   1      38.393  32.186  37.747  1.00  0.00     0.148 A 
ATOM     79  C   UNL A   1      39.911  34.456  38.393  1.00  0.00     0.002 A 
ATOM     80  C   UNL A   1      38.180  32.854  38.947  1.00  0.00     0.091 A 
ATOM     81  F   UNL A   1      37.705  31.084  37.422  1.00  0.00    -0.205 F 
ATOM     82  C   UNL A   1      38.953  33.977  39.282  1.00  0.00     0.022 A 
BRANCH  80  83
ATOM     83  S   UNL A   1      36.875  32.386  40.089  1.00  0.00     0.127 S 
ATOM     84  O   UNL A   1      35.708  32.346  39.212  1.00  0.00    -0.237 OA
ATOM     85  O   UNL A   1      37.338  31.080  40.559  1.00  0.00    -0.237 OA
ATOM     86  O   UNL A   1      36.859  33.420  41.115  1.00  0.00    -0.744 OA
ENDBRANCH  80  83
ENDBRANCH  52  76
BRANCH  64  87
ATOM     87  C   UNL A   1      44.113  28.081  34.605  1.00  0.00     0.023 A 
ATOM     88  C   UNL A   1      45.345  28.764  34.634  1.00  0.00     0.012 A 
ATOM     89  C   UNL A   1      43.995  26.838  35.257  1.00  0.00     0.148 A 
ATOM     90  C   UNL A   1      46.451  28.203  35.271  1.00  0.00     0.002 A 
ATOM     91  C   UNL A   1      45.086  26.310  35.937  1.00  0.00     0.091 A 
ATOM     92  F   UNL A   1      42.819  26.197  35.203  1.00  0.00    -0.205 F 
ATOM     93  C   UNL A   1      46.318  26.983  35.932  1.00  0.00     0.022 A 
BRANCH  91  94
ATOM     94  S   UNL A   1      44.982  24.797  36.899  1.00  0.00     0.127 S 
ATOM     95  O   UNL A   1      46.385  24.559  37.233  1.00  0.00    -0.237 OA
ATOM     96  O   UNL A   1      44.147  25.207  38.028  1.00  0.00    -0.237 OA
ATOM     97  O   UNL A   1      44.371  23.805  36.024  1.00  0.00    -0.744 OA
ENDBRANCH  91  94
ENDBRANCH  64  87
ENDBRANCH  38  39
ENDBRANCH  30  33
ENDBRANCH  28  29
ENDBRANCH  27  28
ENDBRANCH  26  27
ENDBRANCH   1  26
TORSDOF 19
ENDMDL
