MODEL 1
REMARK VINA RESULT:     -13.2      0.000      0.000
REMARK SMILES CC(=O)O[C@@H]1CC[C@@]23C(=O)O[C@]4(CC[C@]2(O)C1)[C@H]3CC[C@]1(C)[C@H](C(=O)NCCCCCCNC(=O)c2ccc(-c3c5nc(c(-c6cccc(S(=O)(=O)[O-])c6F)c6ccc([nH]6)c(-c6cccc(S(=O)(=O)[O-])c6F)c6nc(c(-c7cccc(S(=O)(=O)[O-])c7F)c7ccc3[nH]7)C=C6)C=C5)cc2)CC[C@@H]14
REMARK SMILES IDX 30 1 29 2 28 3 27 4 26 5 24 6 25 7 23 9 5 10 6 11 17 12 7 13
REMARK SMILES IDX 15 14 8 15 14 16 9 17 18 18 13 19 10 20 11 21 12 22 19 23
REMARK SMILES IDX 101 24 20 25 21 26 100 27 22 28 99 29 4 30 2 31 1 32 3 33
REMARK SMILES IDX 16 34 31 36 32 37 33 38 34 39 35 41 36 42 37 43 98 44 38 45
REMARK SMILES IDX 97 46 39 47 40 48 41 49 91 50 42 51 96 52 90 53 92 54 43 55
REMARK SMILES IDX 95 56 89 57 88 58 44 60 76 61 56 62 75 63 57 64 60 65 74 66
REMARK SMILES IDX 93 67 58 68 59 69 73 71 94 72 61 73 45 74 46 75 54 76 47 77
REMARK SMILES IDX 49 78 55 79 48 80 50 81 51 82 52 83 53 84 77 85 78 86 86 87
REMARK SMILES IDX 79 88 81 89 87 90 80 91 82 92 83 93 84 94 85 95 62 96 63 97
REMARK SMILES IDX 71 98 64 99 66 100 72 101 65 102 67 103 68 104 69 105 70 106
REMARK H PARENT 26 8 16 35 33 40 92 59 60 70
REMARK Flexibility Score: inf
ROOT
ATOM      1  C   UNL A   1      35.968  20.783  25.348  1.00  0.00     0.002 C 
ENDROOT
BRANCH   1   2
ATOM      2  C   UNL A   1      35.604  19.480  24.637  1.00  0.00     0.002 C 
BRANCH   2   3
ATOM      3  C   UNL A   1      34.207  18.964  24.976  1.00  0.00     0.021 C 
BRANCH   3   4
ATOM      4  C   UNL A   1      33.130  19.359  23.951  1.00  0.00     0.116 C 
BRANCH   4   5
ATOM      5  N   UNL A   1      32.096  20.116  24.626  1.00  0.00    -0.356 N 
ATOM      6  C   UNL A   1      32.047  21.383  25.095  1.00  0.00     0.223 C 
ATOM      7  O   UNL A   1      31.124  21.616  25.890  1.00  0.00    -0.275 OA
ATOM      8  H   UNL A   1      31.265  19.608  24.772  1.00  0.00     0.163 HD
BRANCH   6   9
ATOM      9  C   UNL A   1      32.947  22.546  24.658  1.00  0.00     0.085 C 
ATOM     10  C   UNL A   1      32.208  30.058  26.924  1.00  0.00     0.179 C 
ATOM     11  C   UNL A   1      31.992  28.656  27.450  1.00  0.00     0.047 C 
ATOM     12  C   UNL A   1      31.468  30.159  25.564  1.00  0.00     0.081 C 
ATOM     13  C   UNL A   1      32.533  27.692  26.413  1.00  0.00     0.026 C 
ATOM     14  C   UNL A   1      31.579  28.958  24.566  1.00  0.00     0.085 C 
ATOM     15  C   UNL A   1      31.437  27.569  25.081  1.00  0.00     0.103 C 
ATOM     16  C   UNL A   1      33.036  28.866  23.912  1.00  0.00     0.041 C 
ATOM     17  C   UNL A   1      30.938  26.358  25.669  1.00  0.00     0.316 C 
ATOM     18  C   UNL A   1      31.643  26.619  23.615  1.00  0.00     0.054 C 
ATOM     19  C   UNL A   1      33.748  27.373  23.917  1.00  0.00     0.052 C 
ATOM     20  O   UNL A   1      29.976  26.064  26.354  1.00  0.00    -0.251 OA
ATOM     21  O   UNL A   1      32.086  25.587  25.410  1.00  0.00    -0.458 OA
ATOM     22  C   UNL A   1      32.842  26.054  24.199  1.00  0.00     0.120 C 
ATOM     23  C   UNL A   1      30.741  25.492  23.053  1.00  0.00     0.009 C 
ATOM     24  C   UNL A   1      33.573  24.789  23.806  1.00  0.00     0.040 C 
ATOM     25  C   UNL A   1      31.152  24.018  23.325  1.00  0.00     0.008 C 
ATOM     26  C   UNL A   1      32.633  23.584  23.501  1.00  0.00    -0.014 C 
ATOM     27  C   UNL A   1      34.414  24.357  25.050  1.00  0.00     0.009 C 
ATOM     28  C   UNL A   1      33.102  22.919  22.187  1.00  0.00     0.012 C 
ATOM     29  C   UNL A   1      33.571  23.328  25.804  1.00  0.00     0.014 C 
BRANCH  10  30
ATOM     30  O   UNL A   1      33.617  30.386  26.749  1.00  0.00    -0.462 OA
BRANCH  30  31
ATOM     31  C   UNL A   1      34.196  31.257  27.631  1.00  0.00     0.302 C 
ATOM     32  C   UNL A   1      35.434  30.674  28.246  1.00  0.00     0.139 C 
ATOM     33  O   UNL A   1      33.814  32.388  27.892  1.00  0.00    -0.253 OA
ENDBRANCH  30  31
ENDBRANCH  10  30
BRANCH  14  34
ATOM     34  O   UNL A   1      30.594  29.145  23.547  1.00  0.00    -0.389 OA
ATOM     35  H   UNL A   1      30.973  28.916  22.684  1.00  0.00     0.211 HD
ENDBRANCH  14  34
ENDBRANCH   6   9
ENDBRANCH   4   5
ENDBRANCH   3   4
ENDBRANCH   2   3
ENDBRANCH   1   2
BRANCH   1  36
ATOM     36  C   UNL A   1      36.875  21.716  24.541  1.00  0.00     0.021 C 
BRANCH  36  37
ATOM     37  C   UNL A   1      38.012  22.335  25.349  1.00  0.00     0.116 C 
BRANCH  37  38
ATOM     38  N   UNL A   1      38.715  21.328  26.132  1.00  0.00    -0.352 N 
ATOM     39  C   UNL A   1      39.860  21.456  26.874  1.00  0.00     0.251 C 
ATOM     40  H   UNL A   1      38.311  20.430  26.128  1.00  0.00     0.163 HD
ATOM     41  O   UNL A   1      40.473  20.459  27.240  1.00  0.00    -0.269 OA
BRANCH  39  42
ATOM     42  C   UNL A   1      40.344  22.805  27.231  1.00  0.00     0.039 A 
ATOM     43  C   UNL A   1      41.348  22.933  28.191  1.00  0.00     0.014 A 
ATOM     44  C   UNL A   1      39.794  23.937  26.624  1.00  0.00     0.014 A 
ATOM     45  C   UNL A   1      41.825  24.203  28.516  1.00  0.00     0.010 A 
ATOM     46  C   UNL A   1      40.333  25.192  26.883  1.00  0.00     0.010 A 
ATOM     47  C   UNL A   1      41.338  25.341  27.849  1.00  0.00    -0.014 A 
BRANCH  47  48
ATOM     48  C   UNL A   1      41.877  26.689  28.157  1.00  0.00     0.031 A 
ATOM     49  C   UNL A   1      43.270  27.069  27.736  1.00  0.00     0.074 A 
ATOM     50  C   UNL A   1      41.128  27.551  28.872  1.00  0.00     0.049 A 
ATOM     51  N   UNL A   1      43.898  28.204  27.903  1.00  0.00    -0.248 NA
ATOM     52  C   UNL A   1      44.075  26.035  27.063  1.00  0.00     0.031 C 
ATOM     53  C   UNL A   1      39.802  27.263  29.421  1.00  0.00     0.029 A 
ATOM     54  N   UNL A   1      41.383  28.838  29.275  1.00  0.00    -0.354 N 
ATOM     55  C   UNL A   1      45.177  28.009  27.394  1.00  0.00     0.074 A 
ATOM     56  C   UNL A   1      45.249  26.637  26.945  1.00  0.00     0.031 C 
ATOM     57  C   UNL A   1      39.352  28.346  30.074  1.00  0.00     0.029 A 
ATOM     58  C   UNL A   1      40.369  29.392  30.021  1.00  0.00     0.049 A 
ATOM     59  H   UNL A   1      42.212  29.319  29.052  1.00  0.00     0.167 HD
ATOM     60  C   UNL A   1      46.191  28.901  27.285  1.00  0.00     0.034 A 
ATOM     61  C   UNL A   1      40.271  30.602  30.603  1.00  0.00     0.034 A 
ATOM     62  C   UNL A   1      46.102  30.272  27.705  1.00  0.00     0.049 A 
ATOM     63  C   UNL A   1      41.388  31.590  30.423  1.00  0.00     0.074 A 
ATOM     64  C   UNL A   1      47.033  31.282  27.545  1.00  0.00     0.029 A 
ATOM     65  N   UNL A   1      45.028  30.821  28.388  1.00  0.00    -0.354 N 
ATOM     66  N   UNL A   1      42.525  31.443  29.785  1.00  0.00    -0.248 NA
ATOM     67  C   UNL A   1      41.197  32.924  31.010  1.00  0.00     0.031 C 
ATOM     68  C   UNL A   1      46.542  32.431  28.175  1.00  0.00     0.029 A 
ATOM     69  C   UNL A   1      45.281  32.152  28.677  1.00  0.00     0.049 A 
ATOM     70  H   UNL A   1      44.205  30.338  28.631  1.00  0.00     0.167 HD
ATOM     71  C   UNL A   1      43.166  32.674  29.860  1.00  0.00     0.074 A 
ATOM     72  C   UNL A   1      42.284  33.559  30.592  1.00  0.00     0.031 C 
ATOM     73  C   UNL A   1      44.380  33.035  29.373  1.00  0.00     0.034 A 
BRANCH  60  74
ATOM     74  C   UNL A   1      47.480  28.424  26.663  1.00  0.00     0.023 A 
ATOM     75  C   UNL A   1      48.605  28.174  27.475  1.00  0.00     0.012 A 
ATOM     76  C   UNL A   1      47.561  28.176  25.279  1.00  0.00     0.148 A 
ATOM     77  C   UNL A   1      49.802  27.729  26.915  1.00  0.00     0.002 A 
ATOM     78  C   UNL A   1      48.741  27.683  24.735  1.00  0.00     0.091 A 
ATOM     79  F   UNL A   1      46.488  28.438  24.518  1.00  0.00    -0.205 F 
ATOM     80  C   UNL A   1      49.867  27.473  25.549  1.00  0.00     0.022 A 
BRANCH  78  81
ATOM     81  S   UNL A   1      48.897  27.240  23.002  1.00  0.00     0.127 S 
ATOM     82  O   UNL A   1      50.349  27.164  22.847  1.00  0.00    -0.237 OA
ATOM     83  O   UNL A   1      48.210  25.949  22.952  1.00  0.00    -0.237 OA
ATOM     84  O   UNL A   1      48.245  28.306  22.253  1.00  0.00    -0.744 OA
ENDBRANCH  78  81
ENDBRANCH  60  74
BRANCH  61  85
ATOM     85  C   UNL A   1      39.041  30.957  31.365  1.00  0.00     0.023 A 
ATOM     86  C   UNL A   1      38.864  30.470  32.674  1.00  0.00     0.012 A 
ATOM     87  C   UNL A   1      38.066  31.808  30.810  1.00  0.00     0.148 A 
ATOM     88  C   UNL A   1      37.722  30.798  33.406  1.00  0.00     0.002 A 
ATOM     89  C   UNL A   1      36.961  32.178  31.564  1.00  0.00     0.091 A 
ATOM     90  F   UNL A   1      38.254  32.256  29.560  1.00  0.00    -0.205 F 
ATOM     91  C   UNL A   1      36.777  31.660  32.856  1.00  0.00     0.022 A 
BRANCH  89  92
ATOM     92  S   UNL A   1      35.758  33.380  30.987  1.00  0.00     0.127 S 
ATOM     93  O   UNL A   1      35.910  34.451  31.969  1.00  0.00    -0.237 OA
ATOM     94  O   UNL A   1      36.265  33.691  29.650  1.00  0.00    -0.237 OA
ATOM     95  O   UNL A   1      34.473  32.694  31.000  1.00  0.00    -0.744 OA
ENDBRANCH  89  92
ENDBRANCH  61  85
BRANCH  73  96
ATOM     96  C   UNL A   1      44.816  34.463  29.568  1.00  0.00     0.023 A 
ATOM     97  C   UNL A   1      45.409  34.865  30.782  1.00  0.00     0.012 A 
ATOM     98  C   UNL A   1      44.703  35.390  28.513  1.00  0.00     0.148 A 
ATOM     99  C   UNL A   1      45.848  36.178  30.954  1.00  0.00     0.002 A 
ATOM    100  C   UNL A   1      45.195  36.680  28.671  1.00  0.00     0.091 A 
ATOM    101  F   UNL A   1      44.121  34.993  27.371  1.00  0.00    -0.205 F 
ATOM    102  C   UNL A   1      45.752  37.080  29.895  1.00  0.00     0.022 A 
BRANCH 100 103
ATOM    103  S   UNL A   1      45.209  37.877  27.332  1.00  0.00     0.127 S 
ATOM    104  O   UNL A   1      43.790  37.955  26.989  1.00  0.00    -0.237 OA
ATOM    105  O   UNL A   1      45.745  39.069  27.991  1.00  0.00    -0.237 OA
ATOM    106  O   UNL A   1      46.070  37.317  26.300  1.00  0.00    -0.744 OA
ENDBRANCH 100 103
ENDBRANCH  73  96
ENDBRANCH  47  48
ENDBRANCH  39  42
ENDBRANCH  37  38
ENDBRANCH  36  37
ENDBRANCH   1  36
TORSDOF 19
ENDMDL
MODEL 2
REMARK VINA RESULT:     -13.2      5.215      9.047
REMARK SMILES CC(=O)O[C@@H]1CC[C@@]23C(=O)O[C@]4(CC[C@]2(O)C1)[C@H]3CC[C@]1(C)[C@H](C(=O)NCCCCCCNC(=O)c2ccc(-c3c5nc(c(-c6cccc(S(=O)(=O)[O-])c6F)c6ccc([nH]6)c(-c6cccc(S(=O)(=O)[O-])c6F)c6nc(c(-c7cccc(S(=O)(=O)[O-])c7F)c7ccc3[nH]7)C=C6)C=C5)cc2)CC[C@@H]14
REMARK SMILES IDX 30 1 29 2 28 3 27 4 26 5 24 6 25 7 23 9 5 10 6 11 17 12 7 13
REMARK SMILES IDX 15 14 8 15 14 16 9 17 18 18 13 19 10 20 11 21 12 22 19 23
REMARK SMILES IDX 101 24 20 25 21 26 100 27 22 28 99 29 4 30 2 31 1 32 3 33
REMARK SMILES IDX 16 34 31 36 32 37 33 38 34 39 35 41 36 42 37 43 98 44 38 45
REMARK SMILES IDX 97 46 39 47 40 48 41 49 91 50 42 51 96 52 90 53 92 54 43 55
REMARK SMILES IDX 95 56 89 57 88 58 44 60 76 61 56 62 75 63 57 64 60 65 74 66
REMARK SMILES IDX 93 67 58 68 59 69 73 71 94 72 61 73 45 74 46 75 54 76 47 77
REMARK SMILES IDX 49 78 55 79 48 80 50 81 51 82 52 83 53 84 77 85 78 86 86 87
REMARK SMILES IDX 79 88 81 89 87 90 80 91 82 92 83 93 84 94 85 95 62 96 63 97
REMARK SMILES IDX 71 98 64 99 66 100 72 101 65 102 67 103 68 104 69 105 70 106
REMARK H PARENT 26 8 16 35 33 40 92 59 60 70
REMARK Flexibility Score: inf
ROOT
ATOM      1  C   UNL A   1      31.431  31.330  26.319  1.00  0.00     0.002 C 
ENDROOT
BRANCH   1   2
ATOM      2  C   UNL A   1      30.624  31.132  25.036  1.00  0.00     0.002 C 
BRANCH   2   3
ATOM      3  C   UNL A   1      30.861  29.781  24.363  1.00  0.00     0.021 C 
BRANCH   3   4
ATOM      4  C   UNL A   1      29.662  29.271  23.547  1.00  0.00     0.116 C 
BRANCH   4   5
ATOM      5  N   UNL A   1      30.109  28.210  22.668  1.00  0.00    -0.356 N 
ATOM      6  C   UNL A   1      31.074  27.271  22.785  1.00  0.00     0.223 C 
ATOM      7  O   UNL A   1      31.399  26.714  21.726  1.00  0.00    -0.275 OA
ATOM      8  H   UNL A   1      29.612  28.164  21.819  1.00  0.00     0.163 HD
BRANCH   6   9
ATOM      9  C   UNL A   1      31.706  26.779  24.094  1.00  0.00     0.085 C 
ATOM     10  C   UNL A   1      37.426  21.394  24.720  1.00  0.00     0.179 C 
ATOM     11  C   UNL A   1      36.954  22.490  23.789  1.00  0.00     0.047 C 
ATOM     12  C   UNL A   1      36.213  20.467  24.992  1.00  0.00     0.081 C 
ATOM     13  C   UNL A   1      35.808  23.207  24.474  1.00  0.00     0.026 C 
ATOM     14  C   UNL A   1      34.818  21.126  25.256  1.00  0.00     0.085 C 
ATOM     15  C   UNL A   1      34.369  22.251  24.390  1.00  0.00     0.103 C 
ATOM     16  C   UNL A   1      34.760  21.835  26.688  1.00  0.00     0.041 C 
ATOM     17  C   UNL A   1      33.958  23.058  23.277  1.00  0.00     0.316 C 
ATOM     18  C   UNL A   1      32.796  22.629  25.080  1.00  0.00     0.054 C 
ATOM     19  C   UNL A   1      34.155  23.374  26.720  1.00  0.00     0.052 C 
ATOM     20  O   UNL A   1      33.985  22.936  22.066  1.00  0.00    -0.251 OA
ATOM     21  O   UNL A   1      33.709  24.223  24.025  1.00  0.00    -0.458 OA
ATOM     22  C   UNL A   1      33.316  23.932  25.445  1.00  0.00     0.120 C 
ATOM     23  C   UNL A   1      31.432  22.782  24.362  1.00  0.00     0.009 C 
ATOM     24  C   UNL A   1      32.547  25.185  25.798  1.00  0.00     0.040 C 
ATOM     25  C   UNL A   1      30.938  24.215  24.020  1.00  0.00     0.008 C 
ATOM     26  C   UNL A   1      31.319  25.454  24.875  1.00  0.00    -0.014 C 
ATOM     27  C   UNL A   1      33.519  26.385  25.558  1.00  0.00     0.009 C 
ATOM     28  C   UNL A   1      30.109  25.819  25.767  1.00  0.00     0.012 C 
ATOM     29  C   UNL A   1      33.220  26.908  24.152  1.00  0.00     0.014 C 
BRANCH  10  30
ATOM     30  O   UNL A   1      37.952  21.908  25.978  1.00  0.00    -0.462 OA
BRANCH  30  31
ATOM     31  C   UNL A   1      39.304  21.867  26.183  1.00  0.00     0.302 C 
ATOM     32  C   UNL A   1      39.831  20.466  26.097  1.00  0.00     0.139 C 
ATOM     33  O   UNL A   1      40.038  22.825  26.376  1.00  0.00    -0.253 OA
ENDBRANCH  30  31
ENDBRANCH  10  30
BRANCH  14  34
ATOM     34  O   UNL A   1      33.828  20.097  25.176  1.00  0.00    -0.389 OA
ATOM     35  H   UNL A   1      33.196  20.310  24.471  1.00  0.00     0.211 HD
ENDBRANCH  14  34
ENDBRANCH   6   9
ENDBRANCH   4   5
ENDBRANCH   3   4
ENDBRANCH   2   3
ENDBRANCH   1   2
BRANCH   1  36
ATOM     36  C   UNL A   1      31.470  32.773  26.829  1.00  0.00     0.021 C 
BRANCH  36  37
ATOM     37  C   UNL A   1      32.824  33.203  27.385  1.00  0.00     0.116 C 
BRANCH  37  38
ATOM     38  N   UNL A   1      32.792  34.583  27.849  1.00  0.00    -0.352 N 
ATOM     39  C   UNL A   1      33.410  35.143  28.936  1.00  0.00     0.251 C 
ATOM     40  H   UNL A   1      32.250  35.201  27.305  1.00  0.00     0.163 HD
ATOM     41  O   UNL A   1      33.059  36.244  29.347  1.00  0.00    -0.269 OA
BRANCH  39  42
ATOM     42  C   UNL A   1      34.504  34.409  29.604  1.00  0.00     0.039 A 
ATOM     43  C   UNL A   1      35.805  34.540  29.116  1.00  0.00     0.014 A 
ATOM     44  C   UNL A   1      34.237  33.585  30.700  1.00  0.00     0.014 A 
ATOM     45  C   UNL A   1      36.846  33.867  29.755  1.00  0.00     0.010 A 
ATOM     46  C   UNL A   1      35.287  32.989  31.389  1.00  0.00     0.010 A 
ATOM     47  C   UNL A   1      36.599  33.105  30.911  1.00  0.00    -0.014 A 
BRANCH  47  48
ATOM     48  C   UNL A   1      37.711  32.427  31.623  1.00  0.00     0.031 A 
ATOM     49  C   UNL A   1      38.464  31.301  30.968  1.00  0.00     0.074 A 
ATOM     50  C   UNL A   1      38.003  32.788  32.888  1.00  0.00     0.049 A 
ATOM     51  N   UNL A   1      39.472  30.608  31.431  1.00  0.00    -0.248 NA
ATOM     52  C   UNL A   1      38.013  30.879  29.631  1.00  0.00     0.031 C 
ATOM     53  C   UNL A   1      37.280  33.798  33.665  1.00  0.00     0.029 A 
ATOM     54  N   UNL A   1      38.971  32.336  33.749  1.00  0.00    -0.354 N 
ATOM     55  C   UNL A   1      39.749  29.649  30.464  1.00  0.00     0.074 A 
ATOM     56  C   UNL A   1      38.781  29.823  29.405  1.00  0.00     0.031 C 
ATOM     57  C   UNL A   1      37.840  33.901  34.880  1.00  0.00     0.029 A 
ATOM     58  C   UNL A   1      38.937  32.943  34.982  1.00  0.00     0.049 A 
ATOM     59  H   UNL A   1      39.627  31.644  33.507  1.00  0.00     0.167 HD
ATOM     60  C   UNL A   1      40.738  28.723  30.447  1.00  0.00     0.034 A 
ATOM     61  C   UNL A   1      39.698  32.746  36.076  1.00  0.00     0.034 A 
ATOM     62  C   UNL A   1      41.716  28.575  31.490  1.00  0.00     0.049 A 
ATOM     63  C   UNL A   1      40.820  31.749  36.014  1.00  0.00     0.074 A 
ATOM     64  C   UNL A   1      42.818  27.740  31.522  1.00  0.00     0.029 A 
ATOM     65  N   UNL A   1      41.698  29.262  32.694  1.00  0.00    -0.354 N 
ATOM     66  N   UNL A   1      41.176  30.969  35.021  1.00  0.00    -0.248 NA
ATOM     67  C   UNL A   1      41.671  31.630  37.206  1.00  0.00     0.031 C 
ATOM     68  C   UNL A   1      43.439  27.887  32.767  1.00  0.00     0.029 A 
ATOM     69  C   UNL A   1      42.757  28.854  33.487  1.00  0.00     0.049 A 
ATOM     70  H   UNL A   1      41.031  29.940  32.948  1.00  0.00     0.167 HD
ATOM     71  C   UNL A   1      42.313  30.296  35.454  1.00  0.00     0.074 A 
ATOM     72  C   UNL A   1      42.594  30.772  36.792  1.00  0.00     0.031 C 
ATOM     73  C   UNL A   1      43.051  29.362  34.803  1.00  0.00     0.034 A 
BRANCH  60  74
ATOM     74  C   UNL A   1      40.826  27.812  29.248  1.00  0.00     0.023 A 
ATOM     75  C   UNL A   1      40.027  26.651  29.184  1.00  0.00     0.012 A 
ATOM     76  C   UNL A   1      41.663  28.132  28.162  1.00  0.00     0.148 A 
ATOM     77  C   UNL A   1      40.093  25.802  28.080  1.00  0.00     0.002 A 
ATOM     78  C   UNL A   1      41.686  27.309  27.043  1.00  0.00     0.091 A 
ATOM     79  F   UNL A   1      42.431  29.228  28.247  1.00  0.00    -0.205 F 
ATOM     80  C   UNL A   1      40.912  26.136  27.006  1.00  0.00     0.022 A 
BRANCH  78  81
ATOM     81  S   UNL A   1      42.642  27.698  25.574  1.00  0.00     0.127 S 
ATOM     82  O   UNL A   1      42.018  28.947  25.138  1.00  0.00    -0.237 OA
ATOM     83  O   UNL A   1      43.992  27.848  26.118  1.00  0.00    -0.237 OA
ATOM     84  O   UNL A   1      42.472  26.568  24.671  1.00  0.00    -0.744 OA
ENDBRANCH  78  81
ENDBRANCH  60  74
BRANCH  61  85
ATOM     85  C   UNL A   1      39.449  33.552  37.303  1.00  0.00     0.023 A 
ATOM     86  C   UNL A   1      39.979  34.853  37.406  1.00  0.00     0.012 A 
ATOM     87  C   UNL A   1      38.655  33.049  38.351  1.00  0.00     0.148 A 
ATOM     88  C   UNL A   1      39.749  35.626  38.545  1.00  0.00     0.002 A 
ATOM     89  C   UNL A   1      38.382  33.844  39.457  1.00  0.00     0.091 A 
ATOM     90  F   UNL A   1      38.164  31.806  38.233  1.00  0.00    -0.205 F 
ATOM     91  C   UNL A   1      38.943  35.126  39.564  1.00  0.00     0.022 A 
BRANCH  89  92
ATOM     92  S   UNL A   1      37.254  33.333  40.756  1.00  0.00     0.127 S 
ATOM     93  O   UNL A   1      37.123  34.560  41.538  1.00  0.00    -0.237 OA
ATOM     94  O   UNL A   1      36.064  32.959  39.990  1.00  0.00    -0.237 OA
ATOM     95  O   UNL A   1      37.907  32.223  41.436  1.00  0.00    -0.744 OA
ENDBRANCH  89  92
ENDBRANCH  61  85
BRANCH  73  96
ATOM     96  C   UNL A   1      44.269  28.820  35.504  1.00  0.00     0.023 A 
ATOM     97  C   UNL A   1      45.530  29.417  35.302  1.00  0.00     0.012 A 
ATOM     98  C   UNL A   1      44.145  27.760  36.423  1.00  0.00     0.148 A 
ATOM     99  C   UNL A   1      46.654  28.941  35.977  1.00  0.00     0.002 A 
ATOM    100  C   UNL A   1      45.258  27.329  37.135  1.00  0.00     0.091 A 
ATOM    101  F   UNL A   1      42.940  27.194  36.589  1.00  0.00    -0.205 F 
ATOM    102  C   UNL A   1      46.515  27.908  36.902  1.00  0.00     0.022 A 
BRANCH 100 103
ATOM    103  S   UNL A   1      45.156  26.076  38.418  1.00  0.00     0.127 S 
ATOM    104  O   UNL A   1      46.566  25.867  38.740  1.00  0.00    -0.237 OA
ATOM    105  O   UNL A   1      44.387  26.763  39.457  1.00  0.00    -0.237 OA
ATOM    106  O   UNL A   1      44.477  24.937  37.816  1.00  0.00    -0.744 OA
ENDBRANCH 100 103
ENDBRANCH  73  96
ENDBRANCH  47  48
ENDBRANCH  39  42
ENDBRANCH  37  38
ENDBRANCH  36  37
ENDBRANCH   1  36
TORSDOF 19
ENDMDL
MODEL 3
REMARK VINA RESULT:     -13.2      2.026      7.535
REMARK SMILES CC(=O)O[C@@H]1CC[C@@]23C(=O)O[C@]4(CC[C@]2(O)C1)[C@H]3CC[C@]1(C)[C@H](C(=O)NCCCCCCNC(=O)c2ccc(-c3c5nc(c(-c6cccc(S(=O)(=O)[O-])c6F)c6ccc([nH]6)c(-c6cccc(S(=O)(=O)[O-])c6F)c6nc(c(-c7cccc(S(=O)(=O)[O-])c7F)c7ccc3[nH]7)C=C6)C=C5)cc2)CC[C@@H]14
REMARK SMILES IDX 30 1 29 2 28 3 27 4 26 5 24 6 25 7 23 9 5 10 6 11 17 12 7 13
REMARK SMILES IDX 15 14 8 15 14 16 9 17 18 18 13 19 10 20 11 21 12 22 19 23
REMARK SMILES IDX 101 24 20 25 21 26 100 27 22 28 99 29 4 30 2 31 1 32 3 33
REMARK SMILES IDX 16 34 31 36 32 37 33 38 34 39 35 41 36 42 37 43 98 44 38 45
REMARK SMILES IDX 97 46 39 47 40 48 41 49 91 50 42 51 96 52 90 53 92 54 43 55
REMARK SMILES IDX 95 56 89 57 88 58 44 60 76 61 56 62 75 63 57 64 60 65 74 66
REMARK SMILES IDX 93 67 58 68 59 69 73 71 94 72 61 73 45 74 46 75 54 76 47 77
REMARK SMILES IDX 49 78 55 79 48 80 50 81 51 82 52 83 53 84 77 85 78 86 86 87
REMARK SMILES IDX 79 88 81 89 87 90 80 91 82 92 83 93 84 94 85 95 62 96 63 97
REMARK SMILES IDX 71 98 64 99 66 100 72 101 65 102 67 103 68 104 69 105 70 106
REMARK H PARENT 26 8 16 35 33 40 92 59 60 70
REMARK Flexibility Score: inf
ROOT
ATOM      1  C   UNL A   1      37.410  20.843  24.673  1.00  0.00     0.002 C 
ENDROOT
BRANCH   1   2
ATOM      2  C   UNL A   1      36.061  20.817  25.390  1.00  0.00     0.002 C 
BRANCH   2   3
ATOM      3  C   UNL A   1      34.876  20.552  24.462  1.00  0.00     0.021 C 
BRANCH   3   4
ATOM      4  C   UNL A   1      33.846  19.562  25.032  1.00  0.00     0.116 C 
BRANCH   4   5
ATOM      5  N   UNL A   1      32.580  20.246  25.198  1.00  0.00    -0.356 N 
ATOM      6  C   UNL A   1      32.255  21.552  25.319  1.00  0.00     0.223 C 
ATOM      7  O   UNL A   1      31.114  21.774  25.752  1.00  0.00    -0.275 OA
ATOM      8  H   UNL A   1      31.804  19.640  25.228  1.00  0.00     0.163 HD
BRANCH   6   9
ATOM      9  C   UNL A   1      33.115  22.745  24.880  1.00  0.00     0.085 C 
ATOM     10  C   UNL A   1      31.959  30.269  26.921  1.00  0.00     0.179 C 
ATOM     11  C   UNL A   1      31.790  28.872  27.476  1.00  0.00     0.047 C 
ATOM     12  C   UNL A   1      31.261  30.301  25.536  1.00  0.00     0.081 C 
ATOM     13  C   UNL A   1      32.409  27.908  26.483  1.00  0.00     0.026 C 
ATOM     14  C   UNL A   1      31.460  29.082  24.574  1.00  0.00     0.085 C 
ATOM     15  C   UNL A   1      31.364  27.701  25.121  1.00  0.00     0.103 C 
ATOM     16  C   UNL A   1      32.940  29.041  23.970  1.00  0.00     0.041 C 
ATOM     17  C   UNL A   1      30.902  26.483  25.725  1.00  0.00     0.316 C 
ATOM     18  C   UNL A   1      31.662  26.725  23.688  1.00  0.00     0.054 C 
ATOM     19  C   UNL A   1      33.719  27.584  24.037  1.00  0.00     0.052 C 
ATOM     20  O   UNL A   1      29.932  26.162  26.386  1.00  0.00    -0.251 OA
ATOM     21  O   UNL A   1      32.092  25.760  25.523  1.00  0.00    -0.458 OA
ATOM     22  C   UNL A   1      32.866  26.231  24.325  1.00  0.00     0.120 C 
ATOM     23  C   UNL A   1      30.832  25.544  23.127  1.00  0.00     0.009 C 
ATOM     24  C   UNL A   1      33.666  24.993  23.989  1.00  0.00     0.040 C 
ATOM     25  C   UNL A   1      31.300  24.098  23.452  1.00  0.00     0.008 C 
ATOM     26  C   UNL A   1      32.792  23.738  23.687  1.00  0.00    -0.014 C 
ATOM     27  C   UNL A   1      34.484  24.631  25.271  1.00  0.00     0.009 C 
ATOM     28  C   UNL A   1      33.335  23.062  22.406  1.00  0.00     0.012 C 
ATOM     29  C   UNL A   1      33.664  23.583  26.025  1.00  0.00     0.014 C 
BRANCH  10  30
ATOM     30  O   UNL A   1      33.357  30.658  26.782  1.00  0.00    -0.462 OA
BRANCH  30  31
ATOM     31  C   UNL A   1      33.816  31.708  27.529  1.00  0.00     0.302 C 
ATOM     32  C   UNL A   1      35.215  31.468  28.013  1.00  0.00     0.139 C 
ATOM     33  O   UNL A   1      33.216  32.747  27.767  1.00  0.00    -0.253 OA
ENDBRANCH  30  31
ENDBRANCH  10  30
BRANCH  14  34
ATOM     34  O   UNL A   1      30.501  29.197  23.520  1.00  0.00    -0.389 OA
ATOM     35  H   UNL A   1      30.547  28.411  22.953  1.00  0.00     0.211 HD
ENDBRANCH  14  34
ENDBRANCH   6   9
ENDBRANCH   4   5
ENDBRANCH   3   4
ENDBRANCH   2   3
ENDBRANCH   1   2
BRANCH   1  36
ATOM     36  C   UNL A   1      38.372  19.726  25.087  1.00  0.00     0.021 C 
BRANCH  36  37
ATOM     37  C   UNL A   1      39.462  20.168  26.059  1.00  0.00     0.116 C 
BRANCH  37  38
ATOM     38  N   UNL A   1      40.541  19.193  26.124  1.00  0.00    -0.352 N 
ATOM     39  C   UNL A   1      41.896  19.403  26.099  1.00  0.00     0.251 C 
ATOM     40  H   UNL A   1      40.259  18.252  26.195  1.00  0.00     0.163 HD
ATOM     41  O   UNL A   1      42.661  18.469  25.879  1.00  0.00    -0.269 OA
BRANCH  39  42
ATOM     42  C   UNL A   1      42.422  20.759  26.346  1.00  0.00     0.039 A 
ATOM     43  C   UNL A   1      42.724  21.578  25.257  1.00  0.00     0.014 A 
ATOM     44  C   UNL A   1      42.628  21.212  27.652  1.00  0.00     0.014 A 
ATOM     45  C   UNL A   1      43.201  22.869  25.482  1.00  0.00     0.010 A 
ATOM     46  C   UNL A   1      43.017  22.528  27.874  1.00  0.00     0.010 A 
ATOM     47  C   UNL A   1      43.330  23.363  26.793  1.00  0.00    -0.014 A 
BRANCH  47  48
ATOM     48  C   UNL A   1      43.790  24.753  27.037  1.00  0.00     0.031 A 
ATOM     49  C   UNL A   1      42.861  25.771  27.638  1.00  0.00     0.074 A 
ATOM     50  C   UNL A   1      45.033  25.112  26.659  1.00  0.00     0.049 A 
ATOM     51  N   UNL A   1      43.096  27.022  27.938  1.00  0.00    -0.248 NA
ATOM     52  C   UNL A   1      41.480  25.341  27.915  1.00  0.00     0.031 C 
ATOM     53  C   UNL A   1      45.993  24.240  25.977  1.00  0.00     0.029 A 
ATOM     54  N   UNL A   1      45.696  26.308  26.778  1.00  0.00    -0.354 N 
ATOM     55  C   UNL A   1      41.891  27.536  28.400  1.00  0.00     0.074 A 
ATOM     56  C   UNL A   1      40.915  26.473  28.307  1.00  0.00     0.031 C 
ATOM     57  C   UNL A   1      47.126  24.924  25.753  1.00  0.00     0.029 A 
ATOM     58  C   UNL A   1      46.962  26.290  26.243  1.00  0.00     0.049 A 
ATOM     59  H   UNL A   1      45.302  27.101  27.205  1.00  0.00     0.167 HD
ATOM     60  C   UNL A   1      41.625  28.773  28.884  1.00  0.00     0.034 A 
ATOM     61  C   UNL A   1      47.887  27.265  26.151  1.00  0.00     0.034 A 
ATOM     62  C   UNL A   1      42.607  29.815  29.002  1.00  0.00     0.049 A 
ATOM     63  C   UNL A   1      47.586  28.613  26.741  1.00  0.00     0.074 A 
ATOM     64  C   UNL A   1      42.468  31.067  29.573  1.00  0.00     0.029 A 
ATOM     65  N   UNL A   1      43.905  29.737  28.521  1.00  0.00    -0.354 N 
ATOM     66  N   UNL A   1      46.493  29.029  27.334  1.00  0.00    -0.248 NA
ATOM     67  C   UNL A   1      48.658  29.618  26.685  1.00  0.00     0.031 C 
ATOM     68  C   UNL A   1      43.667  31.764  29.393  1.00  0.00     0.029 A 
ATOM     69  C   UNL A   1      44.572  30.927  28.761  1.00  0.00     0.049 A 
ATOM     70  H   UNL A   1      44.297  28.951  28.074  1.00  0.00     0.167 HD
ATOM     71  C   UNL A   1      46.757  30.327  27.755  1.00  0.00     0.074 A 
ATOM     72  C   UNL A   1      48.119  30.622  27.364  1.00  0.00     0.031 C 
ATOM     73  C   UNL A   1      45.941  31.197  28.402  1.00  0.00     0.034 A 
BRANCH  60  74
ATOM     74  C   UNL A   1      40.218  29.058  29.347  1.00  0.00     0.023 A 
ATOM     75  C   UNL A   1      39.231  29.433  28.412  1.00  0.00     0.012 A 
ATOM     76  C   UNL A   1      39.862  28.907  30.701  1.00  0.00     0.148 A 
ATOM     77  C   UNL A   1      37.924  29.695  28.824  1.00  0.00     0.002 A 
ATOM     78  C   UNL A   1      38.548  29.120  31.096  1.00  0.00     0.091 A 
ATOM     79  F   UNL A   1      40.818  28.570  31.580  1.00  0.00    -0.205 F 
ATOM     80  C   UNL A   1      37.581  29.528  30.162  1.00  0.00     0.022 A 
BRANCH  78  81
ATOM     81  S   UNL A   1      37.987  28.847  32.780  1.00  0.00     0.127 S 
ATOM     82  O   UNL A   1      36.610  29.336  32.715  1.00  0.00    -0.237 OA
ATOM     83  O   UNL A   1      38.112  27.396  32.914  1.00  0.00    -0.237 OA
ATOM     84  O   UNL A   1      38.882  29.617  33.633  1.00  0.00    -0.744 OA
ENDBRANCH  78  81
ENDBRANCH  60  74
BRANCH  61  85
ATOM     85  C   UNL A   1      49.203  26.976  25.516  1.00  0.00     0.023 A 
ATOM     86  C   UNL A   1      50.226  26.367  26.270  1.00  0.00     0.012 A 
ATOM     87  C   UNL A   1      49.431  27.266  24.158  1.00  0.00     0.148 A 
ATOM     88  C   UNL A   1      51.462  26.082  25.690  1.00  0.00     0.002 A 
ATOM     89  C   UNL A   1      50.643  26.927  23.571  1.00  0.00     0.091 A 
ATOM     90  F   UNL A   1      48.444  27.850  23.461  1.00  0.00    -0.205 F 
ATOM     91  C   UNL A   1      51.667  26.352  24.339  1.00  0.00     0.022 A 
BRANCH  89  92
ATOM     92  S   UNL A   1      50.950  27.122  21.813  1.00  0.00     0.127 S 
ATOM     93  O   UNL A   1      50.963  28.575  21.670  1.00  0.00    -0.237 OA
ATOM     94  O   UNL A   1      52.254  26.474  21.664  1.00  0.00    -0.237 OA
ATOM     95  O   UNL A   1      49.856  26.435  21.139  1.00  0.00    -0.744 OA
ENDBRANCH  89  92
ENDBRANCH  61  85
BRANCH  73  96
ATOM     96  C   UNL A   1      46.507  32.542  28.775  1.00  0.00     0.023 A 
ATOM     97  C   UNL A   1      47.174  32.715  30.004  1.00  0.00     0.012 A 
ATOM     98  C   UNL A   1      46.439  33.617  27.867  1.00  0.00     0.148 A 
ATOM     99  C   UNL A   1      47.732  33.950  30.338  1.00  0.00     0.002 A 
ATOM    100  C   UNL A   1      47.046  34.826  28.182  1.00  0.00     0.091 A 
ATOM    101  F   UNL A   1      45.785  33.437  26.710  1.00  0.00    -0.205 F 
ATOM    102  C   UNL A   1      47.679  34.999  29.422  1.00  0.00     0.022 A 
BRANCH 100 103
ATOM    103  S   UNL A   1      47.118  36.198  27.024  1.00  0.00     0.127 S 
ATOM    104  O   UNL A   1      47.878  37.188  27.785  1.00  0.00    -0.237 OA
ATOM    105  O   UNL A   1      47.841  35.610  25.895  1.00  0.00    -0.237 OA
ATOM    106  O   UNL A   1      45.737  36.557  26.738  1.00  0.00    -0.744 OA
ENDBRANCH 100 103
ENDBRANCH  73  96
ENDBRANCH  47  48
ENDBRANCH  39  42
ENDBRANCH  37  38
ENDBRANCH  36  37
ENDBRANCH   1  36
TORSDOF 19
ENDMDL
