MODEL 1
REMARK VINA RESULT:     -11.6      0.000      0.000
REMARK SMILES Cc1ccc(C(C)C)c(OCC(=O)Nc2nc(CC(=O)NCCCCCCNC(=O)c3ccc(-c4c5nc(c(-c6cccc(S(=O)(=O)[O-])c6F)c6ccc([nH]6)c(-c6cccc(S(=O)(=O)[O-])c6F)c6nc(c(-c7cccc(S(=O)(=O)[O-])c7F)c7ccc4[nH]7)C=C6)C=C5)cc3)cs2)c1
REMARK SMILES IDX 23 1 22 2 21 3 19 4 20 5 18 7 17 8 15 9 16 10 95 11 94 12
REMARK SMILES IDX 14 13 12 14 13 15 11 17 10 18 9 19 1 20 2 21 3 22 96 23 4 24
REMARK SMILES IDX 5 25 6 26 7 27 8 28 24 29 25 30 26 31 27 32 28 33 29 34
REMARK SMILES IDX 30 36 31 37 32 38 93 39 33 40 92 41 34 42 35 43 36 44 86 45
REMARK SMILES IDX 37 46 91 47 85 48 87 49 38 50 90 51 84 52 83 53 39 55 71 56
REMARK SMILES IDX 51 57 70 58 52 59 55 60 69 61 88 62 53 63 54 64 68 66 89 67
REMARK SMILES IDX 56 68 40 69 41 70 49 71 42 72 44 73 50 74 43 75 45 76 46 77
REMARK SMILES IDX 47 78 48 79 72 80 73 81 81 82 74 83 76 84 82 85 75 86 77 87
REMARK SMILES IDX 78 88 79 89 80 90 57 91 58 92 66 93 59 94 61 95 67 96 60 97
REMARK SMILES IDX 62 98 63 99 64 100 65 101
REMARK H PARENT 21 6 14 16 28 35 87 54 55 65
REMARK Flexibility Score: inf
ROOT
ATOM      1  C   UNL A   1      36.774  22.662  25.071  1.00  0.00     0.021 C 
ENDROOT
BRANCH   1   2
ATOM      2  C   UNL A   1      36.073  21.512  25.788  1.00  0.00     0.116 C 
BRANCH   2   3
ATOM      3  N   UNL A   1      35.226  21.943  26.884  1.00  0.00    -0.356 N 
ATOM      4  C   UNL A   1      33.891  22.235  26.874  1.00  0.00     0.226 C 
ATOM      5  O   UNL A   1      33.328  22.421  27.956  1.00  0.00    -0.275 OA
ATOM      6  H   UNL A   1      35.674  22.039  27.755  1.00  0.00     0.163 HD
BRANCH   4   7
ATOM      7  C   UNL A   1      33.109  22.285  25.571  1.00  0.00     0.157 C 
BRANCH   7   8
ATOM      8  C   UNL A   1      32.257  23.504  25.443  1.00  0.00     0.063 A 
ATOM      9  C   UNL A   1      31.522  25.428  26.221  1.00  0.00     0.189 A 
ATOM     10  N   UNL A   1      32.493  24.559  26.315  1.00  0.00    -0.224 NA
ATOM     11  S   UNL A   1      30.359  25.137  25.009  1.00  0.00    -0.105 S 
ATOM     12  C   UNL A   1      31.194  23.702  24.579  1.00  0.00     0.093 A 
BRANCH   9  13
ATOM     13  N   UNL A   1      31.285  26.535  26.973  1.00  0.00    -0.299 N 
ATOM     14  C   UNL A   1      31.979  27.704  26.943  1.00  0.00     0.264 C 
ATOM     15  O   UNL A   1      31.669  28.580  27.759  1.00  0.00    -0.271 OA
ATOM     16  H   UNL A   1      30.534  26.484  27.608  1.00  0.00     0.172 HD
BRANCH  14  17
ATOM     17  C   UNL A   1      33.033  28.001  25.860  1.00  0.00     0.329 C 
BRANCH  17  18
ATOM     18  O   UNL A   1      32.854  29.069  24.951  1.00  0.00    -0.483 OA
BRANCH  18  19
ATOM     19  C   UNL A   1      31.722  29.137  24.188  1.00  0.00     0.123 A 
ATOM     20  C   UNL A   1      28.489  31.110  23.736  1.00  0.00     0.044 C 
ATOM     21  C   UNL A   1      29.581  30.102  23.528  1.00  0.00    -0.047 A 
ATOM     22  C   UNL A   1      29.534  29.238  22.434  1.00  0.00     0.004 A 
ATOM     23  C   UNL A   1      30.667  30.029  24.411  1.00  0.00     0.050 A 
ATOM     24  C   UNL A   1      30.551  28.308  22.230  1.00  0.00     0.008 A 
ATOM     25  C   UNL A   1      31.659  28.246  23.095  1.00  0.00    -0.003 A 
BRANCH  25  26
ATOM     26  C   UNL A   1      32.776  27.246  22.818  1.00  0.00     0.017 C 
ATOM     27  C   UNL A   1      32.292  26.064  21.977  1.00  0.00     0.012 C 
ATOM     28  C   UNL A   1      33.965  27.922  22.133  1.00  0.00     0.012 C 
ENDBRANCH  25  26
ENDBRANCH  18  19
ENDBRANCH  17  18
ENDBRANCH  14  17
ENDBRANCH   9  13
ENDBRANCH   7   8
ENDBRANCH   4   7
ENDBRANCH   2   3
ENDBRANCH   1   2
BRANCH   1  29
ATOM     29  C   UNL A   1      37.030  23.901  25.939  1.00  0.00     0.002 C 
BRANCH  29  30
ATOM     30  C   UNL A   1      38.428  24.033  26.573  1.00  0.00     0.002 C 
BRANCH  30  31
ATOM     31  C   UNL A   1      39.506  23.064  26.085  1.00  0.00     0.021 C 
BRANCH  31  32
ATOM     32  C   UNL A   1      39.917  22.007  27.097  1.00  0.00     0.116 C 
BRANCH  32  33
ATOM     33  N   UNL A   1      40.794  20.979  26.565  1.00  0.00    -0.352 N 
ATOM     34  C   UNL A   1      42.129  21.076  26.215  1.00  0.00     0.251 C 
ATOM     35  H   UNL A   1      40.384  20.093  26.438  1.00  0.00     0.163 HD
ATOM     36  O   UNL A   1      42.627  20.197  25.508  1.00  0.00    -0.269 OA
BRANCH  34  37
ATOM     37  C   UNL A   1      42.970  22.143  26.812  1.00  0.00     0.039 A 
ATOM     38  C   UNL A   1      42.988  22.240  28.210  1.00  0.00     0.014 A 
ATOM     39  C   UNL A   1      43.482  23.179  26.038  1.00  0.00     0.014 A 
ATOM     40  C   UNL A   1      43.234  23.470  28.812  1.00  0.00     0.010 A 
ATOM     41  C   UNL A   1      43.631  24.417  26.616  1.00  0.00     0.010 A 
ATOM     42  C   UNL A   1      43.427  24.571  27.990  1.00  0.00    -0.014 A 
BRANCH  42  43
ATOM     43  C   UNL A   1      43.466  25.949  28.438  1.00  0.00     0.031 A 
ATOM     44  C   UNL A   1      42.222  26.732  28.440  1.00  0.00     0.074 A 
ATOM     45  C   UNL A   1      44.571  26.370  29.090  1.00  0.00     0.049 A 
ATOM     46  N   UNL A   1      42.166  27.999  28.662  1.00  0.00    -0.248 NA
ATOM     47  C   UNL A   1      40.928  26.136  28.130  1.00  0.00     0.031 C 
ATOM     48  C   UNL A   1      44.669  27.462  30.046  1.00  0.00     0.029 A 
ATOM     49  N   UNL A   1      45.899  25.991  28.862  1.00  0.00    -0.354 N 
ATOM     50  C   UNL A   1      40.838  28.314  28.846  1.00  0.00     0.074 A 
ATOM     51  C   UNL A   1      40.116  27.176  28.341  1.00  0.00     0.031 C 
ATOM     52  C   UNL A   1      45.951  27.848  30.129  1.00  0.00     0.029 A 
ATOM     53  C   UNL A   1      46.674  27.143  29.085  1.00  0.00     0.049 A 
ATOM     54  H   UNL A   1      46.225  25.099  28.600  1.00  0.00     0.167 HD
ATOM     55  C   UNL A   1      40.534  29.430  29.564  1.00  0.00     0.034 A 
ATOM     56  C   UNL A   1      47.434  27.739  28.119  1.00  0.00     0.034 A 
ATOM     57  C   UNL A   1      41.742  30.246  29.779  1.00  0.00     0.049 A 
ATOM     58  C   UNL A   1      47.009  29.169  27.831  1.00  0.00     0.074 A 
ATOM     59  C   UNL A   1      42.584  30.429  30.863  1.00  0.00     0.029 A 
ATOM     60  N   UNL A   1      42.402  30.787  28.676  1.00  0.00    -0.354 N 
ATOM     61  N   UNL A   1      45.946  29.733  28.339  1.00  0.00    -0.248 NA
ATOM     62  C   UNL A   1      47.729  30.072  26.938  1.00  0.00     0.031 C 
ATOM     63  C   UNL A   1      43.809  30.969  30.376  1.00  0.00     0.029 A 
ATOM     64  C   UNL A   1      43.695  31.162  29.009  1.00  0.00     0.049 A 
ATOM     65  H   UNL A   1      42.003  30.888  27.782  1.00  0.00     0.167 HD
ATOM     66  C   UNL A   1      45.750  30.966  27.778  1.00  0.00     0.074 A 
ATOM     67  C   UNL A   1      46.943  31.164  26.969  1.00  0.00     0.031 C 
ATOM     68  C   UNL A   1      44.600  31.684  27.982  1.00  0.00     0.034 A 
BRANCH  55  69
ATOM     69  C   UNL A   1      39.217  29.702  30.290  1.00  0.00     0.023 A 
ATOM     70  C   UNL A   1      38.820  28.758  31.265  1.00  0.00     0.012 A 
ATOM     71  C   UNL A   1      38.283  30.738  30.032  1.00  0.00     0.148 A 
ATOM     72  C   UNL A   1      37.576  28.812  31.910  1.00  0.00     0.002 A 
ATOM     73  C   UNL A   1      37.056  30.816  30.701  1.00  0.00     0.091 A 
ATOM     74  F   UNL A   1      38.525  31.651  29.095  1.00  0.00    -0.205 F 
ATOM     75  C   UNL A   1      36.692  29.843  31.631  1.00  0.00     0.022 A 
BRANCH  73  76
ATOM     76  S   UNL A   1      35.870  32.145  30.402  1.00  0.00     0.127 S 
ATOM     77  O   UNL A   1      34.933  31.973  31.512  1.00  0.00    -0.237 OA
ATOM     78  O   UNL A   1      36.709  33.338  30.493  1.00  0.00    -0.237 OA
ATOM     79  O   UNL A   1      35.302  31.906  29.080  1.00  0.00    -0.744 OA
ENDBRANCH  73  76
ENDBRANCH  55  69
BRANCH  56  80
ATOM     80  C   UNL A   1      48.007  26.773  27.138  1.00  0.00     0.023 A 
ATOM     81  C   UNL A   1      47.235  26.530  25.976  1.00  0.00     0.012 A 
ATOM     82  C   UNL A   1      49.385  26.489  27.111  1.00  0.00     0.148 A 
ATOM     83  C   UNL A   1      47.842  26.166  24.774  1.00  0.00     0.002 A 
ATOM     84  C   UNL A   1      49.985  26.133  25.903  1.00  0.00     0.091 A 
ATOM     85  F   UNL A   1      50.097  26.670  28.230  1.00  0.00    -0.205 F 
ATOM     86  C   UNL A   1      49.222  26.011  24.729  1.00  0.00     0.022 A 
BRANCH  84  87
ATOM     87  S   UNL A   1      51.769  25.980  25.736  1.00  0.00     0.127 S 
ATOM     88  O   UNL A   1      51.948  26.174  24.300  1.00  0.00    -0.237 OA
ATOM     89  O   UNL A   1      52.252  27.079  26.569  1.00  0.00    -0.237 OA
ATOM     90  O   UNL A   1      52.084  24.655  26.250  1.00  0.00    -0.744 OA
ENDBRANCH  84  87
ENDBRANCH  56  80
BRANCH  68  91
ATOM     91  C   UNL A   1      44.202  32.939  27.223  1.00  0.00     0.023 A 
ATOM     92  C   UNL A   1      44.094  32.973  25.818  1.00  0.00     0.012 A 
ATOM     93  C   UNL A   1      43.775  34.103  27.917  1.00  0.00     0.148 A 
ATOM     94  C   UNL A   1      43.654  34.112  25.134  1.00  0.00     0.002 A 
ATOM     95  C   UNL A   1      43.225  35.188  27.237  1.00  0.00     0.091 A 
ATOM     96  F   UNL A   1      43.915  34.177  29.248  1.00  0.00    -0.205 F 
ATOM     97  C   UNL A   1      43.196  35.212  25.843  1.00  0.00     0.022 A 
BRANCH  95  98
ATOM     98  S   UNL A   1      42.387  36.509  28.128  1.00  0.00     0.127 S 
ATOM     99  O   UNL A   1      41.898  37.349  27.039  1.00  0.00    -0.237 OA
ATOM    100  O   UNL A   1      41.343  35.784  28.855  1.00  0.00    -0.237 OA
ATOM    101  O   UNL A   1      43.411  37.092  28.986  1.00  0.00    -0.744 OA
ENDBRANCH  95  98
ENDBRANCH  68  91
ENDBRANCH  42  43
ENDBRANCH  34  37
ENDBRANCH  32  33
ENDBRANCH  31  32
ENDBRANCH  30  31
ENDBRANCH  29  30
ENDBRANCH   1  29
TORSDOF 22
ENDMDL
MODEL 2
REMARK VINA RESULT:     -11.2      1.950      3.032
REMARK SMILES Cc1ccc(C(C)C)c(OCC(=O)Nc2nc(CC(=O)NCCCCCCNC(=O)c3ccc(-c4c5nc(c(-c6cccc(S(=O)(=O)[O-])c6F)c6ccc([nH]6)c(-c6cccc(S(=O)(=O)[O-])c6F)c6nc(c(-c7cccc(S(=O)(=O)[O-])c7F)c7ccc4[nH]7)C=C6)C=C5)cc3)cs2)c1
REMARK SMILES IDX 23 1 22 2 21 3 19 4 20 5 18 7 17 8 15 9 16 10 95 11 94 12
REMARK SMILES IDX 14 13 12 14 13 15 11 17 10 18 9 19 1 20 2 21 3 22 96 23 4 24
REMARK SMILES IDX 5 25 6 26 7 27 8 28 24 29 25 30 26 31 27 32 28 33 29 34
REMARK SMILES IDX 30 36 31 37 32 38 93 39 33 40 92 41 34 42 35 43 36 44 86 45
REMARK SMILES IDX 37 46 91 47 85 48 87 49 38 50 90 51 84 52 83 53 39 55 71 56
REMARK SMILES IDX 51 57 70 58 52 59 55 60 69 61 88 62 53 63 54 64 68 66 89 67
REMARK SMILES IDX 56 68 40 69 41 70 49 71 42 72 44 73 50 74 43 75 45 76 46 77
REMARK SMILES IDX 47 78 48 79 72 80 73 81 81 82 74 83 76 84 82 85 75 86 77 87
REMARK SMILES IDX 78 88 79 89 80 90 57 91 58 92 66 93 59 94 61 95 67 96 60 97
REMARK SMILES IDX 62 98 63 99 64 100 65 101
REMARK H PARENT 21 6 14 16 28 35 87 54 55 65
REMARK Flexibility Score: inf
ROOT
ATOM      1  C   UNL A   1      39.785  20.351  25.243  1.00  0.00     0.021 C 
ENDROOT
BRANCH   1   2
ATOM      2  C   UNL A   1      38.314  20.753  25.253  1.00  0.00     0.116 C 
BRANCH   2   3
ATOM      3  N   UNL A   1      38.062  22.011  25.929  1.00  0.00    -0.356 N 
ATOM      4  C   UNL A   1      37.053  22.910  25.724  1.00  0.00     0.226 C 
ATOM      5  O   UNL A   1      36.928  23.837  26.528  1.00  0.00    -0.275 OA
ATOM      6  H   UNL A   1      38.707  22.251  26.634  1.00  0.00     0.163 HD
BRANCH   4   7
ATOM      7  C   UNL A   1      36.083  22.748  24.566  1.00  0.00     0.157 C 
BRANCH   7   8
ATOM      8  C   UNL A   1      34.853  21.985  24.932  1.00  0.00     0.063 A 
ATOM      9  C   UNL A   1      32.939  21.822  26.010  1.00  0.00     0.189 A 
ATOM     10  N   UNL A   1      33.820  22.674  25.556  1.00  0.00    -0.224 NA
ATOM     11  S   UNL A   1      33.191  20.185  25.607  1.00  0.00    -0.105 S 
ATOM     12  C   UNL A   1      34.624  20.630  24.776  1.00  0.00     0.093 A 
BRANCH   9  13
ATOM     13  N   UNL A   1      31.849  22.049  26.787  1.00  0.00    -0.299 N 
ATOM     14  C   UNL A   1      30.969  23.080  26.674  1.00  0.00     0.264 C 
ATOM     15  O   UNL A   1      30.074  23.169  27.524  1.00  0.00    -0.271 OA
ATOM     16  H   UNL A   1      31.678  21.401  27.509  1.00  0.00     0.172 HD
BRANCH  14  17
ATOM     17  C   UNL A   1      30.986  24.041  25.472  1.00  0.00     0.329 C 
BRANCH  17  18
ATOM     18  O   UNL A   1      31.500  25.352  25.603  1.00  0.00    -0.483 OA
BRANCH  18  19
ATOM     19  C   UNL A   1      32.152  25.941  24.556  1.00  0.00     0.123 A 
ATOM     20  C   UNL A   1      32.724  25.648  20.796  1.00  0.00     0.044 C 
ATOM     21  C   UNL A   1      32.778  26.154  22.208  1.00  0.00    -0.047 A 
ATOM     22  C   UNL A   1      33.427  27.355  22.494  1.00  0.00     0.004 A 
ATOM     23  C   UNL A   1      32.164  25.444  23.248  1.00  0.00     0.050 A 
ATOM     24  C   UNL A   1      33.471  27.834  23.802  1.00  0.00     0.008 A 
ATOM     25  C   UNL A   1      32.833  27.143  24.848  1.00  0.00    -0.003 A 
BRANCH  25  26
ATOM     26  C   UNL A   1      32.862  27.717  26.260  1.00  0.00     0.017 C 
ATOM     27  C   UNL A   1      34.196  28.396  26.574  1.00  0.00     0.012 C 
ATOM     28  C   UNL A   1      31.711  28.700  26.480  1.00  0.00     0.012 C 
ENDBRANCH  25  26
ENDBRANCH  18  19
ENDBRANCH  17  18
ENDBRANCH  14  17
ENDBRANCH   9  13
ENDBRANCH   7   8
ENDBRANCH   4   7
ENDBRANCH   2   3
ENDBRANCH   1   2
BRANCH   1  29
ATOM     29  C   UNL A   1      40.258  19.612  26.503  1.00  0.00     0.002 C 
BRANCH  29  30
ATOM     30  C   UNL A   1      41.717  19.843  26.942  1.00  0.00     0.002 C 
BRANCH  30  31
ATOM     31  C   UNL A   1      42.753  18.821  26.474  1.00  0.00     0.021 C 
BRANCH  31  32
ATOM     32  C   UNL A   1      43.429  19.158  25.154  1.00  0.00     0.116 C 
BRANCH  32  33
ATOM     33  N   UNL A   1      44.818  19.563  25.279  1.00  0.00    -0.352 N 
ATOM     34  C   UNL A   1      45.354  20.839  25.259  1.00  0.00     0.251 C 
ATOM     35  H   UNL A   1      45.466  18.831  25.395  1.00  0.00     0.163 HD
ATOM     36  O   UNL A   1      46.565  20.975  25.078  1.00  0.00    -0.269 OA
BRANCH  34  37
ATOM     37  C   UNL A   1      44.497  22.001  25.603  1.00  0.00     0.039 A 
ATOM     38  C   UNL A   1      44.448  23.057  24.682  1.00  0.00     0.014 A 
ATOM     39  C   UNL A   1      44.000  22.179  26.889  1.00  0.00     0.014 A 
ATOM     40  C   UNL A   1      44.185  24.348  25.129  1.00  0.00     0.010 A 
ATOM     41  C   UNL A   1      43.836  23.460  27.357  1.00  0.00     0.010 A 
ATOM     42  C   UNL A   1      44.009  24.543  26.492  1.00  0.00    -0.014 A 
BRANCH  42  43
ATOM     43  C   UNL A   1      43.956  25.834  27.149  1.00  0.00     0.031 A 
ATOM     44  C   UNL A   1      42.699  26.596  27.122  1.00  0.00     0.074 A 
ATOM     45  C   UNL A   1      44.965  26.157  27.987  1.00  0.00     0.049 A 
ATOM     46  N   UNL A   1      42.583  27.811  27.529  1.00  0.00    -0.248 NA
ATOM     47  C   UNL A   1      41.468  26.044  26.569  1.00  0.00     0.031 C 
ATOM     48  C   UNL A   1      44.919  27.086  29.106  1.00  0.00     0.029 A 
ATOM     49  N   UNL A   1      46.320  25.831  27.865  1.00  0.00    -0.354 N 
ATOM     50  C   UNL A   1      41.234  28.081  27.598  1.00  0.00     0.074 A 
ATOM     51  C   UNL A   1      40.609  27.030  26.840  1.00  0.00     0.031 C 
ATOM     52  C   UNL A   1      46.171  27.467  29.401  1.00  0.00     0.029 A 
ATOM     53  C   UNL A   1      47.031  26.941  28.355  1.00  0.00     0.049 A 
ATOM     54  H   UNL A   1      46.700  24.994  27.509  1.00  0.00     0.167 HD
ATOM     55  C   UNL A   1      40.816  29.068  28.438  1.00  0.00     0.034 A 
ATOM     56  C   UNL A   1      47.883  27.688  27.593  1.00  0.00     0.034 A 
ATOM     57  C   UNL A   1      41.968  29.851  28.921  1.00  0.00     0.049 A 
ATOM     58  C   UNL A   1      47.455  29.141  27.480  1.00  0.00     0.074 A 
ATOM     59  C   UNL A   1      42.670  29.869  30.114  1.00  0.00     0.029 A 
ATOM     60  N   UNL A   1      42.737  30.564  28.003  1.00  0.00    -0.354 N 
ATOM     61  N   UNL A   1      46.325  29.609  27.937  1.00  0.00    -0.248 NA
ATOM     62  C   UNL A   1      48.250  30.181  26.831  1.00  0.00     0.031 C 
ATOM     63  C   UNL A   1      43.928  30.490  29.868  1.00  0.00     0.029 A 
ATOM     64  C   UNL A   1      43.971  30.895  28.544  1.00  0.00     0.049 A 
ATOM     65  H   UNL A   1      42.444  30.802  27.094  1.00  0.00     0.167 HD
ATOM     66  C   UNL A   1      46.162  30.913  27.554  1.00  0.00     0.074 A 
ATOM     67  C   UNL A   1      47.436  31.247  26.936  1.00  0.00     0.031 C 
ATOM     68  C   UNL A   1      44.976  31.579  27.727  1.00  0.00     0.034 A 
BRANCH  55  69
ATOM     69  C   UNL A   1      39.416  29.210  29.033  1.00  0.00     0.023 A 
ATOM     70  C   UNL A   1      38.342  29.318  28.120  1.00  0.00     0.012 A 
ATOM     71  C   UNL A   1      39.067  29.354  30.401  1.00  0.00     0.148 A 
ATOM     72  C   UNL A   1      37.027  29.586  28.525  1.00  0.00     0.002 A 
ATOM     73  C   UNL A   1      37.749  29.585  30.811  1.00  0.00     0.091 A 
ATOM     74  F   UNL A   1      40.003  29.328  31.346  1.00  0.00    -0.205 F 
ATOM     75  C   UNL A   1      36.727  29.717  29.872  1.00  0.00     0.022 A 
BRANCH  73  76
ATOM     76  S   UNL A   1      37.286  29.743  32.550  1.00  0.00     0.127 S 
ATOM     77  O   UNL A   1      35.931  30.286  32.457  1.00  0.00    -0.237 OA
ATOM     78  O   UNL A   1      37.357  28.360  33.018  1.00  0.00    -0.237 OA
ATOM     79  O   UNL A   1      38.263  30.638  33.161  1.00  0.00    -0.744 OA
ENDBRANCH  73  76
ENDBRANCH  55  69
BRANCH  56  80
ATOM     80  C   UNL A   1      48.595  26.893  26.550  1.00  0.00     0.023 A 
ATOM     81  C   UNL A   1      47.958  26.805  25.288  1.00  0.00     0.012 A 
ATOM     82  C   UNL A   1      49.978  26.652  26.632  1.00  0.00     0.148 A 
ATOM     83  C   UNL A   1      48.701  26.640  24.120  1.00  0.00     0.002 A 
ATOM     84  C   UNL A   1      50.714  26.495  25.458  1.00  0.00     0.091 A 
ATOM     85  F   UNL A   1      50.562  26.684  27.836  1.00  0.00    -0.205 F 
ATOM     86  C   UNL A   1      50.084  26.529  24.203  1.00  0.00     0.022 A 
BRANCH  84  87
ATOM     87  S   UNL A   1      52.511  26.414  25.465  1.00  0.00     0.127 S 
ATOM     88  O   UNL A   1      52.861  27.699  26.062  1.00  0.00    -0.237 OA
ATOM     89  O   UNL A   1      52.763  25.253  26.317  1.00  0.00    -0.237 OA
ATOM     90  O   UNL A   1      52.887  26.228  24.072  1.00  0.00    -0.744 OA
ENDBRANCH  84  87
ENDBRANCH  56  80
BRANCH  68  91
ATOM     91  C   UNL A   1      44.635  32.935  27.128  1.00  0.00     0.023 A 
ATOM     92  C   UNL A   1      44.350  33.109  25.760  1.00  0.00     0.012 A 
ATOM     93  C   UNL A   1      44.444  34.069  27.962  1.00  0.00     0.148 A 
ATOM     94  C   UNL A   1      43.965  34.347  25.233  1.00  0.00     0.002 A 
ATOM     95  C   UNL A   1      43.944  35.265  27.451  1.00  0.00     0.091 A 
ATOM     96  F   UNL A   1      44.765  34.005  29.262  1.00  0.00    -0.205 F 
ATOM     97  C   UNL A   1      43.737  35.420  26.080  1.00  0.00     0.022 A 
BRANCH  95  98
ATOM     98  S   UNL A   1      43.393  36.581  28.548  1.00  0.00     0.127 S 
ATOM     99  O   UNL A   1      42.773  35.831  29.637  1.00  0.00    -0.237 OA
ATOM    100  O   UNL A   1      44.651  37.243  28.902  1.00  0.00    -0.237 OA
ATOM    101  O   UNL A   1      42.501  37.399  27.737  1.00  0.00    -0.744 OA
ENDBRANCH  95  98
ENDBRANCH  68  91
ENDBRANCH  42  43
ENDBRANCH  34  37
ENDBRANCH  32  33
ENDBRANCH  31  32
ENDBRANCH  30  31
ENDBRANCH  29  30
ENDBRANCH   1  29
TORSDOF 22
ENDMDL
MODEL 3
REMARK VINA RESULT:     -11.0      1.686      2.851
REMARK SMILES Cc1ccc(C(C)C)c(OCC(=O)Nc2nc(CC(=O)NCCCCCCNC(=O)c3ccc(-c4c5nc(c(-c6cccc(S(=O)(=O)[O-])c6F)c6ccc([nH]6)c(-c6cccc(S(=O)(=O)[O-])c6F)c6nc(c(-c7cccc(S(=O)(=O)[O-])c7F)c7ccc4[nH]7)C=C6)C=C5)cc3)cs2)c1
REMARK SMILES IDX 23 1 22 2 21 3 19 4 20 5 18 7 17 8 15 9 16 10 95 11 94 12
REMARK SMILES IDX 14 13 12 14 13 15 11 17 10 18 9 19 1 20 2 21 3 22 96 23 4 24
REMARK SMILES IDX 5 25 6 26 7 27 8 28 24 29 25 30 26 31 27 32 28 33 29 34
REMARK SMILES IDX 30 36 31 37 32 38 93 39 33 40 92 41 34 42 35 43 36 44 86 45
REMARK SMILES IDX 37 46 91 47 85 48 87 49 38 50 90 51 84 52 83 53 39 55 71 56
REMARK SMILES IDX 51 57 70 58 52 59 55 60 69 61 88 62 53 63 54 64 68 66 89 67
REMARK SMILES IDX 56 68 40 69 41 70 49 71 42 72 44 73 50 74 43 75 45 76 46 77
REMARK SMILES IDX 47 78 48 79 72 80 73 81 81 82 74 83 76 84 82 85 75 86 77 87
REMARK SMILES IDX 78 88 79 89 80 90 57 91 58 92 66 93 59 94 61 95 67 96 60 97
REMARK SMILES IDX 62 98 63 99 64 100 65 101
REMARK H PARENT 21 6 14 16 28 35 87 54 55 65
REMARK Flexibility Score: inf
ROOT
ATOM      1  C   UNL A   1      40.399  21.462  26.342  1.00  0.00     0.021 C 
ENDROOT
BRANCH   1   2
ATOM      2  C   UNL A   1      39.037  22.138  26.465  1.00  0.00     0.116 C 
BRANCH   2   3
ATOM      3  N   UNL A   1      38.439  22.475  25.187  1.00  0.00    -0.356 N 
ATOM      4  C   UNL A   1      37.392  21.878  24.545  1.00  0.00     0.226 C 
ATOM      5  O   UNL A   1      36.933  22.432  23.541  1.00  0.00    -0.275 OA
ATOM      6  H   UNL A   1      38.845  23.240  24.718  1.00  0.00     0.163 HD
BRANCH   4   7
ATOM      7  C   UNL A   1      36.777  20.594  25.075  1.00  0.00     0.157 C 
BRANCH   7   8
ATOM      8  C   UNL A   1      35.287  20.645  25.158  1.00  0.00     0.063 A 
ATOM      9  C   UNL A   1      33.437  21.421  26.065  1.00  0.00     0.189 A 
ATOM     10  N   UNL A   1      34.711  21.662  25.909  1.00  0.00    -0.224 NA
ATOM     11  S   UNL A   1      32.812  20.076  25.225  1.00  0.00    -0.105 S 
ATOM     12  C   UNL A   1      34.381  19.752  24.614  1.00  0.00     0.093 A 
BRANCH   9  13
ATOM     13  N   UNL A   1      32.526  22.079  26.830  1.00  0.00    -0.299 N 
ATOM     14  C   UNL A   1      32.233  23.406  26.784  1.00  0.00     0.264 C 
ATOM     15  O   UNL A   1      31.428  23.847  27.613  1.00  0.00    -0.271 OA
ATOM     16  H   UNL A   1      32.028  21.539  27.486  1.00  0.00     0.172 HD
BRANCH  14  17
ATOM     17  C   UNL A   1      32.773  24.325  25.673  1.00  0.00     0.329 C 
BRANCH  17  18
ATOM     18  O   UNL A   1      31.954  25.328  25.104  1.00  0.00    -0.483 OA
BRANCH  18  19
ATOM     19  C   UNL A   1      32.265  26.648  25.278  1.00  0.00     0.123 A 
ATOM     20  C   UNL A   1      34.579  28.983  27.212  1.00  0.00     0.044 C 
ATOM     21  C   UNL A   1      33.528  28.488  26.261  1.00  0.00    -0.047 A 
ATOM     22  C   UNL A   1      32.886  29.381  25.404  1.00  0.00     0.004 A 
ATOM     23  C   UNL A   1      33.195  27.128  26.207  1.00  0.00     0.050 A 
ATOM     24  C   UNL A   1      31.919  28.925  24.512  1.00  0.00     0.008 A 
ATOM     25  C   UNL A   1      31.597  27.558  24.430  1.00  0.00    -0.003 A 
BRANCH  25  26
ATOM     26  C   UNL A   1      30.565  27.085  23.412  1.00  0.00     0.017 C 
ATOM     27  C   UNL A   1      29.498  28.148  23.143  1.00  0.00     0.012 C 
ATOM     28  C   UNL A   1      31.233  26.672  22.099  1.00  0.00     0.012 C 
ENDBRANCH  25  26
ENDBRANCH  18  19
ENDBRANCH  17  18
ENDBRANCH  14  17
ENDBRANCH   9  13
ENDBRANCH   7   8
ENDBRANCH   4   7
ENDBRANCH   2   3
ENDBRANCH   1   2
BRANCH   1  29
ATOM     29  C   UNL A   1      40.793  20.586  27.538  1.00  0.00     0.002 C 
BRANCH  29  30
ATOM     30  C   UNL A   1      42.156  19.871  27.462  1.00  0.00     0.002 C 
BRANCH  30  31
ATOM     31  C   UNL A   1      42.416  19.001  26.232  1.00  0.00     0.021 C 
BRANCH  31  32
ATOM     32  C   UNL A   1      43.113  19.713  25.084  1.00  0.00     0.116 C 
BRANCH  32  33
ATOM     33  N   UNL A   1      44.508  20.030  25.336  1.00  0.00    -0.352 N 
ATOM     34  C   UNL A   1      45.103  21.272  25.474  1.00  0.00     0.251 C 
ATOM     35  H   UNL A   1      45.112  19.257  25.420  1.00  0.00     0.163 HD
ATOM     36  O   UNL A   1      46.329  21.360  25.384  1.00  0.00    -0.269 OA
BRANCH  34  37
ATOM     37  C   UNL A   1      44.280  22.440  25.874  1.00  0.00     0.039 A 
ATOM     38  C   UNL A   1      44.183  23.501  24.962  1.00  0.00     0.014 A 
ATOM     39  C   UNL A   1      43.866  22.617  27.190  1.00  0.00     0.014 A 
ATOM     40  C   UNL A   1      43.961  24.792  25.429  1.00  0.00     0.010 A 
ATOM     41  C   UNL A   1      43.743  23.898  27.672  1.00  0.00     0.010 A 
ATOM     42  C   UNL A   1      43.871  24.983  26.801  1.00  0.00    -0.014 A 
BRANCH  42  43
ATOM     43  C   UNL A   1      43.872  26.272  27.464  1.00  0.00     0.031 A 
ATOM     44  C   UNL A   1      42.609  27.014  27.578  1.00  0.00     0.074 A 
ATOM     45  C   UNL A   1      44.961  26.609  28.188  1.00  0.00     0.049 A 
ATOM     46  N   UNL A   1      42.519  28.227  28.000  1.00  0.00    -0.248 NA
ATOM     47  C   UNL A   1      41.332  26.444  27.161  1.00  0.00     0.031 C 
ATOM     48  C   UNL A   1      45.024  27.535  29.308  1.00  0.00     0.029 A 
ATOM     49  N   UNL A   1      46.300  26.303  27.918  1.00  0.00    -0.354 N 
ATOM     50  C   UNL A   1      41.181  28.476  28.217  1.00  0.00     0.074 A 
ATOM     51  C   UNL A   1      40.493  27.417  27.528  1.00  0.00     0.031 C 
ATOM     52  C   UNL A   1      46.296  27.933  29.467  1.00  0.00     0.029 A 
ATOM     53  C   UNL A   1      47.044  27.423  28.331  1.00  0.00     0.049 A 
ATOM     54  H   UNL A   1      46.651  25.473  27.520  1.00  0.00     0.167 HD
ATOM     55  C   UNL A   1      40.843  29.455  29.101  1.00  0.00     0.034 A 
ATOM     56  C   UNL A   1      47.796  28.185  27.483  1.00  0.00     0.034 A 
ATOM     57  C   UNL A   1      42.029  30.255  29.457  1.00  0.00     0.049 A 
ATOM     58  C   UNL A   1      47.336  29.631  27.423  1.00  0.00     0.074 A 
ATOM     59  C   UNL A   1      42.858  30.281  30.566  1.00  0.00     0.029 A 
ATOM     60  N   UNL A   1      42.683  30.981  28.464  1.00  0.00    -0.354 N 
ATOM     61  N   UNL A   1      46.256  30.081  28.003  1.00  0.00    -0.248 NA
ATOM     62  C   UNL A   1      48.039  30.684  26.694  1.00  0.00     0.031 C 
ATOM     63  C   UNL A   1      44.072  30.922  30.187  1.00  0.00     0.029 A 
ATOM     64  C   UNL A   1      43.964  31.329  28.867  1.00  0.00     0.049 A 
ATOM     65  H   UNL A   1      42.289  31.216  27.593  1.00  0.00     0.167 HD
ATOM     66  C   UNL A   1      46.032  31.383  27.644  1.00  0.00     0.074 A 
ATOM     67  C   UNL A   1      47.226  31.737  26.891  1.00  0.00     0.031 C 
ATOM     68  C   UNL A   1      44.863  32.031  27.948  1.00  0.00     0.034 A 
BRANCH  55  69
ATOM     69  C   UNL A   1      39.516  29.575  29.846  1.00  0.00     0.023 A 
ATOM     70  C   UNL A   1      39.077  28.434  30.557  1.00  0.00     0.012 A 
ATOM     71  C   UNL A   1      38.607  30.665  29.829  1.00  0.00     0.148 A 
ATOM     72  C   UNL A   1      37.820  28.360  31.172  1.00  0.00     0.002 A 
ATOM     73  C   UNL A   1      37.366  30.608  30.473  1.00  0.00     0.091 A 
ATOM     74  F   UNL A   1      38.888  31.770  29.144  1.00  0.00    -0.205 F 
ATOM     75  C   UNL A   1      36.962  29.448  31.133  1.00  0.00     0.022 A 
BRANCH  73  76
ATOM     76  S   UNL A   1      36.211  31.997  30.481  1.00  0.00     0.127 S 
ATOM     77  O   UNL A   1      37.064  33.101  30.921  1.00  0.00    -0.237 OA
ATOM     78  O   UNL A   1      35.800  32.068  29.080  1.00  0.00    -0.237 OA
ATOM     79  O   UNL A   1      35.142  31.644  31.408  1.00  0.00    -0.744 OA
ENDBRANCH  73  76
ENDBRANCH  55  69
BRANCH  56  80
ATOM     80  C   UNL A   1      48.401  27.402  26.366  1.00  0.00     0.023 A 
ATOM     81  C   UNL A   1      47.493  26.735  25.507  1.00  0.00     0.012 A 
ATOM     82  C   UNL A   1      49.700  27.675  25.902  1.00  0.00     0.148 A 
ATOM     83  C   UNL A   1      47.817  26.489  24.173  1.00  0.00     0.002 A 
ATOM     84  C   UNL A   1      50.013  27.433  24.564  1.00  0.00     0.091 A 
ATOM     85  F   UNL A   1      50.568  28.257  26.739  1.00  0.00    -0.205 F 
ATOM     86  C   UNL A   1      49.061  26.879  23.692  1.00  0.00     0.022 A 
BRANCH  84  87
ATOM     87  S   UNL A   1      51.571  27.965  23.840  1.00  0.00     0.127 S 
ATOM     88  O   UNL A   1      52.209  26.687  23.544  1.00  0.00    -0.237 OA
ATOM     89  O   UNL A   1      51.125  28.714  22.667  1.00  0.00    -0.237 OA
ATOM     90  O   UNL A   1      52.205  28.780  24.865  1.00  0.00    -0.744 OA
ENDBRANCH  84  87
ENDBRANCH  56  80
BRANCH  68  91
ATOM     91  C   UNL A   1      44.438  33.382  27.395  1.00  0.00     0.023 A 
ATOM     92  C   UNL A   1      43.870  33.533  26.115  1.00  0.00     0.012 A 
ATOM     93  C   UNL A   1      44.462  34.542  28.216  1.00  0.00     0.148 A 
ATOM     94  C   UNL A   1      43.414  34.770  25.645  1.00  0.00     0.002 A 
ATOM     95  C   UNL A   1      43.897  35.741  27.787  1.00  0.00     0.091 A 
ATOM     96  F   UNL A   1      45.053  34.498  29.418  1.00  0.00    -0.205 F 
ATOM     97  C   UNL A   1      43.404  35.870  26.489  1.00  0.00     0.022 A 
BRANCH  95  98
ATOM     98  S   UNL A   1      43.631  37.101  28.936  1.00  0.00     0.127 S 
ATOM     99  O   UNL A   1      43.053  36.417  30.089  1.00  0.00    -0.237 OA
ATOM    100  O   UNL A   1      44.989  37.606  29.145  1.00  0.00    -0.237 OA
ATOM    101  O   UNL A   1      42.756  38.027  28.228  1.00  0.00    -0.744 OA
ENDBRANCH  95  98
ENDBRANCH  68  91
ENDBRANCH  42  43
ENDBRANCH  34  37
ENDBRANCH  32  33
ENDBRANCH  31  32
ENDBRANCH  30  31
ENDBRANCH  29  30
ENDBRANCH   1  29
TORSDOF 22
ENDMDL
