MODEL 1
REMARK VINA RESULT:     -12.3      0.000      0.000
REMARK SMILES C[C@H]1OCC[C@@H]1C(=O)Nc1ccc(Cl)c(C(=O)NCCCCCCNC(=O)c2ccc(-c3c4nc(c(-c5cccc(S(=O)(=O)[O-])c5F)c5ccc([nH]5)c(-c5cccc(S(=O)(=O)[O-])c5F)c5nc(c(-c6cccc(S(=O)(=O)[O-])c6F)c6ccc3[nH]6)C=C5)C=C4)cc2)c1
REMARK SMILES IDX 22 1 21 2 20 3 19 4 18 5 16 6 17 7 15 9 10 10 11 11 91 12
REMARK SMILES IDX 12 13 13 14 14 15 9 16 7 17 8 18 6 20 1 21 2 22 3 23 4 24
REMARK SMILES IDX 5 25 23 26 24 27 25 28 26 29 27 31 28 32 29 33 90 34 30 35
REMARK SMILES IDX 89 36 31 37 32 38 33 39 83 40 34 41 88 42 82 43 84 44 35 45
REMARK SMILES IDX 87 46 81 47 80 48 36 50 68 51 48 52 67 53 49 54 52 55 66 56
REMARK SMILES IDX 85 57 50 58 51 59 65 61 86 62 53 63 37 64 38 65 46 66 39 67
REMARK SMILES IDX 41 68 47 69 40 70 42 71 43 72 44 73 45 74 69 75 70 76 78 77
REMARK SMILES IDX 71 78 73 79 79 80 72 81 74 82 75 83 76 84 77 85 54 86 55 87
REMARK SMILES IDX 63 88 56 89 58 90 64 91 57 92 59 93 60 94 61 95 62 96
REMARK H PARENT 18 8 9 19 25 30 84 49 52 60
REMARK Flexibility Score: inf
ROOT
ATOM      1  C   UNL A   1      31.105  27.155  25.668  1.00  0.00     0.002 C 
ENDROOT
BRANCH   1   2
ATOM      2  C   UNL A   1      30.052  26.196  25.101  1.00  0.00     0.002 C 
BRANCH   2   3
ATOM      3  C   UNL A   1      30.267  25.683  23.677  1.00  0.00     0.021 C 
BRANCH   3   4
ATOM      4  C   UNL A   1      30.887  24.303  23.542  1.00  0.00     0.116 C 
BRANCH   4   5
ATOM      5  N   UNL A   1      32.029  24.199  22.653  1.00  0.00    -0.352 N 
ATOM      6  C   UNL A   1      33.247  23.584  22.862  1.00  0.00     0.252 C 
ATOM      7  O   UNL A   1      34.058  23.546  21.936  1.00  0.00    -0.269 OA
ATOM      8  H   UNL A   1      31.920  24.630  21.774  1.00  0.00     0.163 HD
BRANCH   6   9
ATOM      9  C   UNL A   1      33.665  23.095  24.205  1.00  0.00     0.060 A 
ATOM     10  C   UNL A   1      33.760  21.228  25.741  1.00  0.00     0.042 A 
ATOM     11  C   UNL A   1      34.722  21.895  26.483  1.00  0.00     0.028 A 
ATOM     12  C   UNL A   1      33.354  21.758  24.517  1.00  0.00     0.041 A 
ATOM     13  C   UNL A   1      34.970  23.235  26.228  1.00  0.00     0.023 A 
ATOM     14  C   UNL A   1      34.306  23.866  25.179  1.00  0.00     0.053 A 
ATOM     15  Cl  UNL A   1      34.144  25.581  25.310  1.00  0.00    -0.083 Cl
BRANCH  10  16
ATOM     16  N   UNL A   1      33.163  20.067  26.233  1.00  0.00    -0.326 N 
ATOM     17  C   UNL A   1      32.932  18.883  25.575  1.00  0.00     0.230 C 
ATOM     18  O   UNL A   1      32.260  18.033  26.175  1.00  0.00    -0.274 OA
ATOM     19  H   UNL A   1      32.869  20.100  27.172  1.00  0.00     0.169 HD
BRANCH  17  20
ATOM     20  C   UNL A   1      33.549  18.506  24.212  1.00  0.00     0.110 C 
ATOM     21  C   UNL A   1      32.445  18.373  21.923  1.00  0.00     0.039 C 
ATOM     22  C   UNL A   1      32.614  17.721  23.293  1.00  0.00     0.127 C 
ATOM     23  O   UNL A   1      33.215  16.434  23.098  1.00  0.00    -0.378 OA
ATOM     24  C   UNL A   1      34.625  16.561  23.280  1.00  0.00     0.161 C 
ATOM     25  C   UNL A   1      34.856  17.740  24.208  1.00  0.00     0.044 C 
ENDBRANCH  17  20
ENDBRANCH  10  16
ENDBRANCH   6   9
ENDBRANCH   4   5
ENDBRANCH   3   4
ENDBRANCH   2   3
ENDBRANCH   1   2
BRANCH   1  26
ATOM     26  C   UNL A   1      31.519  28.344  24.797  1.00  0.00     0.021 C 
BRANCH  26  27
ATOM     27  C   UNL A   1      32.624  29.237  25.347  1.00  0.00     0.116 C 
BRANCH  27  28
ATOM     28  N   UNL A   1      32.146  30.548  25.746  1.00  0.00    -0.352 N 
ATOM     29  C   UNL A   1      32.609  31.391  26.725  1.00  0.00     0.251 C 
ATOM     30  H   UNL A   1      31.372  30.882  25.238  1.00  0.00     0.163 HD
ATOM     31  O   UNL A   1      31.969  32.409  26.992  1.00  0.00    -0.269 OA
BRANCH  29  32
ATOM     32  C   UNL A   1      33.851  31.087  27.472  1.00  0.00     0.039 A 
ATOM     33  C   UNL A   1      34.782  32.112  27.666  1.00  0.00     0.014 A 
ATOM     34  C   UNL A   1      34.131  29.799  27.942  1.00  0.00     0.014 A 
ATOM     35  C   UNL A   1      35.970  31.857  28.357  1.00  0.00     0.010 A 
ATOM     36  C   UNL A   1      35.281  29.565  28.694  1.00  0.00     0.010 A 
ATOM     37  C   UNL A   1      36.224  30.585  28.893  1.00  0.00    -0.014 A 
BRANCH  37  38
ATOM     38  C   UNL A   1      37.479  30.306  29.640  1.00  0.00     0.031 A 
ATOM     39  C   UNL A   1      38.543  29.423  29.039  1.00  0.00     0.074 A 
ATOM     40  C   UNL A   1      37.641  30.798  30.885  1.00  0.00     0.049 A 
ATOM     41  N   UNL A   1      39.693  29.054  29.545  1.00  0.00    -0.248 NA
ATOM     42  C   UNL A   1      38.271  28.858  27.707  1.00  0.00     0.031 C 
ATOM     43  C   UNL A   1      36.652  31.596  31.613  1.00  0.00     0.029 A 
ATOM     44  N   UNL A   1      38.686  30.680  31.767  1.00  0.00    -0.354 N 
ATOM     45  C   UNL A   1      40.259  28.190  28.616  1.00  0.00     0.074 A 
ATOM     46  C   UNL A   1      39.315  28.061  27.530  1.00  0.00     0.031 C 
ATOM     47  C   UNL A   1      37.139  31.899  32.828  1.00  0.00     0.029 A 
ATOM     48  C   UNL A   1      38.464  31.302  32.974  1.00  0.00     0.049 A 
ATOM     49  H   UNL A   1      39.517  30.196  31.555  1.00  0.00     0.167 HD
ATOM     50  C   UNL A   1      41.470  27.581  28.648  1.00  0.00     0.034 A 
ATOM     51  C   UNL A   1      39.237  31.382  34.074  1.00  0.00     0.034 A 
ATOM     52  C   UNL A   1      42.430  27.752  29.706  1.00  0.00     0.049 A 
ATOM     53  C   UNL A   1      40.606  30.756  34.052  1.00  0.00     0.074 A 
ATOM     54  C   UNL A   1      43.717  27.250  29.788  1.00  0.00     0.029 A 
ATOM     55  N   UNL A   1      42.210  28.480  30.864  1.00  0.00    -0.354 N 
ATOM     56  N   UNL A   1      41.188  30.076  33.095  1.00  0.00    -0.248 NA
ATOM     57  C   UNL A   1      41.445  30.951  35.244  1.00  0.00     0.031 C 
ATOM     58  C   UNL A   1      44.268  27.658  31.007  1.00  0.00     0.029 A 
ATOM     59  C   UNL A   1      43.336  28.441  31.669  1.00  0.00     0.049 A 
ATOM     60  H   UNL A   1      41.376  28.955  31.082  1.00  0.00     0.167 HD
ATOM     61  C   UNL A   1      42.473  29.800  33.549  1.00  0.00     0.074 A 
ATOM     62  C   UNL A   1      42.590  30.406  34.860  1.00  0.00     0.031 C 
ATOM     63  C   UNL A   1      43.462  29.100  32.942  1.00  0.00     0.034 A 
BRANCH  50  64
ATOM     64  C   UNL A   1      41.852  26.713  27.476  1.00  0.00     0.023 A 
ATOM     65  C   UNL A   1      42.534  27.282  26.381  1.00  0.00     0.012 A 
ATOM     66  C   UNL A   1      41.603  25.327  27.489  1.00  0.00     0.148 A 
ATOM     67  C   UNL A   1      42.931  26.493  25.303  1.00  0.00     0.002 A 
ATOM     68  C   UNL A   1      42.044  24.538  26.431  1.00  0.00     0.091 A 
ATOM     69  F   UNL A   1      40.937  24.806  28.530  1.00  0.00    -0.205 F 
ATOM     70  C   UNL A   1      42.696  25.121  25.333  1.00  0.00     0.022 A 
BRANCH  68  71
ATOM     71  S   UNL A   1      41.863  22.751  26.414  1.00  0.00     0.127 S 
ATOM     72  O   UNL A   1      42.489  22.405  25.137  1.00  0.00    -0.237 OA
ATOM     73  O   UNL A   1      42.631  22.354  27.596  1.00  0.00    -0.237 OA
ATOM     74  O   UNL A   1      40.435  22.488  26.500  1.00  0.00    -0.744 OA
ENDBRANCH  68  71
ENDBRANCH  50  64
BRANCH  51  75
ATOM     75  C   UNL A   1      38.768  32.148  35.264  1.00  0.00     0.023 A 
ATOM     76  C   UNL A   1      38.836  33.555  35.255  1.00  0.00     0.012 A 
ATOM     77  C   UNL A   1      38.247  31.493  36.396  1.00  0.00     0.148 A 
ATOM     78  C   UNL A   1      38.430  34.294  36.367  1.00  0.00     0.002 A 
ATOM     79  C   UNL A   1      37.792  32.239  37.478  1.00  0.00     0.091 A 
ATOM     80  F   UNL A   1      38.201  30.153  36.391  1.00  0.00    -0.205 F 
ATOM     81  C   UNL A   1      37.900  33.638  37.473  1.00  0.00     0.022 A 
BRANCH  79  82
ATOM     82  S   UNL A   1      36.975  31.480  38.887  1.00  0.00     0.127 S 
ATOM     83  O   UNL A   1      36.806  30.102  38.426  1.00  0.00    -0.237 OA
ATOM     84  O   UNL A   1      37.973  31.655  39.945  1.00  0.00    -0.237 OA
ATOM     85  O   UNL A   1      35.753  32.237  39.086  1.00  0.00    -0.744 OA
ENDBRANCH  79  82
ENDBRANCH  51  75
BRANCH  63  86
ATOM     86  C   UNL A   1      44.784  28.993  33.658  1.00  0.00     0.023 A 
ATOM     87  C   UNL A   1      45.774  29.978  33.467  1.00  0.00     0.012 A 
ATOM     88  C   UNL A   1      45.021  27.943  34.568  1.00  0.00     0.148 A 
ATOM     89  C   UNL A   1      46.995  29.895  34.136  1.00  0.00     0.002 A 
ATOM     90  C   UNL A   1      46.219  27.895  35.270  1.00  0.00     0.091 A 
ATOM     91  F   UNL A   1      44.077  27.003  34.721  1.00  0.00    -0.205 F 
ATOM     92  C   UNL A   1      47.212  28.862  35.046  1.00  0.00     0.022 A 
BRANCH  90  93
ATOM     93  S   UNL A   1      46.538  26.657  36.531  1.00  0.00     0.127 S 
ATOM     94  O   UNL A   1      47.881  27.024  36.975  1.00  0.00    -0.237 OA
ATOM     95  O   UNL A   1      45.479  26.924  37.507  1.00  0.00    -0.237 OA
ATOM     96  O   UNL A   1      46.426  25.368  35.861  1.00  0.00    -0.744 OA
ENDBRANCH  90  93
ENDBRANCH  63  86
ENDBRANCH  37  38
ENDBRANCH  29  32
ENDBRANCH  27  28
ENDBRANCH  26  27
ENDBRANCH   1  26
TORSDOF 18
ENDMDL
MODEL 2
REMARK VINA RESULT:     -11.8      5.106      7.739
REMARK SMILES C[C@H]1OCC[C@@H]1C(=O)Nc1ccc(Cl)c(C(=O)NCCCCCCNC(=O)c2ccc(-c3c4nc(c(-c5cccc(S(=O)(=O)[O-])c5F)c5ccc([nH]5)c(-c5cccc(S(=O)(=O)[O-])c5F)c5nc(c(-c6cccc(S(=O)(=O)[O-])c6F)c6ccc3[nH]6)C=C5)C=C4)cc2)c1
REMARK SMILES IDX 22 1 21 2 20 3 19 4 18 5 16 6 17 7 15 9 10 10 11 11 91 12
REMARK SMILES IDX 12 13 13 14 14 15 9 16 7 17 8 18 6 20 1 21 2 22 3 23 4 24
REMARK SMILES IDX 5 25 23 26 24 27 25 28 26 29 27 31 28 32 29 33 90 34 30 35
REMARK SMILES IDX 89 36 31 37 32 38 33 39 83 40 34 41 88 42 82 43 84 44 35 45
REMARK SMILES IDX 87 46 81 47 80 48 36 50 68 51 48 52 67 53 49 54 52 55 66 56
REMARK SMILES IDX 85 57 50 58 51 59 65 61 86 62 53 63 37 64 38 65 46 66 39 67
REMARK SMILES IDX 41 68 47 69 40 70 42 71 43 72 44 73 45 74 69 75 70 76 78 77
REMARK SMILES IDX 71 78 73 79 79 80 72 81 74 82 75 83 76 84 77 85 54 86 55 87
REMARK SMILES IDX 63 88 56 89 58 90 64 91 57 92 59 93 60 94 61 95 62 96
REMARK H PARENT 18 8 9 19 25 30 84 49 52 60
REMARK Flexibility Score: inf
ROOT
ATOM      1  C   UNL A   1      34.257  20.856  25.278  1.00  0.00     0.002 C 
ENDROOT
BRANCH   1   2
ATOM      2  C   UNL A   1      33.308  20.077  24.361  1.00  0.00     0.002 C 
BRANCH   2   3
ATOM      3  C   UNL A   1      32.134  20.845  23.754  1.00  0.00     0.021 C 
BRANCH   3   4
ATOM      4  C   UNL A   1      31.876  22.236  24.307  1.00  0.00     0.116 C 
BRANCH   4   5
ATOM      5  N   UNL A   1      31.095  22.306  25.528  1.00  0.00    -0.352 N 
ATOM      6  C   UNL A   1      30.664  23.413  26.229  1.00  0.00     0.252 C 
ATOM      7  O   UNL A   1      29.940  23.248  27.210  1.00  0.00    -0.269 OA
ATOM      8  H   UNL A   1      30.836  21.436  25.912  1.00  0.00     0.163 HD
BRANCH   6   9
ATOM      9  C   UNL A   1      31.162  24.783  25.924  1.00  0.00     0.060 A 
ATOM     10  C   UNL A   1      30.692  26.928  24.907  1.00  0.00     0.042 A 
ATOM     11  C   UNL A   1      31.741  27.488  25.617  1.00  0.00     0.028 A 
ATOM     12  C   UNL A   1      30.302  25.619  25.184  1.00  0.00     0.041 A 
ATOM     13  C   UNL A   1      32.634  26.659  26.279  1.00  0.00     0.023 A 
ATOM     14  C   UNL A   1      32.415  25.285  26.285  1.00  0.00     0.053 A 
ATOM     15  Cl  UNL A   1      33.813  24.298  26.526  1.00  0.00    -0.083 Cl
BRANCH  10  16
ATOM     16  N   UNL A   1      30.063  27.644  23.887  1.00  0.00    -0.326 N 
ATOM     17  C   UNL A   1      30.565  27.990  22.656  1.00  0.00     0.230 C 
ATOM     18  O   UNL A   1      29.871  28.749  21.965  1.00  0.00    -0.274 OA
ATOM     19  H   UNL A   1      29.142  27.938  24.074  1.00  0.00     0.169 HD
BRANCH  17  20
ATOM     20  C   UNL A   1      31.854  27.407  22.041  1.00  0.00     0.110 C 
ATOM     21  C   UNL A   1      32.126  25.537  20.337  1.00  0.00     0.039 C 
ATOM     22  C   UNL A   1      31.805  25.902  21.784  1.00  0.00     0.127 C 
ATOM     23  O   UNL A   1      32.806  25.309  22.621  1.00  0.00    -0.378 OA
ATOM     24  C   UNL A   1      33.815  26.285  22.880  1.00  0.00     0.161 C 
ATOM     25  C   UNL A   1      33.162  27.651  22.765  1.00  0.00     0.044 C 
ENDBRANCH  17  20
ENDBRANCH  10  16
ENDBRANCH   6   9
ENDBRANCH   4   5
ENDBRANCH   3   4
ENDBRANCH   2   3
ENDBRANCH   1   2
BRANCH   1  26
ATOM     26  C   UNL A   1      35.500  21.481  24.640  1.00  0.00     0.021 C 
BRANCH  26  27
ATOM     27  C   UNL A   1      36.622  21.884  25.589  1.00  0.00     0.116 C 
BRANCH  27  28
ATOM     28  N   UNL A   1      37.623  20.845  25.754  1.00  0.00    -0.352 N 
ATOM     29  C   UNL A   1      38.955  20.951  26.067  1.00  0.00     0.251 C 
ATOM     30  H   UNL A   1      37.297  19.927  25.621  1.00  0.00     0.163 HD
ATOM     31  O   UNL A   1      39.663  19.945  26.025  1.00  0.00    -0.269 OA
BRANCH  29  32
ATOM     32  C   UNL A   1      39.552  22.256  26.436  1.00  0.00     0.039 A 
ATOM     33  C   UNL A   1      40.578  22.275  27.386  1.00  0.00     0.014 A 
ATOM     34  C   UNL A   1      39.086  23.458  25.895  1.00  0.00     0.014 A 
ATOM     35  C   UNL A   1      41.157  23.490  27.766  1.00  0.00     0.010 A 
ATOM     36  C   UNL A   1      39.715  24.660  26.219  1.00  0.00     0.010 A 
ATOM     37  C   UNL A   1      40.742  24.693  27.173  1.00  0.00    -0.014 A 
BRANCH  37  38
ATOM     38  C   UNL A   1      41.360  25.989  27.561  1.00  0.00     0.031 A 
ATOM     39  C   UNL A   1      42.790  26.292  27.194  1.00  0.00     0.074 A 
ATOM     40  C   UNL A   1      40.655  26.873  28.296  1.00  0.00     0.049 A 
ATOM     41  N   UNL A   1      43.502  27.358  27.459  1.00  0.00    -0.248 NA
ATOM     42  C   UNL A   1      43.526  25.252  26.455  1.00  0.00     0.031 C 
ATOM     43  C   UNL A   1      39.290  26.666  28.788  1.00  0.00     0.029 A 
ATOM     44  N   UNL A   1      40.995  28.113  28.777  1.00  0.00    -0.354 N 
ATOM     45  C   UNL A   1      44.772  27.103  26.956  1.00  0.00     0.074 A 
ATOM     46  C   UNL A   1      44.745  25.769  26.400  1.00  0.00     0.031 C 
ATOM     47  C   UNL A   1      38.909  27.742  29.496  1.00  0.00     0.029 A 
ATOM     48  C   UNL A   1      40.006  28.706  29.527  1.00  0.00     0.049 A 
ATOM     49  H   UNL A   1      41.865  28.538  28.600  1.00  0.00     0.167 HD
ATOM     50  C   UNL A   1      45.857  27.916  26.932  1.00  0.00     0.034 A 
ATOM     51  C   UNL A   1      39.983  29.891  30.168  1.00  0.00     0.034 A 
ATOM     52  C   UNL A   1      45.867  29.262  27.439  1.00  0.00     0.049 A 
ATOM     53  C   UNL A   1      41.177  30.802  30.062  1.00  0.00     0.074 A 
ATOM     54  C   UNL A   1      46.887  30.195  27.382  1.00  0.00     0.029 A 
ATOM     55  N   UNL A   1      44.808  29.867  28.097  1.00  0.00    -0.354 N 
ATOM     56  N   UNL A   1      42.315  30.604  29.442  1.00  0.00    -0.248 NA
ATOM     57  C   UNL A   1      41.065  32.121  30.703  1.00  0.00     0.031 C 
ATOM     58  C   UNL A   1      46.451  31.359  28.024  1.00  0.00     0.029 A 
ATOM     59  C   UNL A   1      45.148  31.161  28.453  1.00  0.00     0.049 A 
ATOM     60  H   UNL A   1      43.941  29.439  28.284  1.00  0.00     0.167 HD
ATOM     61  C   UNL A   1      43.035  31.786  29.579  1.00  0.00     0.074 A 
ATOM     62  C   UNL A   1      42.195  32.701  30.324  1.00  0.00     0.031 C 
ATOM     63  C   UNL A   1      44.281  32.082  29.139  1.00  0.00     0.034 A 
BRANCH  50  64
ATOM     64  C   UNL A   1      47.114  27.392  26.285  1.00  0.00     0.023 A 
ATOM     65  C   UNL A   1      47.394  27.717  24.942  1.00  0.00     0.012 A 
ATOM     66  C   UNL A   1      48.051  26.643  27.023  1.00  0.00     0.148 A 
ATOM     67  C   UNL A   1      48.567  27.276  24.333  1.00  0.00     0.002 A 
ATOM     68  C   UNL A   1      49.242  26.246  26.423  1.00  0.00     0.091 A 
ATOM     69  F   UNL A   1      47.760  26.328  28.293  1.00  0.00    -0.205 F 
ATOM     70  C   UNL A   1      49.495  26.551  25.076  1.00  0.00     0.022 A 
BRANCH  68  71
ATOM     71  S   UNL A   1      50.537  25.381  27.317  1.00  0.00     0.127 S 
ATOM     72  O   UNL A   1      50.979  26.408  28.261  1.00  0.00    -0.237 OA
ATOM     73  O   UNL A   1      49.801  24.271  27.925  1.00  0.00    -0.237 OA
ATOM     74  O   UNL A   1      51.521  24.985  26.321  1.00  0.00    -0.744 OA
ENDBRANCH  68  71
ENDBRANCH  50  64
BRANCH  51  75
ATOM     75  C   UNL A   1      38.761  30.319  30.905  1.00  0.00     0.023 A 
ATOM     76  C   UNL A   1      38.639  30.028  32.279  1.00  0.00     0.012 A 
ATOM     77  C   UNL A   1      37.726  31.021  30.259  1.00  0.00     0.148 A 
ATOM     78  C   UNL A   1      37.492  30.393  32.985  1.00  0.00     0.002 A 
ATOM     79  C   UNL A   1      36.611  31.431  30.981  1.00  0.00     0.091 A 
ATOM     80  F   UNL A   1      37.853  31.278  28.949  1.00  0.00    -0.205 F 
ATOM     81  C   UNL A   1      36.484  31.102  32.339  1.00  0.00     0.022 A 
BRANCH  79  82
ATOM     82  S   UNL A   1      35.328  32.461  30.259  1.00  0.00     0.127 S 
ATOM     83  O   UNL A   1      34.846  31.615  29.168  1.00  0.00    -0.237 OA
ATOM     84  O   UNL A   1      34.394  32.610  31.378  1.00  0.00    -0.237 OA
ATOM     85  O   UNL A   1      35.989  33.692  29.864  1.00  0.00    -0.744 OA
ENDBRANCH  79  82
ENDBRANCH  51  75
BRANCH  63  86
ATOM     86  C   UNL A   1      44.801  33.473  29.397  1.00  0.00     0.023 A 
ATOM     87  C   UNL A   1      45.459  33.770  30.608  1.00  0.00     0.012 A 
ATOM     88  C   UNL A   1      44.688  34.473  28.410  1.00  0.00     0.148 A 
ATOM     89  C   UNL A   1      45.956  35.050  30.850  1.00  0.00     0.002 A 
ATOM     90  C   UNL A   1      45.231  35.732  28.638  1.00  0.00     0.091 A 
ATOM     91  F   UNL A   1      44.041  34.180  27.273  1.00  0.00    -0.205 F 
ATOM     92  C   UNL A   1      45.853  36.026  29.861  1.00  0.00     0.022 A 
BRANCH  90  93
ATOM     93  S   UNL A   1      45.231  37.013  27.379  1.00  0.00     0.127 S 
ATOM     94  O   UNL A   1      45.998  36.381  26.309  1.00  0.00    -0.237 OA
ATOM     95  O   UNL A   1      43.803  37.173  27.095  1.00  0.00    -0.237 OA
ATOM     96  O   UNL A   1      45.853  38.177  27.997  1.00  0.00    -0.744 OA
ENDBRANCH  90  93
ENDBRANCH  63  86
ENDBRANCH  37  38
ENDBRANCH  29  32
ENDBRANCH  27  28
ENDBRANCH  26  27
ENDBRANCH   1  26
TORSDOF 18
ENDMDL
MODEL 3
REMARK VINA RESULT:     -11.8      1.931      2.236
REMARK SMILES C[C@H]1OCC[C@@H]1C(=O)Nc1ccc(Cl)c(C(=O)NCCCCCCNC(=O)c2ccc(-c3c4nc(c(-c5cccc(S(=O)(=O)[O-])c5F)c5ccc([nH]5)c(-c5cccc(S(=O)(=O)[O-])c5F)c5nc(c(-c6cccc(S(=O)(=O)[O-])c6F)c6ccc3[nH]6)C=C5)C=C4)cc2)c1
REMARK SMILES IDX 22 1 21 2 20 3 19 4 18 5 16 6 17 7 15 9 10 10 11 11 91 12
REMARK SMILES IDX 12 13 13 14 14 15 9 16 7 17 8 18 6 20 1 21 2 22 3 23 4 24
REMARK SMILES IDX 5 25 23 26 24 27 25 28 26 29 27 31 28 32 29 33 90 34 30 35
REMARK SMILES IDX 89 36 31 37 32 38 33 39 83 40 34 41 88 42 82 43 84 44 35 45
REMARK SMILES IDX 87 46 81 47 80 48 36 50 68 51 48 52 67 53 49 54 52 55 66 56
REMARK SMILES IDX 85 57 50 58 51 59 65 61 86 62 53 63 37 64 38 65 46 66 39 67
REMARK SMILES IDX 41 68 47 69 40 70 42 71 43 72 44 73 45 74 69 75 70 76 78 77
REMARK SMILES IDX 71 78 73 79 79 80 72 81 74 82 75 83 76 84 77 85 54 86 55 87
REMARK SMILES IDX 63 88 56 89 58 90 64 91 57 92 59 93 60 94 61 95 62 96
REMARK H PARENT 18 8 9 19 25 30 84 49 52 60
REMARK Flexibility Score: inf
ROOT
ATOM      1  C   UNL A   1      31.464  27.437  26.351  1.00  0.00     0.002 C 
ENDROOT
BRANCH   1   2
ATOM      2  C   UNL A   1      30.565  26.295  25.865  1.00  0.00     0.002 C 
BRANCH   2   3
ATOM      3  C   UNL A   1      30.518  26.031  24.361  1.00  0.00     0.021 C 
BRANCH   3   4
ATOM      4  C   UNL A   1      30.777  24.602  23.916  1.00  0.00     0.116 C 
BRANCH   4   5
ATOM      5  N   UNL A   1      31.756  24.427  22.859  1.00  0.00    -0.352 N 
ATOM      6  C   UNL A   1      32.950  23.735  22.879  1.00  0.00     0.252 C 
ATOM      7  O   UNL A   1      33.600  23.648  21.838  1.00  0.00    -0.269 OA
ATOM      8  H   UNL A   1      31.536  24.865  22.005  1.00  0.00     0.163 HD
BRANCH   6   9
ATOM      9  C   UNL A   1      33.542  23.218  24.143  1.00  0.00     0.060 A 
ATOM     10  C   UNL A   1      33.802  21.330  25.634  1.00  0.00     0.042 A 
ATOM     11  C   UNL A   1      34.881  21.961  26.234  1.00  0.00     0.028 A 
ATOM     12  C   UNL A   1      33.240  21.886  24.486  1.00  0.00     0.041 A 
ATOM     13  C   UNL A   1      35.129  23.296  25.957  1.00  0.00     0.023 A 
ATOM     14  C   UNL A   1      34.340  23.958  25.021  1.00  0.00     0.053 A 
ATOM     15  Cl  UNL A   1      34.250  25.676  25.187  1.00  0.00    -0.083 Cl
BRANCH  10  16
ATOM     16  N   UNL A   1      33.248  20.181  26.198  1.00  0.00    -0.326 N 
ATOM     17  C   UNL A   1      33.008  18.969  25.599  1.00  0.00     0.230 C 
ATOM     18  O   UNL A   1      32.378  18.133  26.261  1.00  0.00    -0.274 OA
ATOM     19  H   UNL A   1      32.997  20.247  27.148  1.00  0.00     0.169 HD
BRANCH  17  20
ATOM     20  C   UNL A   1      33.569  18.546  24.224  1.00  0.00     0.110 C 
ATOM     21  C   UNL A   1      32.399  18.440  21.967  1.00  0.00     0.039 C 
ATOM     22  C   UNL A   1      32.574  17.797  23.341  1.00  0.00     0.127 C 
ATOM     23  O   UNL A   1      33.107  16.481  23.146  1.00  0.00    -0.378 OA
ATOM     24  C   UNL A   1      34.526  16.542  23.289  1.00  0.00     0.161 C 
ATOM     25  C   UNL A   1      34.837  17.719  24.196  1.00  0.00     0.044 C 
ENDBRANCH  17  20
ENDBRANCH  10  16
ENDBRANCH   6   9
ENDBRANCH   4   5
ENDBRANCH   3   4
ENDBRANCH   2   3
ENDBRANCH   1   2
BRANCH   1  26
ATOM     26  C   UNL A   1      31.504  28.712  25.505  1.00  0.00     0.021 C 
BRANCH  26  27
ATOM     27  C   UNL A   1      32.712  29.620  25.700  1.00  0.00     0.116 C 
BRANCH  27  28
ATOM     28  N   UNL A   1      32.347  30.981  26.047  1.00  0.00    -0.352 N 
ATOM     29  C   UNL A   1      32.915  31.837  26.957  1.00  0.00     0.251 C 
ATOM     30  H   UNL A   1      31.577  31.344  25.556  1.00  0.00     0.163 HD
ATOM     31  O   UNL A   1      32.362  32.911  27.196  1.00  0.00    -0.269 OA
BRANCH  29  32
ATOM     32  C   UNL A   1      34.166  31.481  27.665  1.00  0.00     0.039 A 
ATOM     33  C   UNL A   1      35.147  32.465  27.823  1.00  0.00     0.014 A 
ATOM     34  C   UNL A   1      34.404  30.185  28.134  1.00  0.00     0.014 A 
ATOM     35  C   UNL A   1      36.345  32.161  28.476  1.00  0.00     0.010 A 
ATOM     36  C   UNL A   1      35.566  29.903  28.850  1.00  0.00     0.010 A 
ATOM     37  C   UNL A   1      36.559  30.881  29.011  1.00  0.00    -0.014 A 
BRANCH  37  38
ATOM     38  C   UNL A   1      37.825  30.550  29.719  1.00  0.00     0.031 A 
ATOM     39  C   UNL A   1      38.829  29.618  29.090  1.00  0.00     0.074 A 
ATOM     40  C   UNL A   1      38.049  31.040  30.955  1.00  0.00     0.049 A 
ATOM     41  N   UNL A   1      39.977  29.201  29.560  1.00  0.00    -0.248 NA
ATOM     42  C   UNL A   1      38.488  29.059  27.770  1.00  0.00     0.031 C 
ATOM     43  C   UNL A   1      37.121  31.885  31.710  1.00  0.00     0.029 A 
ATOM     44  N   UNL A   1      39.116  30.880  31.803  1.00  0.00    -0.354 N 
ATOM     45  C   UNL A   1      40.474  28.308  28.619  1.00  0.00     0.074 A 
ATOM     46  C   UNL A   1      39.489  28.216  27.564  1.00  0.00     0.031 C 
ATOM     47  C   UNL A   1      37.661  32.172  32.906  1.00  0.00     0.029 A 
ATOM     48  C   UNL A   1      38.961  31.517  33.013  1.00  0.00     0.049 A 
ATOM     49  H   UNL A   1      39.918  30.359  31.568  1.00  0.00     0.167 HD
ATOM     50  C   UNL A   1      41.656  27.645  28.615  1.00  0.00     0.034 A 
ATOM     51  C   UNL A   1      39.773  31.568  34.087  1.00  0.00     0.034 A 
ATOM     52  C   UNL A   1      42.658  27.779  29.640  1.00  0.00     0.049 A 
ATOM     53  C   UNL A   1      41.112  30.882  34.025  1.00  0.00     0.074 A 
ATOM     54  C   UNL A   1      43.922  27.220  29.683  1.00  0.00     0.029 A 
ATOM     55  N   UNL A   1      42.508  28.522  30.800  1.00  0.00    -0.354 N 
ATOM     56  N   UNL A   1      41.632  30.171  33.053  1.00  0.00    -0.248 NA
ATOM     57  C   UNL A   1      41.998  31.045  35.187  1.00  0.00     0.031 C 
ATOM     58  C   UNL A   1      44.531  27.609  30.882  1.00  0.00     0.029 A 
ATOM     59  C   UNL A   1      43.657  28.436  31.568  1.00  0.00     0.049 A 
ATOM     60  H   UNL A   1      41.703  29.034  31.042  1.00  0.00     0.167 HD
ATOM     61  C   UNL A   1      42.917  29.841  33.467  1.00  0.00     0.074 A 
ATOM     62  C   UNL A   1      43.104  30.448  34.769  1.00  0.00     0.031 C 
ATOM     63  C   UNL A   1      43.853  29.095  32.832  1.00  0.00     0.034 A 
BRANCH  50  64
ATOM     64  C   UNL A   1      41.961  26.756  27.437  1.00  0.00     0.023 A 
ATOM     65  C   UNL A   1      42.588  27.299  26.297  1.00  0.00     0.012 A 
ATOM     66  C   UNL A   1      41.696  25.373  27.485  1.00  0.00     0.148 A 
ATOM     67  C   UNL A   1      42.914  26.490  25.210  1.00  0.00     0.002 A 
ATOM     68  C   UNL A   1      42.066  24.564  26.416  1.00  0.00     0.091 A 
ATOM     69  F   UNL A   1      41.082  24.877  28.569  1.00  0.00    -0.205 F 
ATOM     70  C   UNL A   1      42.663  25.122  25.274  1.00  0.00     0.022 A 
BRANCH  68  71
ATOM     71  S   UNL A   1      41.862  22.779  26.435  1.00  0.00     0.127 S 
ATOM     72  O   UNL A   1      40.405  22.650  26.464  1.00  0.00    -0.237 OA
ATOM     73  O   UNL A   1      42.483  22.386  25.169  1.00  0.00    -0.237 OA
ATOM     74  O   UNL A   1      42.554  22.306  27.624  1.00  0.00    -0.744 OA
ENDBRANCH  68  71
ENDBRANCH  50  64
BRANCH  51  75
ATOM     75  C   UNL A   1      39.378  32.360  35.287  1.00  0.00     0.023 A 
ATOM     76  C   UNL A   1      38.571  31.765  36.277  1.00  0.00     0.012 A 
ATOM     77  C   UNL A   1      39.806  33.690  35.458  1.00  0.00     0.148 A 
ATOM     78  C   UNL A   1      38.164  32.493  37.395  1.00  0.00     0.002 A 
ATOM     79  C   UNL A   1      39.442  34.392  36.602  1.00  0.00     0.091 A 
ATOM     80  F   UNL A   1      40.563  34.243  34.500  1.00  0.00    -0.205 F 
ATOM     81  C   UNL A   1      38.607  33.802  37.563  1.00  0.00     0.022 A 
BRANCH  79  82
ATOM     82  S   UNL A   1      40.076  36.034  36.959  1.00  0.00     0.127 S 
ATOM     83  O   UNL A   1      41.503  35.768  37.147  1.00  0.00    -0.237 OA
ATOM     84  O   UNL A   1      39.745  36.760  35.730  1.00  0.00    -0.237 OA
ATOM     85  O   UNL A   1      39.355  36.487  38.135  1.00  0.00    -0.744 OA
ENDBRANCH  79  82
ENDBRANCH  51  75
BRANCH  63  86
ATOM     86  C   UNL A   1      45.192  28.933  33.506  1.00  0.00     0.023 A 
ATOM     87  C   UNL A   1      45.417  27.855  34.384  1.00  0.00     0.012 A 
ATOM     88  C   UNL A   1      46.248  29.823  33.220  1.00  0.00     0.148 A 
ATOM     89  C   UNL A   1      46.657  27.689  35.001  1.00  0.00     0.002 A 
ATOM     90  C   UNL A   1      47.495  29.621  33.797  1.00  0.00     0.091 A 
ATOM     91  F   UNL A   1      46.010  30.855  32.398  1.00  0.00    -0.205 F 
ATOM     92  C   UNL A   1      47.698  28.564  34.698  1.00  0.00     0.022 A 
BRANCH  90  93
ATOM     93  S   UNL A   1      48.915  30.641  33.384  1.00  0.00     0.127 S 
ATOM     94  O   UNL A   1      48.503  31.946  33.895  1.00  0.00    -0.237 OA
ATOM     95  O   UNL A   1      49.992  30.001  34.142  1.00  0.00    -0.237 OA
ATOM     96  O   UNL A   1      49.063  30.548  31.937  1.00  0.00    -0.744 OA
ENDBRANCH  90  93
ENDBRANCH  63  86
ENDBRANCH  37  38
ENDBRANCH  29  32
ENDBRANCH  27  28
ENDBRANCH  26  27
ENDBRANCH   1  26
TORSDOF 18
ENDMDL
