MODEL 1
REMARK VINA RESULT:     -11.9      0.000      0.000
REMARK SMILES CC[C@H](C(=O)NCCCCCCNC(=O)c1ccc(-c2c3nc(c(-c4cccc(S(=O)(=O)[O-])c4F)c4ccc([nH]4)c(-c4cccc(S(=O)(=O)[O-])c4F)c4nc(c(-c5cccc(S(=O)(=O)[O-])c5F)c5ccc2[nH]5)C=C4)C=C3)cc1)N1C(=O)c2ccc([N+](=O)[O-])cc2C1=O
REMARK SMILES IDX 10 1 9 2 8 3 7 4 6 5 4 6 5 7 3 9 2 10 1 11 79 12 80 13 91 14
REMARK SMILES IDX 81 15 82 16 90 17 92 18 83 19 89 20 84 21 85 22 86 23 87 24
REMARK SMILES IDX 88 25 11 26 12 27 13 28 14 29 15 31 16 32 17 33 78 34 18 35
REMARK SMILES IDX 77 36 19 37 20 38 21 39 71 40 22 41 76 42 70 43 72 44 23 45
REMARK SMILES IDX 75 46 69 47 68 48 24 50 56 51 36 52 55 53 37 54 40 55 54 56
REMARK SMILES IDX 73 57 38 58 39 59 53 61 74 62 41 63 25 64 26 65 34 66 27 67
REMARK SMILES IDX 29 68 35 69 28 70 30 71 31 72 32 73 33 74 57 75 58 76 66 77
REMARK SMILES IDX 59 78 61 79 67 80 60 81 62 82 63 83 64 84 65 85 42 86 43 87
REMARK SMILES IDX 51 88 44 89 46 90 52 91 45 92 47 93 48 94 49 95 50 96
REMARK H PARENT 6 8 13 30 72 49 40 60
REMARK Flexibility Score: inf
ROOT
ATOM      1  C   UNL A   1      36.936  20.657  25.068  1.00  0.00     0.002 C 
ENDROOT
BRANCH   1   2
ATOM      2  C   UNL A   1      36.390  22.042  24.697  1.00  0.00     0.002 C 
BRANCH   2   3
ATOM      3  C   UNL A   1      35.910  22.889  25.879  1.00  0.00     0.021 C 
BRANCH   3   4
ATOM      4  C   UNL A   1      35.294  24.218  25.455  1.00  0.00     0.116 C 
BRANCH   4   5
ATOM      5  N   UNL A   1      34.737  24.140  24.116  1.00  0.00    -0.354 N 
ATOM      6  C   UNL A   1      33.555  23.639  23.663  1.00  0.00     0.243 C 
ATOM      7  O   UNL A   1      33.260  23.906  22.489  1.00  0.00    -0.273 OA
ATOM      8  H   UNL A   1      35.314  24.516  23.413  1.00  0.00     0.163 HD
BRANCH   6   9
ATOM      9  C   UNL A   1      32.531  22.897  24.556  1.00  0.00     0.183 C 
BRANCH   9  10
ATOM     10  C   UNL A   1      31.067  23.343  24.634  1.00  0.00     0.032 C 
ATOM     11  C   UNL A   1      30.753  24.259  25.812  1.00  0.00     0.006 C 
ENDBRANCH   9  10
BRANCH   9  12
ATOM     12  N   UNL A   1      32.678  21.448  24.376  1.00  0.00    -0.262 N 
ATOM     13  C   UNL A   1      32.315  20.744  23.260  1.00  0.00     0.262 C 
ATOM     14  C   UNL A   1      33.059  20.604  25.385  1.00  0.00     0.262 C 
ATOM     15  O   UNL A   1      31.830  21.110  22.211  1.00  0.00    -0.269 OA
ATOM     16  C   UNL A   1      32.612  19.343  23.527  1.00  0.00     0.053 A 
ATOM     17  C   UNL A   1      33.026  19.246  24.842  1.00  0.00     0.060 A 
ATOM     18  O   UNL A   1      33.360  20.860  26.535  1.00  0.00    -0.269 OA
ATOM     19  C   UNL A   1      32.524  18.245  22.691  1.00  0.00     0.022 A 
ATOM     20  C   UNL A   1      33.330  18.030  25.423  1.00  0.00     0.100 A 
ATOM     21  C   UNL A   1      32.850  17.000  23.237  1.00  0.00     0.086 A 
ATOM     22  C   UNL A   1      33.234  16.897  24.598  1.00  0.00     0.270 A 
BRANCH  22  23
ATOM     23  N   UNL A   1      33.543  15.574  25.152  1.00  0.00     0.062 N 
ATOM     24  O   UNL A   1      32.595  14.807  25.370  1.00  0.00    -0.258 OA
ATOM     25  O   UNL A   1      34.734  15.300  25.352  1.00  0.00    -0.258 OA
ENDBRANCH  22  23
ENDBRANCH   9  12
ENDBRANCH   6   9
ENDBRANCH   4   5
ENDBRANCH   3   4
ENDBRANCH   2   3
ENDBRANCH   1   2
BRANCH   1  26
ATOM     26  C   UNL A   1      38.435  20.457  24.832  1.00  0.00     0.021 C 
BRANCH  26  27
ATOM     27  C   UNL A   1      39.275  20.395  26.103  1.00  0.00     0.116 C 
BRANCH  27  28
ATOM     28  N   UNL A   1      40.238  19.305  26.066  1.00  0.00    -0.352 N 
ATOM     29  C   UNL A   1      41.610  19.368  26.094  1.00  0.00     0.251 C 
ATOM     30  H   UNL A   1      39.855  18.399  26.015  1.00  0.00     0.163 HD
ATOM     31  O   UNL A   1      42.284  18.371  25.860  1.00  0.00    -0.269 OA
BRANCH  29  32
ATOM     32  C   UNL A   1      42.263  20.658  26.396  1.00  0.00     0.039 A 
ATOM     33  C   UNL A   1      42.754  21.437  25.346  1.00  0.00     0.014 A 
ATOM     34  C   UNL A   1      42.369  21.098  27.718  1.00  0.00     0.014 A 
ATOM     35  C   UNL A   1      43.304  22.692  25.619  1.00  0.00     0.010 A 
ATOM     36  C   UNL A   1      42.857  22.373  27.980  1.00  0.00     0.010 A 
ATOM     37  C   UNL A   1      43.334  23.180  26.935  1.00  0.00    -0.014 A 
BRANCH  37  38
ATOM     38  C   UNL A   1      43.866  24.528  27.260  1.00  0.00     0.031 A 
ATOM     39  C   UNL A   1      42.937  25.583  27.796  1.00  0.00     0.074 A 
ATOM     40  C   UNL A   1      45.144  24.835  26.965  1.00  0.00     0.049 A 
ATOM     41  N   UNL A   1      43.165  26.851  28.012  1.00  0.00    -0.248 NA
ATOM     42  C   UNL A   1      41.559  25.161  28.101  1.00  0.00     0.031 C 
ATOM     43  C   UNL A   1      46.122  23.914  26.382  1.00  0.00     0.029 A 
ATOM     44  N   UNL A   1      45.829  26.019  27.078  1.00  0.00    -0.354 N 
ATOM     45  C   UNL A   1      41.954  27.388  28.433  1.00  0.00     0.074 A 
ATOM     46  C   UNL A   1      40.986  26.313  28.415  1.00  0.00     0.031 C 
ATOM     47  C   UNL A   1      47.278  24.570  26.181  1.00  0.00     0.029 A 
ATOM     48  C   UNL A   1      47.113  25.962  26.589  1.00  0.00     0.049 A 
ATOM     49  H   UNL A   1      45.439  26.831  27.473  1.00  0.00     0.167 HD
ATOM     50  C   UNL A   1      41.679  28.654  28.824  1.00  0.00     0.034 A 
ATOM     51  C   UNL A   1      48.048  26.926  26.467  1.00  0.00     0.034 A 
ATOM     52  C   UNL A   1      42.658  29.703  28.891  1.00  0.00     0.049 A 
ATOM     53  C   UNL A   1      47.726  28.317  26.946  1.00  0.00     0.074 A 
ATOM     54  C   UNL A   1      42.501  30.997  29.354  1.00  0.00     0.029 A 
ATOM     55  N   UNL A   1      43.977  29.581  28.482  1.00  0.00    -0.354 N 
ATOM     56  N   UNL A   1      46.616  28.771  27.474  1.00  0.00    -0.248 NA
ATOM     57  C   UNL A   1      48.796  29.322  26.843  1.00  0.00     0.031 C 
ATOM     58  C   UNL A   1      43.724  31.663  29.210  1.00  0.00     0.029 A 
ATOM     59  C   UNL A   1      44.645  30.775  28.679  1.00  0.00     0.049 A 
ATOM     60  H   UNL A   1      44.379  28.763  28.107  1.00  0.00     0.167 HD
ATOM     61  C   UNL A   1      46.866  30.098  27.807  1.00  0.00     0.074 A 
ATOM     62  C   UNL A   1      48.237  30.373  27.430  1.00  0.00     0.031 C 
ATOM     63  C   UNL A   1      46.031  31.010  28.362  1.00  0.00     0.034 A 
BRANCH  50  64
ATOM     64  C   UNL A   1      40.272  28.961  29.266  1.00  0.00     0.023 A 
ATOM     65  C   UNL A   1      39.302  29.308  28.302  1.00  0.00     0.012 A 
ATOM     66  C   UNL A   1      39.894  28.851  30.618  1.00  0.00     0.148 A 
ATOM     67  C   UNL A   1      37.989  29.576  28.681  1.00  0.00     0.002 A 
ATOM     68  C   UNL A   1      38.571  29.076  30.982  1.00  0.00     0.091 A 
ATOM     69  F   UNL A   1      40.833  28.539  31.522  1.00  0.00    -0.205 F 
ATOM     70  C   UNL A   1      37.621  29.451  30.017  1.00  0.00     0.022 A 
BRANCH  68  71
ATOM     71  S   UNL A   1      37.980  28.863  32.665  1.00  0.00     0.127 S 
ATOM     72  O   UNL A   1      36.611  29.364  32.563  1.00  0.00    -0.237 OA
ATOM     73  O   UNL A   1      38.087  27.414  32.848  1.00  0.00    -0.237 OA
ATOM     74  O   UNL A   1      38.873  29.647  33.506  1.00  0.00    -0.744 OA
ENDBRANCH  68  71
ENDBRANCH  50  64
BRANCH  51  75
ATOM     75  C   UNL A   1      49.397  26.594  25.930  1.00  0.00     0.023 A 
ATOM     76  C   UNL A   1      50.268  25.801  26.701  1.00  0.00     0.012 A 
ATOM     77  C   UNL A   1      49.813  27.030  24.657  1.00  0.00     0.148 A 
ATOM     78  C   UNL A   1      51.541  25.475  26.231  1.00  0.00     0.002 A 
ATOM     79  C   UNL A   1      51.061  26.657  24.170  1.00  0.00     0.091 A 
ATOM     80  F   UNL A   1      48.974  27.794  23.942  1.00  0.00    -0.205 F 
ATOM     81  C   UNL A   1      51.933  25.894  24.962  1.00  0.00     0.022 A 
BRANCH  79  82
ATOM     82  S   UNL A   1      51.596  27.042  22.499  1.00  0.00     0.127 S 
ATOM     83  O   UNL A   1      50.441  26.623  21.710  1.00  0.00    -0.237 OA
ATOM     84  O   UNL A   1      51.803  28.489  22.570  1.00  0.00    -0.237 OA
ATOM     85  O   UNL A   1      52.817  26.274  22.291  1.00  0.00    -0.744 OA
ENDBRANCH  79  82
ENDBRANCH  51  75
BRANCH  63  86
ATOM     86  C   UNL A   1      46.578  32.383  28.653  1.00  0.00     0.023 A 
ATOM     87  C   UNL A   1      47.149  32.658  29.910  1.00  0.00     0.012 A 
ATOM     88  C   UNL A   1      46.622  33.362  27.640  1.00  0.00     0.148 A 
ATOM     89  C   UNL A   1      47.739  33.896  30.162  1.00  0.00     0.002 A 
ATOM     90  C   UNL A   1      47.253  34.574  27.883  1.00  0.00     0.091 A 
ATOM     91  F   UNL A   1      46.057  33.082  26.456  1.00  0.00    -0.205 F 
ATOM     92  C   UNL A   1      47.803  34.848  29.146  1.00  0.00     0.022 A 
BRANCH  90  93
ATOM     93  S   UNL A   1      47.473  35.820  26.608  1.00  0.00     0.127 S 
ATOM     94  O   UNL A   1      48.089  35.041  25.534  1.00  0.00    -0.237 OA
ATOM     95  O   UNL A   1      46.096  36.240  26.345  1.00  0.00    -0.237 OA
ATOM     96  O   UNL A   1      48.320  36.851  27.192  1.00  0.00    -0.744 OA
ENDBRANCH  90  93
ENDBRANCH  63  86
ENDBRANCH  37  38
ENDBRANCH  29  32
ENDBRANCH  27  28
ENDBRANCH  26  27
ENDBRANCH   1  26
TORSDOF 19
ENDMDL
MODEL 2
REMARK VINA RESULT:     -11.8      1.333      7.590
REMARK SMILES CC[C@H](C(=O)NCCCCCCNC(=O)c1ccc(-c2c3nc(c(-c4cccc(S(=O)(=O)[O-])c4F)c4ccc([nH]4)c(-c4cccc(S(=O)(=O)[O-])c4F)c4nc(c(-c5cccc(S(=O)(=O)[O-])c5F)c5ccc2[nH]5)C=C4)C=C3)cc1)N1C(=O)c2ccc([N+](=O)[O-])cc2C1=O
REMARK SMILES IDX 10 1 9 2 8 3 7 4 6 5 4 6 5 7 3 9 2 10 1 11 79 12 80 13 91 14
REMARK SMILES IDX 81 15 82 16 90 17 92 18 83 19 89 20 84 21 85 22 86 23 87 24
REMARK SMILES IDX 88 25 11 26 12 27 13 28 14 29 15 31 16 32 17 33 78 34 18 35
REMARK SMILES IDX 77 36 19 37 20 38 21 39 71 40 22 41 76 42 70 43 72 44 23 45
REMARK SMILES IDX 75 46 69 47 68 48 24 50 56 51 36 52 55 53 37 54 40 55 54 56
REMARK SMILES IDX 73 57 38 58 39 59 53 61 74 62 41 63 25 64 26 65 34 66 27 67
REMARK SMILES IDX 29 68 35 69 28 70 30 71 31 72 32 73 33 74 57 75 58 76 66 77
REMARK SMILES IDX 59 78 61 79 67 80 60 81 62 82 63 83 64 84 65 85 42 86 43 87
REMARK SMILES IDX 51 88 44 89 46 90 52 91 45 92 47 93 48 94 49 95 50 96
REMARK H PARENT 6 8 13 30 72 49 40 60
REMARK Flexibility Score: inf
ROOT
ATOM      1  C   UNL A   1      36.930  20.689  24.977  1.00  0.00     0.002 C 
ENDROOT
BRANCH   1   2
ATOM      2  C   UNL A   1      37.140  22.019  24.239  1.00  0.00     0.002 C 
BRANCH   2   3
ATOM      3  C   UNL A   1      37.077  23.268  25.122  1.00  0.00     0.021 C 
BRANCH   3   4
ATOM      4  C   UNL A   1      35.654  23.748  25.383  1.00  0.00     0.116 C 
BRANCH   4   5
ATOM      5  N   UNL A   1      34.929  23.954  24.142  1.00  0.00    -0.354 N 
ATOM      6  C   UNL A   1      33.646  23.662  23.791  1.00  0.00     0.243 C 
ATOM      7  O   UNL A   1      33.243  24.152  22.726  1.00  0.00    -0.273 OA
ATOM      8  H   UNL A   1      35.457  24.381  23.429  1.00  0.00     0.163 HD
BRANCH   6   9
ATOM      9  C   UNL A   1      32.656  22.891  24.698  1.00  0.00     0.183 C 
BRANCH   9  10
ATOM     10  C   UNL A   1      31.196  23.332  24.845  1.00  0.00     0.032 C 
ATOM     11  C   UNL A   1      30.664  23.272  26.273  1.00  0.00     0.006 C 
ENDBRANCH   9  10
BRANCH   9  12
ATOM     12  N   UNL A   1      32.797  21.449  24.468  1.00  0.00    -0.262 N 
ATOM     13  C   UNL A   1      32.363  20.774  23.359  1.00  0.00     0.262 C 
ATOM     14  C   UNL A   1      33.248  20.579  25.425  1.00  0.00     0.262 C 
ATOM     15  O   UNL A   1      31.806  21.167  22.356  1.00  0.00    -0.269 OA
ATOM     16  C   UNL A   1      32.683  19.368  23.565  1.00  0.00     0.053 A 
ATOM     17  C   UNL A   1      33.185  19.237  24.846  1.00  0.00     0.060 A 
ATOM     18  O   UNL A   1      33.625  20.804  26.559  1.00  0.00    -0.269 OA
ATOM     19  C   UNL A   1      32.543  18.294  22.707  1.00  0.00     0.022 A 
ATOM     20  C   UNL A   1      33.532  18.006  25.370  1.00  0.00     0.100 A 
ATOM     21  C   UNL A   1      32.910  17.036  23.193  1.00  0.00     0.086 A 
ATOM     22  C   UNL A   1      33.385  16.897  24.522  1.00  0.00     0.270 A 
BRANCH  22  23
ATOM     23  N   UNL A   1      33.736  15.560  25.016  1.00  0.00     0.062 N 
ATOM     24  O   UNL A   1      32.841  14.704  25.042  1.00  0.00    -0.258 OA
ATOM     25  O   UNL A   1      34.909  15.367  25.362  1.00  0.00    -0.258 OA
ENDBRANCH  22  23
ENDBRANCH   9  12
ENDBRANCH   6   9
ENDBRANCH   4   5
ENDBRANCH   3   4
ENDBRANCH   2   3
ENDBRANCH   1   2
BRANCH   1  26
ATOM     26  C   UNL A   1      38.149  19.765  25.024  1.00  0.00     0.021 C 
BRANCH  26  27
ATOM     27  C   UNL A   1      39.193  20.144  26.068  1.00  0.00     0.116 C 
BRANCH  27  28
ATOM     28  N   UNL A   1      40.298  19.197  26.101  1.00  0.00    -0.352 N 
ATOM     29  C   UNL A   1      41.648  19.452  26.117  1.00  0.00     0.251 C 
ATOM     30  H   UNL A   1      40.044  18.246  26.114  1.00  0.00     0.163 HD
ATOM     31  O   UNL A   1      42.454  18.544  25.948  1.00  0.00    -0.269 OA
BRANCH  29  32
ATOM     32  C   UNL A   1      42.114  20.837  26.326  1.00  0.00     0.039 A 
ATOM     33  C   UNL A   1      42.252  21.685  25.225  1.00  0.00     0.014 A 
ATOM     34  C   UNL A   1      42.396  21.296  27.616  1.00  0.00     0.014 A 
ATOM     35  C   UNL A   1      42.619  23.019  25.424  1.00  0.00     0.010 A 
ATOM     36  C   UNL A   1      42.698  22.637  27.817  1.00  0.00     0.010 A 
ATOM     37  C   UNL A   1      42.818  23.511  26.724  1.00  0.00    -0.014 A 
BRANCH  37  38
ATOM     38  C   UNL A   1      43.161  24.932  26.980  1.00  0.00     0.031 A 
ATOM     39  C   UNL A   1      44.538  25.437  26.643  1.00  0.00     0.074 A 
ATOM     40  C   UNL A   1      42.283  25.731  27.617  1.00  0.00     0.049 A 
ATOM     41  N   UNL A   1      45.081  26.594  26.910  1.00  0.00    -0.248 NA
ATOM     42  C   UNL A   1      45.433  24.503  25.939  1.00  0.00     0.031 C 
ATOM     43  C   UNL A   1      40.941  25.336  28.051  1.00  0.00     0.029 A 
ATOM     44  N   UNL A   1      42.400  27.030  28.045  1.00  0.00    -0.354 N 
ATOM     45  C   UNL A   1      46.390  26.514  26.451  1.00  0.00     0.074 A 
ATOM     46  C   UNL A   1      46.569  25.183  25.913  1.00  0.00     0.031 C 
ATOM     47  C   UNL A   1      40.364  26.367  28.691  1.00  0.00     0.029 A 
ATOM     48  C   UNL A   1      41.305  27.483  28.741  1.00  0.00     0.049 A 
ATOM     49  H   UNL A   1      43.194  27.585  27.868  1.00  0.00     0.167 HD
ATOM     50  C   UNL A   1      47.349  27.469  26.452  1.00  0.00     0.034 A 
ATOM     51  C   UNL A   1      41.088  28.658  29.364  1.00  0.00     0.034 A 
ATOM     52  C   UNL A   1      47.148  28.807  26.939  1.00  0.00     0.049 A 
ATOM     53  C   UNL A   1      42.158  29.717  29.317  1.00  0.00     0.074 A 
ATOM     54  C   UNL A   1      48.027  29.874  26.907  1.00  0.00     0.029 A 
ATOM     55  N   UNL A   1      45.987  29.260  27.546  1.00  0.00    -0.354 N 
ATOM     56  N   UNL A   1      43.339  29.671  28.751  1.00  0.00    -0.248 NA
ATOM     57  C   UNL A   1      41.853  31.003  29.964  1.00  0.00     0.031 C 
ATOM     58  C   UNL A   1      47.403  30.971  27.512  1.00  0.00     0.029 A 
ATOM     59  C   UNL A   1      46.127  30.590  27.897  1.00  0.00     0.049 A 
ATOM     60  H   UNL A   1      45.183  28.715  27.705  1.00  0.00     0.167 HD
ATOM     61  C   UNL A   1      43.900  30.929  28.934  1.00  0.00     0.074 A 
ATOM     62  C   UNL A   1      42.926  31.721  29.655  1.00  0.00     0.031 C 
ATOM     63  C   UNL A   1      45.119  31.384  28.552  1.00  0.00     0.034 A 
BRANCH  50  64
ATOM     64  C   UNL A   1      48.687  27.120  25.856  1.00  0.00     0.023 A 
ATOM     65  C   UNL A   1      49.628  26.411  26.632  1.00  0.00     0.012 A 
ATOM     66  C   UNL A   1      48.994  27.439  24.519  1.00  0.00     0.148 A 
ATOM     67  C   UNL A   1      50.865  26.056  26.099  1.00  0.00     0.002 A 
ATOM     68  C   UNL A   1      50.213  27.043  23.981  1.00  0.00     0.091 A 
ATOM     69  F   UNL A   1      48.097  28.131  23.804  1.00  0.00    -0.205 F 
ATOM     70  C   UNL A   1      51.154  26.362  24.772  1.00  0.00     0.022 A 
BRANCH  68  71
ATOM     71  S   UNL A   1      50.647  27.320  22.260  1.00  0.00     0.127 S 
ATOM     72  O   UNL A   1      52.051  26.912  22.240  1.00  0.00    -0.237 OA
ATOM     73  O   UNL A   1      49.738  26.410  21.562  1.00  0.00    -0.237 OA
ATOM     74  O   UNL A   1      50.403  28.733  22.007  1.00  0.00    -0.744 OA
ENDBRANCH  68  71
ENDBRANCH  50  64
BRANCH  51  75
ATOM     75  C   UNL A   1      39.780  28.921  30.028  1.00  0.00     0.023 A 
ATOM     76  C   UNL A   1      39.562  28.438  31.333  1.00  0.00     0.012 A 
ATOM     77  C   UNL A   1      38.765  29.664  29.394  1.00  0.00     0.148 A 
ATOM     78  C   UNL A   1      38.348  28.662  31.982  1.00  0.00     0.002 A 
ATOM     79  C   UNL A   1      37.577  29.931  30.066  1.00  0.00     0.091 A 
ATOM     80  F   UNL A   1      38.986  30.106  28.147  1.00  0.00    -0.205 F 
ATOM     81  C   UNL A   1      37.360  29.415  31.354  1.00  0.00     0.022 A 
BRANCH  79  82
ATOM     82  S   UNL A   1      36.305  31.001  29.386  1.00  0.00     0.127 S 
ATOM     83  O   UNL A   1      35.945  30.297  28.158  1.00  0.00    -0.237 OA
ATOM     84  O   UNL A   1      35.286  30.969  30.436  1.00  0.00    -0.237 OA
ATOM     85  O   UNL A   1      36.939  32.301  29.208  1.00  0.00    -0.744 OA
ENDBRANCH  79  82
ENDBRANCH  51  75
BRANCH  63  86
ATOM     86  C   UNL A   1      45.462  32.819  28.851  1.00  0.00     0.023 A 
ATOM     87  C   UNL A   1      46.171  33.141  30.023  1.00  0.00     0.012 A 
ATOM     88  C   UNL A   1      45.175  33.831  27.912  1.00  0.00     0.148 A 
ATOM     89  C   UNL A   1      46.573  34.454  30.268  1.00  0.00     0.002 A 
ATOM     90  C   UNL A   1      45.620  35.126  28.140  1.00  0.00     0.091 A 
ATOM     91  F   UNL A   1      44.485  33.503  26.810  1.00  0.00    -0.205 F 
ATOM     92  C   UNL A   1      46.310  35.443  29.322  1.00  0.00     0.022 A 
BRANCH  90  93
ATOM     93  S   UNL A   1      45.417  36.442  26.934  1.00  0.00     0.127 S 
ATOM     94  O   UNL A   1      46.063  35.867  25.755  1.00  0.00    -0.237 OA
ATOM     95  O   UNL A   1      43.961  36.552  26.839  1.00  0.00    -0.237 OA
ATOM     96  O   UNL A   1      46.077  37.611  27.497  1.00  0.00    -0.744 OA
ENDBRANCH  90  93
ENDBRANCH  63  86
ENDBRANCH  37  38
ENDBRANCH  29  32
ENDBRANCH  27  28
ENDBRANCH  26  27
ENDBRANCH   1  26
TORSDOF 19
ENDMDL
MODEL 3
REMARK VINA RESULT:     -11.8      1.575      1.884
REMARK SMILES CC[C@H](C(=O)NCCCCCCNC(=O)c1ccc(-c2c3nc(c(-c4cccc(S(=O)(=O)[O-])c4F)c4ccc([nH]4)c(-c4cccc(S(=O)(=O)[O-])c4F)c4nc(c(-c5cccc(S(=O)(=O)[O-])c5F)c5ccc2[nH]5)C=C4)C=C3)cc1)N1C(=O)c2ccc([N+](=O)[O-])cc2C1=O
REMARK SMILES IDX 10 1 9 2 8 3 7 4 6 5 4 6 5 7 3 9 2 10 1 11 79 12 80 13 91 14
REMARK SMILES IDX 81 15 82 16 90 17 92 18 83 19 89 20 84 21 85 22 86 23 87 24
REMARK SMILES IDX 88 25 11 26 12 27 13 28 14 29 15 31 16 32 17 33 78 34 18 35
REMARK SMILES IDX 77 36 19 37 20 38 21 39 71 40 22 41 76 42 70 43 72 44 23 45
REMARK SMILES IDX 75 46 69 47 68 48 24 50 56 51 36 52 55 53 37 54 40 55 54 56
REMARK SMILES IDX 73 57 38 58 39 59 53 61 74 62 41 63 25 64 26 65 34 66 27 67
REMARK SMILES IDX 29 68 35 69 28 70 30 71 31 72 32 73 33 74 57 75 58 76 66 77
REMARK SMILES IDX 59 78 61 79 67 80 60 81 62 82 63 83 64 84 65 85 42 86 43 87
REMARK SMILES IDX 51 88 44 89 46 90 52 91 45 92 47 93 48 94 49 95 50 96
REMARK H PARENT 6 8 13 30 72 49 40 60
REMARK Flexibility Score: inf
ROOT
ATOM      1  C   UNL A   1      36.574  20.298  24.983  1.00  0.00     0.002 C 
ENDROOT
BRANCH   1   2
ATOM      2  C   UNL A   1      36.706  21.747  25.472  1.00  0.00     0.002 C 
BRANCH   2   3
ATOM      3  C   UNL A   1      36.145  22.807  24.519  1.00  0.00     0.021 C 
BRANCH   3   4
ATOM      4  C   UNL A   1      35.592  24.030  25.241  1.00  0.00     0.116 C 
BRANCH   4   5
ATOM      5  N   UNL A   1      34.530  24.661  24.478  1.00  0.00    -0.354 N 
ATOM      6  C   UNL A   1      33.175  24.576  24.584  1.00  0.00     0.243 C 
ATOM      7  O   UNL A   1      32.521  25.400  23.927  1.00  0.00    -0.273 OA
ATOM      8  H   UNL A   1      34.845  25.254  23.757  1.00  0.00     0.163 HD
BRANCH   6   9
ATOM      9  C   UNL A   1      32.442  23.627  25.562  1.00  0.00     0.183 C 
BRANCH   9  10
ATOM     10  C   UNL A   1      31.045  23.954  26.098  1.00  0.00     0.032 C 
ATOM     11  C   UNL A   1      30.280  22.747  26.632  1.00  0.00     0.006 C 
ENDBRANCH   9  10
BRANCH   9  12
ATOM     12  N   UNL A   1      32.563  22.243  25.089  1.00  0.00    -0.262 N 
ATOM     13  C   UNL A   1      32.078  21.762  23.903  1.00  0.00     0.262 C 
ATOM     14  C   UNL A   1      33.048  21.226  25.868  1.00  0.00     0.262 C 
ATOM     15  O   UNL A   1      31.482  22.317  23.004  1.00  0.00    -0.269 OA
ATOM     16  C   UNL A   1      32.396  20.342  23.859  1.00  0.00     0.053 A 
ATOM     17  C   UNL A   1      32.950  19.999  25.078  1.00  0.00     0.060 A 
ATOM     18  O   UNL A   1      33.473  21.259  27.007  1.00  0.00    -0.269 OA
ATOM     19  C   UNL A   1      32.213  19.425  22.841  1.00  0.00     0.022 A 
ATOM     20  C   UNL A   1      33.311  18.698  25.375  1.00  0.00     0.100 A 
ATOM     21  C   UNL A   1      32.591  18.103  23.095  1.00  0.00     0.086 A 
ATOM     22  C   UNL A   1      33.120  17.745  24.361  1.00  0.00     0.270 A 
BRANCH  22  23
ATOM     23  N   UNL A   1      33.482  16.345  24.611  1.00  0.00     0.062 N 
ATOM     24  O   UNL A   1      34.674  16.029  24.487  1.00  0.00    -0.258 OA
ATOM     25  O   UNL A   1      32.577  15.570  24.946  1.00  0.00    -0.258 OA
ENDBRANCH  22  23
ENDBRANCH   9  12
ENDBRANCH   6   9
ENDBRANCH   4   5
ENDBRANCH   3   4
ENDBRANCH   2   3
ENDBRANCH   1   2
BRANCH   1  26
ATOM     26  C   UNL A   1      37.864  19.474  25.018  1.00  0.00     0.021 C 
BRANCH  26  27
ATOM     27  C   UNL A   1      38.996  20.101  25.825  1.00  0.00     0.116 C 
BRANCH  27  28
ATOM     28  N   UNL A   1      40.156  19.225  25.907  1.00  0.00    -0.352 N 
ATOM     29  C   UNL A   1      41.473  19.560  26.105  1.00  0.00     0.251 C 
ATOM     30  H   UNL A   1      39.971  18.263  25.806  1.00  0.00     0.163 HD
ATOM     31  O   UNL A   1      42.357  18.723  25.955  1.00  0.00    -0.269 OA
BRANCH  29  32
ATOM     32  C   UNL A   1      41.811  20.945  26.488  1.00  0.00     0.039 A 
ATOM     33  C   UNL A   1      42.052  21.243  27.831  1.00  0.00     0.014 A 
ATOM     34  C   UNL A   1      41.907  21.941  25.512  1.00  0.00     0.014 A 
ATOM     35  C   UNL A   1      42.447  22.534  28.191  1.00  0.00     0.010 A 
ATOM     36  C   UNL A   1      42.363  23.205  25.864  1.00  0.00     0.010 A 
ATOM     37  C   UNL A   1      42.631  23.517  27.206  1.00  0.00    -0.014 A 
BRANCH  37  38
ATOM     38  C   UNL A   1      43.097  24.886  27.542  1.00  0.00     0.031 A 
ATOM     39  C   UNL A   1      42.132  25.874  28.137  1.00  0.00     0.074 A 
ATOM     40  C   UNL A   1      44.344  25.272  27.208  1.00  0.00     0.049 A 
ATOM     41  N   UNL A   1      42.296  27.149  28.374  1.00  0.00    -0.248 NA
ATOM     42  C   UNL A   1      40.792  25.368  28.481  1.00  0.00     0.031 C 
ATOM     43  C   UNL A   1      45.350  24.421  26.568  1.00  0.00     0.029 A 
ATOM     44  N   UNL A   1      44.966  26.490  27.324  1.00  0.00    -0.354 N 
ATOM     45  C   UNL A   1      41.073  27.607  28.851  1.00  0.00     0.074 A 
ATOM     46  C   UNL A   1      40.167  26.479  28.843  1.00  0.00     0.031 C 
ATOM     47  C   UNL A   1      46.459  25.146  26.341  1.00  0.00     0.029 A 
ATOM     48  C   UNL A   1      46.231  26.517  26.787  1.00  0.00     0.049 A 
ATOM     49  H   UNL A   1      44.545  27.270  27.752  1.00  0.00     0.167 HD
ATOM     50  C   UNL A   1      40.742  28.846  29.281  1.00  0.00     0.034 A 
ATOM     51  C   UNL A   1      47.105  27.535  26.655  1.00  0.00     0.034 A 
ATOM     52  C   UNL A   1      41.663  29.948  29.337  1.00  0.00     0.049 A 
ATOM     53  C   UNL A   1      46.724  28.896  27.177  1.00  0.00     0.074 A 
ATOM     54  C   UNL A   1      41.451  31.221  29.836  1.00  0.00     0.029 A 
ATOM     55  N   UNL A   1      42.970  29.910  28.878  1.00  0.00    -0.354 N 
ATOM     56  N   UNL A   1      45.611  29.274  27.756  1.00  0.00    -0.248 NA
ATOM     57  C   UNL A   1      47.731  29.962  27.059  1.00  0.00     0.031 C 
ATOM     58  C   UNL A   1      42.627  31.958  29.663  1.00  0.00     0.029 A 
ATOM     59  C   UNL A   1      43.577  31.136  29.079  1.00  0.00     0.049 A 
ATOM     60  H   UNL A   1      43.403  29.125  28.469  1.00  0.00     0.167 HD
ATOM     61  C   UNL A   1      45.798  30.605  28.111  1.00  0.00     0.074 A 
ATOM     62  C   UNL A   1      47.136  30.966  27.691  1.00  0.00     0.031 C 
ATOM     63  C   UNL A   1      44.935  31.457  28.717  1.00  0.00     0.034 A 
BRANCH  50  64
ATOM     64  C   UNL A   1      39.338  29.062  29.781  1.00  0.00     0.023 A 
ATOM     65  C   UNL A   1      39.000  28.666  31.092  1.00  0.00     0.012 A 
ATOM     66  C   UNL A   1      38.373  29.706  28.983  1.00  0.00     0.148 A 
ATOM     67  C   UNL A   1      37.714  28.874  31.588  1.00  0.00     0.002 A 
ATOM     68  C   UNL A   1      37.106  29.950  29.501  1.00  0.00     0.091 A 
ATOM     69  F   UNL A   1      38.706  30.057  27.734  1.00  0.00    -0.205 F 
ATOM     70  C   UNL A   1      36.771  29.524  30.797  1.00  0.00     0.022 A 
BRANCH  68  71
ATOM     71  S   UNL A   1      35.846  30.851  28.591  1.00  0.00     0.127 S 
ATOM     72  O   UNL A   1      35.267  29.794  27.763  1.00  0.00    -0.237 OA
ATOM     73  O   UNL A   1      34.974  31.331  29.664  1.00  0.00    -0.237 OA
ATOM     74  O   UNL A   1      36.548  31.900  27.866  1.00  0.00    -0.744 OA
ENDBRANCH  68  71
ENDBRANCH  50  64
BRANCH  51  75
ATOM     75  C   UNL A   1      48.449  27.293  26.060  1.00  0.00     0.023 A 
ATOM     76  C   UNL A   1      49.490  26.821  26.884  1.00  0.00     0.012 A 
ATOM     77  C   UNL A   1      48.699  27.497  24.690  1.00  0.00     0.148 A 
ATOM     78  C   UNL A   1      50.762  26.588  26.362  1.00  0.00     0.002 A 
ATOM     79  C   UNL A   1      49.955  27.211  24.163  1.00  0.00     0.091 A 
ATOM     80  F   UNL A   1      47.700  27.957  23.923  1.00  0.00    -0.205 F 
ATOM     81  C   UNL A   1      50.992  26.773  25.001  1.00  0.00     0.022 A 
BRANCH  79  82
ATOM     82  S   UNL A   1      50.302  27.295  22.403  1.00  0.00     0.127 S 
ATOM     83  O   UNL A   1      49.264  26.430  21.850  1.00  0.00    -0.237 OA
ATOM     84  O   UNL A   1      50.129  28.722  22.126  1.00  0.00    -0.237 OA
ATOM     85  O   UNL A   1      51.671  26.820  22.250  1.00  0.00    -0.744 OA
ENDBRANCH  79  82
ENDBRANCH  51  75
BRANCH  63  86
ATOM     86  C   UNL A   1      45.414  32.851  29.020  1.00  0.00     0.023 A 
ATOM     87  C   UNL A   1      46.142  33.102  30.198  1.00  0.00     0.012 A 
ATOM     88  C   UNL A   1      45.234  33.887  28.081  1.00  0.00     0.148 A 
ATOM     89  C   UNL A   1      46.668  34.369  30.448  1.00  0.00     0.002 A 
ATOM     90  C   UNL A   1      45.802  35.132  28.313  1.00  0.00     0.091 A 
ATOM     91  F   UNL A   1      44.524  33.628  26.973  1.00  0.00    -0.205 F 
ATOM     92  C   UNL A   1      46.510  35.379  29.501  1.00  0.00     0.022 A 
BRANCH  90  93
ATOM     93  S   UNL A   1      45.737  36.462  27.107  1.00  0.00     0.127 S 
ATOM     94  O   UNL A   1      46.350  35.833  25.938  1.00  0.00    -0.237 OA
ATOM     95  O   UNL A   1      44.298  36.701  26.988  1.00  0.00    -0.237 OA
ATOM     96  O   UNL A   1      46.489  37.567  27.685  1.00  0.00    -0.744 OA
ENDBRANCH  90  93
ENDBRANCH  63  86
ENDBRANCH  37  38
ENDBRANCH  29  32
ENDBRANCH  27  28
ENDBRANCH  26  27
ENDBRANCH   1  26
TORSDOF 19
ENDMDL
