MODEL 1
REMARK VINA RESULT:     -13.8      0.000      0.000
REMARK SMILES O=C(NCCCCCCNC(=O)[C@@H]1CCCN1S(=O)(=O)c1ccc2c3c(cccc13)C(=O)N2)c1ccc(-c2c3nc(c(-c4cccc(S(=O)(=O)[O-])c4F)c4ccc([nH]4)c(-c4cccc(S(=O)(=O)[O-])c4F)c4nc(c(-c5cccc(S(=O)(=O)[O-])c5F)c5ccc2[nH]5)C=C4)C=C3)cc1
REMARK SMILES IDX 6 1 5 2 4 3 3 4 1 5 2 6 34 8 35 9 96 10 36 11 95 12 37 13
REMARK SMILES IDX 38 14 39 15 89 16 40 17 94 18 88 19 90 20 41 21 93 22 87 23
REMARK SMILES IDX 86 24 42 26 74 27 54 28 73 29 55 30 58 31 72 32 91 33 56 34
REMARK SMILES IDX 57 35 71 37 92 38 59 39 43 40 44 41 52 42 45 43 47 44 53 45
REMARK SMILES IDX 46 46 48 47 49 48 50 49 51 50 75 51 76 52 84 53 77 54 79 55
REMARK SMILES IDX 85 56 78 57 80 58 81 59 82 60 83 61 60 62 61 63 69 64 62 65
REMARK SMILES IDX 64 66 70 67 63 68 65 69 66 70 67 71 68 72 7 73 8 74 9 75
REMARK SMILES IDX 10 76 11 77 12 79 13 80 14 81 17 82 15 83 16 84 18 85 19 86
REMARK SMILES IDX 20 87 21 88 22 89 30 90 23 91 25 92 29 93 24 94 26 95 28 96
REMARK SMILES IDX 33 97 27 98 31 99 32 101
REMARK H PARENT 3 7 90 25 58 36 10 78 33 100
REMARK Flexibility Score: inf
ROOT
ATOM      1  C   UNL A   1      31.466  30.484  25.677  1.00  0.00     0.002 C 
ENDROOT
BRANCH   1   2
ATOM      2  C   UNL A   1      31.365  31.944  26.585  1.00  0.00     0.021 C 
BRANCH   2   3
ATOM      3  C   UNL A   1      32.669  32.673  26.894  1.00  0.00     0.116 C 
BRANCH   3   4
ATOM      4  N   UNL A   1      32.521  33.930  27.617  1.00  0.00    -0.352 N 
ATOM      5  O   UNL A   1      33.238  35.495  29.115  1.00  0.00    -0.269 OA
ATOM      6  C   UNL A   1      33.407  34.426  28.547  1.00  0.00     0.251 C 
ATOM      7  H   UNL A   1      31.721  34.469  27.424  1.00  0.00     0.163 HD
BRANCH   6   8
ATOM      8  C   UNL A   1      34.547  33.554  28.863  1.00  0.00     0.039 A 
ATOM      9  C   UNL A   1      34.345  32.463  29.711  1.00  0.00     0.014 A 
ATOM     10  C   UNL A   1      35.825  34.004  28.533  1.00  0.00     0.014 A 
ATOM     11  C   UNL A   1      35.446  31.888  30.329  1.00  0.00     0.010 A 
ATOM     12  C   UNL A   1      36.929  33.375  29.098  1.00  0.00     0.010 A 
ATOM     13  C   UNL A   1      36.745  32.335  30.022  1.00  0.00    -0.014 A 
BRANCH  13  14
ATOM     14  C   UNL A   1      37.911  31.643  30.610  1.00  0.00     0.031 A 
ATOM     15  C   UNL A   1      38.647  30.571  29.860  1.00  0.00     0.074 A 
ATOM     16  C   UNL A   1      38.269  31.987  31.861  1.00  0.00     0.049 A 
ATOM     17  N   UNL A   1      39.670  29.862  30.258  1.00  0.00    -0.248 NA
ATOM     18  C   UNL A   1      38.186  30.245  28.500  1.00  0.00     0.031 C 
ATOM     19  C   UNL A   1      37.580  32.985  32.686  1.00  0.00     0.029 A 
ATOM     20  N   UNL A   1      39.279  31.530  32.665  1.00  0.00    -0.354 N 
ATOM     21  C   UNL A   1      39.955  28.986  29.220  1.00  0.00     0.074 A 
ATOM     22  C   UNL A   1      39.000  29.250  28.166  1.00  0.00     0.031 C 
ATOM     23  C   UNL A   1      38.189  33.069  33.876  1.00  0.00     0.029 A 
ATOM     24  C   UNL A   1      39.272  32.096  33.917  1.00  0.00     0.049 A 
ATOM     25  H   UNL A   1      39.942  30.864  32.375  1.00  0.00     0.167 HD
ATOM     26  C   UNL A   1      40.934  28.056  29.159  1.00  0.00     0.034 A 
ATOM     27  C   UNL A   1      40.033  31.838  34.996  1.00  0.00     0.034 A 
ATOM     28  C   UNL A   1      41.893  27.827  30.205  1.00  0.00     0.049 A 
ATOM     29  C   UNL A   1      41.111  30.803  34.892  1.00  0.00     0.074 A 
ATOM     30  C   UNL A   1      42.968  26.957  30.199  1.00  0.00     0.029 A 
ATOM     31  N   UNL A   1      41.881  28.448  31.443  1.00  0.00    -0.354 N 
ATOM     32  N   UNL A   1      41.447  30.079  33.853  1.00  0.00    -0.248 NA
ATOM     33  C   UNL A   1      41.926  30.561  36.089  1.00  0.00     0.031 C 
ATOM     34  C   UNL A   1      43.589  27.029  31.447  1.00  0.00     0.029 A 
ATOM     35  C   UNL A   1      42.920  27.966  32.216  1.00  0.00     0.049 A 
ATOM     36  H   UNL A   1      41.233  29.132  31.728  1.00  0.00     0.167 HD
ATOM     37  C   UNL A   1      42.520  29.301  34.267  1.00  0.00     0.074 A 
ATOM     38  C   UNL A   1      42.792  29.658  35.643  1.00  0.00     0.031 C 
ATOM     39  C   UNL A   1      43.203  28.365  33.569  1.00  0.00     0.034 A 
BRANCH  26  40
ATOM     40  C   UNL A   1      41.078  27.223  27.916  1.00  0.00     0.023 A 
ATOM     41  C   UNL A   1      41.752  27.760  26.803  1.00  0.00     0.012 A 
ATOM     42  C   UNL A   1      40.721  25.861  27.926  1.00  0.00     0.148 A 
ATOM     43  C   UNL A   1      42.083  26.947  25.719  1.00  0.00     0.002 A 
ATOM     44  C   UNL A   1      41.076  25.051  26.854  1.00  0.00     0.091 A 
ATOM     45  F   UNL A   1      40.080  25.378  29.000  1.00  0.00    -0.205 F 
ATOM     46  C   UNL A   1      41.760  25.592  25.752  1.00  0.00     0.022 A 
BRANCH  44  47
ATOM     47  S   UNL A   1      40.747  23.286  26.815  1.00  0.00     0.127 S 
ATOM     48  O   UNL A   1      41.148  22.884  28.163  1.00  0.00    -0.237 OA
ATOM     49  O   UNL A   1      39.306  23.249  26.569  1.00  0.00    -0.237 OA
ATOM     50  O   UNL A   1      41.571  22.743  25.744  1.00  0.00    -0.744 OA
ENDBRANCH  44  47
ENDBRANCH  26  40
BRANCH  27  51
ATOM     51  C   UNL A   1      39.781  32.582  36.257  1.00  0.00     0.023 A 
ATOM     52  C   UNL A   1      40.502  33.759  36.527  1.00  0.00     0.012 A 
ATOM     53  C   UNL A   1      38.777  32.161  37.150  1.00  0.00     0.148 A 
ATOM     54  C   UNL A   1      40.233  34.501  37.678  1.00  0.00     0.002 A 
ATOM     55  C   UNL A   1      38.491  32.922  38.275  1.00  0.00     0.091 A 
ATOM     56  F   UNL A   1      38.100  31.041  36.859  1.00  0.00    -0.205 F 
ATOM     57  C   UNL A   1      39.224  34.088  38.546  1.00  0.00     0.022 A 
BRANCH  55  58
ATOM     58  S   UNL A   1      37.160  32.511  39.409  1.00  0.00     0.127 S 
ATOM     59  O   UNL A   1      37.341  33.517  40.453  1.00  0.00    -0.237 OA
ATOM     60  O   UNL A   1      35.980  32.701  38.565  1.00  0.00    -0.237 OA
ATOM     61  O   UNL A   1      37.398  31.134  39.819  1.00  0.00    -0.744 OA
ENDBRANCH  55  58
ENDBRANCH  27  51
BRANCH  39  62
ATOM     62  C   UNL A   1      44.329  27.648  34.256  1.00  0.00     0.023 A 
ATOM     63  C   UNL A   1      45.596  28.257  34.317  1.00  0.00     0.012 A 
ATOM     64  C   UNL A   1      44.083  26.465  34.979  1.00  0.00     0.148 A 
ATOM     65  C   UNL A   1      46.606  27.699  35.097  1.00  0.00     0.002 A 
ATOM     66  C   UNL A   1      45.084  25.932  35.778  1.00  0.00     0.091 A 
ATOM     67  F   UNL A   1      42.863  25.914  34.902  1.00  0.00    -0.205 F 
ATOM     68  C   UNL A   1      46.346  26.548  35.839  1.00  0.00     0.022 A 
BRANCH  66  69
ATOM     69  S   UNL A   1      44.830  24.486  36.813  1.00  0.00     0.127 S 
ATOM     70  O   UNL A   1      44.464  23.474  35.823  1.00  0.00    -0.237 OA
ATOM     71  O   UNL A   1      46.150  24.302  37.416  1.00  0.00    -0.237 OA
ATOM     72  O   UNL A   1      43.772  24.838  37.750  1.00  0.00    -0.744 OA
ENDBRANCH  66  69
ENDBRANCH  39  62
ENDBRANCH  13  14
ENDBRANCH   6   8
ENDBRANCH   3   4
ENDBRANCH   2   3
ENDBRANCH   1   2
BRANCH   1  73
ATOM     73  C   UNL A   1      31.783  28.345  26.107  1.00  0.00     0.002 C 
BRANCH  73  74
ATOM     74  C   UNL A   1      33.021  27.316  26.661  1.00  0.00     0.021 C 
BRANCH  74  75
ATOM     75  C   UNL A   1      33.287  25.910  26.126  1.00  0.00     0.116 C 
BRANCH  75  76
ATOM     76  N   UNL A   1      34.656  25.559  25.753  1.00  0.00    -0.355 N 
ATOM     77  C   UNL A   1      35.125  24.275  25.486  1.00  0.00     0.238 C 
ATOM     78  H   UNL A   1      35.305  26.295  25.684  1.00  0.00     0.163 HD
ATOM     79  O   UNL A   1      36.314  24.076  25.249  1.00  0.00    -0.273 OA
BRANCH  77  80
ATOM     80  C   UNL A   1      34.089  23.168  25.539  1.00  0.00     0.162 C 
ATOM     81  C   UNL A   1      34.441  21.709  25.295  1.00  0.00     0.032 C 
ATOM     82  N   UNL A   1      32.905  23.365  24.654  1.00  0.00    -0.185 NA
ATOM     83  C   UNL A   1      33.050  21.059  25.319  1.00  0.00     0.019 C 
ATOM     84  C   UNL A   1      32.064  22.171  24.932  1.00  0.00     0.103 C 
BRANCH  82  85
ATOM     85  S   UNL A   1      33.120  23.751  23.001  1.00  0.00     0.244 S 
ATOM     86  O   UNL A   1      34.530  23.636  22.699  1.00  0.00    -0.207 OA
ATOM     87  O   UNL A   1      32.157  22.955  22.267  1.00  0.00    -0.207 OA
BRANCH  85  88
ATOM     88  C   UNL A   1      32.658  25.460  22.774  1.00  0.00     0.090 A 
ATOM     89  C   UNL A   1      33.601  26.401  22.191  1.00  0.00     0.024 A 
ATOM     90  C   UNL A   1      31.361  25.873  23.116  1.00  0.00     0.005 A 
ATOM     91  C   UNL A   1      33.408  27.817  21.910  1.00  0.00     0.028 A 
ATOM     92  C   UNL A   1      31.191  27.526  22.600  1.00  0.00     0.019 A 
ATOM     93  C   UNL A   1      29.910  25.092  23.867  1.00  0.00     0.010 A 
ATOM     94  C   UNL A   1      32.149  28.346  22.127  1.00  0.00     0.050 A 
ATOM     95  C   UNL A   1      29.754  28.482  22.814  1.00  0.00     0.050 A 
ATOM     96  C   UNL A   1      28.396  26.053  24.077  1.00  0.00     0.002 A 
ATOM     97  N   UNL A   1      31.570  29.628  22.013  1.00  0.00    -0.321 N 
ATOM     98  C   UNL A   1      28.255  27.774  23.487  1.00  0.00     0.014 A 
ATOM     99  C   UNL A   1      30.182  29.797  22.389  1.00  0.00     0.256 C 
ATOM    100  H   UNL A   1      32.098  30.391  21.684  1.00  0.00     0.170 HD
ATOM    101  O   UNL A   1      29.607  30.876  22.359  1.00  0.00    -0.269 OA
ENDBRANCH  85  88
ENDBRANCH  82  85
ENDBRANCH  77  80
ENDBRANCH  75  76
ENDBRANCH  74  75
ENDBRANCH  73  74
ENDBRANCH   1  73
TORSDOF 18
ENDMDL
MODEL 2
REMARK VINA RESULT:     -13.7      5.408     10.422
REMARK SMILES O=C(NCCCCCCNC(=O)[C@@H]1CCCN1S(=O)(=O)c1ccc2c3c(cccc13)C(=O)N2)c1ccc(-c2c3nc(c(-c4cccc(S(=O)(=O)[O-])c4F)c4ccc([nH]4)c(-c4cccc(S(=O)(=O)[O-])c4F)c4nc(c(-c5cccc(S(=O)(=O)[O-])c5F)c5ccc2[nH]5)C=C4)C=C3)cc1
REMARK SMILES IDX 6 1 5 2 4 3 3 4 1 5 2 6 34 8 35 9 96 10 36 11 95 12 37 13
REMARK SMILES IDX 38 14 39 15 89 16 40 17 94 18 88 19 90 20 41 21 93 22 87 23
REMARK SMILES IDX 86 24 42 26 74 27 54 28 73 29 55 30 58 31 72 32 91 33 56 34
REMARK SMILES IDX 57 35 71 37 92 38 59 39 43 40 44 41 52 42 45 43 47 44 53 45
REMARK SMILES IDX 46 46 48 47 49 48 50 49 51 50 75 51 76 52 84 53 77 54 79 55
REMARK SMILES IDX 85 56 78 57 80 58 81 59 82 60 83 61 60 62 61 63 69 64 62 65
REMARK SMILES IDX 64 66 70 67 63 68 65 69 66 70 67 71 68 72 7 73 8 74 9 75
REMARK SMILES IDX 10 76 11 77 12 79 13 80 14 81 17 82 15 83 16 84 18 85 19 86
REMARK SMILES IDX 20 87 21 88 22 89 30 90 23 91 25 92 29 93 24 94 26 95 28 96
REMARK SMILES IDX 33 97 27 98 31 99 32 101
REMARK H PARENT 3 7 90 25 58 36 10 78 33 100
REMARK Flexibility Score: inf
ROOT
ATOM      1  C   UNL A   1      36.701  20.555  24.939  1.00  0.00     0.002 C 
ENDROOT
BRANCH   1   2
ATOM      2  C   UNL A   1      38.202  19.710  24.895  1.00  0.00     0.021 C 
BRANCH   2   3
ATOM      3  C   UNL A   1      39.165  19.923  26.058  1.00  0.00     0.116 C 
BRANCH   3   4
ATOM      4  N   UNL A   1      40.420  19.188  25.969  1.00  0.00    -0.352 N 
ATOM      5  O   UNL A   1      42.684  19.020  26.197  1.00  0.00    -0.269 OA
ATOM      6  C   UNL A   1      41.664  19.688  26.279  1.00  0.00     0.251 C 
ATOM      7  H   UNL A   1      40.373  18.254  25.660  1.00  0.00     0.163 HD
BRANCH   6   8
ATOM      8  C   UNL A   1      41.697  21.107  26.659  1.00  0.00     0.039 A 
ATOM      9  C   UNL A   1      41.698  22.075  25.653  1.00  0.00     0.014 A 
ATOM     10  C   UNL A   1      42.005  21.422  27.984  1.00  0.00     0.014 A 
ATOM     11  C   UNL A   1      42.128  23.357  25.962  1.00  0.00     0.010 A 
ATOM     12  C   UNL A   1      42.363  22.727  28.302  1.00  0.00     0.010 A 
ATOM     13  C   UNL A   1      42.457  23.694  27.289  1.00  0.00    -0.014 A 
BRANCH  13  14
ATOM     14  C   UNL A   1      42.813  25.089  27.619  1.00  0.00     0.031 A 
ATOM     15  C   UNL A   1      41.813  26.032  28.223  1.00  0.00     0.074 A 
ATOM     16  C   UNL A   1      44.062  25.496  27.325  1.00  0.00     0.049 A 
ATOM     17  N   UNL A   1      41.976  27.288  28.542  1.00  0.00    -0.248 NA
ATOM     18  C   UNL A   1      40.463  25.513  28.504  1.00  0.00     0.031 C 
ATOM     19  C   UNL A   1      45.087  24.662  26.690  1.00  0.00     0.029 A 
ATOM     20  N   UNL A   1      44.678  26.707  27.498  1.00  0.00    -0.354 N 
ATOM     21  C   UNL A   1      40.749  27.722  29.027  1.00  0.00     0.074 A 
ATOM     22  C   UNL A   1      39.845  26.595  28.966  1.00  0.00     0.031 C 
ATOM     23  C   UNL A   1      46.205  25.382  26.532  1.00  0.00     0.029 A 
ATOM     24  C   UNL A   1      45.959  26.738  27.002  1.00  0.00     0.049 A 
ATOM     25  H   UNL A   1      44.246  27.476  27.934  1.00  0.00     0.167 HD
ATOM     26  C   UNL A   1      40.422  28.950  29.488  1.00  0.00     0.034 A 
ATOM     27  C   UNL A   1      46.832  27.757  26.902  1.00  0.00     0.034 A 
ATOM     28  C   UNL A   1      41.342  30.051  29.568  1.00  0.00     0.049 A 
ATOM     29  C   UNL A   1      46.436  29.104  27.427  1.00  0.00     0.074 A 
ATOM     30  C   UNL A   1      41.118  31.311  30.093  1.00  0.00     0.029 A 
ATOM     31  N   UNL A   1      42.643  30.035  29.095  1.00  0.00    -0.354 N 
ATOM     32  N   UNL A   1      45.314  29.456  28.003  1.00  0.00    -0.248 NA
ATOM     33  C   UNL A   1      47.423  30.185  27.311  1.00  0.00     0.031 C 
ATOM     34  C   UNL A   1      42.275  32.068  29.909  1.00  0.00     0.029 A 
ATOM     35  C   UNL A   1      43.229  31.270  29.299  1.00  0.00     0.049 A 
ATOM     36  H   UNL A   1      43.086  29.259  28.679  1.00  0.00     0.167 HD
ATOM     37  C   UNL A   1      45.461  30.797  28.329  1.00  0.00     0.074 A 
ATOM     38  C   UNL A   1      46.789  31.189  27.906  1.00  0.00     0.031 C 
ATOM     39  C   UNL A   1      44.567  31.629  28.911  1.00  0.00     0.034 A 
BRANCH  26  40
ATOM     40  C   UNL A   1      39.027  29.195  29.993  1.00  0.00     0.023 A 
ATOM     41  C   UNL A   1      38.700  28.833  31.313  1.00  0.00     0.012 A 
ATOM     42  C   UNL A   1      38.117  29.953  29.230  1.00  0.00     0.148 A 
ATOM     43  C   UNL A   1      37.488  29.235  31.875  1.00  0.00     0.002 A 
ATOM     44  C   UNL A   1      36.922  30.370  29.804  1.00  0.00     0.091 A 
ATOM     45  F   UNL A   1      38.457  30.282  27.976  1.00  0.00    -0.205 F 
ATOM     46  C   UNL A   1      36.609  30.015  31.127  1.00  0.00     0.022 A 
BRANCH  44  47
ATOM     47  S   UNL A   1      35.740  31.414  28.945  1.00  0.00     0.127 S 
ATOM     48  O   UNL A   1      35.106  30.455  28.041  1.00  0.00    -0.237 OA
ATOM     49  O   UNL A   1      34.889  31.876  30.040  1.00  0.00    -0.237 OA
ATOM     50  O   UNL A   1      36.520  32.452  28.286  1.00  0.00    -0.744 OA
ENDBRANCH  44  47
ENDBRANCH  26  40
BRANCH  27  51
ATOM     51  C   UNL A   1      48.157  27.519  26.276  1.00  0.00     0.023 A 
ATOM     52  C   UNL A   1      49.250  27.147  27.078  1.00  0.00     0.012 A 
ATOM     53  C   UNL A   1      48.313  27.592  24.878  1.00  0.00     0.148 A 
ATOM     54  C   UNL A   1      50.486  26.861  26.496  1.00  0.00     0.002 A 
ATOM     55  C   UNL A   1      49.535  27.273  24.303  1.00  0.00     0.091 A 
ATOM     56  F   UNL A   1      47.249  27.939  24.140  1.00  0.00    -0.205 F 
ATOM     57  C   UNL A   1      50.626  26.916  25.110  1.00  0.00     0.022 A 
BRANCH  55  58
ATOM     58  S   UNL A   1      49.790  27.243  22.525  1.00  0.00     0.127 S 
ATOM     59  O   UNL A   1      48.753  26.308  22.094  1.00  0.00    -0.237 OA
ATOM     60  O   UNL A   1      49.549  28.640  22.166  1.00  0.00    -0.237 OA
ATOM     61  O   UNL A   1      51.160  26.792  22.327  1.00  0.00    -0.744 OA
ENDBRANCH  55  58
ENDBRANCH  27  51
BRANCH  39  62
ATOM     62  C   UNL A   1      44.972  33.055  29.147  1.00  0.00     0.023 A 
ATOM     63  C   UNL A   1      45.653  33.389  30.333  1.00  0.00     0.012 A 
ATOM     64  C   UNL A   1      44.829  34.014  28.126  1.00  0.00     0.148 A 
ATOM     65  C   UNL A   1      46.194  34.662  30.497  1.00  0.00     0.002 A 
ATOM     66  C   UNL A   1      45.397  35.270  28.283  1.00  0.00     0.091 A 
ATOM     67  F   UNL A   1      44.179  33.661  27.008  1.00  0.00    -0.205 F 
ATOM     68  C   UNL A   1      46.081  35.595  29.467  1.00  0.00     0.022 A 
BRANCH  66  69
ATOM     69  S   UNL A   1      45.354  36.520  26.995  1.00  0.00     0.127 S 
ATOM     70  O   UNL A   1      46.009  35.826  25.887  1.00  0.00    -0.237 OA
ATOM     71  O   UNL A   1      43.917  36.732  26.820  1.00  0.00    -0.237 OA
ATOM     72  O   UNL A   1      46.083  37.668  27.518  1.00  0.00    -0.744 OA
ENDBRANCH  66  69
ENDBRANCH  39  62
ENDBRANCH  13  14
ENDBRANCH   6   8
ENDBRANCH   3   4
ENDBRANCH   2   3
ENDBRANCH   1   2
BRANCH   1  73
ATOM     73  C   UNL A   1      35.861  22.280  26.023  1.00  0.00     0.002 C 
BRANCH  73  74
ATOM     74  C   UNL A   1      34.667  22.604  27.192  1.00  0.00     0.021 C 
BRANCH  74  75
ATOM     75  C   UNL A   1      33.366  21.818  27.346  1.00  0.00     0.116 C 
BRANCH  75  76
ATOM     76  N   UNL A   1      32.155  22.549  27.718  1.00  0.00    -0.355 N 
ATOM     77  C   UNL A   1      31.152  22.965  26.845  1.00  0.00     0.238 C 
ATOM     78  H   UNL A   1      32.038  22.769  28.670  1.00  0.00     0.163 HD
ATOM     79  O   UNL A   1      30.206  23.637  27.248  1.00  0.00    -0.273 OA
BRANCH  77  80
ATOM     80  C   UNL A   1      31.329  22.559  25.394  1.00  0.00     0.162 C 
ATOM     81  C   UNL A   1      32.379  21.553  24.951  1.00  0.00     0.032 C 
ATOM     82  N   UNL A   1      31.541  23.686  24.442  1.00  0.00    -0.185 NA
ATOM     83  C   UNL A   1      32.230  21.619  23.425  1.00  0.00     0.019 C 
ATOM     84  C   UNL A   1      31.647  23.007  23.122  1.00  0.00     0.103 C 
BRANCH  82  85
ATOM     85  S   UNL A   1      32.731  24.873  24.762  1.00  0.00     0.244 S 
ATOM     86  O   UNL A   1      32.738  25.120  26.188  1.00  0.00    -0.207 OA
ATOM     87  O   UNL A   1      33.941  24.426  24.101  1.00  0.00    -0.207 OA
BRANCH  85  88
ATOM     88  C   UNL A   1      32.228  26.383  23.956  1.00  0.00     0.090 A 
ATOM     89  C   UNL A   1      33.219  27.238  23.320  1.00  0.00     0.024 A 
ATOM     90  C   UNL A   1      30.865  26.710  23.898  1.00  0.00     0.005 A 
ATOM     91  C   UNL A   1      33.007  28.488  22.603  1.00  0.00     0.028 A 
ATOM     92  C   UNL A   1      30.714  28.125  22.896  1.00  0.00     0.019 A 
ATOM     93  C   UNL A   1      29.333  25.991  24.544  1.00  0.00     0.010 A 
ATOM     94  C   UNL A   1      31.701  28.896  22.402  1.00  0.00     0.050 A 
ATOM     95  C   UNL A   1      29.209  28.917  22.531  1.00  0.00     0.050 A 
ATOM     96  C   UNL A   1      27.754  26.778  24.158  1.00  0.00     0.002 A 
ATOM     97  N   UNL A   1      31.084  30.015  21.804  1.00  0.00    -0.321 N 
ATOM     98  C   UNL A   1      27.644  28.241  23.072  1.00  0.00     0.014 A 
ATOM     99  C   UNL A   1      29.640  30.107  21.831  1.00  0.00     0.256 C 
ATOM    100  H   UNL A   1      31.625  30.719  21.377  1.00  0.00     0.170 HD
ATOM    101  O   UNL A   1      29.020  31.058  21.372  1.00  0.00    -0.269 OA
ENDBRANCH  85  88
ENDBRANCH  82  85
ENDBRANCH  77  80
ENDBRANCH  75  76
ENDBRANCH  74  75
ENDBRANCH  73  74
ENDBRANCH   1  73
TORSDOF 18
ENDMDL
MODEL 3
REMARK VINA RESULT:     -13.5      5.539     10.925
REMARK SMILES O=C(NCCCCCCNC(=O)[C@@H]1CCCN1S(=O)(=O)c1ccc2c3c(cccc13)C(=O)N2)c1ccc(-c2c3nc(c(-c4cccc(S(=O)(=O)[O-])c4F)c4ccc([nH]4)c(-c4cccc(S(=O)(=O)[O-])c4F)c4nc(c(-c5cccc(S(=O)(=O)[O-])c5F)c5ccc2[nH]5)C=C4)C=C3)cc1
REMARK SMILES IDX 6 1 5 2 4 3 3 4 1 5 2 6 34 8 35 9 96 10 36 11 95 12 37 13
REMARK SMILES IDX 38 14 39 15 89 16 40 17 94 18 88 19 90 20 41 21 93 22 87 23
REMARK SMILES IDX 86 24 42 26 74 27 54 28 73 29 55 30 58 31 72 32 91 33 56 34
REMARK SMILES IDX 57 35 71 37 92 38 59 39 43 40 44 41 52 42 45 43 47 44 53 45
REMARK SMILES IDX 46 46 48 47 49 48 50 49 51 50 75 51 76 52 84 53 77 54 79 55
REMARK SMILES IDX 85 56 78 57 80 58 81 59 82 60 83 61 60 62 61 63 69 64 62 65
REMARK SMILES IDX 64 66 70 67 63 68 65 69 66 70 67 71 68 72 7 73 8 74 9 75
REMARK SMILES IDX 10 76 11 77 12 79 13 80 14 81 17 82 15 83 16 84 18 85 19 86
REMARK SMILES IDX 20 87 21 88 22 89 30 90 23 91 25 92 29 93 24 94 26 95 28 96
REMARK SMILES IDX 33 97 27 98 31 99 32 101
REMARK H PARENT 3 7 90 25 58 36 10 78 33 100
REMARK Flexibility Score: inf
ROOT
ATOM      1  C   UNL A   1      36.582  21.739  25.535  1.00  0.00     0.002 C 
ENDROOT
BRANCH   1   2
ATOM      2  C   UNL A   1      38.004  20.923  25.008  1.00  0.00     0.021 C 
BRANCH   2   3
ATOM      3  C   UNL A   1      39.175  20.847  25.983  1.00  0.00     0.116 C 
BRANCH   3   4
ATOM      4  N   UNL A   1      39.986  19.640  25.887  1.00  0.00    -0.352 N 
ATOM      5  O   UNL A   1      41.968  18.519  26.045  1.00  0.00    -0.269 OA
ATOM      6  C   UNL A   1      41.339  19.565  26.128  1.00  0.00     0.251 C 
ATOM      7  H   UNL A   1      39.526  18.809  25.630  1.00  0.00     0.163 HD
BRANCH   6   8
ATOM      8  C   UNL A   1      41.999  20.842  26.433  1.00  0.00     0.039 A 
ATOM      9  C   UNL A   1      42.219  21.185  27.768  1.00  0.00     0.014 A 
ATOM     10  C   UNL A   1      42.127  21.774  25.402  1.00  0.00     0.014 A 
ATOM     11  C   UNL A   1      42.458  22.514  28.084  1.00  0.00     0.010 A 
ATOM     12  C   UNL A   1      42.441  23.091  25.718  1.00  0.00     0.010 A 
ATOM     13  C   UNL A   1      42.577  23.475  27.061  1.00  0.00    -0.014 A 
BRANCH  13  14
ATOM     14  C   UNL A   1      42.934  24.866  27.407  1.00  0.00     0.031 A 
ATOM     15  C   UNL A   1      41.942  25.794  28.046  1.00  0.00     0.074 A 
ATOM     16  C   UNL A   1      44.175  25.284  27.096  1.00  0.00     0.049 A 
ATOM     17  N   UNL A   1      42.106  27.046  28.383  1.00  0.00    -0.248 NA
ATOM     18  C   UNL A   1      40.600  25.265  28.344  1.00  0.00     0.031 C 
ATOM     19  C   UNL A   1      45.191  24.464  26.428  1.00  0.00     0.029 A 
ATOM     20  N   UNL A   1      44.789  26.494  27.278  1.00  0.00    -0.354 N 
ATOM     21  C   UNL A   1      40.887  27.466  28.898  1.00  0.00     0.074 A 
ATOM     22  C   UNL A   1      39.987  26.336  28.836  1.00  0.00     0.031 C 
ATOM     23  C   UNL A   1      46.303  25.192  26.261  1.00  0.00     0.029 A 
ATOM     24  C   UNL A   1      46.061  26.539  26.758  1.00  0.00     0.049 A 
ATOM     25  H   UNL A   1      44.363  27.253  27.735  1.00  0.00     0.167 HD
ATOM     26  C   UNL A   1      40.564  28.684  29.387  1.00  0.00     0.034 A 
ATOM     27  C   UNL A   1      46.927  27.563  26.659  1.00  0.00     0.034 A 
ATOM     28  C   UNL A   1      41.480  29.788  29.467  1.00  0.00     0.049 A 
ATOM     29  C   UNL A   1      46.536  28.899  27.213  1.00  0.00     0.074 A 
ATOM     30  C   UNL A   1      41.262  31.039  30.018  1.00  0.00     0.029 A 
ATOM     31  N   UNL A   1      42.773  29.785  28.969  1.00  0.00    -0.354 N 
ATOM     32  N   UNL A   1      45.424  29.237  27.817  1.00  0.00    -0.248 NA
ATOM     33  C   UNL A   1      47.517  29.986  27.096  1.00  0.00     0.031 C 
ATOM     34  C   UNL A   1      42.412  31.804  29.823  1.00  0.00     0.029 A 
ATOM     35  C   UNL A   1      43.357  31.020  29.182  1.00  0.00     0.049 A 
ATOM     36  H   UNL A   1      43.210  29.019  28.532  1.00  0.00     0.167 HD
ATOM     37  C   UNL A   1      45.572  30.573  28.162  1.00  0.00     0.074 A 
ATOM     38  C   UNL A   1      46.890  30.978  27.720  1.00  0.00     0.031 C 
ATOM     39  C   UNL A   1      44.686  31.391  28.774  1.00  0.00     0.034 A 
BRANCH  26  40
ATOM     40  C   UNL A   1      39.178  28.915  29.921  1.00  0.00     0.023 A 
ATOM     41  C   UNL A   1      38.871  28.510  31.234  1.00  0.00     0.012 A 
ATOM     42  C   UNL A   1      38.257  29.700  29.200  1.00  0.00     0.148 A 
ATOM     43  C   UNL A   1      37.670  28.894  31.829  1.00  0.00     0.002 A 
ATOM     44  C   UNL A   1      37.073  30.100  29.807  1.00  0.00     0.091 A 
ATOM     45  F   UNL A   1      38.577  30.071  27.952  1.00  0.00    -0.205 F 
ATOM     46  C   UNL A   1      36.780  29.701  31.123  1.00  0.00     0.022 A 
BRANCH  44  47
ATOM     47  S   UNL A   1      35.880  31.174  29.003  1.00  0.00     0.127 S 
ATOM     48  O   UNL A   1      35.198  30.238  28.110  1.00  0.00    -0.237 OA
ATOM     49  O   UNL A   1      35.075  31.637  30.133  1.00  0.00    -0.237 OA
ATOM     50  O   UNL A   1      36.653  32.208  28.330  1.00  0.00    -0.744 OA
ENDBRANCH  44  47
ENDBRANCH  26  40
BRANCH  27  51
ATOM     51  C   UNL A   1      48.241  27.341  26.003  1.00  0.00     0.023 A 
ATOM     52  C   UNL A   1      49.339  26.913  26.770  1.00  0.00     0.012 A 
ATOM     53  C   UNL A   1      48.381  27.486  24.609  1.00  0.00     0.148 A 
ATOM     54  C   UNL A   1      50.564  26.643  26.158  1.00  0.00     0.002 A 
ATOM     55  C   UNL A   1      49.591  27.182  24.002  1.00  0.00     0.091 A 
ATOM     56  F   UNL A   1      47.312  27.885  23.905  1.00  0.00    -0.205 F 
ATOM     57  C   UNL A   1      50.687  26.769  24.775  1.00  0.00     0.022 A 
BRANCH  55  58
ATOM     58  S   UNL A   1      49.822  27.242  22.222  1.00  0.00     0.127 S 
ATOM     59  O   UNL A   1      49.628  28.663  21.946  1.00  0.00    -0.237 OA
ATOM     60  O   UNL A   1      51.200  26.769  22.085  1.00  0.00    -0.237 OA
ATOM     61  O   UNL A   1      48.817  26.351  21.659  1.00  0.00    -0.744 OA
ENDBRANCH  55  58
ENDBRANCH  27  51
BRANCH  39  62
ATOM     62  C   UNL A   1      45.090  32.814  29.027  1.00  0.00     0.023 A 
ATOM     63  C   UNL A   1      45.828  33.125  30.184  1.00  0.00     0.012 A 
ATOM     64  C   UNL A   1      44.885  33.798  28.041  1.00  0.00     0.148 A 
ATOM     65  C   UNL A   1      46.366  34.399  30.353  1.00  0.00     0.002 A 
ATOM     66  C   UNL A   1      45.449  35.056  28.201  1.00  0.00     0.091 A 
ATOM     67  F   UNL A   1      44.179  33.467  26.949  1.00  0.00    -0.205 F 
ATOM     68  C   UNL A   1      46.190  35.357  29.356  1.00  0.00     0.022 A 
BRANCH  66  69
ATOM     69  S   UNL A   1      45.326  36.338  26.950  1.00  0.00     0.127 S 
ATOM     70  O   UNL A   1      46.097  37.421  27.560  1.00  0.00    -0.237 OA
ATOM     71  O   UNL A   1      45.967  35.706  25.797  1.00  0.00    -0.237 OA
ATOM     72  O   UNL A   1      43.905  36.613  26.787  1.00  0.00    -0.744 OA
ENDBRANCH  66  69
ENDBRANCH  39  62
ENDBRANCH  13  14
ENDBRANCH   6   8
ENDBRANCH   3   4
ENDBRANCH   2   3
ENDBRANCH   1   2
BRANCH   1  73
ATOM     73  C   UNL A   1      35.496  23.581  24.998  1.00  0.00     0.002 C 
BRANCH  73  74
ATOM     74  C   UNL A   1      34.767  24.289  23.633  1.00  0.00     0.021 C 
BRANCH  74  75
ATOM     75  C   UNL A   1      34.048  25.638  23.632  1.00  0.00     0.116 C 
BRANCH  75  76
ATOM     76  N   UNL A   1      34.190  26.498  24.806  1.00  0.00    -0.355 N 
ATOM     77  C   UNL A   1      33.302  27.497  25.197  1.00  0.00     0.238 C 
ATOM     78  H   UNL A   1      34.984  26.360  25.370  1.00  0.00     0.163 HD
ATOM     79  O   UNL A   1      33.548  28.215  26.163  1.00  0.00    -0.273 OA
BRANCH  77  80
ATOM     80  C   UNL A   1      32.056  27.645  24.344  1.00  0.00     0.162 C 
ATOM     81  C   UNL A   1      31.085  28.803  24.513  1.00  0.00     0.032 C 
ATOM     82  N   UNL A   1      31.148  26.463  24.337  1.00  0.00    -0.185 NA
ATOM     83  C   UNL A   1      29.969  28.401  23.540  1.00  0.00     0.019 C 
ATOM     84  C   UNL A   1      30.056  26.872  23.414  1.00  0.00     0.103 C 
BRANCH  82  85
ATOM     85  S   UNL A   1      30.646  25.753  25.811  1.00  0.00     0.244 S 
ATOM     86  O   UNL A   1      31.077  26.618  26.889  1.00  0.00    -0.207 OA
ATOM     87  O   UNL A   1      29.240  25.440  25.655  1.00  0.00    -0.207 OA
BRANCH  85  88
ATOM     88  C   UNL A   1      31.505  24.200  25.991  1.00  0.00     0.090 A 
ATOM     89  C   UNL A   1      32.044  23.808  27.284  1.00  0.00     0.024 A 
ATOM     90  C   UNL A   1      31.611  23.340  24.887  1.00  0.00     0.005 A 
ATOM     91  C   UNL A   1      32.753  22.585  27.634  1.00  0.00     0.028 A 
ATOM     92  C   UNL A   1      32.330  21.859  25.450  1.00  0.00     0.019 A 
ATOM     93  C   UNL A   1      31.135  23.413  23.141  1.00  0.00     0.010 A 
ATOM     94  C   UNL A   1      32.865  21.609  26.660  1.00  0.00     0.050 A 
ATOM     95  C   UNL A   1      32.674  20.485  24.440  1.00  0.00     0.050 A 
ATOM     96  C   UNL A   1      31.455  21.990  22.076  1.00  0.00     0.002 A 
ATOM     97  N   UNL A   1      33.475  20.339  26.583  1.00  0.00    -0.321 N 
ATOM     98  C   UNL A   1      32.180  20.444  22.722  1.00  0.00     0.014 A 
ATOM     99  C   UNL A   1      33.410  19.615  25.331  1.00  0.00     0.256 C 
ATOM    100  H   UNL A   1      33.935  19.954  27.363  1.00  0.00     0.170 HD
ATOM    101  O   UNL A   1      33.941  18.526  25.158  1.00  0.00    -0.269 OA
ENDBRANCH  85  88
ENDBRANCH  82  85
ENDBRANCH  77  80
ENDBRANCH  75  76
ENDBRANCH  74  75
ENDBRANCH  73  74
ENDBRANCH   1  73
TORSDOF 18
ENDMDL
