MODEL 1
REMARK VINA RESULT:     -10.8      0.000      0.000
REMARK SMILES C=C(C)CN(CC)c1ccc(F)cc1C(=O)NCCCCCCNC(=O)c1ccc(-c2c3nc(c(-c4cccc(S(=O)(=O)[O-])c4F)c4ccc([nH]4)c(-c4cccc(S(=O)(=O)[O-])c4F)c4nc(c(-c5cccc(S(=O)(=O)[O-])c5F)c5ccc2[nH]5)C=C4)C=C3)cc1
REMARK SMILES IDX 20 1 19 2 18 3 17 4 15 5 16 6 14 8 8 9 9 10 10 11 13 12
REMARK SMILES IDX 11 13 12 14 5 15 4 16 2 17 1 18 3 19 6 20 7 21 21 22 22 23
REMARK SMILES IDX 23 24 24 25 25 26 26 28 27 29 28 30 89 31 29 32 88 33 30 34
REMARK SMILES IDX 31 35 32 36 82 37 33 38 87 39 81 40 83 41 34 42 86 43 80 44
REMARK SMILES IDX 79 45 35 47 67 48 47 49 66 50 48 51 51 52 65 53 84 54 49 55
REMARK SMILES IDX 50 56 64 58 85 59 52 60 36 61 37 62 45 63 38 64 40 65 46 66
REMARK SMILES IDX 39 67 41 68 42 69 43 70 44 71 68 72 69 73 77 74 70 75 72 76
REMARK SMILES IDX 78 77 71 78 73 79 74 80 75 81 76 82 53 83 54 84 62 85 55 86
REMARK SMILES IDX 57 87 63 88 56 89 58 90 59 91 60 92 61 93
REMARK H PARENT 17 7 24 27 83 46 51 57
REMARK Flexibility Score: inf
ROOT
ATOM      1  C   UNL A   1      34.125  23.204  22.801  1.00  0.00     0.002 C 
ENDROOT
BRANCH   1   2
ATOM      2  C   UNL A   1      32.963  24.172  23.046  1.00  0.00     0.021 C 
BRANCH   2   3
ATOM      3  C   UNL A   1      33.309  25.465  23.768  1.00  0.00     0.116 C 
BRANCH   3   4
ATOM      4  N   UNL A   1      33.650  26.597  22.958  1.00  0.00    -0.352 N 
ATOM      5  C   UNL A   1      33.659  27.926  23.319  1.00  0.00     0.253 C 
ATOM      6  O   UNL A   1      34.076  28.725  22.473  1.00  0.00    -0.269 OA
ATOM      7  H   UNL A   1      33.909  26.401  22.029  1.00  0.00     0.163 HD
BRANCH   5   8
ATOM      8  C   UNL A   1      33.126  28.479  24.615  1.00  0.00     0.066 A 
ATOM      9  C   UNL A   1      31.798  28.858  24.952  1.00  0.00     0.050 A 
ATOM     10  C   UNL A   1      31.551  29.262  26.288  1.00  0.00     0.030 A 
ATOM     11  C   UNL A   1      32.551  29.316  27.257  1.00  0.00     0.041 A 
ATOM     12  C   UNL A   1      34.120  28.512  25.624  1.00  0.00     0.055 A 
ATOM     13  C   UNL A   1      33.830  28.930  26.915  1.00  0.00     0.124 A 
ATOM     14  F   UNL A   1      34.795  28.945  27.844  1.00  0.00    -0.207 F 
BRANCH   9  15
ATOM     15  N   UNL A   1      30.699  28.807  24.096  1.00  0.00    -0.367 N 
BRANCH  15  16
ATOM     16  C   UNL A   1      30.325  27.519  23.473  1.00  0.00     0.146 C 
BRANCH  16  17
ATOM     17  C   UNL A   1      29.454  26.607  24.291  1.00  0.00    -0.061 C 
ATOM     18  C   UNL A   1      28.168  26.350  23.999  1.00  0.00     0.009 C 
ATOM     19  C   UNL A   1      30.088  26.094  25.557  1.00  0.00     0.041 C 
ENDBRANCH  16  17
ENDBRANCH  15  16
BRANCH  15  20
ATOM     20  C   UNL A   1      30.211  30.049  23.479  1.00  0.00     0.113 C 
ATOM     21  C   UNL A   1      29.187  29.829  22.371  1.00  0.00     0.027 C 
ENDBRANCH  15  20
ENDBRANCH   9  15
ENDBRANCH   5   8
ENDBRANCH   3   4
ENDBRANCH   2   3
ENDBRANCH   1   2
BRANCH   1  22
ATOM     22  C   UNL A   1      34.762  22.510  24.011  1.00  0.00     0.002 C 
BRANCH  22  23
ATOM     23  C   UNL A   1      36.276  22.634  24.210  1.00  0.00     0.021 C 
BRANCH  23  24
ATOM     24  C   UNL A   1      36.807  22.507  25.633  1.00  0.00     0.116 C 
BRANCH  24  25
ATOM     25  N   UNL A   1      37.806  21.467  25.785  1.00  0.00    -0.352 N 
ATOM     26  C   UNL A   1      39.111  21.534  26.199  1.00  0.00     0.251 C 
ATOM     27  H   UNL A   1      37.495  20.562  25.552  1.00  0.00     0.163 HD
ATOM     28  O   UNL A   1      39.789  20.506  26.175  1.00  0.00    -0.269 OA
BRANCH  26  29
ATOM     29  C   UNL A   1      39.732  22.806  26.645  1.00  0.00     0.039 A 
ATOM     30  C   UNL A   1      39.338  23.986  26.003  1.00  0.00     0.014 A 
ATOM     31  C   UNL A   1      40.717  22.863  27.635  1.00  0.00     0.014 A 
ATOM     32  C   UNL A   1      39.897  25.211  26.377  1.00  0.00     0.010 A 
ATOM     33  C   UNL A   1      41.218  24.098  28.061  1.00  0.00     0.010 A 
ATOM     34  C   UNL A   1      40.823  25.285  27.431  1.00  0.00    -0.014 A 
BRANCH  34  35
ATOM     35  C   UNL A   1      41.359  26.602  27.870  1.00  0.00     0.031 A 
ATOM     36  C   UNL A   1      42.796  26.977  27.622  1.00  0.00     0.074 A 
ATOM     37  C   UNL A   1      40.546  27.463  28.518  1.00  0.00     0.049 A 
ATOM     38  N   UNL A   1      43.408  28.102  27.886  1.00  0.00    -0.248 NA
ATOM     39  C   UNL A   1      43.668  25.955  27.016  1.00  0.00     0.031 C 
ATOM     40  C   UNL A   1      39.155  27.189  28.886  1.00  0.00     0.029 A 
ATOM     41  N   UNL A   1      40.765  28.738  28.981  1.00  0.00    -0.354 N 
ATOM     42  C   UNL A   1      44.731  27.922  27.498  1.00  0.00     0.074 A 
ATOM     43  C   UNL A   1      44.847  26.564  27.019  1.00  0.00     0.031 C 
ATOM     44  C   UNL A   1      38.637  28.272  29.484  1.00  0.00     0.029 A 
ATOM     45  C   UNL A   1      39.661  29.309  29.572  1.00  0.00     0.049 A 
ATOM     46  H   UNL A   1      41.631  29.199  28.897  1.00  0.00     0.167 HD
ATOM     47  C   UNL A   1      45.746  28.818  27.504  1.00  0.00     0.034 A 
ATOM     48  C   UNL A   1      39.485  30.530  30.116  1.00  0.00     0.034 A 
ATOM     49  C   UNL A   1      45.613  30.181  27.939  1.00  0.00     0.049 A 
ATOM     50  C   UNL A   1      40.621  31.517  30.085  1.00  0.00     0.074 A 
ATOM     51  C   UNL A   1      46.565  31.185  27.905  1.00  0.00     0.029 A 
ATOM     52  N   UNL A   1      44.466  30.732  28.487  1.00  0.00    -0.354 N 
ATOM     53  N   UNL A   1      41.821  31.371  29.575  1.00  0.00    -0.248 NA
ATOM     54  C   UNL A   1      40.377  32.843  30.670  1.00  0.00     0.031 C 
ATOM     55  C   UNL A   1      46.003  32.335  28.463  1.00  0.00     0.029 A 
ATOM     56  C   UNL A   1      44.690  32.058  28.809  1.00  0.00     0.049 A 
ATOM     57  H   UNL A   1      43.619  30.252  28.626  1.00  0.00     0.167 HD
ATOM     58  C   UNL A   1      42.460  32.593  29.746  1.00  0.00     0.074 A 
ATOM     59  C   UNL A   1      41.514  33.474  30.397  1.00  0.00     0.031 C 
ATOM     60  C   UNL A   1      43.722  32.946  29.403  1.00  0.00     0.034 A 
BRANCH  47  61
ATOM     61  C   UNL A   1      47.083  28.387  26.959  1.00  0.00     0.023 A 
ATOM     62  C   UNL A   1      48.162  28.198  27.847  1.00  0.00     0.012 A 
ATOM     63  C   UNL A   1      47.242  28.053  25.599  1.00  0.00     0.148 A 
ATOM     64  C   UNL A   1      49.381  27.702  27.389  1.00  0.00     0.002 A 
ATOM     65  C   UNL A   1      48.446  27.516  25.157  1.00  0.00     0.091 A 
ATOM     66  F   UNL A   1      46.209  28.253  24.767  1.00  0.00    -0.205 F 
ATOM     67  C   UNL A   1      49.519  27.350  26.049  1.00  0.00     0.022 A 
BRANCH  65  68
ATOM     68  S   UNL A   1      48.701  26.947  23.473  1.00  0.00     0.127 S 
ATOM     69  O   UNL A   1      47.864  25.749  23.437  1.00  0.00    -0.237 OA
ATOM     70  O   UNL A   1      48.194  28.070  22.688  1.00  0.00    -0.237 OA
ATOM     71  O   UNL A   1      50.134  26.705  23.342  1.00  0.00    -0.744 OA
ENDBRANCH  65  68
ENDBRANCH  47  61
BRANCH  48  72
ATOM     72  C   UNL A   1      38.148  30.909  30.655  1.00  0.00     0.023 A 
ATOM     73  C   UNL A   1      37.838  30.629  32.001  1.00  0.00     0.012 A 
ATOM     74  C   UNL A   1      37.211  31.606  29.867  1.00  0.00     0.148 A 
ATOM     75  C   UNL A   1      36.614  31.019  32.546  1.00  0.00     0.002 A 
ATOM     76  C   UNL A   1      36.018  32.043  30.432  1.00  0.00     0.091 A 
ATOM     77  F   UNL A   1      37.519  31.852  28.586  1.00  0.00    -0.205 F 
ATOM     78  C   UNL A   1      35.710  31.738  31.767  1.00  0.00     0.022 A 
BRANCH  76  79
ATOM     79  S   UNL A   1      34.863  33.098  29.547  1.00  0.00     0.127 S 
ATOM     80  O   UNL A   1      35.729  34.196  29.119  1.00  0.00    -0.237 OA
ATOM     81  O   UNL A   1      34.413  32.213  28.470  1.00  0.00    -0.237 OA
ATOM     82  O   UNL A   1      33.829  33.447  30.508  1.00  0.00    -0.744 OA
ENDBRANCH  76  79
ENDBRANCH  48  72
BRANCH  60  83
ATOM     83  C   UNL A   1      44.180  34.352  29.683  1.00  0.00     0.023 A 
ATOM     84  C   UNL A   1      44.920  34.623  30.849  1.00  0.00     0.012 A 
ATOM     85  C   UNL A   1      44.028  35.356  28.706  1.00  0.00     0.148 A 
ATOM     86  C   UNL A   1      45.502  35.876  31.040  1.00  0.00     0.002 A 
ATOM     87  C   UNL A   1      44.652  36.585  28.879  1.00  0.00     0.091 A 
ATOM     88  F   UNL A   1      43.310  35.074  27.609  1.00  0.00    -0.205 F 
ATOM     89  C   UNL A   1      45.383  36.849  30.049  1.00  0.00     0.022 A 
BRANCH  87  90
ATOM     90  S   UNL A   1      44.652  37.860  27.613  1.00  0.00     0.127 S 
ATOM     91  O   UNL A   1      45.625  37.332  26.659  1.00  0.00    -0.237 OA
ATOM     92  O   UNL A   1      43.265  37.832  27.150  1.00  0.00    -0.237 OA
ATOM     93  O   UNL A   1      45.048  39.094  28.280  1.00  0.00    -0.744 OA
ENDBRANCH  87  90
ENDBRANCH  60  83
ENDBRANCH  34  35
ENDBRANCH  26  29
ENDBRANCH  24  25
ENDBRANCH  23  24
ENDBRANCH  22  23
ENDBRANCH   1  22
TORSDOF 20
ENDMDL
MODEL 2
REMARK VINA RESULT:     -10.8      5.401     10.292
REMARK SMILES C=C(C)CN(CC)c1ccc(F)cc1C(=O)NCCCCCCNC(=O)c1ccc(-c2c3nc(c(-c4cccc(S(=O)(=O)[O-])c4F)c4ccc([nH]4)c(-c4cccc(S(=O)(=O)[O-])c4F)c4nc(c(-c5cccc(S(=O)(=O)[O-])c5F)c5ccc2[nH]5)C=C4)C=C3)cc1
REMARK SMILES IDX 20 1 19 2 18 3 17 4 15 5 16 6 14 8 8 9 9 10 10 11 13 12
REMARK SMILES IDX 11 13 12 14 5 15 4 16 2 17 1 18 3 19 6 20 7 21 21 22 22 23
REMARK SMILES IDX 23 24 24 25 25 26 26 28 27 29 28 30 89 31 29 32 88 33 30 34
REMARK SMILES IDX 31 35 32 36 82 37 33 38 87 39 81 40 83 41 34 42 86 43 80 44
REMARK SMILES IDX 79 45 35 47 67 48 47 49 66 50 48 51 51 52 65 53 84 54 49 55
REMARK SMILES IDX 50 56 64 58 85 59 52 60 36 61 37 62 45 63 38 64 40 65 46 66
REMARK SMILES IDX 39 67 41 68 42 69 43 70 44 71 68 72 69 73 77 74 70 75 72 76
REMARK SMILES IDX 78 77 71 78 73 79 74 80 75 81 76 82 53 83 54 84 62 85 55 86
REMARK SMILES IDX 57 87 63 88 56 89 58 90 59 91 60 92 61 93
REMARK H PARENT 17 7 24 27 83 46 51 57
REMARK Flexibility Score: inf
ROOT
ATOM      1  C   UNL A   1      32.894  29.779  25.569  1.00  0.00     0.002 C 
ENDROOT
BRANCH   1   2
ATOM      2  C   UNL A   1      33.062  28.256  25.547  1.00  0.00     0.021 C 
BRANCH   2   3
ATOM      3  C   UNL A   1      32.774  27.531  26.852  1.00  0.00     0.116 C 
BRANCH   3   4
ATOM      4  N   UNL A   1      31.666  26.622  26.867  1.00  0.00    -0.352 N 
ATOM      5  C   UNL A   1      31.628  25.323  26.410  1.00  0.00     0.253 C 
ATOM      6  O   UNL A   1      30.580  24.699  26.608  1.00  0.00    -0.269 OA
ATOM      7  H   UNL A   1      30.828  26.970  27.250  1.00  0.00     0.163 HD
BRANCH   5   8
ATOM      8  C   UNL A   1      32.719  24.647  25.622  1.00  0.00     0.066 A 
ATOM      9  C   UNL A   1      33.029  24.754  24.239  1.00  0.00     0.050 A 
ATOM     10  C   UNL A   1      34.181  24.074  23.771  1.00  0.00     0.030 A 
ATOM     11  C   UNL A   1      34.993  23.305  24.602  1.00  0.00     0.041 A 
ATOM     12  C   UNL A   1      33.576  23.884  26.454  1.00  0.00     0.055 A 
ATOM     13  C   UNL A   1      34.685  23.224  25.944  1.00  0.00     0.124 A 
ATOM     14  F   UNL A   1      35.474  22.515  26.761  1.00  0.00    -0.207 F 
BRANCH   9  15
ATOM     15  N   UNL A   1      32.331  25.525  23.311  1.00  0.00    -0.367 N 
BRANCH  15  16
ATOM     16  C   UNL A   1      30.871  25.341  23.167  1.00  0.00     0.146 C 
BRANCH  16  17
ATOM     17  C   UNL A   1      30.010  26.520  23.526  1.00  0.00    -0.061 C 
ATOM     18  C   UNL A   1      28.814  26.410  24.129  1.00  0.00     0.009 C 
ATOM     19  C   UNL A   1      30.523  27.850  23.040  1.00  0.00     0.041 C 
ENDBRANCH  16  17
ENDBRANCH  15  16
BRANCH  15  20
ATOM     20  C   UNL A   1      33.066  26.160  22.206  1.00  0.00     0.113 C 
ATOM     21  C   UNL A   1      32.617  25.708  20.822  1.00  0.00     0.027 C 
ENDBRANCH  15  20
ENDBRANCH   9  15
ENDBRANCH   5   8
ENDBRANCH   3   4
ENDBRANCH   2   3
ENDBRANCH   1   2
BRANCH   1  22
ATOM     22  C   UNL A   1      31.506  30.354  25.880  1.00  0.00     0.002 C 
BRANCH  22  23
ATOM     23  C   UNL A   1      31.417  31.759  26.483  1.00  0.00     0.021 C 
BRANCH  23  24
ATOM     24  C   UNL A   1      32.710  32.386  26.991  1.00  0.00     0.116 C 
BRANCH  24  25
ATOM     25  N   UNL A   1      32.513  33.663  27.648  1.00  0.00    -0.352 N 
ATOM     26  C   UNL A   1      33.246  34.291  28.622  1.00  0.00     0.251 C 
ATOM     27  H   UNL A   1      31.722  34.163  27.344  1.00  0.00     0.163 HD
ATOM     28  O   UNL A   1      32.828  35.357  29.077  1.00  0.00    -0.269 OA
BRANCH  26  29
ATOM     29  C   UNL A   1      34.502  33.711  29.160  1.00  0.00     0.039 A 
ATOM     30  C   UNL A   1      34.397  32.668  30.087  1.00  0.00     0.014 A 
ATOM     31  C   UNL A   1      35.768  34.194  28.815  1.00  0.00     0.014 A 
ATOM     32  C   UNL A   1      35.547  32.091  30.631  1.00  0.00     0.010 A 
ATOM     33  C   UNL A   1      36.919  33.564  29.301  1.00  0.00     0.010 A 
ATOM     34  C   UNL A   1      36.823  32.513  30.223  1.00  0.00    -0.014 A 
BRANCH  34  35
ATOM     35  C   UNL A   1      38.042  31.845  30.754  1.00  0.00     0.031 A 
ATOM     36  C   UNL A   1      38.608  32.217  32.098  1.00  0.00     0.074 A 
ATOM     37  C   UNL A   1      38.659  30.905  30.006  1.00  0.00     0.049 A 
ATOM     38  N   UNL A   1      39.626  31.695  32.733  1.00  0.00    -0.248 NA
ATOM     39  C   UNL A   1      37.965  33.329  32.819  1.00  0.00     0.031 C 
ATOM     40  C   UNL A   1      38.254  30.508  28.655  1.00  0.00     0.029 A 
ATOM     41  N   UNL A   1      39.750  30.114  30.270  1.00  0.00    -0.354 N 
ATOM     42  C   UNL A   1      39.756  32.420  33.913  1.00  0.00     0.074 A 
ATOM     43  C   UNL A   1      38.741  33.448  33.889  1.00  0.00     0.031 C 
ATOM     44  C   UNL A   1      39.062  29.528  28.224  1.00  0.00     0.029 A 
ATOM     45  C   UNL A   1      40.061  29.242  29.250  1.00  0.00     0.049 A 
ATOM     46  H   UNL A   1      40.262  30.165  31.109  1.00  0.00     0.167 HD
ATOM     47  C   UNL A   1      40.617  32.221  34.939  1.00  0.00     0.034 A 
ATOM     48  C   UNL A   1      41.032  28.312  29.151  1.00  0.00     0.034 A 
ATOM     49  C   UNL A   1      41.594  31.168  34.977  1.00  0.00     0.049 A 
ATOM     50  C   UNL A   1      41.958  28.093  30.316  1.00  0.00     0.074 A 
ATOM     51  C   UNL A   1      42.455  30.839  36.009  1.00  0.00     0.029 A 
ATOM     52  N   UNL A   1      41.845  30.278  33.944  1.00  0.00    -0.354 N 
ATOM     53  N   UNL A   1      41.965  28.691  31.483  1.00  0.00    -0.248 NA
ATOM     54  C   UNL A   1      42.988  27.053  30.172  1.00  0.00     0.031 C 
ATOM     55  C   UNL A   1      43.249  29.769  35.588  1.00  0.00     0.029 A 
ATOM     56  C   UNL A   1      42.856  29.409  34.309  1.00  0.00     0.049 A 
ATOM     57  H   UNL A   1      41.373  30.267  33.081  1.00  0.00     0.167 HD
ATOM     58  C   UNL A   1      42.971  28.080  32.221  1.00  0.00     0.074 A 
ATOM     59  C   UNL A   1      43.547  27.056  31.377  1.00  0.00     0.031 C 
ATOM     60  C   UNL A   1      43.384  28.353  33.482  1.00  0.00     0.034 A 
BRANCH  47  61
ATOM     61  C   UNL A   1      40.505  33.112  36.149  1.00  0.00     0.023 A 
ATOM     62  C   UNL A   1      41.155  34.364  36.147  1.00  0.00     0.012 A 
ATOM     63  C   UNL A   1      39.666  32.773  37.229  1.00  0.00     0.148 A 
ATOM     64  C   UNL A   1      40.988  35.253  37.207  1.00  0.00     0.002 A 
ATOM     65  C   UNL A   1      39.468  33.683  38.261  1.00  0.00     0.091 A 
ATOM     66  F   UNL A   1      39.067  31.573  37.219  1.00  0.00    -0.205 F 
ATOM     67  C   UNL A   1      40.135  34.919  38.255  1.00  0.00     0.022 A 
BRANCH  65  68
ATOM     68  S   UNL A   1      38.323  33.390  39.613  1.00  0.00     0.127 S 
ATOM     69  O   UNL A   1      38.388  34.661  40.334  1.00  0.00    -0.237 OA
ATOM     70  O   UNL A   1      37.066  33.152  38.908  1.00  0.00    -0.237 OA
ATOM     71  O   UNL A   1      38.845  32.239  40.341  1.00  0.00    -0.744 OA
ENDBRANCH  65  68
ENDBRANCH  47  61
BRANCH  48  72
ATOM     72  C   UNL A   1      41.113  27.461  27.929  1.00  0.00     0.023 A 
ATOM     73  C   UNL A   1      41.726  27.971  26.768  1.00  0.00     0.012 A 
ATOM     74  C   UNL A   1      40.651  26.130  27.932  1.00  0.00     0.148 A 
ATOM     75  C   UNL A   1      41.862  27.179  25.627  1.00  0.00     0.002 A 
ATOM     76  C   UNL A   1      40.843  25.327  26.813  1.00  0.00     0.091 A 
ATOM     77  F   UNL A   1      40.060  25.666  29.043  1.00  0.00    -0.205 F 
ATOM     78  C   UNL A   1      41.433  25.854  25.654  1.00  0.00     0.022 A 
BRANCH  76  79
ATOM     79  S   UNL A   1      40.456  23.572  26.809  1.00  0.00     0.127 S 
ATOM     80  O   UNL A   1      41.435  23.052  25.856  1.00  0.00    -0.237 OA
ATOM     81  O   UNL A   1      40.701  23.208  28.206  1.00  0.00    -0.237 OA
ATOM     82  O   UNL A   1      39.064  23.475  26.399  1.00  0.00    -0.744 OA
ENDBRANCH  76  79
ENDBRANCH  48  72
BRANCH  60  83
ATOM     83  C   UNL A   1      44.496  27.528  34.072  1.00  0.00     0.023 A 
ATOM     84  C   UNL A   1      45.820  28.007  34.021  1.00  0.00     0.012 A 
ATOM     85  C   UNL A   1      44.203  26.375  34.826  1.00  0.00     0.148 A 
ATOM     86  C   UNL A   1      46.835  27.346  34.712  1.00  0.00     0.002 A 
ATOM     87  C   UNL A   1      45.209  25.752  35.552  1.00  0.00     0.091 A 
ATOM     88  F   UNL A   1      42.936  25.935  34.850  1.00  0.00    -0.205 F 
ATOM     89  C   UNL A   1      46.528  26.233  35.490  1.00  0.00     0.022 A 
BRANCH  87  90
ATOM     90  S   UNL A   1      44.894  24.381  36.670  1.00  0.00     0.127 S 
ATOM     91  O   UNL A   1      43.938  24.973  37.605  1.00  0.00    -0.237 OA
ATOM     92  O   UNL A   1      44.327  23.377  35.771  1.00  0.00    -0.237 OA
ATOM     93  O   UNL A   1      46.183  24.025  37.250  1.00  0.00    -0.744 OA
ENDBRANCH  87  90
ENDBRANCH  60  83
ENDBRANCH  34  35
ENDBRANCH  26  29
ENDBRANCH  24  25
ENDBRANCH  23  24
ENDBRANCH  22  23
ENDBRANCH   1  22
TORSDOF 20
ENDMDL
MODEL 3
REMARK VINA RESULT:     -10.7      1.758      2.480
REMARK SMILES C=C(C)CN(CC)c1ccc(F)cc1C(=O)NCCCCCCNC(=O)c1ccc(-c2c3nc(c(-c4cccc(S(=O)(=O)[O-])c4F)c4ccc([nH]4)c(-c4cccc(S(=O)(=O)[O-])c4F)c4nc(c(-c5cccc(S(=O)(=O)[O-])c5F)c5ccc2[nH]5)C=C4)C=C3)cc1
REMARK SMILES IDX 20 1 19 2 18 3 17 4 15 5 16 6 14 8 8 9 9 10 10 11 13 12
REMARK SMILES IDX 11 13 12 14 5 15 4 16 2 17 1 18 3 19 6 20 7 21 21 22 22 23
REMARK SMILES IDX 23 24 24 25 25 26 26 28 27 29 28 30 89 31 29 32 88 33 30 34
REMARK SMILES IDX 31 35 32 36 82 37 33 38 87 39 81 40 83 41 34 42 86 43 80 44
REMARK SMILES IDX 79 45 35 47 67 48 47 49 66 50 48 51 51 52 65 53 84 54 49 55
REMARK SMILES IDX 50 56 64 58 85 59 52 60 36 61 37 62 45 63 38 64 40 65 46 66
REMARK SMILES IDX 39 67 41 68 42 69 43 70 44 71 68 72 69 73 77 74 70 75 72 76
REMARK SMILES IDX 78 77 71 78 73 79 74 80 75 81 76 82 53 83 54 84 62 85 55 86
REMARK SMILES IDX 57 87 63 88 56 89 58 90 59 91 60 92 61 93
REMARK H PARENT 17 7 24 27 83 46 51 57
REMARK Flexibility Score: inf
ROOT
ATOM      1  C   UNL A   1      33.752  23.816  22.923  1.00  0.00     0.002 C 
ENDROOT
BRANCH   1   2
ATOM      2  C   UNL A   1      32.254  24.074  22.729  1.00  0.00     0.021 C 
BRANCH   2   3
ATOM      3  C   UNL A   1      31.845  25.524  22.525  1.00  0.00     0.116 C 
BRANCH   3   4
ATOM      4  N   UNL A   1      32.896  26.491  22.403  1.00  0.00    -0.352 N 
ATOM      5  C   UNL A   1      32.848  27.837  22.693  1.00  0.00     0.253 C 
ATOM      6  O   UNL A   1      33.910  28.460  22.592  1.00  0.00    -0.269 OA
ATOM      7  H   UNL A   1      33.758  26.151  22.070  1.00  0.00     0.163 HD
BRANCH   5   8
ATOM      8  C   UNL A   1      31.601  28.610  23.032  1.00  0.00     0.066 A 
ATOM      9  C   UNL A   1      31.007  28.848  24.302  1.00  0.00     0.050 A 
ATOM     10  C   UNL A   1      29.874  29.698  24.346  1.00  0.00     0.030 A 
ATOM     11  C   UNL A   1      29.323  30.281  23.207  1.00  0.00     0.041 A 
ATOM     12  C   UNL A   1      31.042  29.238  21.891  1.00  0.00     0.055 A 
ATOM     13  C   UNL A   1      29.921  30.050  21.986  1.00  0.00     0.124 A 
ATOM     14  F   UNL A   1      29.423  30.631  20.886  1.00  0.00    -0.207 F 
BRANCH   9  15
ATOM     15  N   UNL A   1      31.482  28.367  25.520  1.00  0.00    -0.367 N 
BRANCH  15  16
ATOM     16  C   UNL A   1      31.175  26.978  25.921  1.00  0.00     0.146 C 
BRANCH  16  17
ATOM     17  C   UNL A   1      32.350  26.055  26.096  1.00  0.00    -0.061 C 
ATOM     18  C   UNL A   1      33.617  26.406  25.819  1.00  0.00     0.009 C 
ATOM     19  C   UNL A   1      31.994  24.644  26.483  1.00  0.00     0.041 C 
ENDBRANCH  16  17
ENDBRANCH  15  16
BRANCH  15  20
ATOM     20  C   UNL A   1      31.878  29.323  26.566  1.00  0.00     0.113 C 
ATOM     21  C   UNL A   1      33.078  30.186  26.195  1.00  0.00     0.027 C 
ENDBRANCH  15  20
ENDBRANCH   9  15
ENDBRANCH   5   8
ENDBRANCH   3   4
ENDBRANCH   2   3
ENDBRANCH   1   2
BRANCH   1  22
ATOM     22  C   UNL A   1      34.214  23.156  24.228  1.00  0.00     0.002 C 
BRANCH  22  23
ATOM     23  C   UNL A   1      35.631  22.578  24.291  1.00  0.00     0.021 C 
BRANCH  23  24
ATOM     24  C   UNL A   1      36.136  22.109  25.650  1.00  0.00     0.116 C 
BRANCH  24  25
ATOM     25  N   UNL A   1      37.085  21.015  25.567  1.00  0.00    -0.352 N 
ATOM     26  C   UNL A   1      38.440  20.989  25.776  1.00  0.00     0.251 C 
ATOM     27  H   UNL A   1      36.690  20.148  25.321  1.00  0.00     0.163 HD
ATOM     28  O   UNL A   1      39.045  19.936  25.571  1.00  0.00    -0.269 OA
BRANCH  26  29
ATOM     29  C   UNL A   1      39.194  22.191  26.210  1.00  0.00     0.039 A 
ATOM     30  C   UNL A   1      38.819  23.428  25.672  1.00  0.00     0.014 A 
ATOM     31  C   UNL A   1      40.281  22.128  27.087  1.00  0.00     0.014 A 
ATOM     32  C   UNL A   1      39.500  24.591  26.040  1.00  0.00     0.010 A 
ATOM     33  C   UNL A   1      40.911  23.302  27.512  1.00  0.00     0.010 A 
ATOM     34  C   UNL A   1      40.537  24.546  26.987  1.00  0.00    -0.014 A 
BRANCH  34  35
ATOM     35  C   UNL A   1      41.210  25.799  27.426  1.00  0.00     0.031 A 
ATOM     36  C   UNL A   1      42.637  26.088  27.045  1.00  0.00     0.074 A 
ATOM     37  C   UNL A   1      40.532  26.678  28.194  1.00  0.00     0.049 A 
ATOM     38  N   UNL A   1      43.353  27.154  27.294  1.00  0.00    -0.248 NA
ATOM     39  C   UNL A   1      43.366  25.042  26.306  1.00  0.00     0.031 C 
ATOM     40  C   UNL A   1      39.169  26.480  28.694  1.00  0.00     0.029 A 
ATOM     41  N   UNL A   1      40.889  27.909  28.688  1.00  0.00    -0.354 N 
ATOM     42  C   UNL A   1      44.613  26.904  26.761  1.00  0.00     0.074 A 
ATOM     43  C   UNL A   1      44.580  25.568  26.212  1.00  0.00     0.031 C 
ATOM     44  C   UNL A   1      38.795  27.563  29.392  1.00  0.00     0.029 A 
ATOM     45  C   UNL A   1      39.895  28.521  29.418  1.00  0.00     0.049 A 
ATOM     46  H   UNL A   1      41.773  28.314  28.535  1.00  0.00     0.167 HD
ATOM     47  C   UNL A   1      45.686  27.728  26.700  1.00  0.00     0.034 A 
ATOM     48  C   UNL A   1      39.865  29.721  30.032  1.00  0.00     0.034 A 
ATOM     49  C   UNL A   1      45.698  29.073  27.208  1.00  0.00     0.049 A 
ATOM     50  C   UNL A   1      41.061  30.629  29.926  1.00  0.00     0.074 A 
ATOM     51  C   UNL A   1      46.712  30.010  27.120  1.00  0.00     0.029 A 
ATOM     52  N   UNL A   1      44.656  29.671  27.898  1.00  0.00    -0.354 N 
ATOM     53  N   UNL A   1      42.189  30.429  29.286  1.00  0.00    -0.248 NA
ATOM     54  C   UNL A   1      40.975  31.937  30.593  1.00  0.00     0.031 C 
ATOM     55  C   UNL A   1      46.295  31.165  27.785  1.00  0.00     0.029 A 
ATOM     56  C   UNL A   1      45.007  30.960  28.254  1.00  0.00     0.049 A 
ATOM     57  H   UNL A   1      43.794  29.242  28.104  1.00  0.00     0.167 HD
ATOM     58  C   UNL A   1      42.930  31.595  29.444  1.00  0.00     0.074 A 
ATOM     59  C   UNL A   1      42.121  32.502  30.230  1.00  0.00     0.031 C 
ATOM     60  C   UNL A   1      44.172  31.878  28.986  1.00  0.00     0.034 A 
BRANCH  47  61
ATOM     61  C   UNL A   1      46.926  27.236  25.998  1.00  0.00     0.023 A 
ATOM     62  C   UNL A   1      47.094  27.507  24.625  1.00  0.00     0.012 A 
ATOM     63  C   UNL A   1      47.972  26.620  26.714  1.00  0.00     0.148 A 
ATOM     64  C   UNL A   1      48.275  27.156  23.971  1.00  0.00     0.002 A 
ATOM     65  C   UNL A   1      49.163  26.314  26.066  1.00  0.00     0.091 A 
ATOM     66  F   UNL A   1      47.787  26.358  28.016  1.00  0.00    -0.205 F 
ATOM     67  C   UNL A   1      49.311  26.572  24.693  1.00  0.00     0.022 A 
BRANCH  65  68
ATOM     68  S   UNL A   1      50.593  25.642  26.920  1.00  0.00     0.127 S 
ATOM     69  O   UNL A   1      51.509  25.391  25.808  1.00  0.00    -0.237 OA
ATOM     70  O   UNL A   1      50.980  26.749  27.792  1.00  0.00    -0.237 OA
ATOM     71  O   UNL A   1      50.124  24.449  27.616  1.00  0.00    -0.744 OA
ENDBRANCH  65  68
ENDBRANCH  47  61
BRANCH  48  72
ATOM     72  C   UNL A   1      38.621  30.162  30.726  1.00  0.00     0.023 A 
ATOM     73  C   UNL A   1      38.461  29.894  32.099  1.00  0.00     0.012 A 
ATOM     74  C   UNL A   1      37.630  30.903  30.052  1.00  0.00     0.148 A 
ATOM     75  C   UNL A   1      37.330  30.339  32.785  1.00  0.00     0.002 A 
ATOM     76  C   UNL A   1      36.535  31.395  30.754  1.00  0.00     0.091 A 
ATOM     77  F   UNL A   1      37.795  31.138  28.742  1.00  0.00    -0.205 F 
ATOM     78  C   UNL A   1      36.375  31.101  32.117  1.00  0.00     0.022 A 
BRANCH  76  79
ATOM     79  S   UNL A   1      35.334  32.505  30.009  1.00  0.00     0.127 S 
ATOM     80  O   UNL A   1      34.732  31.651  28.986  1.00  0.00    -0.237 OA
ATOM     81  O   UNL A   1      34.463  32.810  31.147  1.00  0.00    -0.237 OA
ATOM     82  O   UNL A   1      36.096  33.640  29.515  1.00  0.00    -0.744 OA
ENDBRANCH  76  79
ENDBRANCH  48  72
BRANCH  60  83
ATOM     83  C   UNL A   1      44.758  33.233  29.279  1.00  0.00     0.023 A 
ATOM     84  C   UNL A   1      45.591  33.404  30.402  1.00  0.00     0.012 A 
ATOM     85  C   UNL A   1      44.624  34.282  28.347  1.00  0.00     0.148 A 
ATOM     86  C   UNL A   1      46.281  34.600  30.592  1.00  0.00     0.002 A 
ATOM     87  C   UNL A   1      45.353  35.452  28.517  1.00  0.00     0.091 A 
ATOM     88  F   UNL A   1      43.816  34.097  27.293  1.00  0.00    -0.205 F 
ATOM     89  C   UNL A   1      46.177  35.615  29.643  1.00  0.00     0.022 A 
BRANCH  87  90
ATOM     90  S   UNL A   1      45.372  36.769  27.296  1.00  0.00     0.127 S 
ATOM     91  O   UNL A   1      46.251  37.750  27.930  1.00  0.00    -0.237 OA
ATOM     92  O   UNL A   1      45.946  36.098  26.131  1.00  0.00    -0.237 OA
ATOM     93  O   UNL A   1      43.988  37.195  27.135  1.00  0.00    -0.744 OA
ENDBRANCH  87  90
ENDBRANCH  60  83
ENDBRANCH  34  35
ENDBRANCH  26  29
ENDBRANCH  24  25
ENDBRANCH  23  24
ENDBRANCH  22  23
ENDBRANCH   1  22
TORSDOF 20
ENDMDL
