MODEL 1
REMARK VINA RESULT:     -12.7      0.000      0.000
REMARK SMILES O=C(CCN1C(=O)[C@@H]2[C@@H](C1=O)[C@H]1c3ccccc3[C@]2(Br)c2ccccc21)NCCCCCCNC(=O)c1ccc(-c2c3nc(c(-c4cccc(S(=O)(=O)[O-])c4F)c4ccc([nH]4)c(-c4cccc(S(=O)(=O)[O-])c4F)c4nc(c(-c5cccc(S(=O)(=O)[O-])c5F)c5ccc2[nH]5)C=C4)C=C3)cc1
REMARK SMILES IDX 31 1 30 2 29 3 28 4 27 5 1 6 2 7 3 9 4 10 5 11 6 12 10 13
REMARK SMILES IDX 7 14 8 15 9 16 11 17 19 18 12 19 21 20 20 21 18 22 26 23
REMARK SMILES IDX 13 24 22 25 17 26 25 27 14 28 23 29 16 30 24 31 15 32 32 33
REMARK SMILES IDX 33 34 34 35 35 36 36 38 37 39 38 40 99 41 39 42 98 43 40 44
REMARK SMILES IDX 41 45 42 46 92 47 43 48 97 49 91 50 93 51 44 52 96 53 90 54
REMARK SMILES IDX 89 55 45 57 77 58 57 59 76 60 58 61 61 62 75 63 94 64 59 65
REMARK SMILES IDX 60 66 74 68 95 69 62 70 46 71 47 72 55 73 48 74 50 75 56 76
REMARK SMILES IDX 49 77 51 78 52 79 53 80 54 81 78 82 79 83 87 84 80 85 82 86
REMARK SMILES IDX 88 87 81 88 83 89 84 90 85 91 86 92 63 93 64 94 72 95 65 96
REMARK SMILES IDX 67 97 73 98 66 99 68 100 69 101 70 102 71 103
REMARK H PARENT 27 8 34 37 93 56 61 67
REMARK Flexibility Score: inf
ROOT
ATOM      1  C   UNL A   1      34.415  31.550  28.457  1.00  0.00     0.002 C 
ENDROOT
BRANCH   1   2
ATOM      2  C   UNL A   1      35.217  30.566  27.609  1.00  0.00     0.002 C 
BRANCH   2   3
ATOM      3  C   UNL A   1      34.455  29.327  27.125  1.00  0.00     0.021 C 
BRANCH   3   4
ATOM      4  C   UNL A   1      32.930  29.425  27.166  1.00  0.00     0.116 C 
BRANCH   4   5
ATOM      5  N   UNL A   1      32.292  28.661  26.112  1.00  0.00    -0.356 N 
ATOM      6  O   UNL A   1      31.106  27.253  27.495  1.00  0.00    -0.275 OA
ATOM      7  C   UNL A   1      31.358  27.689  26.377  1.00  0.00     0.221 C 
ATOM      8  H   UNL A   1      32.534  28.846  25.175  1.00  0.00     0.163 HD
BRANCH   7   9
ATOM      9  C   UNL A   1      30.615  27.212  25.151  1.00  0.00     0.122 C 
BRANCH   9  10
ATOM     10  C   UNL A   1      29.979  25.849  25.413  1.00  0.00     0.138 C 
BRANCH  10  11
ATOM     11  N   UNL A   1      30.884  24.733  25.168  1.00  0.00    -0.281 N 
ATOM     12  C   UNL A   1      31.443  23.939  26.172  1.00  0.00     0.235 C 
ATOM     13  C   UNL A   1      31.348  24.382  23.905  1.00  0.00     0.234 C 
ATOM     14  O   UNL A   1      31.170  23.945  27.354  1.00  0.00    -0.274 OA
ATOM     15  C   UNL A   1      32.589  23.242  25.501  1.00  0.00     0.118 C 
ATOM     16  C   UNL A   1      31.968  23.043  24.117  1.00  0.00     0.105 C 
ATOM     17  O   UNL A   1      31.159  24.939  22.842  1.00  0.00    -0.274 OA
ATOM     18  C   UNL A   1      33.442  21.992  25.833  1.00  0.00     0.088 C 
ATOM     19  C   UNL A   1      32.964  22.305  23.224  1.00  0.00     0.063 C 
ATOM     20  C   UNL A   1      34.720  22.354  25.020  1.00  0.00    -0.022 A 
ATOM     21  Br  UNL A   1      33.735  21.840  27.725  1.00  0.00    -0.074 Br
ATOM     22  C   UNL A   1      32.956  20.696  25.133  1.00  0.00    -0.022 A 
ATOM     23  C   UNL A   1      34.425  22.590  23.628  1.00  0.00    -0.035 A 
ATOM     24  C   UNL A   1      32.722  20.863  23.721  1.00  0.00    -0.035 A 
ATOM     25  C   UNL A   1      36.027  22.446  25.483  1.00  0.00     0.006 A 
ATOM     26  C   UNL A   1      32.920  19.406  25.652  1.00  0.00     0.006 A 
ATOM     27  C   UNL A   1      35.440  22.915  22.742  1.00  0.00     0.005 A 
ATOM     28  C   UNL A   1      32.361  19.804  22.899  1.00  0.00     0.005 A 
ATOM     29  C   UNL A   1      37.036  22.777  24.580  1.00  0.00     0.000 A 
ATOM     30  C   UNL A   1      32.584  18.336  24.811  1.00  0.00     0.000 A 
ATOM     31  C   UNL A   1      36.746  23.011  23.227  1.00  0.00     0.000 A 
ATOM     32  C   UNL A   1      32.283  18.533  23.459  1.00  0.00     0.000 A 
ENDBRANCH  10  11
ENDBRANCH   9  10
ENDBRANCH   7   9
ENDBRANCH   4   5
ENDBRANCH   3   4
ENDBRANCH   2   3
ENDBRANCH   1   2
BRANCH   1  33
ATOM     33  C   UNL A   1      33.547  32.542  27.686  1.00  0.00     0.021 C 
BRANCH  33  34
ATOM     34  C   UNL A   1      34.061  33.976  27.680  1.00  0.00     0.116 C 
BRANCH  34  35
ATOM     35  N   UNL A   1      33.211  34.904  28.419  1.00  0.00    -0.352 N 
ATOM     36  C   UNL A   1      33.219  35.194  29.766  1.00  0.00     0.251 C 
ATOM     37  H   UNL A   1      32.542  35.387  27.883  1.00  0.00     0.163 HD
ATOM     38  O   UNL A   1      32.366  35.930  30.252  1.00  0.00    -0.269 OA
BRANCH  36  39
ATOM     39  C   UNL A   1      34.249  34.581  30.627  1.00  0.00     0.039 A 
ATOM     40  C   UNL A   1      35.582  34.964  30.490  1.00  0.00     0.014 A 
ATOM     41  C   UNL A   1      33.889  33.579  31.534  1.00  0.00     0.014 A 
ATOM     42  C   UNL A   1      36.572  34.216  31.108  1.00  0.00     0.010 A 
ATOM     43  C   UNL A   1      34.885  32.891  32.232  1.00  0.00     0.010 A 
ATOM     44  C   UNL A   1      36.236  33.166  31.979  1.00  0.00    -0.014 A 
BRANCH  44  45
ATOM     45  C   UNL A   1      37.336  32.386  32.600  1.00  0.00     0.031 A 
ATOM     46  C   UNL A   1      38.030  31.286  31.844  1.00  0.00     0.074 A 
ATOM     47  C   UNL A   1      37.767  32.746  33.825  1.00  0.00     0.049 A 
ATOM     48  N   UNL A   1      39.072  30.581  32.202  1.00  0.00    -0.248 NA
ATOM     49  C   UNL A   1      37.493  30.923  30.521  1.00  0.00     0.031 C 
ATOM     50  C   UNL A   1      37.153  33.786  34.656  1.00  0.00     0.029 A 
ATOM     51  N   UNL A   1      38.836  32.317  34.566  1.00  0.00    -0.354 N 
ATOM     52  C   UNL A   1      39.289  29.670  31.177  1.00  0.00     0.074 A 
ATOM     53  C   UNL A   1      38.271  29.906  30.177  1.00  0.00     0.031 C 
ATOM     54  C   UNL A   1      37.897  33.965  35.756  1.00  0.00     0.029 A 
ATOM     55  C   UNL A   1      39.006  33.018  35.737  1.00  0.00     0.049 A 
ATOM     56  H   UNL A   1      39.426  31.579  34.287  1.00  0.00     0.167 HD
ATOM     57  C   UNL A   1      40.263  28.736  31.069  1.00  0.00     0.034 A 
ATOM     58  C   UNL A   1      39.953  32.917  36.689  1.00  0.00     0.034 A 
ATOM     59  C   UNL A   1      41.312  28.551  32.034  1.00  0.00     0.049 A 
ATOM     60  C   UNL A   1      41.044  31.903  36.525  1.00  0.00     0.074 A 
ATOM     61  C   UNL A   1      42.367  27.656  31.991  1.00  0.00     0.029 A 
ATOM     62  N   UNL A   1      41.448  29.278  33.206  1.00  0.00    -0.354 N 
ATOM     63  N   UNL A   1      41.267  31.097  35.515  1.00  0.00    -0.248 NA
ATOM     64  C   UNL A   1      42.017  31.785  37.619  1.00  0.00     0.031 C 
ATOM     65  C   UNL A   1      43.143  27.844  33.140  1.00  0.00     0.029 A 
ATOM     66  C   UNL A   1      42.570  28.855  33.894  1.00  0.00     0.049 A 
ATOM     67  H   UNL A   1      40.836  29.990  33.503  1.00  0.00     0.167 HD
ATOM     68  C   UNL A   1      42.403  30.374  35.851  1.00  0.00     0.074 A 
ATOM     69  C   UNL A   1      42.841  30.859  37.145  1.00  0.00     0.031 C 
ATOM     70  C   UNL A   1      43.011  29.379  35.162  1.00  0.00     0.034 A 
BRANCH  57  71
ATOM     71  C   UNL A   1      40.285  27.872  29.838  1.00  0.00     0.023 A 
ATOM     72  C   UNL A   1      39.414  26.769  29.759  1.00  0.00     0.012 A 
ATOM     73  C   UNL A   1      41.086  28.208  28.730  1.00  0.00     0.148 A 
ATOM     74  C   UNL A   1      39.347  26.004  28.595  1.00  0.00     0.002 A 
ATOM     75  C   UNL A   1      40.994  27.456  27.563  1.00  0.00     0.091 A 
ATOM     76  F   UNL A   1      41.916  29.256  28.836  1.00  0.00    -0.205 F 
ATOM     77  C   UNL A   1      40.128  26.353  27.496  1.00  0.00     0.022 A 
BRANCH  75  78
ATOM     78  S   UNL A   1      41.918  27.850  26.074  1.00  0.00     0.127 S 
ATOM     79  O   UNL A   1      41.335  29.138  25.697  1.00  0.00    -0.237 OA
ATOM     80  O   UNL A   1      43.290  27.925  26.575  1.00  0.00    -0.237 OA
ATOM     81  O   UNL A   1      41.666  26.761  25.141  1.00  0.00    -0.744 OA
ENDBRANCH  75  78
ENDBRANCH  57  71
BRANCH  58  82
ATOM     82  C   UNL A   1      39.919  33.855  37.843  1.00  0.00     0.023 A 
ATOM     83  C   UNL A   1      40.513  35.124  37.717  1.00  0.00     0.012 A 
ATOM     84  C   UNL A   1      39.212  33.535  39.019  1.00  0.00     0.148 A 
ATOM     85  C   UNL A   1      40.398  36.063  38.743  1.00  0.00     0.002 A 
ATOM     86  C   UNL A   1      39.060  34.491  40.014  1.00  0.00     0.091 A 
ATOM     87  F   UNL A   1      38.665  32.315  39.116  1.00  0.00    -0.205 F 
ATOM     88  C   UNL A   1      39.661  35.753  39.884  1.00  0.00     0.022 A 
BRANCH  86  89
ATOM     89  S   UNL A   1      38.017  34.227  41.453  1.00  0.00     0.127 S 
ATOM     90  O   UNL A   1      36.976  33.359  40.910  1.00  0.00    -0.237 OA
ATOM     91  O   UNL A   1      38.944  33.575  42.379  1.00  0.00    -0.237 OA
ATOM     92  O   UNL A   1      37.579  35.551  41.872  1.00  0.00    -0.744 OA
ENDBRANCH  86  89
ENDBRANCH  58  82
BRANCH  70  93
ATOM     93  C   UNL A   1      44.211  28.729  35.785  1.00  0.00     0.023 A 
ATOM     94  C   UNL A   1      45.491  29.236  35.491  1.00  0.00     0.012 A 
ATOM     95  C   UNL A   1      44.066  27.711  36.746  1.00  0.00     0.148 A 
ATOM     96  C   UNL A   1      46.614  28.736  36.145  1.00  0.00     0.002 A 
ATOM     97  C   UNL A   1      45.187  27.238  37.415  1.00  0.00     0.091 A 
ATOM     98  F   UNL A   1      42.835  27.241  36.996  1.00  0.00    -0.205 F 
ATOM     99  C   UNL A   1      46.462  27.746  37.114  1.00  0.00     0.022 A 
BRANCH  97 100
ATOM    100  S   UNL A   1      45.087  26.016  38.728  1.00  0.00     0.127 S 
ATOM    101  O   UNL A   1      44.150  26.650  39.654  1.00  0.00    -0.237 OA
ATOM    102  O   UNL A   1      44.554  24.849  38.023  1.00  0.00    -0.237 OA
ATOM    103  O   UNL A   1      46.444  25.852  39.232  1.00  0.00    -0.744 OA
ENDBRANCH  97 100
ENDBRANCH  70  93
ENDBRANCH  44  45
ENDBRANCH  36  39
ENDBRANCH  34  35
ENDBRANCH  33  34
ENDBRANCH   1  33
TORSDOF 18
ENDMDL
MODEL 2
REMARK VINA RESULT:     -12.6      6.156     11.572
REMARK SMILES O=C(CCN1C(=O)[C@@H]2[C@@H](C1=O)[C@H]1c3ccccc3[C@]2(Br)c2ccccc21)NCCCCCCNC(=O)c1ccc(-c2c3nc(c(-c4cccc(S(=O)(=O)[O-])c4F)c4ccc([nH]4)c(-c4cccc(S(=O)(=O)[O-])c4F)c4nc(c(-c5cccc(S(=O)(=O)[O-])c5F)c5ccc2[nH]5)C=C4)C=C3)cc1
REMARK SMILES IDX 31 1 30 2 29 3 28 4 27 5 1 6 2 7 3 9 4 10 5 11 6 12 10 13
REMARK SMILES IDX 7 14 8 15 9 16 11 17 19 18 12 19 21 20 20 21 18 22 26 23
REMARK SMILES IDX 13 24 22 25 17 26 25 27 14 28 23 29 16 30 24 31 15 32 32 33
REMARK SMILES IDX 33 34 34 35 35 36 36 38 37 39 38 40 99 41 39 42 98 43 40 44
REMARK SMILES IDX 41 45 42 46 92 47 43 48 97 49 91 50 93 51 44 52 96 53 90 54
REMARK SMILES IDX 89 55 45 57 77 58 57 59 76 60 58 61 61 62 75 63 94 64 59 65
REMARK SMILES IDX 60 66 74 68 95 69 62 70 46 71 47 72 55 73 48 74 50 75 56 76
REMARK SMILES IDX 49 77 51 78 52 79 53 80 54 81 78 82 79 83 87 84 80 85 82 86
REMARK SMILES IDX 88 87 81 88 83 89 84 90 85 91 86 92 63 93 64 94 72 95 65 96
REMARK SMILES IDX 67 97 73 98 66 99 68 100 69 101 70 102 71 103
REMARK H PARENT 27 8 34 37 93 56 61 67
REMARK Flexibility Score: inf
ROOT
ATOM      1  C   UNL A   1      39.806  22.808  27.097  1.00  0.00     0.002 C 
ENDROOT
BRANCH   1   2
ATOM      2  C   UNL A   1      38.842  23.769  26.407  1.00  0.00     0.002 C 
BRANCH   2   3
ATOM      3  C   UNL A   1      37.475  23.187  26.031  1.00  0.00     0.021 C 
BRANCH   3   4
ATOM      4  C   UNL A   1      36.485  24.168  25.401  1.00  0.00     0.116 C 
BRANCH   4   5
ATOM      5  N   UNL A   1      35.279  23.517  24.925  1.00  0.00    -0.356 N 
ATOM      6  O   UNL A   1      35.938  23.330  22.726  1.00  0.00    -0.275 OA
ATOM      7  C   UNL A   1      35.151  23.073  23.631  1.00  0.00     0.221 C 
ATOM      8  H   UNL A   1      34.529  23.388  25.549  1.00  0.00     0.163 HD
BRANCH   7   9
ATOM      9  C   UNL A   1      33.950  22.184  23.411  1.00  0.00     0.122 C 
BRANCH   9  10
ATOM     10  C   UNL A   1      33.008  22.808  22.384  1.00  0.00     0.138 C 
BRANCH  10  11
ATOM     11  N   UNL A   1      32.456  24.088  22.811  1.00  0.00    -0.281 N 
ATOM     12  C   UNL A   1      32.933  25.330  22.388  1.00  0.00     0.235 C 
ATOM     13  C   UNL A   1      31.434  24.211  23.747  1.00  0.00     0.234 C 
ATOM     14  O   UNL A   1      33.752  25.549  21.520  1.00  0.00    -0.274 OA
ATOM     15  C   UNL A   1      32.370  26.304  23.381  1.00  0.00     0.118 C 
ATOM     16  C   UNL A   1      31.014  25.637  23.625  1.00  0.00     0.105 C 
ATOM     17  O   UNL A   1      30.890  23.343  24.398  1.00  0.00    -0.274 OA
ATOM     18  C   UNL A   1      32.164  27.839  23.397  1.00  0.00     0.088 C 
ATOM     19  C   UNL A   1      30.215  26.480  24.616  1.00  0.00     0.063 C 
ATOM     20  C   UNL A   1      32.141  28.060  24.938  1.00  0.00    -0.022 A 
ATOM     21  Br  UNL A   1      33.604  28.738  22.498  1.00  0.00    -0.074 Br
ATOM     22  C   UNL A   1      30.739  28.286  22.975  1.00  0.00    -0.022 A 
ATOM     23  C   UNL A   1      31.129  27.259  25.583  1.00  0.00    -0.035 A 
ATOM     24  C   UNL A   1      29.691  27.566  23.652  1.00  0.00    -0.035 A 
ATOM     25  C   UNL A   1      32.943  28.911  25.689  1.00  0.00     0.006 A 
ATOM     26  C   UNL A   1      30.382  29.389  22.205  1.00  0.00     0.006 A 
ATOM     27  C   UNL A   1      30.950  27.328  26.956  1.00  0.00     0.005 A 
ATOM     28  C   UNL A   1      28.347  27.871  23.474  1.00  0.00     0.005 A 
ATOM     29  C   UNL A   1      32.753  28.966  27.069  1.00  0.00     0.000 A 
ATOM     30  C   UNL A   1      29.026  29.710  22.052  1.00  0.00     0.000 A 
ATOM     31  C   UNL A   1      31.771  28.184  27.695  1.00  0.00     0.000 A 
ATOM     32  C   UNL A   1      28.020  28.948  22.657  1.00  0.00     0.000 A 
ENDBRANCH  10  11
ENDBRANCH   9  10
ENDBRANCH   7   9
ENDBRANCH   4   5
ENDBRANCH   3   4
ENDBRANCH   2   3
ENDBRANCH   1   2
BRANCH   1  33
ATOM     33  C   UNL A   1      39.872  21.398  26.517  1.00  0.00     0.021 C 
BRANCH  33  34
ATOM     34  C   UNL A   1      40.794  20.439  27.259  1.00  0.00     0.116 C 
BRANCH  34  35
ATOM     35  N   UNL A   1      41.615  19.617  26.376  1.00  0.00    -0.352 N 
ATOM     36  C   UNL A   1      42.728  19.979  25.649  1.00  0.00     0.251 C 
ATOM     37  H   UNL A   1      41.335  18.678  26.287  1.00  0.00     0.163 HD
ATOM     38  O   UNL A   1      43.251  19.189  24.870  1.00  0.00    -0.269 OA
BRANCH  36  39
ATOM     39  C   UNL A   1      43.269  21.345  25.795  1.00  0.00     0.039 A 
ATOM     40  C   UNL A   1      43.899  21.716  26.981  1.00  0.00     0.014 A 
ATOM     41  C   UNL A   1      43.094  22.274  24.765  1.00  0.00     0.014 A 
ATOM     42  C   UNL A   1      44.174  23.054  27.215  1.00  0.00     0.010 A 
ATOM     43  C   UNL A   1      43.464  23.606  24.967  1.00  0.00     0.010 A 
ATOM     44  C   UNL A   1      43.953  24.016  26.216  1.00  0.00    -0.014 A 
BRANCH  44  45
ATOM     45  C   UNL A   1      44.247  25.437  26.527  1.00  0.00     0.031 A 
ATOM     46  C   UNL A   1      43.219  26.318  27.183  1.00  0.00     0.074 A 
ATOM     47  C   UNL A   1      45.491  25.900  26.296  1.00  0.00     0.049 A 
ATOM     48  N   UNL A   1      43.352  27.546  27.612  1.00  0.00    -0.248 NA
ATOM     49  C   UNL A   1      41.871  25.760  27.383  1.00  0.00     0.031 C 
ATOM     50  C   UNL A   1      46.562  25.137  25.646  1.00  0.00     0.029 A 
ATOM     51  N   UNL A   1      46.082  27.094  26.614  1.00  0.00    -0.354 N 
ATOM     52  C   UNL A   1      42.103  27.921  28.092  1.00  0.00     0.074 A 
ATOM     53  C   UNL A   1      41.220  26.792  27.902  1.00  0.00     0.031 C 
ATOM     54  C   UNL A   1      47.694  25.853  25.680  1.00  0.00     0.029 A 
ATOM     55  C   UNL A   1      47.420  27.144  26.302  1.00  0.00     0.049 A 
ATOM     56  H   UNL A   1      45.595  27.845  27.027  1.00  0.00     0.167 HD
ATOM     57  C   UNL A   1      41.733  29.092  28.661  1.00  0.00     0.034 A 
ATOM     58  C   UNL A   1      48.331  28.115  26.499  1.00  0.00     0.034 A 
ATOM     59  C   UNL A   1      42.631  30.187  28.908  1.00  0.00     0.049 A 
ATOM     60  C   UNL A   1      47.905  29.387  27.168  1.00  0.00     0.074 A 
ATOM     61  C   UNL A   1      42.357  31.399  29.515  1.00  0.00     0.029 A 
ATOM     62  N   UNL A   1      43.976  30.198  28.575  1.00  0.00    -0.354 N 
ATOM     63  N   UNL A   1      46.735  29.693  27.673  1.00  0.00    -0.248 NA
ATOM     64  C   UNL A   1      48.918  30.443  27.304  1.00  0.00     0.031 C 
ATOM     65  C   UNL A   1      43.540  32.145  29.550  1.00  0.00     0.029 A 
ATOM     66  C   UNL A   1      44.548  31.395  28.966  1.00  0.00     0.049 A 
ATOM     67  H   UNL A   1      44.454  29.463  28.127  1.00  0.00     0.167 HD
ATOM     68  C   UNL A   1      46.866  30.976  28.185  1.00  0.00     0.074 A 
ATOM     69  C   UNL A   1      48.240  31.379  27.956  1.00  0.00     0.031 C 
ATOM     70  C   UNL A   1      45.927  31.760  28.765  1.00  0.00     0.034 A 
BRANCH  57  71
ATOM     71  C   UNL A   1      40.307  29.243  29.112  1.00  0.00     0.023 A 
ATOM     72  C   UNL A   1      39.304  29.474  28.150  1.00  0.00     0.012 A 
ATOM     73  C   UNL A   1      39.949  29.057  30.461  1.00  0.00     0.148 A 
ATOM     74  C   UNL A   1      37.962  29.527  28.528  1.00  0.00     0.002 A 
ATOM     75  C   UNL A   1      38.607  29.086  30.825  1.00  0.00     0.091 A 
ATOM     76  F   UNL A   1      40.924  28.851  31.358  1.00  0.00    -0.205 F 
ATOM     77  C   UNL A   1      37.613  29.324  29.861  1.00  0.00     0.022 A 
BRANCH  75  78
ATOM     78  S   UNL A   1      38.046  28.787  32.505  1.00  0.00     0.127 S 
ATOM     79  O   UNL A   1      38.964  29.625  33.277  1.00  0.00    -0.237 OA
ATOM     80  O   UNL A   1      36.668  29.275  32.460  1.00  0.00    -0.237 OA
ATOM     81  O   UNL A   1      38.181  27.354  32.728  1.00  0.00    -0.744 OA
ENDBRANCH  75  78
ENDBRANCH  57  71
BRANCH  58  82
ATOM     82  C   UNL A   1      49.744  27.873  26.101  1.00  0.00     0.023 A 
ATOM     83  C   UNL A   1      50.119  28.039  24.755  1.00  0.00     0.012 A 
ATOM     84  C   UNL A   1      50.730  27.585  27.064  1.00  0.00     0.148 A 
ATOM     85  C   UNL A   1      51.458  27.927  24.376  1.00  0.00     0.002 A 
ATOM     86  C   UNL A   1      52.066  27.524  26.687  1.00  0.00     0.091 A 
ATOM     87  F   UNL A   1      50.343  27.422  28.337  1.00  0.00    -0.205 F 
ATOM     88  C   UNL A   1      52.431  27.684  25.342  1.00  0.00     0.022 A 
BRANCH  86  89
ATOM     89  S   UNL A   1      53.397  27.351  27.882  1.00  0.00     0.127 S 
ATOM     90  O   UNL A   1      54.553  27.152  27.012  1.00  0.00    -0.237 OA
ATOM     91  O   UNL A   1      53.355  28.644  28.567  1.00  0.00    -0.237 OA
ATOM     92  O   UNL A   1      53.033  26.215  28.717  1.00  0.00    -0.744 OA
ENDBRANCH  86  89
ENDBRANCH  58  82
BRANCH  70  93
ATOM     93  C   UNL A   1      46.332  33.141  29.190  1.00  0.00     0.023 A 
ATOM     94  C   UNL A   1      46.872  33.327  30.477  1.00  0.00     0.012 A 
ATOM     95  C   UNL A   1      46.298  34.217  28.283  1.00  0.00     0.148 A 
ATOM     96  C   UNL A   1      47.370  34.570  30.859  1.00  0.00     0.002 A 
ATOM     97  C   UNL A   1      46.824  35.445  28.661  1.00  0.00     0.091 A 
ATOM     98  F   UNL A   1      45.769  34.010  27.068  1.00  0.00    -0.205 F 
ATOM     99  C   UNL A   1      47.357  35.625  29.948  1.00  0.00     0.022 A 
BRANCH  97 100
ATOM    100  S   UNL A   1      46.918  36.844  27.538  1.00  0.00     0.127 S 
ATOM    101  O   UNL A   1      45.504  37.124  27.293  1.00  0.00    -0.237 OA
ATOM    102  O   UNL A   1      47.607  37.847  28.351  1.00  0.00    -0.237 OA
ATOM    103  O   UNL A   1      47.669  36.383  26.378  1.00  0.00    -0.744 OA
ENDBRANCH  97 100
ENDBRANCH  70  93
ENDBRANCH  44  45
ENDBRANCH  36  39
ENDBRANCH  34  35
ENDBRANCH  33  34
ENDBRANCH   1  33
TORSDOF 18
ENDMDL
MODEL 3
REMARK VINA RESULT:     -12.5      5.971     10.381
REMARK SMILES O=C(CCN1C(=O)[C@@H]2[C@@H](C1=O)[C@H]1c3ccccc3[C@]2(Br)c2ccccc21)NCCCCCCNC(=O)c1ccc(-c2c3nc(c(-c4cccc(S(=O)(=O)[O-])c4F)c4ccc([nH]4)c(-c4cccc(S(=O)(=O)[O-])c4F)c4nc(c(-c5cccc(S(=O)(=O)[O-])c5F)c5ccc2[nH]5)C=C4)C=C3)cc1
REMARK SMILES IDX 31 1 30 2 29 3 28 4 27 5 1 6 2 7 3 9 4 10 5 11 6 12 10 13
REMARK SMILES IDX 7 14 8 15 9 16 11 17 19 18 12 19 21 20 20 21 18 22 26 23
REMARK SMILES IDX 13 24 22 25 17 26 25 27 14 28 23 29 16 30 24 31 15 32 32 33
REMARK SMILES IDX 33 34 34 35 35 36 36 38 37 39 38 40 99 41 39 42 98 43 40 44
REMARK SMILES IDX 41 45 42 46 92 47 43 48 97 49 91 50 93 51 44 52 96 53 90 54
REMARK SMILES IDX 89 55 45 57 77 58 57 59 76 60 58 61 61 62 75 63 94 64 59 65
REMARK SMILES IDX 60 66 74 68 95 69 62 70 46 71 47 72 55 73 48 74 50 75 56 76
REMARK SMILES IDX 49 77 51 78 52 79 53 80 54 81 78 82 79 83 87 84 80 85 82 86
REMARK SMILES IDX 88 87 81 88 83 89 84 90 85 91 86 92 63 93 64 94 72 95 65 96
REMARK SMILES IDX 67 97 73 98 66 99 68 100 69 101 70 102 71 103
REMARK H PARENT 27 8 34 37 93 56 61 67
REMARK Flexibility Score: inf
ROOT
ATOM      1  C   UNL A   1      39.634  22.243  26.773  1.00  0.00     0.002 C 
ENDROOT
BRANCH   1   2
ATOM      2  C   UNL A   1      38.683  23.316  26.250  1.00  0.00     0.002 C 
BRANCH   2   3
ATOM      3  C   UNL A   1      37.359  22.809  25.668  1.00  0.00     0.021 C 
BRANCH   3   4
ATOM      4  C   UNL A   1      36.263  23.859  25.493  1.00  0.00     0.116 C 
BRANCH   4   5
ATOM      5  N   UNL A   1      35.041  23.307  24.941  1.00  0.00    -0.356 N 
ATOM      6  O   UNL A   1      35.736  23.285  22.746  1.00  0.00    -0.275 OA
ATOM      7  C   UNL A   1      34.921  22.984  23.611  1.00  0.00     0.221 C 
ATOM      8  H   UNL A   1      34.273  23.156  25.538  1.00  0.00     0.163 HD
BRANCH   7   9
ATOM      9  C   UNL A   1      33.687  22.171  23.293  1.00  0.00     0.122 C 
BRANCH   9  10
ATOM     10  C   UNL A   1      32.837  22.885  22.245  1.00  0.00     0.138 C 
BRANCH  10  11
ATOM     11  N   UNL A   1      32.337  24.178  22.691  1.00  0.00    -0.281 N 
ATOM     12  C   UNL A   1      32.844  25.408  22.263  1.00  0.00     0.235 C 
ATOM     13  C   UNL A   1      31.341  24.329  23.651  1.00  0.00     0.234 C 
ATOM     14  O   UNL A   1      33.649  25.605  21.377  1.00  0.00    -0.274 OA
ATOM     15  C   UNL A   1      32.336  26.393  23.274  1.00  0.00     0.118 C 
ATOM     16  C   UNL A   1      30.965  25.768  23.546  1.00  0.00     0.105 C 
ATOM     17  O   UNL A   1      30.785  23.475  24.310  1.00  0.00    -0.274 OA
ATOM     18  C   UNL A   1      32.179  27.933  23.303  1.00  0.00     0.088 C 
ATOM     19  C   UNL A   1      30.217  26.631  24.560  1.00  0.00     0.063 C 
ATOM     20  C   UNL A   1      32.200  28.146  24.845  1.00  0.00    -0.022 A 
ATOM     21  Br  UNL A   1      33.627  28.791  22.375  1.00  0.00    -0.074 Br
ATOM     22  C   UNL A   1      30.761  28.429  22.916  1.00  0.00    -0.022 A 
ATOM     23  C   UNL A   1      31.177  27.374  25.509  1.00  0.00    -0.035 A 
ATOM     24  C   UNL A   1      29.706  27.739  23.614  1.00  0.00    -0.035 A 
ATOM     25  C   UNL A   1      33.046  28.967  25.581  1.00  0.00     0.006 A 
ATOM     26  C   UNL A   1      30.422  29.547  22.160  1.00  0.00     0.006 A 
ATOM     27  C   UNL A   1      31.033  27.441  26.886  1.00  0.00     0.005 A 
ATOM     28  C   UNL A   1      28.369  28.088  23.469  1.00  0.00     0.005 A 
ATOM     29  C   UNL A   1      32.890  29.020  26.966  1.00  0.00     0.000 A 
ATOM     30  C   UNL A   1      29.074  29.912  22.041  1.00  0.00     0.000 A 
ATOM     31  C   UNL A   1      31.898  28.266  27.610  1.00  0.00     0.000 A 
ATOM     32  C   UNL A   1      28.058  29.180  22.665  1.00  0.00     0.000 A 
ENDBRANCH  10  11
ENDBRANCH   9  10
ENDBRANCH   7   9
ENDBRANCH   4   5
ENDBRANCH   3   4
ENDBRANCH   2   3
ENDBRANCH   1   2
BRANCH   1  33
ATOM     33  C   UNL A   1      39.566  20.890  26.069  1.00  0.00     0.021 C 
BRANCH  33  34
ATOM     34  C   UNL A   1      40.312  19.762  26.770  1.00  0.00     0.116 C 
BRANCH  34  35
ATOM     35  N   UNL A   1      41.488  19.300  26.042  1.00  0.00    -0.352 N 
ATOM     36  C   UNL A   1      42.636  19.995  25.727  1.00  0.00     0.251 C 
ATOM     37  H   UNL A   1      41.459  18.365  25.734  1.00  0.00     0.163 HD
ATOM     38  O   UNL A   1      43.499  19.489  25.017  1.00  0.00    -0.269 OA
BRANCH  36  39
ATOM     39  C   UNL A   1      42.802  21.373  26.228  1.00  0.00     0.039 A 
ATOM     40  C   UNL A   1      42.792  22.440  25.331  1.00  0.00     0.014 A 
ATOM     41  C   UNL A   1      43.026  21.595  27.590  1.00  0.00     0.014 A 
ATOM     42  C   UNL A   1      43.199  23.693  25.760  1.00  0.00     0.010 A 
ATOM     43  C   UNL A   1      43.340  22.881  28.037  1.00  0.00     0.010 A 
ATOM     44  C   UNL A   1      43.486  23.928  27.115  1.00  0.00    -0.014 A 
BRANCH  44  45
ATOM     45  C   UNL A   1      43.936  25.284  27.517  1.00  0.00     0.031 A 
ATOM     46  C   UNL A   1      45.345  25.742  27.259  1.00  0.00     0.074 A 
ATOM     47  C   UNL A   1      43.028  26.135  28.032  1.00  0.00     0.049 A 
ATOM     48  N   UNL A   1      45.867  26.926  27.454  1.00  0.00    -0.248 NA
ATOM     49  C   UNL A   1      46.296  24.755  26.719  1.00  0.00     0.031 C 
ATOM     50  C   UNL A   1      41.637  25.789  28.342  1.00  0.00     0.029 A 
ATOM     51  N   UNL A   1      43.116  27.465  28.346  1.00  0.00    -0.354 N 
ATOM     52  C   UNL A   1      47.207  26.817  27.103  1.00  0.00     0.074 A 
ATOM     53  C   UNL A   1      47.424  25.450  26.682  1.00  0.00     0.031 C 
ATOM     54  C   UNL A   1      40.986  26.894  28.730  1.00  0.00     0.029 A 
ATOM     55  C   UNL A   1      41.921  28.013  28.752  1.00  0.00     0.049 A 
ATOM     56  H   UNL A   1      43.954  27.980  28.288  1.00  0.00     0.167 HD
ATOM     57  C   UNL A   1      48.162  27.775  27.109  1.00  0.00     0.034 A 
ATOM     58  C   UNL A   1      41.607  29.276  29.096  1.00  0.00     0.034 A 
ATOM     59  C   UNL A   1      47.925  29.147  27.465  1.00  0.00     0.049 A 
ATOM     60  C   UNL A   1      42.675  30.327  29.055  1.00  0.00     0.074 A 
ATOM     61  C   UNL A   1      48.822  30.200  27.464  1.00  0.00     0.029 A 
ATOM     62  N   UNL A   1      46.703  29.660  27.871  1.00  0.00    -0.354 N 
ATOM     63  N   UNL A   1      43.919  30.215  28.656  1.00  0.00    -0.248 NA
ATOM     64  C   UNL A   1      42.301  31.676  29.500  1.00  0.00     0.031 C 
ATOM     65  C   UNL A   1      48.141  31.353  27.869  1.00  0.00     0.029 A 
ATOM     66  C   UNL A   1      46.821  31.015  28.121  1.00  0.00     0.049 A 
ATOM     67  H   UNL A   1      45.874  29.137  27.967  1.00  0.00     0.167 HD
ATOM     68  C   UNL A   1      44.480  31.476  28.804  1.00  0.00     0.074 A 
ATOM     69  C   UNL A   1      43.431  32.345  29.300  1.00  0.00     0.031 C 
ATOM     70  C   UNL A   1      45.755  31.870  28.576  1.00  0.00     0.034 A 
BRANCH  57  71
ATOM     71  C   UNL A   1      49.549  27.398  26.667  1.00  0.00     0.023 A 
ATOM     72  C   UNL A   1      50.419  26.782  27.587  1.00  0.00     0.012 A 
ATOM     73  C   UNL A   1      49.951  27.558  25.327  1.00  0.00     0.148 A 
ATOM     74  C   UNL A   1      51.678  26.339  27.181  1.00  0.00     0.002 A 
ATOM     75  C   UNL A   1      51.198  27.090  24.924  1.00  0.00     0.091 A 
ATOM     76  F   UNL A   1      49.108  28.158  24.474  1.00  0.00    -0.205 F 
ATOM     77  C   UNL A   1      52.062  26.484  25.850  1.00  0.00     0.022 A 
BRANCH  75  78
ATOM     78  S   UNL A   1      51.770  27.180  23.224  1.00  0.00     0.127 S 
ATOM     79  O   UNL A   1      52.103  28.599  23.100  1.00  0.00    -0.237 OA
ATOM     80  O   UNL A   1      52.925  26.283  23.241  1.00  0.00    -0.237 OA
ATOM     81  O   UNL A   1      50.658  26.732  22.397  1.00  0.00    -0.744 OA
ENDBRANCH  75  78
ENDBRANCH  57  71
BRANCH  58  82
ATOM     82  C   UNL A   1      40.199  29.600  29.448  1.00  0.00     0.023 A 
ATOM     83  C   UNL A   1      39.293  29.938  28.426  1.00  0.00     0.012 A 
ATOM     84  C   UNL A   1      39.733  29.469  30.771  1.00  0.00     0.148 A 
ATOM     85  C   UNL A   1      37.943  30.137  28.716  1.00  0.00     0.002 A 
ATOM     86  C   UNL A   1      38.379  29.620  31.043  1.00  0.00     0.091 A 
ATOM     87  F   UNL A   1      40.620  29.155  31.726  1.00  0.00    -0.205 F 
ATOM     88  C   UNL A   1      37.484  29.964  30.020  1.00  0.00     0.022 A 
BRANCH  86  89
ATOM     89  S   UNL A   1      37.680  29.283  32.664  1.00  0.00     0.127 S 
ATOM     90  O   UNL A   1      38.480  30.154  33.520  1.00  0.00    -0.237 OA
ATOM     91  O   UNL A   1      36.290  29.704  32.483  1.00  0.00    -0.237 OA
ATOM     92  O   UNL A   1      37.853  27.854  32.880  1.00  0.00    -0.744 OA
ENDBRANCH  86  89
ENDBRANCH  58  82
BRANCH  70  93
ATOM     93  C   UNL A   1      46.107  33.299  28.867  1.00  0.00     0.023 A 
ATOM     94  C   UNL A   1      46.688  33.618  30.110  1.00  0.00     0.012 A 
ATOM     95  C   UNL A   1      45.983  34.292  27.878  1.00  0.00     0.148 A 
ATOM     96  C   UNL A   1      47.138  34.911  30.366  1.00  0.00     0.002 A 
ATOM     97  C   UNL A   1      46.462  35.571  28.130  1.00  0.00     0.091 A 
ATOM     98  F   UNL A   1      45.417  33.960  26.708  1.00  0.00    -0.205 F 
ATOM     99  C   UNL A   1      47.036  35.884  29.374  1.00  0.00     0.022 A 
BRANCH  97 100
ATOM    100  S   UNL A   1      46.440  36.874  26.893  1.00  0.00     0.127 S 
ATOM    101  O   UNL A   1      47.183  37.937  27.567  1.00  0.00    -0.237 OA
ATOM    102  O   UNL A   1      47.147  36.249  25.774  1.00  0.00    -0.237 OA
ATOM    103  O   UNL A   1      45.036  37.165  26.637  1.00  0.00    -0.744 OA
ENDBRANCH  97 100
ENDBRANCH  70  93
ENDBRANCH  44  45
ENDBRANCH  36  39
ENDBRANCH  34  35
ENDBRANCH  33  34
ENDBRANCH   1  33
TORSDOF 18
ENDMDL
