MODEL 1
REMARK VINA RESULT:     -11.6      0.000      0.000
REMARK SMILES CC(C)(C[N@H+]1C[C@@H]2C[NH2+]C[C@H]2C1(C)C)C(=O)NCCCCCCNC(=O)c1ccc(-c2c3nc(c(-c4cccc(S(=O)(=O)[O-])c4F)c4ccc([nH]4)c(-c4cccc(S(=O)(=O)[O-])c4F)c4nc(c(-c5cccc(S(=O)(=O)[O-])c5F)c5ccc2[nH]5)C=C4)C=C3)cc1
REMARK SMILES IDX 21 1 20 2 19 3 18 4 17 5 15 6 16 7 2 9 1 10 3 11 4 12 5 13
REMARK SMILES IDX 6 14 12 15 7 17 11 18 13 19 14 20 8 21 10 22 9 23 22 26
REMARK SMILES IDX 23 27 24 28 25 29 26 31 27 32 28 33 89 34 29 35 88 36 30 37
REMARK SMILES IDX 31 38 32 39 82 40 33 41 87 42 81 43 83 44 34 45 86 46 80 47
REMARK SMILES IDX 79 48 35 50 67 51 47 52 66 53 48 54 51 55 65 56 84 57 49 58
REMARK SMILES IDX 50 59 64 61 85 62 52 63 36 64 37 65 45 66 38 67 40 68 46 69
REMARK SMILES IDX 39 70 41 71 42 72 43 73 44 74 68 75 69 76 77 77 70 78 72 79
REMARK SMILES IDX 78 80 71 81 73 82 74 83 75 84 76 85 53 86 54 87 62 88 55 89
REMARK SMILES IDX 57 90 63 91 56 92 58 93 59 94 60 95 61 96
REMARK H PARENT 17 8 5 16 9 24 9 25 24 30 83 49 51 60
REMARK Flexibility Score: inf
ROOT
ATOM      1  C   UNL A   1      33.101  28.992  24.295  1.00  0.00     0.002 C 
ENDROOT
BRANCH   1   2
ATOM      2  C   UNL A   1      31.578  29.025  24.196  1.00  0.00     0.002 C 
BRANCH   2   3
ATOM      3  C   UNL A   1      31.014  28.596  22.838  1.00  0.00     0.021 C 
BRANCH   3   4
ATOM      4  C   UNL A   1      30.917  27.095  22.547  1.00  0.00     0.116 C 
BRANCH   4   5
ATOM      5  N   UNL A   1      31.832  26.612  21.530  1.00  0.00    -0.355 N 
ATOM      6  C   UNL A   1      32.630  25.522  21.407  1.00  0.00     0.231 C 
ATOM      7  O   UNL A   1      33.160  25.406  20.294  1.00  0.00    -0.274 OA
ATOM      8  H   UNL A   1      31.885  27.212  20.752  1.00  0.00     0.163 HD
BRANCH   6   9
ATOM      9  C   UNL A   1      32.873  24.472  22.511  1.00  0.00     0.092 C 
ATOM     10  C   UNL A   1      33.133  23.111  21.811  1.00  0.00     0.027 C 
ATOM     11  C   UNL A   1      31.553  24.222  23.289  1.00  0.00     0.027 C 
BRANCH   9  12
ATOM     12  C   UNL A   1      34.012  24.839  23.537  1.00  0.00     0.279 C 
BRANCH  12  13
ATOM     13  N   UNL A   1      34.419  24.089  24.742  1.00  0.00    -0.329 N 
ATOM     14  C   UNL A   1      33.395  23.365  25.518  1.00  0.00     0.272 C 
ATOM     15  C   UNL A   1      35.672  23.267  24.760  1.00  0.00     0.101 C 
ATOM     16  H   UNL A   1      34.640  24.971  25.205  1.00  0.00     0.348 HD
ATOM     17  C   UNL A   1      33.726  21.957  25.118  1.00  0.00     0.114 C 
ATOM     18  C   UNL A   1      35.213  21.943  25.382  1.00  0.00     0.119 C 
ATOM     19  C   UNL A   1      36.408  23.053  23.454  1.00  0.00     0.079 C 
ATOM     20  C   UNL A   1      36.659  23.978  25.712  1.00  0.00     0.079 C 
ATOM     21  C   UNL A   1      33.304  20.700  25.822  1.00  0.00     0.270 C 
ATOM     22  C   UNL A   1      35.528  20.544  24.910  1.00  0.00     0.271 C 
ATOM     23  N   UNL A   1      34.397  19.747  25.467  1.00  0.00    -0.345 N 
ATOM     24  H   UNL A   1      34.064  19.081  24.771  1.00  0.00     0.346 HD
ATOM     25  H   UNL A   1      34.697  19.224  26.291  1.00  0.00     0.346 HD
ENDBRANCH  12  13
ENDBRANCH   9  12
ENDBRANCH   6   9
ENDBRANCH   4   5
ENDBRANCH   3   4
ENDBRANCH   2   3
ENDBRANCH   1   2
BRANCH   1  26
ATOM     26  C   UNL A   1      33.669  27.882  25.186  1.00  0.00     0.021 C 
BRANCH  26  27
ATOM     27  C   UNL A   1      33.963  28.281  26.630  1.00  0.00     0.116 C 
BRANCH  27  28
ATOM     28  N   UNL A   1      33.662  29.678  26.892  1.00  0.00    -0.352 N 
ATOM     29  C   UNL A   1      34.391  30.570  27.638  1.00  0.00     0.251 C 
ATOM     30  H   UNL A   1      32.837  30.027  26.484  1.00  0.00     0.163 HD
ATOM     31  O   UNL A   1      33.927  31.677  27.913  1.00  0.00    -0.269 OA
BRANCH  29  32
ATOM     32  C   UNL A   1      35.730  30.183  28.129  1.00  0.00     0.039 A 
ATOM     33  C   UNL A   1      35.849  29.643  29.411  1.00  0.00     0.014 A 
ATOM     34  C   UNL A   1      36.859  30.337  27.318  1.00  0.00     0.014 A 
ATOM     35  C   UNL A   1      37.101  29.223  29.867  1.00  0.00     0.010 A 
ATOM     36  C   UNL A   1      38.096  29.866  27.755  1.00  0.00     0.010 A 
ATOM     37  C   UNL A   1      38.232  29.315  29.038  1.00  0.00    -0.014 A 
BRANCH  37  38
ATOM     38  C   UNL A   1      39.554  28.829  29.509  1.00  0.00     0.031 A 
ATOM     39  C   UNL A   1      40.275  29.533  30.627  1.00  0.00     0.074 A 
ATOM     40  C   UNL A   1      40.135  27.780  28.894  1.00  0.00     0.049 A 
ATOM     41  N   UNL A   1      41.415  29.227  31.192  1.00  0.00    -0.248 NA
ATOM     42  C   UNL A   1      39.648  30.750  31.167  1.00  0.00     0.031 C 
ATOM     43  C   UNL A   1      39.586  27.071  27.735  1.00  0.00     0.029 A 
ATOM     44  N   UNL A   1      41.322  27.138  29.143  1.00  0.00    -0.354 N 
ATOM     45  C   UNL A   1      41.656  30.224  32.131  1.00  0.00     0.074 A 
ATOM     46  C   UNL A   1      40.560  31.163  32.036  1.00  0.00     0.031 C 
ATOM     47  C   UNL A   1      40.432  26.090  27.379  1.00  0.00     0.029 A 
ATOM     48  C   UNL A   1      41.585  26.104  28.274  1.00  0.00     0.049 A 
ATOM     49  H   UNL A   1      41.929  27.393  29.875  1.00  0.00     0.167 HD
ATOM     50  C   UNL A   1      42.677  30.330  33.013  1.00  0.00     0.034 A 
ATOM     51  C   UNL A   1      42.631  25.257  28.212  1.00  0.00     0.034 A 
ATOM     52  C   UNL A   1      43.739  29.369  33.139  1.00  0.00     0.049 A 
ATOM     53  C   UNL A   1      43.713  25.352  29.254  1.00  0.00     0.074 A 
ATOM     54  C   UNL A   1      44.762  29.333  34.070  1.00  0.00     0.029 A 
ATOM     55  N   UNL A   1      43.920  28.275  32.307  1.00  0.00    -0.354 N 
ATOM     56  N   UNL A   1      43.822  26.189  30.256  1.00  0.00    -0.248 NA
ATOM     57  C   UNL A   1      44.792  24.356  29.183  1.00  0.00     0.031 C 
ATOM     58  C   UNL A   1      45.571  28.226  33.791  1.00  0.00     0.029 A 
ATOM     59  C   UNL A   1      45.042  27.563  32.696  1.00  0.00     0.049 A 
ATOM     60  H   UNL A   1      43.336  28.040  31.549  1.00  0.00     0.167 HD
ATOM     61  C   UNL A   1      44.962  25.805  30.953  1.00  0.00     0.074 A 
ATOM     62  C   UNL A   1      45.492  24.640  30.273  1.00  0.00     0.031 C 
ATOM     63  C   UNL A   1      45.531  26.376  32.043  1.00  0.00     0.034 A 
BRANCH  50  64
ATOM     64  C   UNL A   1      42.661  31.497  33.966  1.00  0.00     0.023 A 
ATOM     65  C   UNL A   1      43.217  32.728  33.559  1.00  0.00     0.012 A 
ATOM     66  C   UNL A   1      42.042  31.402  35.227  1.00  0.00     0.148 A 
ATOM     67  C   UNL A   1      43.184  33.837  34.404  1.00  0.00     0.002 A 
ATOM     68  C   UNL A   1      41.977  32.523  36.046  1.00  0.00     0.091 A 
ATOM     69  F   UNL A   1      41.538  30.218  35.605  1.00  0.00    -0.205 F 
ATOM     70  C   UNL A   1      42.555  33.738  35.641  1.00  0.00     0.022 A 
BRANCH  68  71
ATOM     71  S   UNL A   1      41.123  32.519  37.628  1.00  0.00     0.127 S 
ATOM     72  O   UNL A   1      39.818  31.971  37.257  1.00  0.00    -0.237 OA
ATOM     73  O   UNL A   1      41.955  31.620  38.427  1.00  0.00    -0.237 OA
ATOM     74  O   UNL A   1      41.115  33.903  38.082  1.00  0.00    -0.744 OA
ENDBRANCH  68  71
ENDBRANCH  50  64
BRANCH  51  75
ATOM     75  C   UNL A   1      42.659  24.188  27.174  1.00  0.00     0.023 A 
ATOM     76  C   UNL A   1      43.363  24.405  25.974  1.00  0.00     0.012 A 
ATOM     77  C   UNL A   1      42.023  22.949  27.382  1.00  0.00     0.148 A 
ATOM     78  C   UNL A   1      43.408  23.421  24.987  1.00  0.00     0.002 A 
ATOM     79  C   UNL A   1      42.119  21.951  26.417  1.00  0.00     0.091 A 
ATOM     80  F   UNL A   1      41.345  22.765  28.523  1.00  0.00    -0.205 F 
ATOM     81  C   UNL A   1      42.796  22.191  25.211  1.00  0.00     0.022 A 
BRANCH  79  82
ATOM     82  S   UNL A   1      41.478  20.295  26.690  1.00  0.00     0.127 S 
ATOM     83  O   UNL A   1      42.238  19.870  27.862  1.00  0.00    -0.237 OA
ATOM     84  O   UNL A   1      40.058  20.552  26.934  1.00  0.00    -0.237 OA
ATOM     85  O   UNL A   1      41.747  19.567  25.456  1.00  0.00    -0.744 OA
ENDBRANCH  79  82
ENDBRANCH  51  75
BRANCH  63  86
ATOM     86  C   UNL A   1      46.784  25.742  32.586  1.00  0.00     0.023 A 
ATOM     87  C   UNL A   1      48.041  26.176  32.121  1.00  0.00     0.012 A 
ATOM     88  C   UNL A   1      46.722  24.763  33.598  1.00  0.00     0.148 A 
ATOM     89  C   UNL A   1      49.216  25.620  32.627  1.00  0.00     0.002 A 
ATOM     90  C   UNL A   1      47.898  24.247  34.130  1.00  0.00     0.091 A 
ATOM     91  F   UNL A   1      45.518  24.346  34.014  1.00  0.00    -0.205 F 
ATOM     92  C   UNL A   1      49.145  24.665  33.638  1.00  0.00     0.022 A 
BRANCH  90  93
ATOM     93  S   UNL A   1      47.895  23.082  35.498  1.00  0.00     0.127 S 
ATOM     94  O   UNL A   1      47.168  23.828  36.524  1.00  0.00    -0.237 OA
ATOM     95  O   UNL A   1      47.165  21.943  34.941  1.00  0.00    -0.237 OA
ATOM     96  O   UNL A   1      49.296  22.812  35.789  1.00  0.00    -0.744 OA
ENDBRANCH  90  93
ENDBRANCH  63  86
ENDBRANCH  37  38
ENDBRANCH  29  32
ENDBRANCH  27  28
ENDBRANCH  26  27
ENDBRANCH   1  26
TORSDOF 18
ENDMDL
MODEL 2
REMARK VINA RESULT:     -11.3      5.338      8.844
REMARK SMILES CC(C)(C[N@H+]1C[C@@H]2C[NH2+]C[C@H]2C1(C)C)C(=O)NCCCCCCNC(=O)c1ccc(-c2c3nc(c(-c4cccc(S(=O)(=O)[O-])c4F)c4ccc([nH]4)c(-c4cccc(S(=O)(=O)[O-])c4F)c4nc(c(-c5cccc(S(=O)(=O)[O-])c5F)c5ccc2[nH]5)C=C4)C=C3)cc1
REMARK SMILES IDX 21 1 20 2 19 3 18 4 17 5 15 6 16 7 2 9 1 10 3 11 4 12 5 13
REMARK SMILES IDX 6 14 12 15 7 17 11 18 13 19 14 20 8 21 10 22 9 23 22 26
REMARK SMILES IDX 23 27 24 28 25 29 26 31 27 32 28 33 89 34 29 35 88 36 30 37
REMARK SMILES IDX 31 38 32 39 82 40 33 41 87 42 81 43 83 44 34 45 86 46 80 47
REMARK SMILES IDX 79 48 35 50 67 51 47 52 66 53 48 54 51 55 65 56 84 57 49 58
REMARK SMILES IDX 50 59 64 61 85 62 52 63 36 64 37 65 45 66 38 67 40 68 46 69
REMARK SMILES IDX 39 70 41 71 42 72 43 73 44 74 68 75 69 76 77 77 70 78 72 79
REMARK SMILES IDX 78 80 71 81 73 82 74 83 75 84 76 85 53 86 54 87 62 88 55 89
REMARK SMILES IDX 57 90 63 91 56 92 58 93 59 94 60 95 61 96
REMARK H PARENT 17 8 5 16 9 24 9 25 24 30 83 49 51 60
REMARK Flexibility Score: inf
ROOT
ATOM      1  C   UNL A   1      36.890  20.481  24.944  1.00  0.00     0.002 C 
ENDROOT
BRANCH   1   2
ATOM      2  C   UNL A   1      37.030  21.833  24.249  1.00  0.00     0.002 C 
BRANCH   2   3
ATOM      3  C   UNL A   1      37.192  23.027  25.195  1.00  0.00     0.021 C 
BRANCH   3   4
ATOM      4  C   UNL A   1      35.954  23.880  25.486  1.00  0.00     0.116 C 
BRANCH   4   5
ATOM      5  N   UNL A   1      35.081  23.353  26.518  1.00  0.00    -0.355 N 
ATOM      6  C   UNL A   1      33.808  22.889  26.543  1.00  0.00     0.231 C 
ATOM      7  O   UNL A   1      33.472  22.387  27.625  1.00  0.00    -0.274 OA
ATOM      8  H   UNL A   1      35.512  23.327  27.403  1.00  0.00     0.163 HD
BRANCH   6   9
ATOM      9  C   UNL A   1      32.825  22.929  25.354  1.00  0.00     0.092 C 
ATOM     10  C   UNL A   1      31.401  22.668  25.915  1.00  0.00     0.027 C 
ATOM     11  C   UNL A   1      33.073  21.703  24.435  1.00  0.00     0.027 C 
BRANCH   9  12
ATOM     12  C   UNL A   1      32.889  24.243  24.485  1.00  0.00     0.279 C 
BRANCH  12  13
ATOM     13  N   UNL A   1      32.493  25.609  24.881  1.00  0.00    -0.329 N 
ATOM     14  C   UNL A   1      33.465  26.709  24.738  1.00  0.00     0.272 C 
ATOM     15  C   UNL A   1      31.136  26.153  24.548  1.00  0.00     0.101 C 
ATOM     16  H   UNL A   1      32.458  25.307  25.854  1.00  0.00     0.348 HD
ATOM     17  C   UNL A   1      32.883  27.404  23.542  1.00  0.00     0.114 C 
ATOM     18  C   UNL A   1      31.446  27.544  23.984  1.00  0.00     0.119 C 
ATOM     19  C   UNL A   1      30.250  25.350  23.619  1.00  0.00     0.079 C 
ATOM     20  C   UNL A   1      30.370  26.288  25.882  1.00  0.00     0.079 C 
ATOM     21  C   UNL A   1      33.175  28.806  23.089  1.00  0.00     0.270 C 
ATOM     22  C   UNL A   1      30.873  28.184  22.742  1.00  0.00     0.271 C 
ATOM     23  N   UNL A   1      31.919  29.184  22.376  1.00  0.00    -0.345 N 
ATOM     24  H   UNL A   1      32.073  29.173  21.368  1.00  0.00     0.346 HD
ATOM     25  H   UNL A   1      31.624  30.124  22.644  1.00  0.00     0.346 HD
ENDBRANCH  12  13
ENDBRANCH   9  12
ENDBRANCH   6   9
ENDBRANCH   4   5
ENDBRANCH   3   4
ENDBRANCH   2   3
ENDBRANCH   1   2
BRANCH   1  26
ATOM     26  C   UNL A   1      38.159  19.623  24.954  1.00  0.00     0.021 C 
BRANCH  26  27
ATOM     27  C   UNL A   1      39.214  20.017  25.985  1.00  0.00     0.116 C 
BRANCH  27  28
ATOM     28  N   UNL A   1      40.291  19.047  26.076  1.00  0.00    -0.352 N 
ATOM     29  C   UNL A   1      41.636  19.292  26.197  1.00  0.00     0.251 C 
ATOM     30  H   UNL A   1      40.025  18.100  26.048  1.00  0.00     0.163 HD
ATOM     31  O   UNL A   1      42.449  18.373  26.091  1.00  0.00    -0.269 OA
BRANCH  29  32
ATOM     32  C   UNL A   1      42.104  20.674  26.432  1.00  0.00     0.039 A 
ATOM     33  C   UNL A   1      42.334  21.506  25.335  1.00  0.00     0.014 A 
ATOM     34  C   UNL A   1      42.297  21.150  27.734  1.00  0.00     0.014 A 
ATOM     35  C   UNL A   1      42.724  22.831  25.544  1.00  0.00     0.010 A 
ATOM     36  C   UNL A   1      42.633  22.487  27.940  1.00  0.00     0.010 A 
ATOM     37  C   UNL A   1      42.861  23.338  26.848  1.00  0.00    -0.014 A 
BRANCH  37  38
ATOM     38  C   UNL A   1      43.235  24.758  27.070  1.00  0.00     0.031 A 
ATOM     39  C   UNL A   1      42.261  25.717  27.699  1.00  0.00     0.074 A 
ATOM     40  C   UNL A   1      44.438  25.202  26.655  1.00  0.00     0.049 A 
ATOM     41  N   UNL A   1      42.428  26.979  28.003  1.00  0.00    -0.248 NA
ATOM     42  C   UNL A   1      40.917  25.201  28.008  1.00  0.00     0.031 C 
ATOM     43  C   UNL A   1      45.435  24.398  25.943  1.00  0.00     0.029 A 
ATOM     44  N   UNL A   1      45.021  26.441  26.755  1.00  0.00    -0.354 N 
ATOM     45  C   UNL A   1      41.209  27.415  28.511  1.00  0.00     0.074 A 
ATOM     46  C   UNL A   1      40.300  26.291  28.442  1.00  0.00     0.031 C 
ATOM     47  C   UNL A   1      46.506  25.163  25.677  1.00  0.00     0.029 A 
ATOM     48  C   UNL A   1      46.272  26.510  26.188  1.00  0.00     0.049 A 
ATOM     49  H   UNL A   1      44.584  27.207  27.191  1.00  0.00     0.167 HD
ATOM     50  C   UNL A   1      40.886  28.627  29.018  1.00  0.00     0.034 A 
ATOM     51  C   UNL A   1      47.137  27.539  26.099  1.00  0.00     0.034 A 
ATOM     52  C   UNL A   1      41.805  29.727  29.131  1.00  0.00     0.049 A 
ATOM     53  C   UNL A   1      46.780  28.853  26.739  1.00  0.00     0.074 A 
ATOM     54  C   UNL A   1      41.603  30.961  29.724  1.00  0.00     0.029 A 
ATOM     55  N   UNL A   1      43.100  29.730  28.637  1.00  0.00    -0.354 N 
ATOM     56  N   UNL A   1      45.690  29.186  27.387  1.00  0.00    -0.248 NA
ATOM     57  C   UNL A   1      47.791  29.919  26.677  1.00  0.00     0.031 C 
ATOM     58  C   UNL A   1      42.772  31.716  29.574  1.00  0.00     0.029 A 
ATOM     59  C   UNL A   1      43.707  30.946  28.902  1.00  0.00     0.049 A 
ATOM     60  H   UNL A   1      43.526  28.977  28.165  1.00  0.00     0.167 HD
ATOM     61  C   UNL A   1      45.894  30.487  27.835  1.00  0.00     0.074 A 
ATOM     62  C   UNL A   1      47.225  30.869  27.409  1.00  0.00     0.031 C 
ATOM     63  C   UNL A   1      45.050  31.298  28.519  1.00  0.00     0.034 A 
BRANCH  50  64
ATOM     64  C   UNL A   1      39.491  28.811  29.557  1.00  0.00     0.023 A 
ATOM     65  C   UNL A   1      39.207  28.426  30.884  1.00  0.00     0.012 A 
ATOM     66  C   UNL A   1      38.484  29.421  28.785  1.00  0.00     0.148 A 
ATOM     67  C   UNL A   1      37.935  28.617  31.423  1.00  0.00     0.002 A 
ATOM     68  C   UNL A   1      37.231  29.645  29.343  1.00  0.00     0.091 A 
ATOM     69  F   UNL A   1      38.766  29.760  27.518  1.00  0.00    -0.205 F 
ATOM     70  C   UNL A   1      36.952  29.236  30.658  1.00  0.00     0.022 A 
BRANCH  68  71
ATOM     71  S   UNL A   1      35.918  30.503  28.465  1.00  0.00     0.127 S 
ATOM     72  O   UNL A   1      36.669  31.528  27.740  1.00  0.00    -0.237 OA
ATOM     73  O   UNL A   1      35.365  29.443  27.621  1.00  0.00    -0.237 OA
ATOM     74  O   UNL A   1      35.009  30.999  29.489  1.00  0.00    -0.744 OA
ENDBRANCH  68  71
ENDBRANCH  50  64
BRANCH  51  75
ATOM     75  C   UNL A   1      48.464  27.339  25.450  1.00  0.00     0.023 A 
ATOM     76  C   UNL A   1      49.570  26.964  26.237  1.00  0.00     0.012 A 
ATOM     77  C   UNL A   1      48.628  27.483  24.059  1.00  0.00     0.148 A 
ATOM     78  C   UNL A   1      50.823  26.768  25.656  1.00  0.00     0.002 A 
ATOM     79  C   UNL A   1      49.867  27.232  23.478  1.00  0.00     0.091 A 
ATOM     80  F   UNL A   1      47.569  27.856  23.328  1.00  0.00    -0.205 F 
ATOM     81  C   UNL A   1      50.970  26.890  24.276  1.00  0.00     0.022 A 
BRANCH  79  82
ATOM     82  S   UNL A   1      50.105  27.232  21.698  1.00  0.00     0.127 S 
ATOM     83  O   UNL A   1      51.458  26.698  21.576  1.00  0.00    -0.237 OA
ATOM     84  O   UNL A   1      49.042  26.332  21.247  1.00  0.00    -0.237 OA
ATOM     85  O   UNL A   1      49.926  28.618  21.283  1.00  0.00    -0.744 OA
ENDBRANCH  79  82
ENDBRANCH  51  75
BRANCH  63  86
ATOM     86  C   UNL A   1      45.541  32.678  28.868  1.00  0.00     0.023 A 
ATOM     87  C   UNL A   1      46.301  32.870  30.039  1.00  0.00     0.012 A 
ATOM     88  C   UNL A   1      45.305  33.770  28.010  1.00  0.00     0.148 A 
ATOM     89  C   UNL A   1      46.787  34.134  30.370  1.00  0.00     0.002 A 
ATOM     90  C   UNL A   1      45.832  35.018  28.324  1.00  0.00     0.091 A 
ATOM     91  F   UNL A   1      44.562  33.575  26.912  1.00  0.00    -0.205 F 
ATOM     92  C   UNL A   1      46.562  35.205  29.508  1.00  0.00     0.022 A 
BRANCH  90  93
ATOM     93  S   UNL A   1      45.667  36.427  27.221  1.00  0.00     0.127 S 
ATOM     94  O   UNL A   1      44.215  36.534  27.086  1.00  0.00    -0.237 OA
ATOM     95  O   UNL A   1      46.289  37.505  27.992  1.00  0.00    -0.237 OA
ATOM     96  O   UNL A   1      46.388  36.065  26.008  1.00  0.00    -0.744 OA
ENDBRANCH  90  93
ENDBRANCH  63  86
ENDBRANCH  37  38
ENDBRANCH  29  32
ENDBRANCH  27  28
ENDBRANCH  26  27
ENDBRANCH   1  26
TORSDOF 18
ENDMDL
MODEL 3
REMARK VINA RESULT:     -11.2      1.833      2.448
REMARK SMILES CC(C)(C[N@H+]1C[C@@H]2C[NH2+]C[C@H]2C1(C)C)C(=O)NCCCCCCNC(=O)c1ccc(-c2c3nc(c(-c4cccc(S(=O)(=O)[O-])c4F)c4ccc([nH]4)c(-c4cccc(S(=O)(=O)[O-])c4F)c4nc(c(-c5cccc(S(=O)(=O)[O-])c5F)c5ccc2[nH]5)C=C4)C=C3)cc1
REMARK SMILES IDX 21 1 20 2 19 3 18 4 17 5 15 6 16 7 2 9 1 10 3 11 4 12 5 13
REMARK SMILES IDX 6 14 12 15 7 17 11 18 13 19 14 20 8 21 10 22 9 23 22 26
REMARK SMILES IDX 23 27 24 28 25 29 26 31 27 32 28 33 89 34 29 35 88 36 30 37
REMARK SMILES IDX 31 38 32 39 82 40 33 41 87 42 81 43 83 44 34 45 86 46 80 47
REMARK SMILES IDX 79 48 35 50 67 51 47 52 66 53 48 54 51 55 65 56 84 57 49 58
REMARK SMILES IDX 50 59 64 61 85 62 52 63 36 64 37 65 45 66 38 67 40 68 46 69
REMARK SMILES IDX 39 70 41 71 42 72 43 73 44 74 68 75 69 76 77 77 70 78 72 79
REMARK SMILES IDX 78 80 71 81 73 82 74 83 75 84 76 85 53 86 54 87 62 88 55 89
REMARK SMILES IDX 57 90 63 91 56 92 58 93 59 94 60 95 61 96
REMARK H PARENT 17 8 5 16 9 24 9 25 24 30 83 49 51 60
REMARK Flexibility Score: inf
ROOT
ATOM      1  C   UNL A   1      32.183  28.911  23.901  1.00  0.00     0.002 C 
ENDROOT
BRANCH   1   2
ATOM      2  C   UNL A   1      30.660  29.003  23.961  1.00  0.00     0.002 C 
BRANCH   2   3
ATOM      3  C   UNL A   1      29.920  27.800  23.369  1.00  0.00     0.021 C 
BRANCH   3   4
ATOM      4  C   UNL A   1      29.674  26.594  24.279  1.00  0.00     0.116 C 
BRANCH   4   5
ATOM      5  N   UNL A   1      30.138  25.326  23.748  1.00  0.00    -0.355 N 
ATOM      6  C   UNL A   1      30.751  24.238  24.278  1.00  0.00     0.231 C 
ATOM      7  O   UNL A   1      30.853  23.283  23.495  1.00  0.00    -0.274 OA
ATOM      8  H   UNL A   1      29.970  25.234  22.783  1.00  0.00     0.163 HD
BRANCH   6   9
ATOM      9  C   UNL A   1      31.272  24.130  25.726  1.00  0.00     0.092 C 
ATOM     10  C   UNL A   1      30.280  23.235  26.515  1.00  0.00     0.027 C 
ATOM     11  C   UNL A   1      31.140  25.509  26.428  1.00  0.00     0.027 C 
BRANCH   9  12
ATOM     12  C   UNL A   1      32.761  23.628  25.860  1.00  0.00     0.279 C 
BRANCH  12  13
ATOM     13  N   UNL A   1      33.880  23.859  24.926  1.00  0.00    -0.329 N 
ATOM     14  C   UNL A   1      35.039  24.652  25.376  1.00  0.00     0.272 C 
ATOM     15  C   UNL A   1      34.393  22.763  24.040  1.00  0.00     0.101 C 
ATOM     16  H   UNL A   1      33.269  24.439  24.352  1.00  0.00     0.348 HD
ATOM     17  C   UNL A   1      36.044  23.552  25.551  1.00  0.00     0.114 C 
ATOM     18  C   UNL A   1      35.913  22.851  24.220  1.00  0.00     0.119 C 
ATOM     19  C   UNL A   1      33.876  21.357  24.267  1.00  0.00     0.079 C 
ATOM     20  C   UNL A   1      34.014  23.145  22.593  1.00  0.00     0.079 C 
ATOM     21  C   UNL A   1      37.535  23.703  25.643  1.00  0.00     0.270 C 
ATOM     22  C   UNL A   1      36.881  21.715  24.449  1.00  0.00     0.271 C 
ATOM     23  N   UNL A   1      38.027  22.392  25.125  1.00  0.00    -0.345 N 
ATOM     24  H   UNL A   1      38.365  21.817  25.896  1.00  0.00     0.346 HD
ATOM     25  H   UNL A   1      38.797  22.532  24.470  1.00  0.00     0.346 HD
ENDBRANCH  12  13
ENDBRANCH   9  12
ENDBRANCH   6   9
ENDBRANCH   4   5
ENDBRANCH   3   4
ENDBRANCH   2   3
ENDBRANCH   1   2
BRANCH   1  26
ATOM     26  C   UNL A   1      32.850  28.361  25.167  1.00  0.00     0.021 C 
BRANCH  26  27
ATOM     27  C   UNL A   1      33.929  29.249  25.782  1.00  0.00     0.116 C 
BRANCH  27  28
ATOM     28  N   UNL A   1      33.414  30.540  26.200  1.00  0.00    -0.352 N 
ATOM     29  C   UNL A   1      33.838  31.315  27.251  1.00  0.00     0.251 C 
ATOM     30  H   UNL A   1      32.672  30.904  25.666  1.00  0.00     0.163 HD
ATOM     31  O   UNL A   1      33.195  32.309  27.591  1.00  0.00    -0.269 OA
BRANCH  29  32
ATOM     32  C   UNL A   1      35.061  30.934  27.988  1.00  0.00     0.039 A 
ATOM     33  C   UNL A   1      35.080  29.726  28.687  1.00  0.00     0.014 A 
ATOM     34  C   UNL A   1      36.190  31.760  27.970  1.00  0.00     0.014 A 
ATOM     35  C   UNL A   1      36.248  29.328  29.342  1.00  0.00     0.010 A 
ATOM     36  C   UNL A   1      37.370  31.334  28.579  1.00  0.00     0.010 A 
ATOM     37  C   UNL A   1      37.407  30.120  29.281  1.00  0.00    -0.014 A 
BRANCH  37  38
ATOM     38  C   UNL A   1      38.661  29.675  29.942  1.00  0.00     0.031 A 
ATOM     39  C   UNL A   1      39.054  30.226  31.287  1.00  0.00     0.074 A 
ATOM     40  C   UNL A   1      39.478  28.811  29.308  1.00  0.00     0.049 A 
ATOM     41  N   UNL A   1      40.089  29.925  32.028  1.00  0.00    -0.248 NA
ATOM     42  C   UNL A   1      38.186  31.264  31.865  1.00  0.00     0.031 C 
ATOM     43  C   UNL A   1      39.261  28.279  27.960  1.00  0.00     0.029 A 
ATOM     44  N   UNL A   1      40.663  28.242  29.702  1.00  0.00    -0.354 N 
ATOM     45  C   UNL A   1      40.013  30.752  33.143  1.00  0.00     0.074 A 
ATOM     46  C   UNL A   1      38.849  31.592  32.965  1.00  0.00     0.031 C 
ATOM     47  C   UNL A   1      40.275  27.458  27.644  1.00  0.00     0.029 A 
ATOM     48  C   UNL A   1      41.218  27.411  28.758  1.00  0.00     0.049 A 
ATOM     49  H   UNL A   1      41.076  28.413  30.579  1.00  0.00     0.167 HD
ATOM     50  C   UNL A   1      40.819  30.786  34.231  1.00  0.00     0.034 A 
ATOM     51  C   UNL A   1      42.353  26.686  28.789  1.00  0.00     0.034 A 
ATOM     52  C   UNL A   1      41.947  29.916  34.429  1.00  0.00     0.049 A 
ATOM     53  C   UNL A   1      43.188  26.685  30.041  1.00  0.00     0.074 A 
ATOM     54  C   UNL A   1      42.762  29.802  35.541  1.00  0.00     0.029 A 
ATOM     55  N   UNL A   1      42.422  29.012  33.492  1.00  0.00    -0.354 N 
ATOM     56  N   UNL A   1      42.992  27.333  31.163  1.00  0.00    -0.248 NA
ATOM     57  C   UNL A   1      44.376  25.817  30.048  1.00  0.00     0.031 C 
ATOM     58  C   UNL A   1      43.742  28.840  35.270  1.00  0.00     0.029 A 
ATOM     59  C   UNL A   1      43.525  28.343  33.995  1.00  0.00     0.049 A 
ATOM     60  H   UNL A   1      42.034  28.868  32.599  1.00  0.00     0.167 HD
ATOM     61  C   UNL A   1      44.011  26.931  32.020  1.00  0.00     0.074 A 
ATOM     62  C   UNL A   1      44.805  25.960  31.294  1.00  0.00     0.031 C 
ATOM     63  C   UNL A   1      44.278  27.342  33.284  1.00  0.00     0.034 A 
BRANCH  50  64
ATOM     64  C   UNL A   1      40.470  31.755  35.331  1.00  0.00     0.023 A 
ATOM     65  C   UNL A   1      41.219  32.941  35.470  1.00  0.00     0.012 A 
ATOM     66  C   UNL A   1      39.368  31.531  36.178  1.00  0.00     0.148 A 
ATOM     67  C   UNL A   1      40.898  33.875  36.454  1.00  0.00     0.002 A 
ATOM     68  C   UNL A   1      39.029  32.486  37.131  1.00  0.00     0.091 A 
ATOM     69  F   UNL A   1      38.681  30.387  36.046  1.00  0.00    -0.205 F 
ATOM     70  C   UNL A   1      39.797  33.653  37.276  1.00  0.00     0.022 A 
BRANCH  68  71
ATOM     71  S   UNL A   1      37.584  32.328  38.188  1.00  0.00     0.127 S 
ATOM     72  O   UNL A   1      37.401  30.878  38.223  1.00  0.00    -0.237 OA
ATOM     73  O   UNL A   1      38.054  32.913  39.444  1.00  0.00    -0.237 OA
ATOM     74  O   UNL A   1      36.523  33.078  37.530  1.00  0.00    -0.744 OA
ENDBRANCH  68  71
ENDBRANCH  50  64
BRANCH  51  75
ATOM     75  C   UNL A   1      42.718  25.829  27.625  1.00  0.00     0.023 A 
ATOM     76  C   UNL A   1      43.579  26.338  26.633  1.00  0.00     0.012 A 
ATOM     77  C   UNL A   1      42.248  24.506  27.513  1.00  0.00     0.148 A 
ATOM     78  C   UNL A   1      43.939  25.558  25.534  1.00  0.00     0.002 A 
ATOM     79  C   UNL A   1      42.655  23.715  26.444  1.00  0.00     0.091 A 
ATOM     80  F   UNL A   1      41.418  24.043  28.457  1.00  0.00    -0.205 F 
ATOM     81  C   UNL A   1      43.487  24.244  25.444  1.00  0.00     0.022 A 
BRANCH  79  82
ATOM     82  S   UNL A   1      42.231  21.973  26.329  1.00  0.00     0.127 S 
ATOM     83  O   UNL A   1      42.653  21.476  27.635  1.00  0.00    -0.237 OA
ATOM     84  O   UNL A   1      40.782  22.024  26.126  1.00  0.00    -0.237 OA
ATOM     85  O   UNL A   1      42.975  21.468  25.182  1.00  0.00    -0.744 OA
ENDBRANCH  79  82
ENDBRANCH  51  75
BRANCH  63  86
ATOM     86  C   UNL A   1      45.468  26.734  33.977  1.00  0.00     0.023 A 
ATOM     87  C   UNL A   1      46.712  27.394  33.931  1.00  0.00     0.012 A 
ATOM     88  C   UNL A   1      45.343  25.545  34.722  1.00  0.00     0.148 A 
ATOM     89  C   UNL A   1      47.822  26.861  34.586  1.00  0.00     0.002 A 
ATOM     90  C   UNL A   1      46.443  25.045  35.410  1.00  0.00     0.091 A 
ATOM     91  F   UNL A   1      44.158  24.918  34.737  1.00  0.00    -0.205 F 
ATOM     92  C   UNL A   1      47.685  25.694  35.333  1.00  0.00     0.022 A 
BRANCH  90  93
ATOM     93  S   UNL A   1      46.328  23.599  36.471  1.00  0.00     0.127 S 
ATOM     94  O   UNL A   1      47.675  23.536  37.038  1.00  0.00    -0.237 OA
ATOM     95  O   UNL A   1      45.284  23.987  37.420  1.00  0.00    -0.237 OA
ATOM     96  O   UNL A   1      45.961  22.495  35.594  1.00  0.00    -0.744 OA
ENDBRANCH  90  93
ENDBRANCH  63  86
ENDBRANCH  37  38
ENDBRANCH  29  32
ENDBRANCH  27  28
ENDBRANCH  26  27
ENDBRANCH   1  26
TORSDOF 18
ENDMDL
