MODEL 1
REMARK VINA RESULT:     -12.6      0.000      0.000
REMARK SMILES CC(=O)Nc1cccc(C(=O)N2CCCC[C@@H]2C(=O)NCCCCCCNC(=O)c2ccc(-c3c4nc(c(-c5cccc(S(=O)(=O)[O-])c5F)c5ccc([nH]5)c(-c5cccc(S(=O)(=O)[O-])c5F)c5nc(c(-c6cccc(S(=O)(=O)[O-])c6F)c6ccc3[nH]6)C=C5)C=C4)cc2)c1
REMARK SMILES IDX 23 1 22 2 21 3 20 4 18 5 19 6 17 8 12 9 13 10 14 11 16 12
REMARK SMILES IDX 15 13 10 14 11 15 9 16 5 17 6 18 93 19 7 20 8 21 4 22 1 23
REMARK SMILES IDX 2 24 3 25 24 27 25 28 26 29 27 30 28 31 29 33 30 34 31 35
REMARK SMILES IDX 92 36 32 37 91 38 33 39 34 40 35 41 85 42 36 43 90 44 84 45
REMARK SMILES IDX 86 46 37 47 89 48 83 49 82 50 38 52 70 53 50 54 69 55 51 56
REMARK SMILES IDX 54 57 68 58 87 59 52 60 53 61 67 63 88 64 55 65 39 66 40 67
REMARK SMILES IDX 48 68 41 69 43 70 49 71 42 72 44 73 45 74 46 75 47 76 71 77
REMARK SMILES IDX 72 78 80 79 73 80 75 81 81 82 74 83 76 84 77 85 78 86 79 87
REMARK SMILES IDX 56 88 57 89 65 90 58 91 60 92 66 93 59 94 61 95 62 96 63 97
REMARK SMILES IDX 64 98
REMARK H PARENT 20 7 4 26 27 32 86 51 54 62
REMARK Flexibility Score: inf
ROOT
ATOM      1  C   UNL A   1      32.486  30.016  27.006  1.00  0.00     0.002 C 
ENDROOT
BRANCH   1   2
ATOM      2  C   UNL A   1      31.840  28.743  27.566  1.00  0.00     0.021 C 
BRANCH   2   3
ATOM      3  C   UNL A   1      32.387  27.456  26.952  1.00  0.00     0.116 C 
BRANCH   3   4
ATOM      4  N   UNL A   1      31.301  26.527  26.697  1.00  0.00    -0.354 N 
ATOM      5  C   UNL A   1      31.071  25.748  25.607  1.00  0.00     0.242 C 
ATOM      6  O   UNL A   1      29.955  25.230  25.494  1.00  0.00    -0.273 OA
ATOM      7  H   UNL A   1      30.635  26.452  27.417  1.00  0.00     0.163 HD
BRANCH   5   8
ATOM      8  C   UNL A   1      32.116  25.602  24.482  1.00  0.00     0.174 C 
ATOM      9  N   UNL A   1      32.104  26.654  23.429  1.00  0.00    -0.327 N 
ATOM     10  C   UNL A   1      32.894  26.361  22.235  1.00  0.00     0.120 C 
ATOM     11  C   UNL A   1      32.550  25.021  21.618  1.00  0.00     0.022 C 
ATOM     12  C   UNL A   1      31.917  24.181  23.891  1.00  0.00     0.035 C 
ATOM     13  C   UNL A   1      32.740  23.911  22.639  1.00  0.00     0.004 C 
BRANCH   9  14
ATOM     14  C   UNL A   1      31.749  28.006  23.568  1.00  0.00     0.254 C 
ATOM     15  O   UNL A   1      32.588  28.869  23.827  1.00  0.00    -0.269 OA
BRANCH  14  16
ATOM     16  C   UNL A   1      30.348  28.480  23.463  1.00  0.00     0.042 A 
ATOM     17  C   UNL A   1      28.752  30.284  23.156  1.00  0.00     0.041 A 
ATOM     18  C   UNL A   1      27.724  29.338  23.066  1.00  0.00     0.026 A 
ATOM     19  C   UNL A   1      30.059  29.842  23.349  1.00  0.00     0.040 A 
ATOM     20  C   UNL A   1      28.007  27.972  23.120  1.00  0.00     0.003 A 
ATOM     21  C   UNL A   1      29.319  27.542  23.313  1.00  0.00     0.014 A 
BRANCH  17  22
ATOM     22  N   UNL A   1      28.395  31.641  23.093  1.00  0.00    -0.326 N 
ATOM     23  C   UNL A   1      28.139  31.980  20.631  1.00  0.00     0.114 C 
ATOM     24  C   UNL A   1      28.242  32.499  22.041  1.00  0.00     0.221 C 
ATOM     25  O   UNL A   1      28.123  33.705  22.269  1.00  0.00    -0.275 OA
ATOM     26  H   UNL A   1      28.222  32.051  23.972  1.00  0.00     0.169 HD
ENDBRANCH  17  22
ENDBRANCH  14  16
ENDBRANCH   9  14
ENDBRANCH   5   8
ENDBRANCH   3   4
ENDBRANCH   2   3
ENDBRANCH   1   2
BRANCH   1  27
ATOM     27  C   UNL A   1      31.551  30.887  26.161  1.00  0.00     0.002 C 
BRANCH  27  28
ATOM     28  C   UNL A   1      31.389  32.325  26.662  1.00  0.00     0.021 C 
BRANCH  28  29
ATOM     29  C   UNL A   1      32.607  32.879  27.394  1.00  0.00     0.116 C 
BRANCH  29  30
ATOM     30  N   UNL A   1      32.444  34.284  27.731  1.00  0.00    -0.352 N 
ATOM     31  C   UNL A   1      33.059  35.015  28.711  1.00  0.00     0.251 C 
ATOM     32  H   UNL A   1      31.799  34.780  27.176  1.00  0.00     0.163 HD
ATOM     33  O   UNL A   1      32.643  36.143  28.986  1.00  0.00    -0.269 OA
BRANCH  31  34
ATOM     34  C   UNL A   1      34.209  34.450  29.445  1.00  0.00     0.039 A 
ATOM     35  C   UNL A   1      33.984  33.827  30.675  1.00  0.00     0.014 A 
ATOM     36  C   UNL A   1      35.506  34.543  28.930  1.00  0.00     0.014 A 
ATOM     37  C   UNL A   1      35.054  33.258  31.366  1.00  0.00     0.010 A 
ATOM     38  C   UNL A   1      36.560  33.912  29.587  1.00  0.00     0.010 A 
ATOM     39  C   UNL A   1      36.347  33.272  30.816  1.00  0.00    -0.014 A 
BRANCH  39  40
ATOM     40  C   UNL A   1      37.476  32.604  31.511  1.00  0.00     0.031 A 
ATOM     41  C   UNL A   1      38.204  31.456  30.866  1.00  0.00     0.074 A 
ATOM     42  C   UNL A   1      37.805  32.995  32.759  1.00  0.00     0.049 A 
ATOM     43  N   UNL A   1      39.210  30.758  31.324  1.00  0.00    -0.248 NA
ATOM     44  C   UNL A   1      37.724  31.017  29.545  1.00  0.00     0.031 C 
ATOM     45  C   UNL A   1      37.118  34.035  33.527  1.00  0.00     0.029 A 
ATOM     46  N   UNL A   1      38.788  32.551  33.607  1.00  0.00    -0.354 N 
ATOM     47  C   UNL A   1      39.467  29.783  30.367  1.00  0.00     0.074 A 
ATOM     48  C   UNL A   1      38.486  29.956  29.318  1.00  0.00     0.031 C 
ATOM     49  C   UNL A   1      37.706  34.157  34.727  1.00  0.00     0.029 A 
ATOM     50  C   UNL A   1      38.794  33.188  34.826  1.00  0.00     0.049 A 
ATOM     51  H   UNL A   1      39.428  31.842  33.367  1.00  0.00     0.167 HD
ATOM     52  C   UNL A   1      40.447  28.848  30.348  1.00  0.00     0.034 A 
ATOM     53  C   UNL A   1      39.586  33.014  35.901  1.00  0.00     0.034 A 
ATOM     54  C   UNL A   1      41.443  28.706  31.376  1.00  0.00     0.049 A 
ATOM     55  C   UNL A   1      40.696  32.001  35.833  1.00  0.00     0.074 A 
ATOM     56  C   UNL A   1      42.531  27.851  31.406  1.00  0.00     0.029 A 
ATOM     57  N   UNL A   1      41.468  29.425  32.560  1.00  0.00    -0.354 N 
ATOM     58  N   UNL A   1      41.029  31.206  34.846  1.00  0.00    -0.248 NA
ATOM     59  C   UNL A   1      41.567  31.891  37.013  1.00  0.00     0.031 C 
ATOM     60  C   UNL A   1      43.200  28.037  32.620  1.00  0.00     0.029 A 
ATOM     61  C   UNL A   1      42.546  29.027  33.334  1.00  0.00     0.049 A 
ATOM     62  H   UNL A   1      40.816  30.118  32.813  1.00  0.00     0.167 HD
ATOM     63  C   UNL A   1      42.163  30.525  35.271  1.00  0.00     0.074 A 
ATOM     64  C   UNL A   1      42.477  31.023  36.595  1.00  0.00     0.031 C 
ATOM     65  C   UNL A   1      42.873  29.562  34.631  1.00  0.00     0.034 A 
BRANCH  52  66
ATOM     66  C   UNL A   1      40.525  27.939  29.149  1.00  0.00     0.023 A 
ATOM     67  C   UNL A   1      39.636  26.848  29.043  1.00  0.00     0.012 A 
ATOM     68  C   UNL A   1      41.430  28.195  28.100  1.00  0.00     0.148 A 
ATOM     69  C   UNL A   1      39.668  26.009  27.930  1.00  0.00     0.002 A 
ATOM     70  C   UNL A   1      41.424  27.381  26.972  1.00  0.00     0.091 A 
ATOM     71  F   UNL A   1      42.281  29.222  28.227  1.00  0.00    -0.205 F 
ATOM     72  C   UNL A   1      40.553  26.282  26.891  1.00  0.00     0.022 A 
BRANCH  70  73
ATOM     73  S   UNL A   1      42.470  27.693  25.546  1.00  0.00     0.127 S 
ATOM     74  O   UNL A   1      42.195  26.520  24.715  1.00  0.00    -0.237 OA
ATOM     75  O   UNL A   1      41.919  28.947  25.030  1.00  0.00    -0.237 OA
ATOM     76  O   UNL A   1      43.830  27.791  26.056  1.00  0.00    -0.744 OA
ENDBRANCH  70  73
ENDBRANCH  52  66
BRANCH  53  77
ATOM     77  C   UNL A   1      39.399  33.866  37.109  1.00  0.00     0.023 A 
ATOM     78  C   UNL A   1      39.840  35.203  37.090  1.00  0.00     0.012 A 
ATOM     79  C   UNL A   1      38.766  33.368  38.264  1.00  0.00     0.148 A 
ATOM     80  C   UNL A   1      39.686  36.019  38.211  1.00  0.00     0.002 A 
ATOM     81  C   UNL A   1      38.564  34.203  39.357  1.00  0.00     0.091 A 
ATOM     82  F   UNL A   1      38.362  32.089  38.267  1.00  0.00    -0.205 F 
ATOM     83  C   UNL A   1      39.039  35.523  39.340  1.00  0.00     0.022 A 
BRANCH  81  84
ATOM     84  S   UNL A   1      37.624  33.689  40.799  1.00  0.00     0.127 S 
ATOM     85  O   UNL A   1      37.476  34.949  41.523  1.00  0.00    -0.237 OA
ATOM     86  O   UNL A   1      36.395  33.178  40.191  1.00  0.00    -0.237 OA
ATOM     87  O   UNL A   1      38.436  32.673  41.454  1.00  0.00    -0.744 OA
ENDBRANCH  81  84
ENDBRANCH  53  77
BRANCH  65  88
ATOM     88  C   UNL A   1      44.078  29.001  35.339  1.00  0.00     0.023 A 
ATOM     89  C   UNL A   1      45.353  29.552  35.101  1.00  0.00     0.012 A 
ATOM     90  C   UNL A   1      43.940  27.964  36.284  1.00  0.00     0.148 A 
ATOM     91  C   UNL A   1      46.476  29.053  35.760  1.00  0.00     0.002 A 
ATOM     92  C   UNL A   1      45.057  27.507  36.973  1.00  0.00     0.091 A 
ATOM     93  F   UNL A   1      42.723  27.438  36.484  1.00  0.00    -0.205 F 
ATOM     94  C   UNL A   1      46.327  28.040  36.702  1.00  0.00     0.022 A 
BRANCH  92  95
ATOM     95  S   UNL A   1      44.943  26.272  38.274  1.00  0.00     0.127 S 
ATOM     96  O   UNL A   1      45.047  25.028  37.515  1.00  0.00    -0.237 OA
ATOM     97  O   UNL A   1      46.112  26.583  39.099  1.00  0.00    -0.237 OA
ATOM     98  O   UNL A   1      43.665  26.501  38.932  1.00  0.00    -0.744 OA
ENDBRANCH  92  95
ENDBRANCH  65  88
ENDBRANCH  39  40
ENDBRANCH  31  34
ENDBRANCH  29  30
ENDBRANCH  28  29
ENDBRANCH  27  28
ENDBRANCH   1  27
TORSDOF 19
ENDMDL
MODEL 2
REMARK VINA RESULT:     -12.2      0.532      7.609
REMARK SMILES CC(=O)Nc1cccc(C(=O)N2CCCC[C@@H]2C(=O)NCCCCCCNC(=O)c2ccc(-c3c4nc(c(-c5cccc(S(=O)(=O)[O-])c5F)c5ccc([nH]5)c(-c5cccc(S(=O)(=O)[O-])c5F)c5nc(c(-c6cccc(S(=O)(=O)[O-])c6F)c6ccc3[nH]6)C=C5)C=C4)cc2)c1
REMARK SMILES IDX 23 1 22 2 21 3 20 4 18 5 19 6 17 8 12 9 13 10 14 11 16 12
REMARK SMILES IDX 15 13 10 14 11 15 9 16 5 17 6 18 93 19 7 20 8 21 4 22 1 23
REMARK SMILES IDX 2 24 3 25 24 27 25 28 26 29 27 30 28 31 29 33 30 34 31 35
REMARK SMILES IDX 92 36 32 37 91 38 33 39 34 40 35 41 85 42 36 43 90 44 84 45
REMARK SMILES IDX 86 46 37 47 89 48 83 49 82 50 38 52 70 53 50 54 69 55 51 56
REMARK SMILES IDX 54 57 68 58 87 59 52 60 53 61 67 63 88 64 55 65 39 66 40 67
REMARK SMILES IDX 48 68 41 69 43 70 49 71 42 72 44 73 45 74 46 75 47 76 71 77
REMARK SMILES IDX 72 78 80 79 73 80 75 81 81 82 74 83 76 84 77 85 78 86 79 87
REMARK SMILES IDX 56 88 57 89 65 90 58 91 60 92 66 93 59 94 61 95 62 96 63 97
REMARK SMILES IDX 64 98
REMARK H PARENT 20 7 4 26 27 32 86 51 54 62
REMARK Flexibility Score: inf
ROOT
ATOM      1  C   UNL A   1      32.485  29.847  27.240  1.00  0.00     0.002 C 
ENDROOT
BRANCH   1   2
ATOM      2  C   UNL A   1      31.672  28.587  27.560  1.00  0.00     0.021 C 
BRANCH   2   3
ATOM      3  C   UNL A   1      32.241  27.315  26.935  1.00  0.00     0.116 C 
BRANCH   3   4
ATOM      4  N   UNL A   1      31.163  26.407  26.589  1.00  0.00    -0.354 N 
ATOM      5  C   UNL A   1      31.006  25.636  25.481  1.00  0.00     0.242 C 
ATOM      6  O   UNL A   1      29.894  25.138  25.277  1.00  0.00    -0.273 OA
ATOM      7  H   UNL A   1      30.441  26.340  27.255  1.00  0.00     0.163 HD
BRANCH   5   8
ATOM      8  C   UNL A   1      32.134  25.476  24.440  1.00  0.00     0.174 C 
ATOM      9  N   UNL A   1      32.261  26.563  23.431  1.00  0.00    -0.327 N 
ATOM     10  C   UNL A   1      33.134  26.271  22.296  1.00  0.00     0.120 C 
ATOM     11  C   UNL A   1      32.780  24.972  21.603  1.00  0.00     0.022 C 
ATOM     12  C   UNL A   1      31.918  24.088  23.782  1.00  0.00     0.035 C 
ATOM     13  C   UNL A   1      32.831  23.819  22.592  1.00  0.00     0.004 C 
BRANCH   9  14
ATOM     14  C   UNL A   1      31.959  27.926  23.592  1.00  0.00     0.254 C 
ATOM     15  O   UNL A   1      32.828  28.746  23.888  1.00  0.00    -0.269 OA
BRANCH  14  16
ATOM     16  C   UNL A   1      30.582  28.460  23.467  1.00  0.00     0.042 A 
ATOM     17  C   UNL A   1      29.063  30.346  23.297  1.00  0.00     0.041 A 
ATOM     18  C   UNL A   1      28.015  29.457  23.031  1.00  0.00     0.026 A 
ATOM     19  C   UNL A   1      30.342  29.836  23.507  1.00  0.00     0.040 A 
ATOM     20  C   UNL A   1      28.253  28.085  22.931  1.00  0.00     0.003 A 
ATOM     21  C   UNL A   1      29.537  27.586  23.144  1.00  0.00     0.014 A 
BRANCH  17  22
ATOM     22  N   UNL A   1      28.751  31.713  23.382  1.00  0.00    -0.326 N 
ATOM     23  C   UNL A   1      28.045  32.216  21.039  1.00  0.00     0.114 C 
ATOM     24  C   UNL A   1      28.433  32.640  22.430  1.00  0.00     0.221 C 
ATOM     25  O   UNL A   1      28.404  33.832  22.747  1.00  0.00    -0.275 OA
ATOM     26  H   UNL A   1      28.763  32.070  24.300  1.00  0.00     0.169 HD
ENDBRANCH  17  22
ENDBRANCH  14  16
ENDBRANCH   9  14
ENDBRANCH   5   8
ENDBRANCH   3   4
ENDBRANCH   2   3
ENDBRANCH   1   2
BRANCH   1  27
ATOM     27  C   UNL A   1      31.790  30.830  26.292  1.00  0.00     0.002 C 
BRANCH  27  28
ATOM     28  C   UNL A   1      31.544  32.222  26.880  1.00  0.00     0.021 C 
BRANCH  28  29
ATOM     29  C   UNL A   1      32.810  32.962  27.300  1.00  0.00     0.116 C 
BRANCH  29  30
ATOM     30  N   UNL A   1      32.514  34.278  27.843  1.00  0.00    -0.352 N 
ATOM     31  C   UNL A   1      33.043  34.898  28.943  1.00  0.00     0.251 C 
ATOM     32  H   UNL A   1      31.837  34.796  27.351  1.00  0.00     0.163 HD
ATOM     33  O   UNL A   1      32.522  35.929  29.374  1.00  0.00    -0.269 OA
BRANCH  31  34
ATOM     34  C   UNL A   1      34.227  34.328  29.616  1.00  0.00     0.039 A 
ATOM     35  C   UNL A   1      34.044  33.580  30.782  1.00  0.00     0.014 A 
ATOM     36  C   UNL A   1      35.514  34.539  29.109  1.00  0.00     0.014 A 
ATOM     37  C   UNL A   1      35.148  33.006  31.414  1.00  0.00     0.010 A 
ATOM     38  C   UNL A   1      36.604  33.905  29.701  1.00  0.00     0.010 A 
ATOM     39  C   UNL A   1      36.434  33.141  30.864  1.00  0.00    -0.014 A 
BRANCH  39  40
ATOM     40  C   UNL A   1      37.602  32.472  31.490  1.00  0.00     0.031 A 
ATOM     41  C   UNL A   1      38.154  32.960  32.802  1.00  0.00     0.074 A 
ATOM     42  C   UNL A   1      38.207  31.457  30.841  1.00  0.00     0.049 A 
ATOM     43  N   UNL A   1      39.163  32.497  33.493  1.00  0.00    -0.248 NA
ATOM     44  C   UNL A   1      37.507  34.136  33.405  1.00  0.00     0.031 C 
ATOM     45  C   UNL A   1      37.821  30.950  29.521  1.00  0.00     0.029 A 
ATOM     46  N   UNL A   1      39.284  30.683  31.192  1.00  0.00    -0.354 N 
ATOM     47  C   UNL A   1      39.291  33.337  34.593  1.00  0.00     0.074 A 
ATOM     48  C   UNL A   1      38.279  34.362  34.459  1.00  0.00     0.031 C 
ATOM     49  C   UNL A   1      38.642  29.944  29.180  1.00  0.00     0.029 A 
ATOM     50  C   UNL A   1      39.626  29.749  30.241  1.00  0.00     0.049 A 
ATOM     51  H   UNL A   1      39.767  30.786  32.043  1.00  0.00     0.167 HD
ATOM     52  C   UNL A   1      40.152  33.248  35.635  1.00  0.00     0.034 A 
ATOM     53  C   UNL A   1      40.619  28.840  30.224  1.00  0.00     0.034 A 
ATOM     54  C   UNL A   1      41.131  32.205  35.783  1.00  0.00     0.049 A 
ATOM     55  C   UNL A   1      41.529  28.732  31.416  1.00  0.00     0.074 A 
ATOM     56  C   UNL A   1      41.987  31.973  36.846  1.00  0.00     0.029 A 
ATOM     57  N   UNL A   1      41.395  31.226  34.838  1.00  0.00    -0.354 N 
ATOM     58  N   UNL A   1      41.522  29.429  32.527  1.00  0.00    -0.248 NA
ATOM     59  C   UNL A   1      42.561  27.685  31.371  1.00  0.00     0.031 C 
ATOM     60  C   UNL A   1      42.787  30.869  36.531  1.00  0.00     0.029 A 
ATOM     61  C   UNL A   1      42.408  30.395  35.286  1.00  0.00     0.049 A 
ATOM     62  H   UNL A   1      40.930  31.135  33.975  1.00  0.00     0.167 HD
ATOM     63  C   UNL A   1      42.522  28.885  33.324  1.00  0.00     0.074 A 
ATOM     64  C   UNL A   1      43.096  27.782  32.579  1.00  0.00     0.031 C 
ATOM     65  C   UNL A   1      42.940  29.273  34.555  1.00  0.00     0.034 A 
BRANCH  52  66
ATOM     66  C   UNL A   1      40.037  34.277  36.730  1.00  0.00     0.023 A 
ATOM     67  C   UNL A   1      40.418  35.611  36.473  1.00  0.00     0.012 A 
ATOM     68  C   UNL A   1      39.496  33.944  37.988  1.00  0.00     0.148 A 
ATOM     69  C   UNL A   1      40.294  36.589  37.460  1.00  0.00     0.002 A 
ATOM     70  C   UNL A   1      39.333  34.934  38.950  1.00  0.00     0.091 A 
ATOM     71  F   UNL A   1      39.160  32.668  38.221  1.00  0.00    -0.205 F 
ATOM     72  C   UNL A   1      39.741  36.253  38.693  1.00  0.00     0.022 A 
BRANCH  70  73
ATOM     73  S   UNL A   1      38.560  34.622  40.541  1.00  0.00     0.127 S 
ATOM     74  O   UNL A   1      37.390  33.834  40.151  1.00  0.00    -0.237 OA
ATOM     75  O   UNL A   1      39.597  33.865  41.243  1.00  0.00    -0.237 OA
ATOM     76  O   UNL A   1      38.269  35.929  41.112  1.00  0.00    -0.744 OA
ENDBRANCH  70  73
ENDBRANCH  52  66
BRANCH  53  77
ATOM     77  C   UNL A   1      40.760  27.913  29.066  1.00  0.00     0.023 A 
ATOM     78  C   UNL A   1      40.000  26.728  29.030  1.00  0.00     0.012 A 
ATOM     79  C   UNL A   1      41.620  28.211  27.992  1.00  0.00     0.148 A 
ATOM     80  C   UNL A   1      40.120  25.838  27.961  1.00  0.00     0.002 A 
ATOM     81  C   UNL A   1      41.693  27.348  26.903  1.00  0.00     0.091 A 
ATOM     82  F   UNL A   1      42.343  29.339  28.050  1.00  0.00    -0.205 F 
ATOM     83  C   UNL A   1      40.958  26.153  26.895  1.00  0.00     0.022 A 
BRANCH  81  84
ATOM     84  S   UNL A   1      42.641  27.739  25.429  1.00  0.00     0.127 S 
ATOM     85  O   UNL A   1      42.456  26.532  24.627  1.00  0.00    -0.237 OA
ATOM     86  O   UNL A   1      41.947  28.926  24.929  1.00  0.00    -0.237 OA
ATOM     87  O   UNL A   1      43.999  27.989  25.891  1.00  0.00    -0.744 OA
ENDBRANCH  81  84
ENDBRANCH  53  77
BRANCH  65  88
ATOM     88  C   UNL A   1      44.054  28.484  35.191  1.00  0.00     0.023 A 
ATOM     89  C   UNL A   1      45.391  28.723  34.810  1.00  0.00     0.012 A 
ATOM     90  C   UNL A   1      43.784  27.545  36.206  1.00  0.00     0.148 A 
ATOM     91  C   UNL A   1      46.435  28.011  35.400  1.00  0.00     0.002 A 
ATOM     92  C   UNL A   1      44.833  26.877  36.825  1.00  0.00     0.091 A 
ATOM     93  F   UNL A   1      42.506  27.316  36.542  1.00  0.00    -0.205 F 
ATOM     94  C   UNL A   1      46.157  27.098  36.413  1.00  0.00     0.022 A 
BRANCH  92  95
ATOM     95  S   UNL A   1      44.578  25.755  38.205  1.00  0.00     0.127 S 
ATOM     96  O   UNL A   1      45.823  25.915  38.954  1.00  0.00    -0.237 OA
ATOM     97  O   UNL A   1      43.397  26.326  38.855  1.00  0.00    -0.237 OA
ATOM     98  O   UNL A   1      44.364  24.440  37.617  1.00  0.00    -0.744 OA
ENDBRANCH  92  95
ENDBRANCH  65  88
ENDBRANCH  39  40
ENDBRANCH  31  34
ENDBRANCH  29  30
ENDBRANCH  28  29
ENDBRANCH  27  28
ENDBRANCH   1  27
TORSDOF 19
ENDMDL
MODEL 3
REMARK VINA RESULT:     -12.1      6.333     11.790
REMARK SMILES CC(=O)Nc1cccc(C(=O)N2CCCC[C@@H]2C(=O)NCCCCCCNC(=O)c2ccc(-c3c4nc(c(-c5cccc(S(=O)(=O)[O-])c5F)c5ccc([nH]5)c(-c5cccc(S(=O)(=O)[O-])c5F)c5nc(c(-c6cccc(S(=O)(=O)[O-])c6F)c6ccc3[nH]6)C=C5)C=C4)cc2)c1
REMARK SMILES IDX 23 1 22 2 21 3 20 4 18 5 19 6 17 8 12 9 13 10 14 11 16 12
REMARK SMILES IDX 15 13 10 14 11 15 9 16 5 17 6 18 93 19 7 20 8 21 4 22 1 23
REMARK SMILES IDX 2 24 3 25 24 27 25 28 26 29 27 30 28 31 29 33 30 34 31 35
REMARK SMILES IDX 92 36 32 37 91 38 33 39 34 40 35 41 85 42 36 43 90 44 84 45
REMARK SMILES IDX 86 46 37 47 89 48 83 49 82 50 38 52 70 53 50 54 69 55 51 56
REMARK SMILES IDX 54 57 68 58 87 59 52 60 53 61 67 63 88 64 55 65 39 66 40 67
REMARK SMILES IDX 48 68 41 69 43 70 49 71 42 72 44 73 45 74 46 75 47 76 71 77
REMARK SMILES IDX 72 78 80 79 73 80 75 81 81 82 74 83 76 84 77 85 78 86 79 87
REMARK SMILES IDX 56 88 57 89 65 90 58 91 60 92 66 93 59 94 61 95 62 96 63 97
REMARK SMILES IDX 64 98
REMARK H PARENT 20 7 4 26 27 32 86 51 54 62
REMARK Flexibility Score: inf
ROOT
ATOM      1  C   UNL A   1      36.711  21.677  24.876  1.00  0.00     0.002 C 
ENDROOT
BRANCH   1   2
ATOM      2  C   UNL A   1      36.158  22.469  23.686  1.00  0.00     0.021 C 
BRANCH   2   3
ATOM      3  C   UNL A   1      35.255  23.633  24.089  1.00  0.00     0.116 C 
BRANCH   3   4
ATOM      4  N   UNL A   1      34.039  23.615  23.296  1.00  0.00    -0.354 N 
ATOM      5  C   UNL A   1      32.944  24.416  23.376  1.00  0.00     0.242 C 
ATOM      6  O   UNL A   1      31.924  24.061  22.777  1.00  0.00    -0.273 OA
ATOM      7  H   UNL A   1      34.004  22.921  22.598  1.00  0.00     0.163 HD
BRANCH   5   8
ATOM      8  C   UNL A   1      32.923  25.668  24.278  1.00  0.00     0.174 C 
ATOM      9  N   UNL A   1      31.937  25.663  25.393  1.00  0.00    -0.327 N 
ATOM     10  C   UNL A   1      31.729  26.947  26.058  1.00  0.00     0.120 C 
ATOM     11  C   UNL A   1      31.396  28.062  25.089  1.00  0.00     0.022 C 
ATOM     12  C   UNL A   1      32.726  26.879  23.328  1.00  0.00     0.035 C 
ATOM     13  C   UNL A   1      32.497  28.200  24.050  1.00  0.00     0.004 C 
BRANCH   9  14
ATOM     14  C   UNL A   1      31.460  24.555  26.114  1.00  0.00     0.254 C 
ATOM     15  O   UNL A   1      30.281  24.469  26.455  1.00  0.00    -0.269 OA
BRANCH  14  16
ATOM     16  C   UNL A   1      32.343  23.448  26.555  1.00  0.00     0.042 A 
ATOM     17  C   UNL A   1      33.009  21.116  26.446  1.00  0.00     0.041 A 
ATOM     18  C   UNL A   1      34.128  21.416  27.232  1.00  0.00     0.026 A 
ATOM     19  C   UNL A   1      32.128  22.141  26.111  1.00  0.00     0.040 A 
ATOM     20  C   UNL A   1      34.385  22.728  27.634  1.00  0.00     0.003 A 
ATOM     21  C   UNL A   1      33.496  23.746  27.291  1.00  0.00     0.014 A 
BRANCH  17  22
ATOM     22  N   UNL A   1      32.813  19.775  26.078  1.00  0.00    -0.326 N 
ATOM     23  C   UNL A   1      32.534  19.969  23.602  1.00  0.00     0.114 C 
ATOM     24  C   UNL A   1      32.465  19.194  24.891  1.00  0.00     0.221 C 
ATOM     25  O   UNL A   1      32.154  18.000  24.882  1.00  0.00    -0.275 OA
ATOM     26  H   UNL A   1      32.954  19.133  26.811  1.00  0.00     0.169 HD
ENDBRANCH  17  22
ENDBRANCH  14  16
ENDBRANCH   9  14
ENDBRANCH   5   8
ENDBRANCH   3   4
ENDBRANCH   2   3
ENDBRANCH   1   2
BRANCH   1  27
ATOM     27  C   UNL A   1      36.463  20.167  24.808  1.00  0.00     0.002 C 
BRANCH  27  28
ATOM     28  C   UNL A   1      37.712  19.303  25.006  1.00  0.00     0.021 C 
BRANCH  28  29
ATOM     29  C   UNL A   1      38.966  20.084  25.384  1.00  0.00     0.116 C 
BRANCH  29  30
ATOM     30  N   UNL A   1      39.986  19.225  25.963  1.00  0.00    -0.352 N 
ATOM     31  C   UNL A   1      41.205  19.562  26.487  1.00  0.00     0.251 C 
ATOM     32  H   UNL A   1      39.770  18.264  25.980  1.00  0.00     0.163 HD
ATOM     33  O   UNL A   1      42.027  18.678  26.742  1.00  0.00    -0.269 OA
BRANCH  31  34
ATOM     34  C   UNL A   1      41.538  20.979  26.734  1.00  0.00     0.039 A 
ATOM     35  C   UNL A   1      42.066  21.340  27.976  1.00  0.00     0.014 A 
ATOM     36  C   UNL A   1      41.320  21.950  25.752  1.00  0.00     0.014 A 
ATOM     37  C   UNL A   1      42.417  22.670  28.216  1.00  0.00     0.010 A 
ATOM     38  C   UNL A   1      41.739  23.261  25.968  1.00  0.00     0.010 A 
ATOM     39  C   UNL A   1      42.281  23.636  27.205  1.00  0.00    -0.014 A 
BRANCH  39  40
ATOM     40  C   UNL A   1      42.721  25.037  27.430  1.00  0.00     0.031 A 
ATOM     41  C   UNL A   1      41.799  26.038  28.071  1.00  0.00     0.074 A 
ATOM     42  C   UNL A   1      43.937  25.423  26.995  1.00  0.00     0.049 A 
ATOM     43  N   UNL A   1      42.015  27.297  28.345  1.00  0.00    -0.248 NA
ATOM     44  C   UNL A   1      40.449  25.572  28.429  1.00  0.00     0.031 C 
ATOM     45  C   UNL A   1      44.889  24.569  26.279  1.00  0.00     0.029 A 
ATOM     46  N   UNL A   1      44.574  26.635  27.075  1.00  0.00    -0.354 N 
ATOM     47  C   UNL A   1      40.827  27.783  28.879  1.00  0.00     0.074 A 
ATOM     48  C   UNL A   1      39.879  26.690  28.855  1.00  0.00     0.031 C 
ATOM     49  C   UNL A   1      45.990  25.281  25.995  1.00  0.00     0.029 A 
ATOM     50  C   UNL A   1      45.817  26.645  26.484  1.00  0.00     0.049 A 
ATOM     51  H   UNL A   1      44.179  27.424  27.512  1.00  0.00     0.167 HD
ATOM     52  C   UNL A   1      40.557  29.016  29.370  1.00  0.00     0.034 A 
ATOM     53  C   UNL A   1      46.715  27.640  26.350  1.00  0.00     0.034 A 
ATOM     54  C   UNL A   1      41.514  30.088  29.426  1.00  0.00     0.049 A 
ATOM     55  C   UNL A   1      46.407  28.986  26.948  1.00  0.00     0.074 A 
ATOM     56  C   UNL A   1      41.367  31.344  29.987  1.00  0.00     0.029 A 
ATOM     57  N   UNL A   1      42.793  30.037  28.892  1.00  0.00    -0.354 N 
ATOM     58  N   UNL A   1      45.340  29.374  27.603  1.00  0.00    -0.248 NA
ATOM     59  C   UNL A   1      47.445  30.020  26.824  1.00  0.00     0.031 C 
ATOM     60  C   UNL A   1      42.549  32.062  29.770  1.00  0.00     0.029 A 
ATOM     61  C   UNL A   1      43.442  31.243  29.100  1.00  0.00     0.049 A 
ATOM     62  H   UNL A   1      43.181  29.258  28.433  1.00  0.00     0.167 HD
ATOM     63  C   UNL A   1      45.589  30.683  27.997  1.00  0.00     0.074 A 
ATOM     64  C   UNL A   1      46.922  31.012  27.531  1.00  0.00     0.031 C 
ATOM     65  C   UNL A   1      44.784  31.542  28.670  1.00  0.00     0.034 A 
BRANCH  52  66
ATOM     66  C   UNL A   1      39.183  29.258  29.940  1.00  0.00     0.023 A 
ATOM     67  C   UNL A   1      38.870  28.778  31.229  1.00  0.00     0.012 A 
ATOM     68  C   UNL A   1      38.225  30.012  29.233  1.00  0.00     0.148 A 
ATOM     69  C   UNL A   1      37.615  29.014  31.792  1.00  0.00     0.002 A 
ATOM     70  C   UNL A   1      36.993  30.282  29.820  1.00  0.00     0.091 A 
ATOM     71  F   UNL A   1      38.532  30.442  28.002  1.00  0.00    -0.205 F 
ATOM     72  C   UNL A   1      36.683  29.775  31.092  1.00  0.00     0.022 A 
BRANCH  70  73
ATOM     73  S   UNL A   1      35.753  31.318  29.036  1.00  0.00     0.127 S 
ATOM     74  O   UNL A   1      36.577  32.381  28.460  1.00  0.00    -0.237 OA
ATOM     75  O   UNL A   1      35.165  30.404  28.057  1.00  0.00    -0.237 OA
ATOM     76  O   UNL A   1      34.848  31.736  30.097  1.00  0.00    -0.744 OA
ENDBRANCH  70  73
ENDBRANCH  52  66
BRANCH  53  77
ATOM     77  C   UNL A   1      48.020  27.380  25.679  1.00  0.00     0.023 A 
ATOM     78  C   UNL A   1      49.114  26.930  26.443  1.00  0.00     0.012 A 
ATOM     79  C   UNL A   1      48.175  27.552  24.291  1.00  0.00     0.148 A 
ATOM     80  C   UNL A   1      50.350  26.688  25.841  1.00  0.00     0.002 A 
ATOM     81  C   UNL A   1      49.392  27.254  23.688  1.00  0.00     0.091 A 
ATOM     82  F   UNL A   1      47.124  27.991  23.583  1.00  0.00    -0.205 F 
ATOM     83  C   UNL A   1      50.485  26.840  24.464  1.00  0.00     0.022 A 
BRANCH  81  84
ATOM     84  S   UNL A   1      49.618  27.293  21.907  1.00  0.00     0.127 S 
ATOM     85  O   UNL A   1      48.603  26.344  21.456  1.00  0.00    -0.237 OA
ATOM     86  O   UNL A   1      49.333  28.695  21.598  1.00  0.00    -0.237 OA
ATOM     87  O   UNL A   1      51.000  26.899  21.678  1.00  0.00    -0.744 OA
ENDBRANCH  81  84
ENDBRANCH  53  77
BRANCH  65  88
ATOM     88  C   UNL A   1      45.328  32.914  28.970  1.00  0.00     0.023 A 
ATOM     89  C   UNL A   1      46.067  33.135  30.149  1.00  0.00     0.012 A 
ATOM     90  C   UNL A   1      45.156  33.973  28.056  1.00  0.00     0.148 A 
ATOM     91  C   UNL A   1      46.590  34.395  30.434  1.00  0.00     0.002 A 
ATOM     92  C   UNL A   1      45.723  35.213  28.323  1.00  0.00     0.091 A 
ATOM     93  F   UNL A   1      44.433  33.752  26.948  1.00  0.00    -0.205 F 
ATOM     94  C   UNL A   1      46.428  35.430  29.517  1.00  0.00     0.022 A 
BRANCH  92  95
ATOM     95  S   UNL A   1      45.647  36.576  27.154  1.00  0.00     0.127 S 
ATOM     96  O   UNL A   1      46.403  37.612  27.854  1.00  0.00    -0.237 OA
ATOM     97  O   UNL A   1      46.321  36.016  25.981  1.00  0.00    -0.237 OA
ATOM     98  O   UNL A   1      44.232  36.857  26.957  1.00  0.00    -0.744 OA
ENDBRANCH  92  95
ENDBRANCH  65  88
ENDBRANCH  39  40
ENDBRANCH  31  34
ENDBRANCH  29  30
ENDBRANCH  28  29
ENDBRANCH  27  28
ENDBRANCH   1  27
TORSDOF 19
ENDMDL
