MODEL 1
REMARK VINA RESULT:     -11.1      0.000      0.000
REMARK SMILES CCC[N@H+]1CCC[C@H]([C@@H](C)Nc2cccc(C(=O)NCCCCCCNC(=O)c3ccc(-c4c5nc(c(-c6cccc(S(=O)(=O)[O-])c6F)c6ccc([nH]6)c(-c6cccc(S(=O)(=O)[O-])c6F)c6nc(c(-c7cccc(S(=O)(=O)[O-])c7F)c7ccc4[nH]7)C=C6)C=C5)cc3)c2)C1
REMARK SMILES IDX 21 1 20 2 19 3 17 4 18 5 16 7 12 8 13 9 92 10 14 11 15 12
REMARK SMILES IDX 11 13 9 15 10 16 8 17 4 18 5 19 93 20 6 22 7 23 3 24 2 25
REMARK SMILES IDX 1 26 22 27 23 28 24 29 25 30 26 31 27 32 28 34 29 35 30 36
REMARK SMILES IDX 91 37 31 38 90 39 32 40 33 41 34 42 84 43 35 44 89 45 83 46
REMARK SMILES IDX 85 47 36 48 88 49 82 50 81 51 37 53 69 54 49 55 68 56 50 57
REMARK SMILES IDX 53 58 67 59 86 60 51 61 52 62 66 64 87 65 54 66 38 67 39 68
REMARK SMILES IDX 47 69 40 70 42 71 48 72 41 73 43 74 44 75 45 76 46 77 70 78
REMARK SMILES IDX 71 79 79 80 72 81 74 82 80 83 73 84 75 85 76 86 77 87 78 88
REMARK SMILES IDX 55 89 56 90 64 91 57 92 59 93 65 94 58 95 60 96 61 97 62 98
REMARK SMILES IDX 63 99
REMARK H PARENT 19 6 11 14 4 21 26 33 85 52 53 63
REMARK Flexibility Score: inf
ROOT
ATOM      1  C   UNL A   1      35.437  22.264  26.298  1.00  0.00     0.021 C 
ENDROOT
BRANCH   1   2
ATOM      2  C   UNL A   1      34.226  21.413  26.654  1.00  0.00     0.116 C 
BRANCH   2   3
ATOM      3  N   UNL A   1      33.148  22.130  27.320  1.00  0.00    -0.352 N 
ATOM      4  C   UNL A   1      32.232  23.049  26.848  1.00  0.00     0.251 C 
ATOM      5  O   UNL A   1      31.415  23.519  27.642  1.00  0.00    -0.269 OA
ATOM      6  H   UNL A   1      33.057  21.922  28.278  1.00  0.00     0.163 HD
BRANCH   4   7
ATOM      7  C   UNL A   1      32.239  23.542  25.440  1.00  0.00     0.041 A 
ATOM      8  C   UNL A   1      32.803  25.285  23.821  1.00  0.00     0.035 A 
ATOM      9  C   UNL A   1      32.006  24.626  22.882  1.00  0.00     0.026 A 
ATOM     10  C   UNL A   1      32.997  24.642  25.043  1.00  0.00     0.039 A 
ATOM     11  C   UNL A   1      31.372  23.417  23.191  1.00  0.00     0.003 A 
ATOM     12  C   UNL A   1      31.458  22.894  24.482  1.00  0.00     0.014 A 
BRANCH   8  13
ATOM     13  N   UNL A   1      33.383  26.500  23.512  1.00  0.00    -0.382 N 
ATOM     14  H   UNL A   1      34.056  26.513  22.794  1.00  0.00     0.160 HD
BRANCH  13  15
ATOM     15  C   UNL A   1      33.074  27.773  24.177  1.00  0.00     0.084 C 
ATOM     16  C   UNL A   1      34.171  28.065  25.204  1.00  0.00     0.031 C 
BRANCH  15  17
ATOM     17  C   UNL A   1      31.651  27.706  24.794  1.00  0.00     0.066 C 
ATOM     18  N   UNL A   1      30.747  29.495  23.323  1.00  0.00    -0.335 N 
ATOM     19  C   UNL A   1      30.518  30.401  24.462  1.00  0.00     0.262 C 
ATOM     20  C   UNL A   1      30.579  28.096  23.754  1.00  0.00     0.267 C 
ATOM     21  H   UNL A   1      31.705  29.636  23.002  1.00  0.00     0.348 HD
ATOM     22  C   UNL A   1      31.485  30.108  25.617  1.00  0.00     0.062 C 
ATOM     23  C   UNL A   1      31.478  28.630  26.015  1.00  0.00     0.017 C 
BRANCH  18  24
ATOM     24  C   UNL A   1      29.873  29.798  22.183  1.00  0.00     0.261 C 
BRANCH  24  25
ATOM     25  C   UNL A   1      28.558  30.474  22.600  1.00  0.00     0.058 C 
ATOM     26  C   UNL A   1      27.463  29.479  22.958  1.00  0.00     0.010 C 
ENDBRANCH  24  25
ENDBRANCH  18  24
ENDBRANCH  15  17
ENDBRANCH  13  15
ENDBRANCH   8  13
ENDBRANCH   4   7
ENDBRANCH   2   3
ENDBRANCH   1   2
BRANCH   1  27
ATOM     27  C   UNL A   1      36.315  21.754  25.161  1.00  0.00     0.002 C 
BRANCH  27  28
ATOM     28  C   UNL A   1      36.294  20.242  24.917  1.00  0.00     0.002 C 
BRANCH  28  29
ATOM     29  C   UNL A   1      37.651  19.533  24.929  1.00  0.00     0.021 C 
BRANCH  29  30
ATOM     30  C   UNL A   1      38.761  20.245  25.694  1.00  0.00     0.116 C 
BRANCH  30  31
ATOM     31  N   UNL A   1      39.893  19.377  25.972  1.00  0.00    -0.352 N 
ATOM     32  C   UNL A   1      41.178  19.710  26.331  1.00  0.00     0.251 C 
ATOM     33  H   UNL A   1      39.715  18.412  25.892  1.00  0.00     0.163 HD
ATOM     34  O   UNL A   1      42.050  18.852  26.365  1.00  0.00    -0.269 OA
BRANCH  32  35
ATOM     35  C   UNL A   1      41.506  21.116  26.657  1.00  0.00     0.039 A 
ATOM     36  C   UNL A   1      41.982  21.424  27.933  1.00  0.00     0.014 A 
ATOM     37  C   UNL A   1      41.349  22.126  25.702  1.00  0.00     0.014 A 
ATOM     38  C   UNL A   1      42.360  22.735  28.234  1.00  0.00     0.010 A 
ATOM     39  C   UNL A   1      41.801  23.413  25.978  1.00  0.00     0.010 A 
ATOM     40  C   UNL A   1      42.304  23.733  27.248  1.00  0.00    -0.014 A 
BRANCH  40  41
ATOM     41  C   UNL A   1      42.775  25.116  27.517  1.00  0.00     0.031 A 
ATOM     42  C   UNL A   1      41.861  26.115  28.173  1.00  0.00     0.074 A 
ATOM     43  C   UNL A   1      43.994  25.499  27.090  1.00  0.00     0.049 A 
ATOM     44  N   UNL A   1      42.076  27.376  28.446  1.00  0.00    -0.248 NA
ATOM     45  C   UNL A   1      40.517  25.643  28.543  1.00  0.00     0.031 C 
ATOM     46  C   UNL A   1      44.950  24.645  26.382  1.00  0.00     0.029 A 
ATOM     47  N   UNL A   1      44.632  26.712  27.170  1.00  0.00    -0.354 N 
ATOM     48  C   UNL A   1      40.885  27.858  28.978  1.00  0.00     0.074 A 
ATOM     49  C   UNL A   1      39.941  26.763  28.954  1.00  0.00     0.031 C 
ATOM     50  C   UNL A   1      46.058  25.353  26.112  1.00  0.00     0.029 A 
ATOM     51  C   UNL A   1      45.879  26.720  26.592  1.00  0.00     0.049 A 
ATOM     52  H   UNL A   1      44.233  27.503  27.601  1.00  0.00     0.167 HD
ATOM     53  C   UNL A   1      40.608  29.092  29.465  1.00  0.00     0.034 A 
ATOM     54  C   UNL A   1      46.778  27.714  26.462  1.00  0.00     0.034 A 
ATOM     55  C   UNL A   1      41.562  30.168  29.515  1.00  0.00     0.049 A 
ATOM     56  C   UNL A   1      46.455  29.071  27.025  1.00  0.00     0.074 A 
ATOM     57  C   UNL A   1      41.414  31.423  30.075  1.00  0.00     0.029 A 
ATOM     58  N   UNL A   1      42.836  30.121  28.968  1.00  0.00    -0.354 N 
ATOM     59  N   UNL A   1      45.382  29.465  27.667  1.00  0.00    -0.248 NA
ATOM     60  C   UNL A   1      47.480  30.113  26.873  1.00  0.00     0.031 C 
ATOM     61  C   UNL A   1      42.583  32.152  29.828  1.00  0.00     0.029 A 
ATOM     62  C   UNL A   1      43.477  31.334  29.154  1.00  0.00     0.049 A 
ATOM     63  H   UNL A   1      43.226  29.341  28.513  1.00  0.00     0.167 HD
ATOM     64  C   UNL A   1      45.620  30.785  28.035  1.00  0.00     0.074 A 
ATOM     65  C   UNL A   1      46.944  31.119  27.552  1.00  0.00     0.031 C 
ATOM     66  C   UNL A   1      44.812  31.643  28.707  1.00  0.00     0.034 A 
BRANCH  53  67
ATOM     67  C   UNL A   1      39.221  29.330  30.005  1.00  0.00     0.023 A 
ATOM     68  C   UNL A   1      38.871  28.853  31.286  1.00  0.00     0.012 A 
ATOM     69  C   UNL A   1      38.266  30.045  29.254  1.00  0.00     0.148 A 
ATOM     70  C   UNL A   1      37.582  29.032  31.786  1.00  0.00     0.002 A 
ATOM     71  C   UNL A   1      36.999  30.267  29.782  1.00  0.00     0.091 A 
ATOM     72  F   UNL A   1      38.605  30.476  28.031  1.00  0.00    -0.205 F 
ATOM     73  C   UNL A   1      36.649  29.746  31.038  1.00  0.00     0.022 A 
BRANCH  71  74
ATOM     74  S   UNL A   1      35.758  31.247  28.932  1.00  0.00     0.127 S 
ATOM     75  O   UNL A   1      34.902  31.666  30.040  1.00  0.00    -0.237 OA
ATOM     76  O   UNL A   1      36.561  32.319  28.343  1.00  0.00    -0.237 OA
ATOM     77  O   UNL A   1      35.138  30.353  27.962  1.00  0.00    -0.744 OA
ENDBRANCH  71  74
ENDBRANCH  53  67
BRANCH  54  78
ATOM     78  C   UNL A   1      48.106  27.438  25.844  1.00  0.00     0.023 A 
ATOM     79  C   UNL A   1      49.161  26.986  26.663  1.00  0.00     0.012 A 
ATOM     80  C   UNL A   1      48.323  27.581  24.460  1.00  0.00     0.148 A 
ATOM     81  C   UNL A   1      50.414  26.706  26.119  1.00  0.00     0.002 A 
ATOM     82  C   UNL A   1      49.558  27.251  23.917  1.00  0.00     0.091 A 
ATOM     83  F   UNL A   1      47.308  28.016  23.701  1.00  0.00    -0.205 F 
ATOM     84  C   UNL A   1      50.611  26.830  24.746  1.00  0.00     0.022 A 
BRANCH  82  85
ATOM     85  S   UNL A   1      49.872  27.259  22.148  1.00  0.00     0.127 S 
ATOM     86  O   UNL A   1      49.673  28.667  21.815  1.00  0.00    -0.237 OA
ATOM     87  O   UNL A   1      51.260  26.800  22.088  1.00  0.00    -0.237 OA
ATOM     88  O   UNL A   1      48.907  26.336  21.568  1.00  0.00    -0.744 OA
ENDBRANCH  82  85
ENDBRANCH  54  78
BRANCH  66  89
ATOM     89  C   UNL A   1      45.348  33.019  29.006  1.00  0.00     0.023 A 
ATOM     90  C   UNL A   1      46.198  33.224  30.111  1.00  0.00     0.012 A 
ATOM     91  C   UNL A   1      45.065  34.098  28.144  1.00  0.00     0.148 A 
ATOM     92  C   UNL A   1      46.729  34.488  30.372  1.00  0.00     0.002 A 
ATOM     93  C   UNL A   1      45.641  35.340  28.380  1.00  0.00     0.091 A 
ATOM     94  F   UNL A   1      44.239  33.888  27.108  1.00  0.00    -0.205 F 
ATOM     95  C   UNL A   1      46.462  35.540  29.500  1.00  0.00     0.022 A 
BRANCH  93  96
ATOM     96  S   UNL A   1      45.437  36.726  27.255  1.00  0.00     0.127 S 
ATOM     97  O   UNL A   1      45.849  37.851  28.093  1.00  0.00    -0.237 OA
ATOM     98  O   UNL A   1      46.370  36.391  26.180  1.00  0.00    -0.237 OA
ATOM     99  O   UNL A   1      44.035  36.723  26.862  1.00  0.00    -0.744 OA
ENDBRANCH  93  96
ENDBRANCH  66  89
ENDBRANCH  40  41
ENDBRANCH  32  35
ENDBRANCH  30  31
ENDBRANCH  29  30
ENDBRANCH  28  29
ENDBRANCH  27  28
ENDBRANCH   1  27
TORSDOF 21
ENDMDL
MODEL 2
REMARK VINA RESULT:     -11.0      5.982     11.542
REMARK SMILES CCC[N@H+]1CCC[C@H]([C@@H](C)Nc2cccc(C(=O)NCCCCCCNC(=O)c3ccc(-c4c5nc(c(-c6cccc(S(=O)(=O)[O-])c6F)c6ccc([nH]6)c(-c6cccc(S(=O)(=O)[O-])c6F)c6nc(c(-c7cccc(S(=O)(=O)[O-])c7F)c7ccc4[nH]7)C=C6)C=C5)cc3)c2)C1
REMARK SMILES IDX 21 1 20 2 19 3 17 4 18 5 16 7 12 8 13 9 92 10 14 11 15 12
REMARK SMILES IDX 11 13 9 15 10 16 8 17 4 18 5 19 93 20 6 22 7 23 3 24 2 25
REMARK SMILES IDX 1 26 22 27 23 28 24 29 25 30 26 31 27 32 28 34 29 35 30 36
REMARK SMILES IDX 91 37 31 38 90 39 32 40 33 41 34 42 84 43 35 44 89 45 83 46
REMARK SMILES IDX 85 47 36 48 88 49 82 50 81 51 37 53 69 54 49 55 68 56 50 57
REMARK SMILES IDX 53 58 67 59 86 60 51 61 52 62 66 64 87 65 54 66 38 67 39 68
REMARK SMILES IDX 47 69 40 70 42 71 48 72 41 73 43 74 44 75 45 76 46 77 70 78
REMARK SMILES IDX 71 79 79 80 72 81 74 82 80 83 73 84 75 85 76 86 77 87 78 88
REMARK SMILES IDX 55 89 56 90 64 91 57 92 59 93 65 94 58 95 60 96 61 97 62 98
REMARK SMILES IDX 63 99
REMARK H PARENT 19 6 11 14 4 21 26 33 85 52 53 63
REMARK Flexibility Score: inf
ROOT
ATOM      1  C   UNL A   1      31.257  27.709  25.437  1.00  0.00     0.021 C 
ENDROOT
BRANCH   1   2
ATOM      2  C   UNL A   1      31.866  26.488  26.111  1.00  0.00     0.116 C 
BRANCH   2   3
ATOM      3  N   UNL A   1      30.907  25.603  26.756  1.00  0.00    -0.352 N 
ATOM      4  C   UNL A   1      30.614  24.268  26.556  1.00  0.00     0.251 C 
ATOM      5  O   UNL A   1      29.732  23.754  27.247  1.00  0.00    -0.269 OA
ATOM      6  H   UNL A   1      30.372  26.034  27.462  1.00  0.00     0.163 HD
BRANCH   4   7
ATOM      7  C   UNL A   1      31.271  23.451  25.496  1.00  0.00     0.041 A 
ATOM      8  C   UNL A   1      33.010  21.865  24.833  1.00  0.00     0.035 A 
ATOM      9  C   UNL A   1      32.710  22.142  23.498  1.00  0.00     0.026 A 
ATOM     10  C   UNL A   1      32.182  22.439  25.797  1.00  0.00     0.039 A 
ATOM     11  C   UNL A   1      31.674  23.020  23.155  1.00  0.00     0.003 A 
ATOM     12  C   UNL A   1      30.980  23.703  24.154  1.00  0.00     0.014 A 
BRANCH   8  13
ATOM     13  N   UNL A   1      34.065  21.031  25.152  1.00  0.00    -0.382 N 
ATOM     14  H   UNL A   1      33.961  20.072  24.955  1.00  0.00     0.160 HD
BRANCH  13  15
ATOM     15  C   UNL A   1      35.326  21.467  25.764  1.00  0.00     0.084 C 
ATOM     16  C   UNL A   1      35.002  22.418  26.920  1.00  0.00     0.031 C 
BRANCH  15  17
ATOM     17  C   UNL A   1      36.240  22.100  24.681  1.00  0.00     0.066 C 
ATOM     18  N   UNL A   1      38.317  21.785  26.012  1.00  0.00    -0.335 N 
ATOM     19  C   UNL A   1      38.526  23.238  26.142  1.00  0.00     0.262 C 
ATOM     20  C   UNL A   1      37.657  21.488  24.729  1.00  0.00     0.267 C 
ATOM     21  H   UNL A   1      37.712  21.489  26.779  1.00  0.00     0.348 HD
ATOM     22  C   UNL A   1      37.201  24.006  26.065  1.00  0.00     0.062 C 
ATOM     23  C   UNL A   1      36.384  23.626  24.828  1.00  0.00     0.017 C 
BRANCH  18  24
ATOM     24  C   UNL A   1      39.567  21.027  26.144  1.00  0.00     0.261 C 
BRANCH  24  25
ATOM     25  C   UNL A   1      40.796  21.927  26.340  1.00  0.00     0.058 C 
ATOM     26  C   UNL A   1      41.602  21.572  27.582  1.00  0.00     0.010 C 
ENDBRANCH  24  25
ENDBRANCH  18  24
ENDBRANCH  15  17
ENDBRANCH  13  15
ENDBRANCH   8  13
ENDBRANCH   4   7
ENDBRANCH   2   3
ENDBRANCH   1   2
BRANCH   1  27
ATOM     27  C   UNL A   1      32.051  29.007  25.538  1.00  0.00     0.002 C 
BRANCH  27  28
ATOM     28  C   UNL A   1      31.873  29.809  26.829  1.00  0.00     0.002 C 
BRANCH  28  29
ATOM     29  C   UNL A   1      31.794  31.331  26.679  1.00  0.00     0.021 C 
BRANCH  29  30
ATOM     30  C   UNL A   1      32.990  32.109  27.216  1.00  0.00     0.116 C 
BRANCH  30  31
ATOM     31  N   UNL A   1      32.667  33.496  27.510  1.00  0.00    -0.352 N 
ATOM     32  C   UNL A   1      33.184  34.323  28.480  1.00  0.00     0.251 C 
ATOM     33  H   UNL A   1      31.981  33.902  26.933  1.00  0.00     0.163 HD
ATOM     34  O   UNL A   1      32.676  35.417  28.691  1.00  0.00    -0.269 OA
BRANCH  32  35
ATOM     35  C   UNL A   1      34.345  33.876  29.281  1.00  0.00     0.039 A 
ATOM     36  C   UNL A   1      34.126  33.078  30.407  1.00  0.00     0.014 A 
ATOM     37  C   UNL A   1      35.646  34.238  28.918  1.00  0.00     0.014 A 
ATOM     38  C   UNL A   1      35.216  32.592  31.134  1.00  0.00     0.010 A 
ATOM     39  C   UNL A   1      36.730  33.687  29.594  1.00  0.00     0.010 A 
ATOM     40  C   UNL A   1      36.528  32.865  30.713  1.00  0.00    -0.014 A 
BRANCH  40  41
ATOM     41  C   UNL A   1      37.702  32.294  31.421  1.00  0.00     0.031 A 
ATOM     42  C   UNL A   1      38.499  31.183  30.793  1.00  0.00     0.074 A 
ATOM     43  C   UNL A   1      37.997  32.712  32.667  1.00  0.00     0.049 A 
ATOM     44  N   UNL A   1      39.523  30.527  31.275  1.00  0.00    -0.248 NA
ATOM     45  C   UNL A   1      38.070  30.728  29.460  1.00  0.00     0.031 C 
ATOM     46  C   UNL A   1      37.261  33.734  33.413  1.00  0.00     0.029 A 
ATOM     47  N   UNL A   1      38.981  32.313  33.537  1.00  0.00    -0.354 N 
ATOM     48  C   UNL A   1      39.833  29.558  30.328  1.00  0.00     0.074 A 
ATOM     49  C   UNL A   1      38.865  29.687  29.261  1.00  0.00     0.031 C 
ATOM     50  C   UNL A   1      37.831  33.897  34.617  1.00  0.00     0.029 A 
ATOM     51  C   UNL A   1      38.949  32.967  34.746  1.00  0.00     0.049 A 
ATOM     52  H   UNL A   1      39.649  31.623  33.316  1.00  0.00     0.167 HD
ATOM     53  C   UNL A   1      40.845  28.656  30.332  1.00  0.00     0.034 A 
ATOM     54  C   UNL A   1      39.729  32.834  35.835  1.00  0.00     0.034 A 
ATOM     55  C   UNL A   1      41.824  28.554  31.381  1.00  0.00     0.049 A 
ATOM     56  C   UNL A   1      40.857  31.838  35.810  1.00  0.00     0.074 A 
ATOM     57  C   UNL A   1      42.944  27.744  31.437  1.00  0.00     0.029 A 
ATOM     58  N   UNL A   1      41.790  29.271  32.567  1.00  0.00    -0.354 N 
ATOM     59  N   UNL A   1      41.231  31.039  34.841  1.00  0.00    -0.248 NA
ATOM     60  C   UNL A   1      41.689  31.749  37.018  1.00  0.00     0.031 C 
ATOM     61  C   UNL A   1      43.563  27.940  32.677  1.00  0.00     0.029 A 
ATOM     62  C   UNL A   1      42.855  28.906  33.374  1.00  0.00     0.049 A 
ATOM     63  H   UNL A   1      41.108  29.942  32.802  1.00  0.00     0.167 HD
ATOM     64  C   UNL A   1      42.368  30.384  35.304  1.00  0.00     0.074 A 
ATOM     65  C   UNL A   1      42.625  30.890  36.637  1.00  0.00     0.031 C 
ATOM     66  C   UNL A   1      43.126  29.446  34.683  1.00  0.00     0.034 A 
BRANCH  53  67
ATOM     67  C   UNL A   1      40.954  27.728  29.148  1.00  0.00     0.023 A 
ATOM     68  C   UNL A   1      40.250  26.506  29.143  1.00  0.00     0.012 A 
ATOM     69  C   UNL A   1      41.737  28.075  28.029  1.00  0.00     0.148 A 
ATOM     70  C   UNL A   1      40.369  25.619  28.074  1.00  0.00     0.002 A 
ATOM     71  C   UNL A   1      41.806  27.210  26.942  1.00  0.00     0.091 A 
ATOM     72  F   UNL A   1      42.415  29.231  28.054  1.00  0.00    -0.205 F 
ATOM     73  C   UNL A   1      41.139  25.975  26.970  1.00  0.00     0.022 A 
BRANCH  71  74
ATOM     74  S   UNL A   1      42.704  27.617  25.441  1.00  0.00     0.127 S 
ATOM     75  O   UNL A   1      42.575  26.379  24.674  1.00  0.00    -0.237 OA
ATOM     76  O   UNL A   1      41.930  28.743  24.915  1.00  0.00    -0.237 OA
ATOM     77  O   UNL A   1      44.055  27.958  25.863  1.00  0.00    -0.744 OA
ENDBRANCH  71  74
ENDBRANCH  53  67
BRANCH  54  78
ATOM     78  C   UNL A   1      39.522  33.727  37.011  1.00  0.00     0.023 A 
ATOM     79  C   UNL A   1      39.951  35.067  36.935  1.00  0.00     0.012 A 
ATOM     80  C   UNL A   1      38.876  33.276  38.177  1.00  0.00     0.148 A 
ATOM     81  C   UNL A   1      39.765  35.935  38.010  1.00  0.00     0.002 A 
ATOM     82  C   UNL A   1      38.646  34.160  39.225  1.00  0.00     0.091 A 
ATOM     83  F   UNL A   1      38.479  31.997  38.230  1.00  0.00    -0.205 F 
ATOM     84  C   UNL A   1      39.104  35.486  39.151  1.00  0.00     0.022 A 
BRANCH  82  85
ATOM     85  S   UNL A   1      37.698  33.710  40.682  1.00  0.00     0.127 S 
ATOM     86  O   UNL A   1      38.587  32.751  41.335  1.00  0.00    -0.237 OA
ATOM     87  O   UNL A   1      37.569  34.997  41.365  1.00  0.00    -0.237 OA
ATOM     88  O   UNL A   1      36.442  33.163  40.187  1.00  0.00    -0.744 OA
ENDBRANCH  82  85
ENDBRANCH  54  78
BRANCH  66  89
ATOM     89  C   UNL A   1      44.339  28.930  35.413  1.00  0.00     0.023 A 
ATOM     90  C   UNL A   1      45.597  29.529  35.209  1.00  0.00     0.012 A 
ATOM     91  C   UNL A   1      44.212  27.894  36.361  1.00  0.00     0.148 A 
ATOM     92  C   UNL A   1      46.718  29.082  35.911  1.00  0.00     0.002 A 
ATOM     93  C   UNL A   1      45.321  27.491  37.095  1.00  0.00     0.091 A 
ATOM     94  F   UNL A   1      43.010  27.324  36.529  1.00  0.00    -0.205 F 
ATOM     95  C   UNL A   1      46.577  28.074  36.862  1.00  0.00     0.022 A 
BRANCH  93  96
ATOM     96  S   UNL A   1      45.214  26.274  38.412  1.00  0.00     0.127 S 
ATOM     97  O   UNL A   1      46.624  25.959  38.639  1.00  0.00    -0.237 OA
ATOM     98  O   UNL A   1      44.579  27.037  39.487  1.00  0.00    -0.237 OA
ATOM     99  O   UNL A   1      44.408  25.181  37.887  1.00  0.00    -0.744 OA
ENDBRANCH  93  96
ENDBRANCH  66  89
ENDBRANCH  40  41
ENDBRANCH  32  35
ENDBRANCH  30  31
ENDBRANCH  29  30
ENDBRANCH  28  29
ENDBRANCH  27  28
ENDBRANCH   1  27
TORSDOF 21
ENDMDL
MODEL 3
REMARK VINA RESULT:     -10.3      1.900      7.475
REMARK SMILES CCC[N@H+]1CCC[C@H]([C@@H](C)Nc2cccc(C(=O)NCCCCCCNC(=O)c3ccc(-c4c5nc(c(-c6cccc(S(=O)(=O)[O-])c6F)c6ccc([nH]6)c(-c6cccc(S(=O)(=O)[O-])c6F)c6nc(c(-c7cccc(S(=O)(=O)[O-])c7F)c7ccc4[nH]7)C=C6)C=C5)cc3)c2)C1
REMARK SMILES IDX 21 1 20 2 19 3 17 4 18 5 16 7 12 8 13 9 92 10 14 11 15 12
REMARK SMILES IDX 11 13 9 15 10 16 8 17 4 18 5 19 93 20 6 22 7 23 3 24 2 25
REMARK SMILES IDX 1 26 22 27 23 28 24 29 25 30 26 31 27 32 28 34 29 35 30 36
REMARK SMILES IDX 91 37 31 38 90 39 32 40 33 41 34 42 84 43 35 44 89 45 83 46
REMARK SMILES IDX 85 47 36 48 88 49 82 50 81 51 37 53 69 54 49 55 68 56 50 57
REMARK SMILES IDX 53 58 67 59 86 60 51 61 52 62 66 64 87 65 54 66 38 67 39 68
REMARK SMILES IDX 47 69 40 70 42 71 48 72 41 73 43 74 44 75 45 76 46 77 70 78
REMARK SMILES IDX 71 79 79 80 72 81 74 82 80 83 73 84 75 85 76 86 77 87 78 88
REMARK SMILES IDX 55 89 56 90 64 91 57 92 59 93 65 94 58 95 60 96 61 97 62 98
REMARK SMILES IDX 63 99
REMARK H PARENT 19 6 11 14 4 21 26 33 85 52 53 63
REMARK Flexibility Score: inf
ROOT
ATOM      1  C   UNL A   1      34.956  21.294  26.110  1.00  0.00     0.021 C 
ENDROOT
BRANCH   1   2
ATOM      2  C   UNL A   1      33.892  20.272  25.738  1.00  0.00     0.116 C 
BRANCH   2   3
ATOM      3  N   UNL A   1      32.520  20.730  25.900  1.00  0.00    -0.352 N 
ATOM      4  C   UNL A   1      31.823  21.766  25.308  1.00  0.00     0.251 C 
ATOM      5  O   UNL A   1      30.650  21.944  25.639  1.00  0.00    -0.269 OA
ATOM      6  H   UNL A   1      31.994  20.207  26.548  1.00  0.00     0.163 HD
BRANCH   4   7
ATOM      7  C   UNL A   1      32.456  22.711  24.343  1.00  0.00     0.041 A 
ATOM      8  C   UNL A   1      33.385  24.920  23.859  1.00  0.00     0.035 A 
ATOM      9  C   UNL A   1      33.360  24.598  22.500  1.00  0.00     0.026 A 
ATOM     10  C   UNL A   1      33.048  23.904  24.753  1.00  0.00     0.039 A 
ATOM     11  C   UNL A   1      32.940  23.336  22.063  1.00  0.00     0.003 A 
ATOM     12  C   UNL A   1      32.453  22.406  22.981  1.00  0.00     0.014 A 
BRANCH   8  13
ATOM     13  N   UNL A   1      33.759  26.185  24.269  1.00  0.00    -0.382 N 
ATOM     14  H   UNL A   1      34.594  26.268  24.784  1.00  0.00     0.160 HD
BRANCH  13  15
ATOM     15  C   UNL A   1      33.004  27.415  23.996  1.00  0.00     0.084 C 
ATOM     16  C   UNL A   1      33.934  28.614  24.205  1.00  0.00     0.031 C 
BRANCH  15  17
ATOM     17  C   UNL A   1      31.734  27.456  24.887  1.00  0.00     0.066 C 
ATOM     18  N   UNL A   1      30.475  28.918  23.319  1.00  0.00    -0.335 N 
ATOM     19  C   UNL A   1      30.430  30.025  24.291  1.00  0.00     0.262 C 
ATOM     20  C   UNL A   1      30.462  27.628  24.029  1.00  0.00     0.267 C 
ATOM     21  H   UNL A   1      31.345  29.004  22.792  1.00  0.00     0.348 HD
ATOM     22  C   UNL A   1      31.616  29.969  25.262  1.00  0.00     0.062 C 
ATOM     23  C   UNL A   1      31.758  28.596  25.923  1.00  0.00     0.017 C 
BRANCH  18  24
ATOM     24  C   UNL A   1      29.382  28.988  22.342  1.00  0.00     0.261 C 
BRANCH  24  25
ATOM     25  C   UNL A   1      29.310  30.341  21.619  1.00  0.00     0.058 C 
ATOM     26  C   UNL A   1      27.913  30.946  21.624  1.00  0.00     0.010 C 
ENDBRANCH  24  25
ENDBRANCH  18  24
ENDBRANCH  15  17
ENDBRANCH  13  15
ENDBRANCH   8  13
ENDBRANCH   4   7
ENDBRANCH   2   3
ENDBRANCH   1   2
BRANCH   1  27
ATOM     27  C   UNL A   1      36.212  21.313  25.246  1.00  0.00     0.002 C 
BRANCH  27  28
ATOM     28  C   UNL A   1      36.872  19.956  24.985  1.00  0.00     0.002 C 
BRANCH  28  29
ATOM     29  C   UNL A   1      38.385  19.971  24.748  1.00  0.00     0.021 C 
BRANCH  29  30
ATOM     30  C   UNL A   1      39.240  20.295  25.967  1.00  0.00     0.116 C 
BRANCH  30  31
ATOM     31  N   UNL A   1      40.339  19.360  26.144  1.00  0.00    -0.352 N 
ATOM     32  C   UNL A   1      41.668  19.615  26.388  1.00  0.00     0.251 C 
ATOM     33  H   UNL A   1      40.098  18.408  26.080  1.00  0.00     0.163 HD
ATOM     34  O   UNL A   1      42.488  18.707  26.345  1.00  0.00    -0.269 OA
BRANCH  32  35
ATOM     35  C   UNL A   1      42.107  20.998  26.684  1.00  0.00     0.039 A 
ATOM     36  C   UNL A   1      42.289  21.893  25.627  1.00  0.00     0.014 A 
ATOM     37  C   UNL A   1      42.330  21.411  28.001  1.00  0.00     0.014 A 
ATOM     38  C   UNL A   1      42.636  23.219  25.895  1.00  0.00     0.010 A 
ATOM     39  C   UNL A   1      42.596  22.749  28.269  1.00  0.00     0.010 A 
ATOM     40  C   UNL A   1      42.760  23.666  27.220  1.00  0.00    -0.014 A 
BRANCH  40  41
ATOM     41  C   UNL A   1      43.048  25.090  27.533  1.00  0.00     0.031 A 
ATOM     42  C   UNL A   1      44.447  25.627  27.401  1.00  0.00     0.074 A 
ATOM     43  C   UNL A   1      42.069  25.875  28.024  1.00  0.00     0.049 A 
ATOM     44  N   UNL A   1      44.901  26.823  27.673  1.00  0.00    -0.248 NA
ATOM     45  C   UNL A   1      45.478  24.688  26.930  1.00  0.00     0.031 C 
ATOM     46  C   UNL A   1      40.688  25.455  28.263  1.00  0.00     0.029 A 
ATOM     47  N   UNL A   1      42.092  27.185  28.431  1.00  0.00    -0.354 N 
ATOM     48  C   UNL A   1      46.272  26.769  27.448  1.00  0.00     0.074 A 
ATOM     49  C   UNL A   1      46.581  25.412  27.054  1.00  0.00     0.031 C 
ATOM     50  C   UNL A   1      39.990  26.492  28.754  1.00  0.00     0.029 A 
ATOM     51  C   UNL A   1      40.881  27.639  28.900  1.00  0.00     0.049 A 
ATOM     52  H   UNL A   1      42.899  27.749  28.391  1.00  0.00     0.167 HD
ATOM     53  C   UNL A   1      47.189  27.763  27.537  1.00  0.00     0.034 A 
ATOM     54  C   UNL A   1      40.528  28.841  29.393  1.00  0.00     0.034 A 
ATOM     55  C   UNL A   1      46.871  29.118  27.899  1.00  0.00     0.049 A 
ATOM     56  C   UNL A   1      41.559  29.934  29.467  1.00  0.00     0.074 A 
ATOM     57  C   UNL A   1      47.705  30.221  27.925  1.00  0.00     0.029 A 
ATOM     58  N   UNL A   1      45.622  29.553  28.316  1.00  0.00    -0.354 N 
ATOM     59  N   UNL A   1      42.817  29.908  29.100  1.00  0.00    -0.248 NA
ATOM     60  C   UNL A   1      41.113  31.232  29.994  1.00  0.00     0.031 C 
ATOM     61  C   UNL A   1      46.971  31.314  28.399  1.00  0.00     0.029 A 
ATOM     62  C   UNL A   1      45.667  30.902  28.625  1.00  0.00     0.049 A 
ATOM     63  H   UNL A   1      44.820  28.986  28.382  1.00  0.00     0.167 HD
ATOM     64  C   UNL A   1      43.302  31.195  29.309  1.00  0.00     0.074 A 
ATOM     65  C   UNL A   1      42.197  31.977  29.825  1.00  0.00     0.031 C 
ATOM     66  C   UNL A   1      44.551  31.682  29.098  1.00  0.00     0.034 A 
BRANCH  53  67
ATOM     67  C   UNL A   1      48.621  27.418  27.212  1.00  0.00     0.023 A 
ATOM     68  C   UNL A   1      49.015  27.236  25.870  1.00  0.00     0.012 A 
ATOM     69  C   UNL A   1      49.584  27.296  28.234  1.00  0.00     0.148 A 
ATOM     70  C   UNL A   1      50.326  26.880  25.554  1.00  0.00     0.002 A 
ATOM     71  C   UNL A   1      50.901  26.995  27.906  1.00  0.00     0.091 A 
ATOM     72  F   UNL A   1      49.192  27.453  29.506  1.00  0.00    -0.205 F 
ATOM     73  C   UNL A   1      51.270  26.769  26.570  1.00  0.00     0.022 A 
BRANCH  71  74
ATOM     74  S   UNL A   1      52.206  26.913  29.137  1.00  0.00     0.127 S 
ATOM     75  O   UNL A   1      52.129  28.243  29.738  1.00  0.00    -0.237 OA
ATOM     76  O   UNL A   1      51.747  25.826  30.002  1.00  0.00    -0.237 OA
ATOM     77  O   UNL A   1      53.431  26.626  28.403  1.00  0.00    -0.744 OA
ENDBRANCH  71  74
ENDBRANCH  53  67
BRANCH  54  78
ATOM     78  C   UNL A   1      39.110  29.099  29.775  1.00  0.00     0.023 A 
ATOM     79  C   UNL A   1      38.680  28.764  31.075  1.00  0.00     0.012 A 
ATOM     80  C   UNL A   1      38.202  29.705  28.886  1.00  0.00     0.148 A 
ATOM     81  C   UNL A   1      37.365  29.000  31.473  1.00  0.00     0.002 A 
ATOM     82  C   UNL A   1      36.908  29.987  29.305  1.00  0.00     0.091 A 
ATOM     83  F   UNL A   1      38.631  30.013  27.654  1.00  0.00    -0.205 F 
ATOM     84  C   UNL A   1      36.481  29.620  30.593  1.00  0.00     0.022 A 
BRANCH  82  85
ATOM     85  S   UNL A   1      35.735  30.890  28.289  1.00  0.00     0.127 S 
ATOM     86  O   UNL A   1      35.287  29.858  27.357  1.00  0.00    -0.237 OA
ATOM     87  O   UNL A   1      34.739  31.305  29.278  1.00  0.00    -0.237 OA
ATOM     88  O   UNL A   1      36.486  31.988  27.695  1.00  0.00    -0.744 OA
ENDBRANCH  82  85
ENDBRANCH  54  78
BRANCH  66  89
ATOM     89  C   UNL A   1      44.789  33.143  29.379  1.00  0.00     0.023 A 
ATOM     90  C   UNL A   1      45.259  33.554  30.642  1.00  0.00     0.012 A 
ATOM     91  C   UNL A   1      44.615  34.103  28.361  1.00  0.00     0.148 A 
ATOM     92  C   UNL A   1      45.520  34.901  30.898  1.00  0.00     0.002 A 
ATOM     93  C   UNL A   1      44.928  35.434  28.607  1.00  0.00     0.091 A 
ATOM     94  F   UNL A   1      44.148  33.696  27.172  1.00  0.00    -0.205 F 
ATOM     95  C   UNL A   1      45.367  35.837  29.878  1.00  0.00     0.022 A 
BRANCH  93  96
ATOM     96  S   UNL A   1      44.861  36.692  27.326  1.00  0.00     0.127 S 
ATOM     97  O   UNL A   1      45.910  36.241  26.412  1.00  0.00    -0.237 OA
ATOM     98  O   UNL A   1      43.499  36.539  26.815  1.00  0.00    -0.237 OA
ATOM     99  O   UNL A   1      45.118  37.960  27.993  1.00  0.00    -0.744 OA
ENDBRANCH  93  96
ENDBRANCH  66  89
ENDBRANCH  40  41
ENDBRANCH  32  35
ENDBRANCH  30  31
ENDBRANCH  29  30
ENDBRANCH  28  29
ENDBRANCH  27  28
ENDBRANCH   1  27
TORSDOF 21
ENDMDL
