MODEL 1
REMARK VINA RESULT:     -11.8      0.000      0.000
REMARK SMILES Cc1ccc(Nc2c(Cl)cc(Cl)cc2Cl)c(CC(=O)NCCCCCCNC(=O)c2ccc(-c3c4nc(c(-c5cccc(S(=O)(=O)[O-])c5F)c5ccc([nH]5)c(-c5cccc(S(=O)(=O)[O-])c5F)c5nc(c(-c6cccc(S(=O)(=O)[O-])c6F)c6ccc3[nH]6)C=C5)C=C4)cc2)c1
REMARK SMILES IDX 23 1 22 2 21 3 20 4 18 5 19 6 17 8 16 9 1 10 2 11 3 12 93 13
REMARK SMILES IDX 4 14 5 15 6 16 7 18 8 19 14 20 9 21 10 22 13 23 15 24 11 25
REMARK SMILES IDX 12 26 24 27 25 28 26 29 27 30 28 31 29 33 30 34 31 35 92 36
REMARK SMILES IDX 32 37 91 38 33 39 34 40 35 41 85 42 36 43 90 44 84 45 86 46
REMARK SMILES IDX 37 47 89 48 83 49 82 50 38 52 70 53 50 54 69 55 51 56 54 57
REMARK SMILES IDX 68 58 87 59 52 60 53 61 67 63 88 64 55 65 39 66 40 67 48 68
REMARK SMILES IDX 41 69 43 70 49 71 42 72 44 73 45 74 46 75 47 76 71 77 72 78
REMARK SMILES IDX 80 79 73 80 75 81 81 82 74 83 76 84 77 85 78 86 79 87 56 88
REMARK SMILES IDX 57 89 65 90 58 91 60 92 66 93 59 94 61 95 62 96 63 97 64 98
REMARK H PARENT 20 7 6 17 27 32 86 51 54 62
REMARK Flexibility Score: inf
ROOT
ATOM      1  C   UNL A   1      35.636  31.215  27.700  1.00  0.00     0.002 C 
ENDROOT
BRANCH   1   2
ATOM      2  C   UNL A   1      35.470  29.705  27.914  1.00  0.00     0.021 C 
BRANCH   2   3
ATOM      3  C   UNL A   1      34.247  29.088  27.231  1.00  0.00     0.116 C 
BRANCH   3   4
ATOM      4  N   UNL A   1      34.318  29.194  25.789  1.00  0.00    -0.356 N 
ATOM      5  C   UNL A   1      33.308  29.401  24.900  1.00  0.00     0.224 C 
ATOM      6  O   UNL A   1      33.558  29.330  23.693  1.00  0.00    -0.275 OA
ATOM      7  H   UNL A   1      35.218  29.103  25.399  1.00  0.00     0.163 HD
BRANCH   5   8
ATOM      8  C   UNL A   1      31.899  29.698  25.381  1.00  0.00     0.137 C 
BRANCH   8   9
ATOM      9  C   UNL A   1      30.814  29.198  24.453  1.00  0.00    -0.015 A 
ATOM     10  C   UNL A   1      27.912  30.795  22.530  1.00  0.00     0.044 C 
ATOM     11  C   UNL A   1      28.865  29.779  23.084  1.00  0.00    -0.051 A 
ATOM     12  C   UNL A   1      28.677  28.426  22.813  1.00  0.00     0.005 A 
ATOM     13  C   UNL A   1      29.948  30.156  23.880  1.00  0.00     0.009 A 
ATOM     14  C   UNL A   1      29.554  27.471  23.335  1.00  0.00     0.026 A 
ATOM     15  C   UNL A   1      30.630  27.828  24.165  1.00  0.00     0.042 A 
BRANCH  15  16
ATOM     16  N   UNL A   1      31.535  26.855  24.648  1.00  0.00    -0.353 N 
ATOM     17  H   UNL A   1      32.090  27.130  25.413  1.00  0.00     0.167 HD
BRANCH  16  18
ATOM     18  C   UNL A   1      31.749  25.535  24.179  1.00  0.00     0.076 A 
ATOM     19  C   UNL A   1      32.518  25.251  23.033  1.00  0.00     0.067 A 
ATOM     20  C   UNL A   1      31.108  24.456  24.822  1.00  0.00     0.067 A 
ATOM     21  Cl  UNL A   1      33.452  26.468  22.228  1.00  0.00    -0.082 Cl
ATOM     22  C   UNL A   1      32.619  23.946  22.539  1.00  0.00     0.043 A 
ATOM     23  C   UNL A   1      31.208  23.152  24.332  1.00  0.00     0.043 A 
ATOM     24  Cl  UNL A   1      30.153  24.710  26.246  1.00  0.00    -0.082 Cl
ATOM     25  C   UNL A   1      31.959  22.909  23.188  1.00  0.00     0.044 A 
ATOM     26  Cl  UNL A   1      32.089  21.304  22.579  1.00  0.00    -0.084 Cl
ENDBRANCH  16  18
ENDBRANCH  15  16
ENDBRANCH   8   9
ENDBRANCH   5   8
ENDBRANCH   3   4
ENDBRANCH   2   3
ENDBRANCH   1   2
BRANCH   1  27
ATOM     27  C   UNL A   1      34.390  32.079  27.948  1.00  0.00     0.002 C 
BRANCH  27  28
ATOM     28  C   UNL A   1      34.651  33.527  28.367  1.00  0.00     0.021 C 
BRANCH  28  29
ATOM     29  C   UNL A   1      33.924  33.954  29.633  1.00  0.00     0.116 C 
BRANCH  29  30
ATOM     30  N   UNL A   1      34.791  34.621  30.588  1.00  0.00    -0.352 N 
ATOM     31  C   UNL A   1      35.921  34.167  31.235  1.00  0.00     0.251 C 
ATOM     32  H   UNL A   1      34.530  35.544  30.808  1.00  0.00     0.163 HD
ATOM     33  O   UNL A   1      36.367  34.849  32.160  1.00  0.00    -0.269 OA
BRANCH  31  34
ATOM     34  C   UNL A   1      36.669  32.984  30.735  1.00  0.00     0.039 A 
ATOM     35  C   UNL A   1      36.444  31.758  31.380  1.00  0.00     0.014 A 
ATOM     36  C   UNL A   1      37.718  33.098  29.827  1.00  0.00     0.014 A 
ATOM     37  C   UNL A   1      37.415  30.760  31.334  1.00  0.00     0.010 A 
ATOM     38  C   UNL A   1      38.717  32.147  29.836  1.00  0.00     0.010 A 
ATOM     39  C   UNL A   1      38.602  31.024  30.662  1.00  0.00    -0.014 A 
BRANCH  39  40
ATOM     40  C   UNL A   1      39.851  30.312  30.871  1.00  0.00     0.031 A 
ATOM     41  C   UNL A   1      40.138  29.053  30.164  1.00  0.00     0.074 A 
ATOM     42  C   UNL A   1      40.850  30.989  31.488  1.00  0.00     0.049 A 
ATOM     43  N   UNL A   1      41.219  28.377  30.346  1.00  0.00    -0.248 NA
ATOM     44  C   UNL A   1      39.220  28.432  29.214  1.00  0.00     0.031 C 
ATOM     45  C   UNL A   1      42.287  30.755  31.385  1.00  0.00     0.029 A 
ATOM     46  N   UNL A   1      40.736  31.904  32.540  1.00  0.00    -0.354 N 
ATOM     47  C   UNL A   1      41.296  27.460  29.330  1.00  0.00     0.074 A 
ATOM     48  C   UNL A   1      39.978  27.430  28.748  1.00  0.00     0.031 C 
ATOM     49  C   UNL A   1      42.882  31.245  32.482  1.00  0.00     0.029 A 
ATOM     50  C   UNL A   1      41.822  31.634  33.394  1.00  0.00     0.049 A 
ATOM     51  H   UNL A   1      40.042  32.592  32.658  1.00  0.00     0.167 HD
ATOM     52  C   UNL A   1      42.517  26.950  29.016  1.00  0.00     0.034 A 
ATOM     53  C   UNL A   1      41.665  31.168  34.670  1.00  0.00     0.034 A 
ATOM     54  C   UNL A   1      43.498  27.209  30.080  1.00  0.00     0.049 A 
ATOM     55  C   UNL A   1      42.319  29.810  34.910  1.00  0.00     0.074 A 
ATOM     56  C   UNL A   1      44.624  27.998  30.231  1.00  0.00     0.029 A 
ATOM     57  N   UNL A   1      43.212  26.715  31.343  1.00  0.00    -0.354 N 
ATOM     58  N   UNL A   1      43.061  29.168  34.048  1.00  0.00    -0.248 NA
ATOM     59  C   UNL A   1      42.094  29.029  36.128  1.00  0.00     0.031 C 
ATOM     60  C   UNL A   1      44.951  28.034  31.626  1.00  0.00     0.029 A 
ATOM     61  C   UNL A   1      44.053  27.231  32.308  1.00  0.00     0.049 A 
ATOM     62  H   UNL A   1      42.491  26.071  31.530  1.00  0.00     0.167 HD
ATOM     63  C   UNL A   1      43.245  27.877  34.479  1.00  0.00     0.074 A 
ATOM     64  C   UNL A   1      42.666  27.855  35.812  1.00  0.00     0.031 C 
ATOM     65  C   UNL A   1      43.782  26.889  33.700  1.00  0.00     0.034 A 
BRANCH  52  66
ATOM     66  C   UNL A   1      42.876  26.287  27.705  1.00  0.00     0.023 A 
ATOM     67  C   UNL A   1      43.363  27.118  26.672  1.00  0.00     0.012 A 
ATOM     68  C   UNL A   1      42.669  24.926  27.368  1.00  0.00     0.148 A 
ATOM     69  C   UNL A   1      43.630  26.633  25.386  1.00  0.00     0.002 A 
ATOM     70  C   UNL A   1      43.006  24.427  26.107  1.00  0.00     0.091 A 
ATOM     71  F   UNL A   1      42.038  24.110  28.219  1.00  0.00    -0.205 F 
ATOM     72  C   UNL A   1      43.473  25.283  25.107  1.00  0.00     0.022 A 
BRANCH  70  73
ATOM     73  S   UNL A   1      42.879  22.675  25.710  1.00  0.00     0.127 S 
ATOM     74  O   UNL A   1      41.463  22.407  25.955  1.00  0.00    -0.237 OA
ATOM     75  O   UNL A   1      43.269  22.638  24.299  1.00  0.00    -0.237 OA
ATOM     76  O   UNL A   1      43.809  21.994  26.603  1.00  0.00    -0.744 OA
ENDBRANCH  70  73
ENDBRANCH  52  66
BRANCH  53  77
ATOM     77  C   UNL A   1      40.406  31.646  35.316  1.00  0.00     0.023 A 
ATOM     78  C   UNL A   1      39.212  30.959  34.987  1.00  0.00     0.012 A 
ATOM     79  C   UNL A   1      40.426  32.450  36.470  1.00  0.00     0.148 A 
ATOM     80  C   UNL A   1      38.114  30.971  35.848  1.00  0.00     0.002 A 
ATOM     81  C   UNL A   1      39.321  32.467  37.319  1.00  0.00     0.091 A 
ATOM     82  F   UNL A   1      41.547  33.117  36.768  1.00  0.00    -0.205 F 
ATOM     83  C   UNL A   1      38.181  31.701  37.029  1.00  0.00     0.022 A 
BRANCH  81  84
ATOM     84  S   UNL A   1      39.354  33.355  38.882  1.00  0.00     0.127 S 
ATOM     85  O   UNL A   1      40.415  32.648  39.594  1.00  0.00    -0.237 OA
ATOM     86  O   UNL A   1      39.690  34.715  38.462  1.00  0.00    -0.237 OA
ATOM     87  O   UNL A   1      38.009  33.214  39.419  1.00  0.00    -0.744 OA
ENDBRANCH  81  84
ENDBRANCH  53  77
BRANCH  65  88
ATOM     88  C   UNL A   1      44.054  25.486  34.212  1.00  0.00     0.023 A 
ATOM     89  C   UNL A   1      42.980  24.624  34.516  1.00  0.00     0.012 A 
ATOM     90  C   UNL A   1      45.355  25.029  34.543  1.00  0.00     0.148 A 
ATOM     91  C   UNL A   1      43.186  23.352  35.063  1.00  0.00     0.002 A 
ATOM     92  C   UNL A   1      45.548  23.803  35.176  1.00  0.00     0.091 A 
ATOM     93  F   UNL A   1      46.423  25.762  34.208  1.00  0.00    -0.205 F 
ATOM     94  C   UNL A   1      44.468  22.949  35.410  1.00  0.00     0.022 A 
BRANCH  92  95
ATOM     95  S   UNL A   1      47.147  23.296  35.831  1.00  0.00     0.127 S 
ATOM     96  O   UNL A   1      47.972  23.275  34.620  1.00  0.00    -0.237 OA
ATOM     97  O   UNL A   1      47.451  24.385  36.755  1.00  0.00    -0.237 OA
ATOM     98  O   UNL A   1      46.938  21.989  36.437  1.00  0.00    -0.744 OA
ENDBRANCH  92  95
ENDBRANCH  65  88
ENDBRANCH  39  40
ENDBRANCH  31  34
ENDBRANCH  29  30
ENDBRANCH  28  29
ENDBRANCH  27  28
ENDBRANCH   1  27
TORSDOF 19
ENDMDL
MODEL 2
REMARK VINA RESULT:     -11.3      2.114      2.911
REMARK SMILES Cc1ccc(Nc2c(Cl)cc(Cl)cc2Cl)c(CC(=O)NCCCCCCNC(=O)c2ccc(-c3c4nc(c(-c5cccc(S(=O)(=O)[O-])c5F)c5ccc([nH]5)c(-c5cccc(S(=O)(=O)[O-])c5F)c5nc(c(-c6cccc(S(=O)(=O)[O-])c6F)c6ccc3[nH]6)C=C5)C=C4)cc2)c1
REMARK SMILES IDX 23 1 22 2 21 3 20 4 18 5 19 6 17 8 16 9 1 10 2 11 3 12 93 13
REMARK SMILES IDX 4 14 5 15 6 16 7 18 8 19 14 20 9 21 10 22 13 23 15 24 11 25
REMARK SMILES IDX 12 26 24 27 25 28 26 29 27 30 28 31 29 33 30 34 31 35 92 36
REMARK SMILES IDX 32 37 91 38 33 39 34 40 35 41 85 42 36 43 90 44 84 45 86 46
REMARK SMILES IDX 37 47 89 48 83 49 82 50 38 52 70 53 50 54 69 55 51 56 54 57
REMARK SMILES IDX 68 58 87 59 52 60 53 61 67 63 88 64 55 65 39 66 40 67 48 68
REMARK SMILES IDX 41 69 43 70 49 71 42 72 44 73 45 74 46 75 47 76 71 77 72 78
REMARK SMILES IDX 80 79 73 80 75 81 81 82 74 83 76 84 77 85 78 86 79 87 56 88
REMARK SMILES IDX 57 89 65 90 58 91 60 92 66 93 59 94 61 95 62 96 63 97 64 98
REMARK H PARENT 20 7 6 17 27 32 86 51 54 62
REMARK Flexibility Score: inf
ROOT
ATOM      1  C   UNL A   1      32.889  30.570  26.474  1.00  0.00     0.002 C 
ENDROOT
BRANCH   1   2
ATOM      2  C   UNL A   1      31.642  29.749  26.829  1.00  0.00     0.021 C 
BRANCH   2   3
ATOM      3  C   UNL A   1      31.910  28.506  27.680  1.00  0.00     0.116 C 
BRANCH   3   4
ATOM      4  N   UNL A   1      31.038  27.406  27.326  1.00  0.00    -0.356 N 
ATOM      5  C   UNL A   1      31.355  26.230  26.718  1.00  0.00     0.224 C 
ATOM      6  O   UNL A   1      30.441  25.472  26.384  1.00  0.00    -0.275 OA
ATOM      7  H   UNL A   1      30.088  27.526  27.555  1.00  0.00     0.163 HD
BRANCH   5   8
ATOM      8  C   UNL A   1      32.803  25.863  26.444  1.00  0.00     0.137 C 
BRANCH   8   9
ATOM      9  C   UNL A   1      33.162  25.834  24.974  1.00  0.00    -0.015 A 
ATOM     10  C   UNL A   1      33.737  28.464  22.249  1.00  0.00     0.044 C 
ATOM     11  C   UNL A   1      33.598  27.145  22.949  1.00  0.00    -0.051 A 
ATOM     12  C   UNL A   1      33.708  25.958  22.229  1.00  0.00     0.005 A 
ATOM     13  C   UNL A   1      33.353  27.073  24.321  1.00  0.00     0.009 A 
ATOM     14  C   UNL A   1      33.569  24.725  22.872  1.00  0.00     0.026 A 
ATOM     15  C   UNL A   1      33.289  24.632  24.245  1.00  0.00     0.042 A 
BRANCH  15  16
ATOM     16  N   UNL A   1      33.195  23.377  24.889  1.00  0.00    -0.353 N 
ATOM     17  H   UNL A   1      32.331  23.180  25.318  1.00  0.00     0.167 HD
BRANCH  16  18
ATOM     18  C   UNL A   1      34.179  22.363  24.999  1.00  0.00     0.076 A 
ATOM     19  C   UNL A   1      35.522  22.638  25.324  1.00  0.00     0.067 A 
ATOM     20  C   UNL A   1      33.839  21.028  24.695  1.00  0.00     0.067 A 
ATOM     21  Cl  UNL A   1      36.040  24.211  25.835  1.00  0.00    -0.082 Cl
ATOM     22  C   UNL A   1      36.487  21.625  25.318  1.00  0.00     0.043 A 
ATOM     23  C   UNL A   1      34.799  20.015  24.690  1.00  0.00     0.043 A 
ATOM     24  Cl  UNL A   1      32.209  20.594  24.298  1.00  0.00    -0.082 Cl
ATOM     25  C   UNL A   1      36.120  20.324  24.996  1.00  0.00     0.044 A 
ATOM     26  Cl  UNL A   1      37.309  19.079  24.994  1.00  0.00    -0.084 Cl
ENDBRANCH  16  18
ENDBRANCH  15  16
ENDBRANCH   8   9
ENDBRANCH   5   8
ENDBRANCH   3   4
ENDBRANCH   2   3
ENDBRANCH   1   2
BRANCH   1  27
ATOM     27  C   UNL A   1      34.243  29.954  26.861  1.00  0.00     0.002 C 
BRANCH  27  28
ATOM     28  C   UNL A   1      35.207  30.873  27.613  1.00  0.00     0.021 C 
BRANCH  28  29
ATOM     29  C   UNL A   1      34.682  31.371  28.951  1.00  0.00     0.116 C 
BRANCH  29  30
ATOM     30  N   UNL A   1      34.273  32.764  28.916  1.00  0.00    -0.352 N 
ATOM     31  C   UNL A   1      34.812  33.868  29.543  1.00  0.00     0.251 C 
ATOM     32  H   UNL A   1      33.485  32.949  28.357  1.00  0.00     0.163 HD
ATOM     33  O   UNL A   1      34.160  34.914  29.525  1.00  0.00    -0.269 OA
BRANCH  31  34
ATOM     34  C   UNL A   1      36.196  33.845  30.082  1.00  0.00     0.039 A 
ATOM     35  C   UNL A   1      37.247  34.062  29.176  1.00  0.00     0.014 A 
ATOM     36  C   UNL A   1      36.485  33.403  31.370  1.00  0.00     0.014 A 
ATOM     37  C   UNL A   1      38.522  33.577  29.460  1.00  0.00     0.010 A 
ATOM     38  C   UNL A   1      37.722  32.853  31.628  1.00  0.00     0.010 A 
ATOM     39  C   UNL A   1      38.708  32.862  30.636  1.00  0.00    -0.014 A 
BRANCH  39  40
ATOM     40  C   UNL A   1      39.805  31.939  30.882  1.00  0.00     0.031 A 
ATOM     41  C   UNL A   1      39.867  30.633  30.205  1.00  0.00     0.074 A 
ATOM     42  C   UNL A   1      40.902  32.438  31.501  1.00  0.00     0.049 A 
ATOM     43  N   UNL A   1      40.805  29.777  30.420  1.00  0.00    -0.248 NA
ATOM     44  C   UNL A   1      38.864  30.167  29.253  1.00  0.00     0.031 C 
ATOM     45  C   UNL A   1      42.274  31.945  31.427  1.00  0.00     0.029 A 
ATOM     46  N   UNL A   1      40.942  33.382  32.532  1.00  0.00    -0.354 N 
ATOM     47  C   UNL A   1      40.727  28.838  29.424  1.00  0.00     0.074 A 
ATOM     48  C   UNL A   1      39.433  29.034  28.821  1.00  0.00     0.031 C 
ATOM     49  C   UNL A   1      42.933  32.344  32.525  1.00  0.00     0.029 A 
ATOM     50  C   UNL A   1      41.950  32.940  33.410  1.00  0.00     0.049 A 
ATOM     51  H   UNL A   1      40.383  34.188  32.625  1.00  0.00     0.167 HD
ATOM     52  C   UNL A   1      41.839  28.107  29.142  1.00  0.00     0.034 A 
ATOM     53  C   UNL A   1      41.695  32.541  34.692  1.00  0.00     0.034 A 
ATOM     54  C   UNL A   1      42.836  28.208  30.216  1.00  0.00     0.049 A 
ATOM     55  C   UNL A   1      42.088  31.092  34.971  1.00  0.00     0.074 A 
ATOM     56  C   UNL A   1      44.085  28.783  30.370  1.00  0.00     0.029 A 
ATOM     57  N   UNL A   1      42.449  27.804  31.485  1.00  0.00    -0.354 N 
ATOM     58  N   UNL A   1      42.711  30.307  34.135  1.00  0.00    -0.248 NA
ATOM     59  C   UNL A   1      41.709  30.393  36.201  1.00  0.00     0.031 C 
ATOM     60  C   UNL A   1      44.395  28.792  31.770  1.00  0.00     0.029 A 
ATOM     61  C   UNL A   1      43.357  28.181  32.453  1.00  0.00     0.049 A 
ATOM     62  H   UNL A   1      41.621  27.307  31.672  1.00  0.00     0.167 HD
ATOM     63  C   UNL A   1      42.653  29.014  34.596  1.00  0.00     0.074 A 
ATOM     64  C   UNL A   1      42.062  29.129  35.919  1.00  0.00     0.031 C 
ATOM     65  C   UNL A   1      43.011  27.927  33.847  1.00  0.00     0.034 A 
BRANCH  52  66
ATOM     66  C   UNL A   1      42.088  27.360  27.850  1.00  0.00     0.023 A 
ATOM     67  C   UNL A   1      42.136  28.120  26.661  1.00  0.00     0.012 A 
ATOM     68  C   UNL A   1      42.171  25.953  27.697  1.00  0.00     0.148 A 
ATOM     69  C   UNL A   1      42.258  27.527  25.399  1.00  0.00     0.002 A 
ATOM     70  C   UNL A   1      42.368  25.366  26.444  1.00  0.00     0.091 A 
ATOM     71  F   UNL A   1      41.947  25.148  28.741  1.00  0.00    -0.205 F 
ATOM     72  C   UNL A   1      42.396  26.152  25.290  1.00  0.00     0.022 A 
BRANCH  70  73
ATOM     73  S   UNL A   1      42.613  23.592  26.251  1.00  0.00     0.127 S 
ATOM     74  O   UNL A   1      43.059  23.493  24.863  1.00  0.00    -0.237 OA
ATOM     75  O   UNL A   1      43.649  23.303  27.244  1.00  0.00    -0.237 OA
ATOM     76  O   UNL A   1      41.323  22.977  26.541  1.00  0.00    -0.744 OA
ENDBRANCH  70  73
ENDBRANCH  52  66
BRANCH  53  77
ATOM     77  C   UNL A   1      40.534  33.254  35.307  1.00  0.00     0.023 A 
ATOM     78  C   UNL A   1      39.259  32.659  35.155  1.00  0.00     0.012 A 
ATOM     79  C   UNL A   1      40.711  34.228  36.306  1.00  0.00     0.148 A 
ATOM     80  C   UNL A   1      38.226  32.933  36.053  1.00  0.00     0.002 A 
ATOM     81  C   UNL A   1      39.670  34.505  37.191  1.00  0.00     0.091 A 
ATOM     82  F   UNL A   1      41.911  34.806  36.434  1.00  0.00    -0.205 F 
ATOM     83  C   UNL A   1      38.443  33.833  37.089  1.00  0.00     0.022 A 
BRANCH  81  84
ATOM     84  S   UNL A   1      39.895  35.627  38.579  1.00  0.00     0.127 S 
ATOM     85  O   UNL A   1      41.194  35.198  39.090  1.00  0.00    -0.237 OA
ATOM     86  O   UNL A   1      39.887  36.936  37.927  1.00  0.00    -0.237 OA
ATOM     87  O   UNL A   1      38.748  35.386  39.441  1.00  0.00    -0.744 OA
ENDBRANCH  81  84
ENDBRANCH  53  77
BRANCH  65  88
ATOM     88  C   UNL A   1      43.016  26.510  34.392  1.00  0.00     0.023 A 
ATOM     89  C   UNL A   1      41.845  25.966  34.958  1.00  0.00     0.012 A 
ATOM     90  C   UNL A   1      44.198  25.732  34.494  1.00  0.00     0.148 A 
ATOM     91  C   UNL A   1      41.829  24.694  35.542  1.00  0.00     0.002 A 
ATOM     92  C   UNL A   1      44.199  24.509  35.160  1.00  0.00     0.091 A 
ATOM     93  F   UNL A   1      45.324  26.153  33.907  1.00  0.00    -0.205 F 
ATOM     94  C   UNL A   1      43.010  23.973  35.659  1.00  0.00     0.022 A 
BRANCH  92  95
ATOM     95  S   UNL A   1      45.716  23.610  35.525  1.00  0.00     0.127 S 
ATOM     96  O   UNL A   1      45.205  22.456  36.270  1.00  0.00    -0.237 OA
ATOM     97  O   UNL A   1      46.209  23.297  34.186  1.00  0.00    -0.237 OA
ATOM     98  O   UNL A   1      46.541  24.514  36.311  1.00  0.00    -0.744 OA
ENDBRANCH  92  95
ENDBRANCH  65  88
ENDBRANCH  39  40
ENDBRANCH  31  34
ENDBRANCH  29  30
ENDBRANCH  28  29
ENDBRANCH  27  28
ENDBRANCH   1  27
TORSDOF 19
ENDMDL
MODEL 3
REMARK VINA RESULT:     -11.2      1.502      2.085
REMARK SMILES Cc1ccc(Nc2c(Cl)cc(Cl)cc2Cl)c(CC(=O)NCCCCCCNC(=O)c2ccc(-c3c4nc(c(-c5cccc(S(=O)(=O)[O-])c5F)c5ccc([nH]5)c(-c5cccc(S(=O)(=O)[O-])c5F)c5nc(c(-c6cccc(S(=O)(=O)[O-])c6F)c6ccc3[nH]6)C=C5)C=C4)cc2)c1
REMARK SMILES IDX 23 1 22 2 21 3 20 4 18 5 19 6 17 8 16 9 1 10 2 11 3 12 93 13
REMARK SMILES IDX 4 14 5 15 6 16 7 18 8 19 14 20 9 21 10 22 13 23 15 24 11 25
REMARK SMILES IDX 12 26 24 27 25 28 26 29 27 30 28 31 29 33 30 34 31 35 92 36
REMARK SMILES IDX 32 37 91 38 33 39 34 40 35 41 85 42 36 43 90 44 84 45 86 46
REMARK SMILES IDX 37 47 89 48 83 49 82 50 38 52 70 53 50 54 69 55 51 56 54 57
REMARK SMILES IDX 68 58 87 59 52 60 53 61 67 63 88 64 55 65 39 66 40 67 48 68
REMARK SMILES IDX 41 69 43 70 49 71 42 72 44 73 45 74 46 75 47 76 71 77 72 78
REMARK SMILES IDX 80 79 73 80 75 81 81 82 74 83 76 84 77 85 78 86 79 87 56 88
REMARK SMILES IDX 57 89 65 90 58 91 60 92 66 93 59 94 61 95 62 96 63 97 64 98
REMARK H PARENT 20 7 6 17 27 32 86 51 54 62
REMARK Flexibility Score: inf
ROOT
ATOM      1  C   UNL A   1      34.146  28.581  26.470  1.00  0.00     0.002 C 
ENDROOT
BRANCH   1   2
ATOM      2  C   UNL A   1      33.047  27.578  26.091  1.00  0.00     0.021 C 
BRANCH   2   3
ATOM      3  C   UNL A   1      33.444  26.567  25.013  1.00  0.00     0.116 C 
BRANCH   3   4
ATOM      4  N   UNL A   1      33.878  27.214  23.793  1.00  0.00    -0.356 N 
ATOM      5  C   UNL A   1      33.461  26.991  22.517  1.00  0.00     0.224 C 
ATOM      6  O   UNL A   1      34.051  27.559  21.593  1.00  0.00    -0.275 OA
ATOM      7  H   UNL A   1      34.568  27.907  23.901  1.00  0.00     0.163 HD
BRANCH   5   8
ATOM      8  C   UNL A   1      32.303  26.051  22.231  1.00  0.00     0.137 C 
BRANCH   8   9
ATOM      9  C   UNL A   1      30.955  26.587  22.662  1.00  0.00    -0.015 A 
ATOM     10  C   UNL A   1      29.176  29.974  22.477  1.00  0.00     0.044 C 
ATOM     11  C   UNL A   1      29.468  28.533  22.770  1.00  0.00    -0.051 A 
ATOM     12  C   UNL A   1      28.555  27.770  23.494  1.00  0.00     0.005 A 
ATOM     13  C   UNL A   1      30.649  27.928  22.337  1.00  0.00     0.009 A 
ATOM     14  C   UNL A   1      28.825  26.429  23.781  1.00  0.00     0.026 A 
ATOM     15  C   UNL A   1      30.022  25.811  23.382  1.00  0.00     0.042 A 
BRANCH  15  16
ATOM     16  N   UNL A   1      30.259  24.441  23.641  1.00  0.00    -0.353 N 
ATOM     17  H   UNL A   1      29.739  23.807  23.097  1.00  0.00     0.167 HD
BRANCH  16  18
ATOM     18  C   UNL A   1      31.147  23.859  24.579  1.00  0.00     0.076 A 
ATOM     19  C   UNL A   1      32.181  22.978  24.202  1.00  0.00     0.067 A 
ATOM     20  C   UNL A   1      30.956  24.092  25.956  1.00  0.00     0.067 A 
ATOM     21  Cl  UNL A   1      32.596  22.705  22.542  1.00  0.00    -0.082 Cl
ATOM     22  C   UNL A   1      32.969  22.339  25.164  1.00  0.00     0.043 A 
ATOM     23  C   UNL A   1      31.742  23.457  26.919  1.00  0.00     0.043 A 
ATOM     24  Cl  UNL A   1      29.719  25.171  26.512  1.00  0.00    -0.082 Cl
ATOM     25  C   UNL A   1      32.741  22.578  26.514  1.00  0.00     0.044 A 
ATOM     26  Cl  UNL A   1      33.716  21.793  27.696  1.00  0.00    -0.084 Cl
ENDBRANCH  16  18
ENDBRANCH  15  16
ENDBRANCH   8   9
ENDBRANCH   5   8
ENDBRANCH   3   4
ENDBRANCH   2   3
ENDBRANCH   1   2
BRANCH   1  27
ATOM     27  C   UNL A   1      33.959  29.322  27.804  1.00  0.00     0.002 C 
BRANCH  27  28
ATOM     28  C   UNL A   1      35.117  30.224  28.236  1.00  0.00     0.021 C 
BRANCH  28  29
ATOM     29  C   UNL A   1      35.189  31.550  27.495  1.00  0.00     0.116 C 
BRANCH  29  30
ATOM     30  N   UNL A   1      34.410  32.598  28.131  1.00  0.00    -0.352 N 
ATOM     31  C   UNL A   1      34.608  33.256  29.326  1.00  0.00     0.251 C 
ATOM     32  H   UNL A   1      33.614  32.883  27.628  1.00  0.00     0.163 HD
ATOM     33  O   UNL A   1      33.692  33.963  29.751  1.00  0.00    -0.269 OA
BRANCH  31  34
ATOM     34  C   UNL A   1      35.933  33.243  29.999  1.00  0.00     0.039 A 
ATOM     35  C   UNL A   1      37.041  33.675  29.253  1.00  0.00     0.014 A 
ATOM     36  C   UNL A   1      36.136  32.621  31.228  1.00  0.00     0.014 A 
ATOM     37  C   UNL A   1      38.321  33.242  29.593  1.00  0.00     0.010 A 
ATOM     38  C   UNL A   1      37.387  32.126  31.528  1.00  0.00     0.010 A 
ATOM     39  C   UNL A   1      38.457  32.362  30.660  1.00  0.00    -0.014 A 
BRANCH  39  40
ATOM     40  C   UNL A   1      39.600  31.491  30.876  1.00  0.00     0.031 A 
ATOM     41  C   UNL A   1      39.685  30.171  30.229  1.00  0.00     0.074 A 
ATOM     42  C   UNL A   1      40.703  32.049  31.431  1.00  0.00     0.049 A 
ATOM     43  N   UNL A   1      40.666  29.359  30.421  1.00  0.00    -0.248 NA
ATOM     44  C   UNL A   1      38.660  29.640  29.337  1.00  0.00     0.031 C 
ATOM     45  C   UNL A   1      42.089  31.610  31.305  1.00  0.00     0.029 A 
ATOM     46  N   UNL A   1      40.752  33.021  32.435  1.00  0.00    -0.354 N 
ATOM     47  C   UNL A   1      40.582  28.391  29.454  1.00  0.00     0.074 A 
ATOM     48  C   UNL A   1      39.255  28.519  28.907  1.00  0.00     0.031 C 
ATOM     49  C   UNL A   1      42.781  32.064  32.360  1.00  0.00     0.029 A 
ATOM     50  C   UNL A   1      41.816  32.643  33.275  1.00  0.00     0.049 A 
ATOM     51  H   UNL A   1      40.165  33.806  32.534  1.00  0.00     0.167 HD
ATOM     52  C   UNL A   1      41.708  27.698  29.138  1.00  0.00     0.034 A 
ATOM     53  C   UNL A   1      41.637  32.268  34.577  1.00  0.00     0.034 A 
ATOM     54  C   UNL A   1      42.749  27.868  30.161  1.00  0.00     0.049 A 
ATOM     55  C   UNL A   1      42.101  30.845  34.873  1.00  0.00     0.074 A 
ATOM     56  C   UNL A   1      43.979  28.496  30.242  1.00  0.00     0.029 A 
ATOM     57  N   UNL A   1      42.438  27.482  31.456  1.00  0.00    -0.354 N 
ATOM     58  N   UNL A   1      42.718  30.063  34.029  1.00  0.00    -0.248 NA
ATOM     59  C   UNL A   1      41.808  30.164  36.137  1.00  0.00     0.031 C 
ATOM     60  C   UNL A   1      44.352  28.554  31.625  1.00  0.00     0.029 A 
ATOM     61  C   UNL A   1      43.372  27.921  32.371  1.00  0.00     0.049 A 
ATOM     62  H   UNL A   1      41.640  26.957  31.695  1.00  0.00     0.167 HD
ATOM     63  C   UNL A   1      42.733  28.781  34.524  1.00  0.00     0.074 A 
ATOM     64  C   UNL A   1      42.200  28.907  35.869  1.00  0.00     0.031 C 
ATOM     65  C   UNL A   1      43.101  27.690  33.786  1.00  0.00     0.034 A 
BRANCH  52  66
ATOM     66  C   UNL A   1      41.929  26.927  27.855  1.00  0.00     0.023 A 
ATOM     67  C   UNL A   1      42.049  27.675  26.663  1.00  0.00     0.012 A 
ATOM     68  C   UNL A   1      41.918  25.517  27.710  1.00  0.00     0.148 A 
ATOM     69  C   UNL A   1      42.152  27.067  25.406  1.00  0.00     0.002 A 
ATOM     70  C   UNL A   1      42.097  24.910  26.464  1.00  0.00     0.091 A 
ATOM     71  F   UNL A   1      41.623  24.736  28.754  1.00  0.00    -0.205 F 
ATOM     72  C   UNL A   1      42.199  25.685  25.307  1.00  0.00     0.022 A 
BRANCH  70  73
ATOM     73  S   UNL A   1      42.225  23.123  26.285  1.00  0.00     0.127 S 
ATOM     74  O   UNL A   1      40.840  22.695  26.476  1.00  0.00    -0.237 OA
ATOM     75  O   UNL A   1      42.723  22.974  24.916  1.00  0.00    -0.237 OA
ATOM     76  O   UNL A   1      43.164  22.684  27.311  1.00  0.00    -0.744 OA
ENDBRANCH  70  73
ENDBRANCH  52  66
BRANCH  53  77
ATOM     77  C   UNL A   1      40.477  32.950  35.229  1.00  0.00     0.023 A 
ATOM     78  C   UNL A   1      39.246  32.252  35.245  1.00  0.00     0.012 A 
ATOM     79  C   UNL A   1      40.656  34.026  36.117  1.00  0.00     0.148 A 
ATOM     80  C   UNL A   1      38.272  32.535  36.204  1.00  0.00     0.002 A 
ATOM     81  C   UNL A   1      39.674  34.310  37.063  1.00  0.00     0.091 A 
ATOM     82  F   UNL A   1      41.812  34.700  36.085  1.00  0.00    -0.205 F 
ATOM     83  C   UNL A   1      38.500  33.543  37.132  1.00  0.00     0.022 A 
BRANCH  81  84
ATOM     84  S   UNL A   1      39.921  35.572  38.320  1.00  0.00     0.127 S 
ATOM     85  O   UNL A   1      41.228  35.199  38.852  1.00  0.00    -0.237 OA
ATOM     86  O   UNL A   1      39.901  36.804  37.533  1.00  0.00    -0.237 OA
ATOM     87  O   UNL A   1      38.789  35.425  39.223  1.00  0.00    -0.744 OA
ENDBRANCH  81  84
ENDBRANCH  53  77
BRANCH  65  88
ATOM     88  C   UNL A   1      43.190  26.289  34.364  1.00  0.00     0.023 A 
ATOM     89  C   UNL A   1      42.044  25.676  34.910  1.00  0.00     0.012 A 
ATOM     90  C   UNL A   1      44.420  25.600  34.519  1.00  0.00     0.148 A 
ATOM     91  C   UNL A   1      42.099  24.419  35.523  1.00  0.00     0.002 A 
ATOM     92  C   UNL A   1      44.487  24.394  35.214  1.00  0.00     0.091 A 
ATOM     93  F   UNL A   1      45.531  26.087  33.955  1.00  0.00    -0.205 F 
ATOM     94  C   UNL A   1      43.323  23.786  35.692  1.00  0.00     0.022 A 
BRANCH  92  95
ATOM     95  S   UNL A   1      46.051  23.614  35.644  1.00  0.00     0.127 S 
ATOM     96  O   UNL A   1      46.704  23.515  34.336  1.00  0.00    -0.237 OA
ATOM     97  O   UNL A   1      46.642  24.601  36.544  1.00  0.00    -0.237 OA
ATOM     98  O   UNL A   1      45.711  22.332  36.243  1.00  0.00    -0.744 OA
ENDBRANCH  92  95
ENDBRANCH  65  88
ENDBRANCH  39  40
ENDBRANCH  31  34
ENDBRANCH  29  30
ENDBRANCH  28  29
ENDBRANCH  27  28
ENDBRANCH   1  27
TORSDOF 19
ENDMDL
