MODEL 1
REMARK VINA RESULT:     -10.7      0.000      0.000
REMARK SMILES COc1cc([C@@H]2CC(=O)Nc3c(C(=O)NCCCCCCNC(=O)c4ccc(-c5c6nc(c(-c7cccc(S(=O)(=O)[O-])c7F)c7ccc([nH]7)c(-c7cccc(S(=O)(=O)[O-])c7F)c7nc(c(-c8cccc(S(=O)(=O)[O-])c8F)c8ccc5[nH]8)C=C7)C=C6)cc4)cn(-c4ccc(F)cc4)c32)c(OC)c2c1OCO2
REMARK SMILES IDX 19 1 18 2 17 3 16 4 15 5 13 6 14 7 12 9 6 10 7 11 97 12 8 13
REMARK SMILES IDX 11 14 89 15 9 16 10 17 88 18 5 20 3 21 4 22 102 23 101 24
REMARK SMILES IDX 103 25 98 26 105 27 104 28 2 29 1 30 99 31 100 32 90 33
REMARK SMILES IDX 91 34 96 35 92 36 95 37 93 38 94 39 20 40 21 41 22 42 23 43
REMARK SMILES IDX 24 45 25 46 26 47 87 48 27 49 86 50 28 51 29 52 30 53 80 54
REMARK SMILES IDX 31 55 85 56 79 57 81 58 32 59 84 60 78 61 77 62 33 64 65 65
REMARK SMILES IDX 45 66 64 67 46 68 49 69 63 70 82 71 47 72 48 73 62 75 83 76
REMARK SMILES IDX 50 77 34 78 35 79 43 80 36 81 38 82 44 83 37 84 39 85 40 86
REMARK SMILES IDX 41 87 42 88 66 89 67 90 75 91 68 92 70 93 76 94 69 95 71 96
REMARK SMILES IDX 72 97 73 98 74 99 51 100 52 101 60 102 53 103 55 104 61 105
REMARK SMILES IDX 54 106 56 107 57 108 58 109 59 110
REMARK H PARENT 15 8 10 19 22 44 81 63 49 74
REMARK Flexibility Score: inf
ROOT
ATOM      1  C   UNL A   1      47.758  21.332  37.230  1.00  0.00     0.002 C 
ENDROOT
BRANCH   1   2
ATOM      2  C   UNL A   1      46.686  20.362  37.747  1.00  0.00     0.002 C 
BRANCH   2   3
ATOM      3  C   UNL A   1      46.880  19.915  39.197  1.00  0.00     0.021 C 
BRANCH   3   4
ATOM      4  C   UNL A   1      47.916  18.798  39.365  1.00  0.00     0.116 C 
BRANCH   4   5
ATOM      5  N   UNL A   1      48.832  19.122  40.430  1.00  0.00    -0.352 N 
ATOM      6  C   UNL A   1      48.788  18.950  41.787  1.00  0.00     0.254 C 
ATOM      7  O   UNL A   1      49.795  19.334  42.391  1.00  0.00    -0.269 OA
ATOM      8  H   UNL A   1      49.658  19.557  40.116  1.00  0.00     0.163 HD
BRANCH   6   9
ATOM      9  C   UNL A   1      47.703  18.265  42.498  1.00  0.00     0.081 A 
ATOM     10  C   UNL A   1      44.319  17.103  43.559  1.00  0.00     0.082 C 
ATOM     11  C   UNL A   1      43.597  18.454  43.663  1.00  0.00     0.115 C 
ATOM     12  C   UNL A   1      45.782  17.315  43.287  1.00  0.00     0.055 A 
ATOM     13  C   UNL A   1      44.120  19.499  42.703  1.00  0.00     0.225 C 
ATOM     14  C   UNL A   1      46.313  18.466  42.736  1.00  0.00     0.076 A 
ATOM     15  N   UNL A   1      46.834  16.519  43.676  1.00  0.00    -0.317 N 
ATOM     16  O   UNL A   1      43.403  20.367  42.206  1.00  0.00    -0.275 OA
ATOM     17  N   UNL A   1      45.471  19.520  42.478  1.00  0.00    -0.324 N 
ATOM     18  C   UNL A   1      47.987  17.096  43.202  1.00  0.00     0.107 A 
ATOM     19  H   UNL A   1      45.863  20.343  42.106  1.00  0.00     0.170 HD
BRANCH  10  20
ATOM     20  C   UNL A   1      43.599  16.175  42.570  1.00  0.00     0.012 A 
ATOM     21  C   UNL A   1      43.305  15.593  40.195  1.00  0.00     0.165 A 
ATOM     22  C   UNL A   1      43.923  16.342  41.195  1.00  0.00     0.059 A 
ATOM     23  C   UNL A   1      42.417  14.613  40.587  1.00  0.00     0.211 A 
ATOM     24  C   UNL A   1      42.116  14.402  41.920  1.00  0.00     0.211 A 
ATOM     25  O   UNL A   1      41.759  13.744  39.768  1.00  0.00    -0.449 OA
ATOM     26  C   UNL A   1      42.681  15.164  42.938  1.00  0.00     0.168 A 
ATOM     27  O   UNL A   1      41.212  13.388  42.067  1.00  0.00    -0.449 OA
ATOM     28  C   UNL A   1      41.105  12.900  40.724  1.00  0.00     0.468 C 
BRANCH  21  29
ATOM     29  O   UNL A   1      43.680  15.878  38.914  1.00  0.00    -0.493 OA
ATOM     30  C   UNL A   1      44.608  16.951  38.805  1.00  0.00     0.278 C 
ENDBRANCH  21  29
BRANCH  26  31
ATOM     31  O   UNL A   1      42.412  15.030  44.267  1.00  0.00    -0.492 OA
ATOM     32  C   UNL A   1      43.092  14.027  45.006  1.00  0.00     0.278 C 
ENDBRANCH  26  31
ENDBRANCH  10  20
BRANCH  15  33
ATOM     33  C   UNL A   1      46.800  15.365  44.489  1.00  0.00     0.046 A 
ATOM     34  C   UNL A   1      47.020  15.457  45.865  1.00  0.00     0.029 A 
ATOM     35  C   UNL A   1      46.568  14.122  43.884  1.00  0.00     0.029 A 
ATOM     36  C   UNL A   1      47.063  14.296  46.634  1.00  0.00     0.041 A 
ATOM     37  C   UNL A   1      46.626  12.963  44.658  1.00  0.00     0.041 A 
ATOM     38  C   UNL A   1      46.878  13.060  46.023  1.00  0.00     0.123 A 
ATOM     39  F   UNL A   1      46.939  11.946  46.765  1.00  0.00    -0.207 F 
ENDBRANCH  15  33
ENDBRANCH   6   9
ENDBRANCH   4   5
ENDBRANCH   3   4
ENDBRANCH   2   3
ENDBRANCH   1   2
BRANCH   1  40
ATOM     40  C   UNL A   1      47.387  22.823  37.274  1.00  0.00     0.021 C 
BRANCH  40  41
ATOM     41  C   UNL A   1      45.888  23.076  37.162  1.00  0.00     0.116 C 
BRANCH  41  42
ATOM     42  N   UNL A   1      45.547  24.391  37.696  1.00  0.00    -0.352 N 
ATOM     43  C   UNL A   1      45.374  25.582  37.031  1.00  0.00     0.251 C 
ATOM     44  H   UNL A   1      45.424  24.431  38.672  1.00  0.00     0.163 HD
ATOM     45  O   UNL A   1      45.427  26.640  37.637  1.00  0.00    -0.269 OA
BRANCH  43  46
ATOM     46  C   UNL A   1      45.136  25.563  35.578  1.00  0.00     0.039 A 
ATOM     47  C   UNL A   1      43.882  25.186  35.092  1.00  0.00     0.014 A 
ATOM     48  C   UNL A   1      46.164  25.927  34.706  1.00  0.00     0.014 A 
ATOM     49  C   UNL A   1      43.640  25.259  33.726  1.00  0.00     0.010 A 
ATOM     50  C   UNL A   1      45.898  26.084  33.362  1.00  0.00     0.010 A 
ATOM     51  C   UNL A   1      44.642  25.737  32.867  1.00  0.00    -0.014 A 
BRANCH  51  52
ATOM     52  C   UNL A   1      44.296  26.057  31.483  1.00  0.00     0.031 A 
ATOM     53  C   UNL A   1      44.560  24.944  30.531  1.00  0.00     0.074 A 
ATOM     54  C   UNL A   1      43.620  27.161  31.104  1.00  0.00     0.049 A 
ATOM     55  N   UNL A   1      45.477  24.893  29.621  1.00  0.00    -0.248 NA
ATOM     56  C   UNL A   1      43.844  23.673  30.723  1.00  0.00     0.031 C 
ATOM     57  C   UNL A   1      43.028  28.179  31.977  1.00  0.00     0.029 A 
ATOM     58  N   UNL A   1      43.186  27.532  29.863  1.00  0.00    -0.354 N 
ATOM     59  C   UNL A   1      45.260  23.694  28.945  1.00  0.00     0.074 A 
ATOM     60  C   UNL A   1      44.427  22.900  29.805  1.00  0.00     0.031 C 
ATOM     61  C   UNL A   1      42.111  28.885  31.282  1.00  0.00     0.029 A 
ATOM     62  C   UNL A   1      42.167  28.482  29.889  1.00  0.00     0.049 A 
ATOM     63  H   UNL A   1      43.559  27.164  29.029  1.00  0.00     0.167 HD
ATOM     64  C   UNL A   1      45.523  23.594  27.612  1.00  0.00     0.034 A 
ATOM     65  C   UNL A   1      41.387  28.870  28.852  1.00  0.00     0.034 A 
ATOM     66  C   UNL A   1      46.333  24.704  27.164  1.00  0.00     0.049 A 
ATOM     67  C   UNL A   1      42.118  28.540  27.611  1.00  0.00     0.074 A 
ATOM     68  C   UNL A   1      47.564  25.236  27.489  1.00  0.00     0.029 A 
ATOM     69  N   UNL A   1      45.661  25.676  26.466  1.00  0.00    -0.354 N 
ATOM     70  N   UNL A   1      43.218  29.133  27.243  1.00  0.00    -0.248 NA
ATOM     71  C   UNL A   1      41.818  27.293  26.928  1.00  0.00     0.031 C 
ATOM     72  C   UNL A   1      47.421  26.644  27.315  1.00  0.00     0.029 A 
ATOM     73  C   UNL A   1      46.136  26.900  26.831  1.00  0.00     0.049 A 
ATOM     74  H   UNL A   1      44.949  25.514  25.807  1.00  0.00     0.167 HD
ATOM     75  C   UNL A   1      43.967  28.118  26.669  1.00  0.00     0.074 A 
ATOM     76  C   UNL A   1      43.000  27.074  26.347  1.00  0.00     0.031 C 
ATOM     77  C   UNL A   1      45.326  28.101  26.805  1.00  0.00     0.034 A 
BRANCH  64  78
ATOM     78  C   UNL A   1      44.690  22.807  26.606  1.00  0.00     0.023 A 
ATOM     79  C   UNL A   1      43.283  22.964  26.693  1.00  0.00     0.012 A 
ATOM     80  C   UNL A   1      45.155  21.714  25.839  1.00  0.00     0.148 A 
ATOM     81  C   UNL A   1      42.398  22.027  26.149  1.00  0.00     0.002 A 
ATOM     82  C   UNL A   1      44.269  20.825  25.238  1.00  0.00     0.091 A 
ATOM     83  F   UNL A   1      46.456  21.438  25.773  1.00  0.00    -0.205 F 
ATOM     84  C   UNL A   1      42.891  20.952  25.423  1.00  0.00     0.022 A 
BRANCH  82  85
ATOM     85  S   UNL A   1      44.846  19.437  24.250  1.00  0.00     0.127 S 
ATOM     86  O   UNL A   1      44.470  19.863  22.905  1.00  0.00    -0.237 OA
ATOM     87  O   UNL A   1      46.283  19.453  24.528  1.00  0.00    -0.237 OA
ATOM     88  O   UNL A   1      44.150  18.266  24.766  1.00  0.00    -0.744 OA
ENDBRANCH  82  85
ENDBRANCH  64  78
BRANCH  65  89
ATOM     89  C   UNL A   1      39.977  29.328  28.821  1.00  0.00     0.023 A 
ATOM     90  C   UNL A   1      38.960  28.409  28.486  1.00  0.00     0.012 A 
ATOM     91  C   UNL A   1      39.598  30.556  29.405  1.00  0.00     0.148 A 
ATOM     92  C   UNL A   1      37.618  28.679  28.776  1.00  0.00     0.002 A 
ATOM     93  C   UNL A   1      38.260  30.822  29.686  1.00  0.00     0.091 A 
ATOM     94  F   UNL A   1      40.551  31.421  29.772  1.00  0.00    -0.205 F 
ATOM     95  C   UNL A   1      37.269  29.879  29.389  1.00  0.00     0.022 A 
BRANCH  93  96
ATOM     96  S   UNL A   1      37.741  32.339  30.501  1.00  0.00     0.127 S 
ATOM     97  O   UNL A   1      36.432  32.579  29.893  1.00  0.00    -0.237 OA
ATOM     98  O   UNL A   1      37.699  31.931  31.903  1.00  0.00    -0.237 OA
ATOM     99  O   UNL A   1      38.749  33.337  30.163  1.00  0.00    -0.744 OA
ENDBRANCH  93  96
ENDBRANCH  65  89
BRANCH  77 100
ATOM    100  C   UNL A   1      46.018  29.381  27.189  1.00  0.00     0.023 A 
ATOM    101  C   UNL A   1      46.345  30.389  26.260  1.00  0.00     0.012 A 
ATOM    102  C   UNL A   1      46.210  29.627  28.559  1.00  0.00     0.148 A 
ATOM    103  C   UNL A   1      46.876  31.607  26.692  1.00  0.00     0.002 A 
ATOM    104  C   UNL A   1      46.685  30.857  28.987  1.00  0.00     0.091 A 
ATOM    105  F   UNL A   1      45.900  28.652  29.429  1.00  0.00    -0.205 F 
ATOM    106  C   UNL A   1      47.032  31.847  28.056  1.00  0.00     0.022 A 
BRANCH 104 107
ATOM    107  S   UNL A   1      46.776  31.261  30.732  1.00  0.00     0.127 S 
ATOM    108  O   UNL A   1      45.398  31.048  31.168  1.00  0.00    -0.237 OA
ATOM    109  O   UNL A   1      47.736  30.278  31.235  1.00  0.00    -0.237 OA
ATOM    110  O   UNL A   1      47.251  32.638  30.798  1.00  0.00    -0.744 OA
ENDBRANCH 104 107
ENDBRANCH  77 100
ENDBRANCH  51  52
ENDBRANCH  43  46
ENDBRANCH  41  42
ENDBRANCH  40  41
ENDBRANCH   1  40
TORSDOF 20
ENDMDL
MODEL 2
REMARK VINA RESULT:     -10.7      6.714     15.346
REMARK SMILES COc1cc([C@@H]2CC(=O)Nc3c(C(=O)NCCCCCCNC(=O)c4ccc(-c5c6nc(c(-c7cccc(S(=O)(=O)[O-])c7F)c7ccc([nH]7)c(-c7cccc(S(=O)(=O)[O-])c7F)c7nc(c(-c8cccc(S(=O)(=O)[O-])c8F)c8ccc5[nH]8)C=C7)C=C6)cc4)cn(-c4ccc(F)cc4)c32)c(OC)c2c1OCO2
REMARK SMILES IDX 19 1 18 2 17 3 16 4 15 5 13 6 14 7 12 9 6 10 7 11 97 12 8 13
REMARK SMILES IDX 11 14 89 15 9 16 10 17 88 18 5 20 3 21 4 22 102 23 101 24
REMARK SMILES IDX 103 25 98 26 105 27 104 28 2 29 1 30 99 31 100 32 90 33
REMARK SMILES IDX 91 34 96 35 92 36 95 37 93 38 94 39 20 40 21 41 22 42 23 43
REMARK SMILES IDX 24 45 25 46 26 47 87 48 27 49 86 50 28 51 29 52 30 53 80 54
REMARK SMILES IDX 31 55 85 56 79 57 81 58 32 59 84 60 78 61 77 62 33 64 65 65
REMARK SMILES IDX 45 66 64 67 46 68 49 69 63 70 82 71 47 72 48 73 62 75 83 76
REMARK SMILES IDX 50 77 34 78 35 79 43 80 36 81 38 82 44 83 37 84 39 85 40 86
REMARK SMILES IDX 41 87 42 88 66 89 67 90 75 91 68 92 70 93 76 94 69 95 71 96
REMARK SMILES IDX 72 97 73 98 74 99 51 100 52 101 60 102 53 103 55 104 61 105
REMARK SMILES IDX 54 106 56 107 57 108 58 109 59 110
REMARK H PARENT 15 8 10 19 22 44 81 63 49 74
REMARK Flexibility Score: inf
ROOT
ATOM      1  C   UNL A   1      38.001  30.657  28.322  1.00  0.00     0.002 C 
ENDROOT
BRANCH   1   2
ATOM      2  C   UNL A   1      37.290  29.310  28.131  1.00  0.00     0.002 C 
BRANCH   2   3
ATOM      3  C   UNL A   1      35.763  29.387  28.173  1.00  0.00     0.021 C 
BRANCH   3   4
ATOM      4  C   UNL A   1      35.078  28.747  26.961  1.00  0.00     0.116 C 
BRANCH   4   5
ATOM      5  N   UNL A   1      33.954  29.548  26.542  1.00  0.00    -0.352 N 
ATOM      6  C   UNL A   1      32.805  29.261  25.854  1.00  0.00     0.254 C 
ATOM      7  O   UNL A   1      32.039  30.218  25.704  1.00  0.00    -0.269 OA
ATOM      8  H   UNL A   1      34.029  30.494  26.805  1.00  0.00     0.163 HD
BRANCH   6   9
ATOM      9  C   UNL A   1      32.419  27.916  25.416  1.00  0.00     0.081 A 
ATOM     10  C   UNL A   1      32.342  24.639  23.629  1.00  0.00     0.082 C 
ATOM     11  C   UNL A   1      32.472  25.126  22.180  1.00  0.00     0.115 C 
ATOM     12  C   UNL A   1      32.191  25.810  24.560  1.00  0.00     0.055 A 
ATOM     13  C   UNL A   1      33.263  26.407  22.037  1.00  0.00     0.225 C 
ATOM     14  C   UNL A   1      32.590  27.099  24.261  1.00  0.00     0.076 A 
ATOM     15  N   UNL A   1      31.505  25.856  25.751  1.00  0.00    -0.317 N 
ATOM     16  O   UNL A   1      33.959  26.655  21.053  1.00  0.00    -0.275 OA
ATOM     17  N   UNL A   1      33.096  27.356  23.010  1.00  0.00    -0.324 N 
ATOM     18  C   UNL A   1      31.643  27.124  26.260  1.00  0.00     0.107 A 
ATOM     19  H   UNL A   1      33.356  28.283  22.799  1.00  0.00     0.170 HD
BRANCH  10  20
ATOM     20  C   UNL A   1      33.477  23.668  23.983  1.00  0.00     0.012 A 
ATOM     21  C   UNL A   1      35.857  23.477  24.591  1.00  0.00     0.165 A 
ATOM     22  C   UNL A   1      34.735  24.252  24.299  1.00  0.00     0.059 A 
ATOM     23  C   UNL A   1      35.691  22.109  24.648  1.00  0.00     0.211 A 
ATOM     24  C   UNL A   1      34.468  21.518  24.385  1.00  0.00     0.211 A 
ATOM     25  O   UNL A   1      36.646  21.192  24.971  1.00  0.00    -0.449 OA
ATOM     26  C   UNL A   1      33.342  22.261  24.045  1.00  0.00     0.168 A 
ATOM     27  O   UNL A   1      34.544  20.158  24.496  1.00  0.00    -0.449 OA
ATOM     28  C   UNL A   1      35.877  19.983  24.994  1.00  0.00     0.468 C 
BRANCH  21  29
ATOM     29  O   UNL A   1      37.010  24.162  24.839  1.00  0.00    -0.493 OA
ATOM     30  C   UNL A   1      37.533  23.967  26.148  1.00  0.00     0.278 C 
ENDBRANCH  21  29
BRANCH  26  31
ATOM     31  O   UNL A   1      32.116  21.747  23.750  1.00  0.00    -0.492 OA
ATOM     32  C   UNL A   1      31.909  21.158  22.476  1.00  0.00     0.278 C 
ENDBRANCH  26  31
ENDBRANCH  10  20
BRANCH  15  33
ATOM     33  C   UNL A   1      30.714  24.846  26.341  1.00  0.00     0.046 A 
ATOM     34  C   UNL A   1      31.282  23.629  26.724  1.00  0.00     0.029 A 
ATOM     35  C   UNL A   1      29.341  25.077  26.509  1.00  0.00     0.029 A 
ATOM     36  C   UNL A   1      30.468  22.617  27.229  1.00  0.00     0.041 A 
ATOM     37  C   UNL A   1      28.531  24.055  27.003  1.00  0.00     0.041 A 
ATOM     38  C   UNL A   1      29.100  22.834  27.351  1.00  0.00     0.123 A 
ATOM     39  F   UNL A   1      28.319  21.851  27.819  1.00  0.00    -0.207 F 
ENDBRANCH  15  33
ENDBRANCH   6   9
ENDBRANCH   4   5
ENDBRANCH   3   4
ENDBRANCH   2   3
ENDBRANCH   1   2
BRANCH   1  40
ATOM     40  C   UNL A   1      37.090  31.894  28.366  1.00  0.00     0.021 C 
BRANCH  40  41
ATOM     41  C   UNL A   1      37.471  32.886  29.458  1.00  0.00     0.116 C 
BRANCH  41  42
ATOM     42  N   UNL A   1      36.580  32.755  30.607  1.00  0.00    -0.352 N 
ATOM     43  C   UNL A   1      36.570  31.797  31.594  1.00  0.00     0.251 C 
ATOM     44  H   UNL A   1      35.888  33.450  30.686  1.00  0.00     0.163 HD
ATOM     45  O   UNL A   1      35.574  31.630  32.280  1.00  0.00    -0.269 OA
BRANCH  43  46
ATOM     46  C   UNL A   1      37.770  30.969  31.803  1.00  0.00     0.039 A 
ATOM     47  C   UNL A   1      37.655  29.577  31.782  1.00  0.00     0.014 A 
ATOM     48  C   UNL A   1      39.004  31.585  32.014  1.00  0.00     0.014 A 
ATOM     49  C   UNL A   1      38.807  28.807  31.890  1.00  0.00     0.010 A 
ATOM     50  C   UNL A   1      40.154  30.825  32.032  1.00  0.00     0.010 A 
ATOM     51  C   UNL A   1      40.058  29.436  31.985  1.00  0.00    -0.014 A 
BRANCH  51  52
ATOM     52  C   UNL A   1      41.270  28.631  31.833  1.00  0.00     0.031 A 
ATOM     53  C   UNL A   1      41.955  28.338  33.120  1.00  0.00     0.074 A 
ATOM     54  C   UNL A   1      41.644  28.031  30.684  1.00  0.00     0.049 A 
ATOM     55  N   UNL A   1      43.086  28.812  33.531  1.00  0.00    -0.248 NA
ATOM     56  C   UNL A   1      41.226  27.574  34.145  1.00  0.00     0.031 C 
ATOM     57  C   UNL A   1      40.893  27.980  29.426  1.00  0.00     0.029 A 
ATOM     58  N   UNL A   1      42.708  27.209  30.439  1.00  0.00    -0.354 N 
ATOM     59  C   UNL A   1      43.333  28.176  34.745  1.00  0.00     0.074 A 
ATOM     60  C   UNL A   1      42.073  27.636  35.173  1.00  0.00     0.031 C 
ATOM     61  C   UNL A   1      41.375  26.980  28.658  1.00  0.00     0.029 A 
ATOM     62  C   UNL A   1      42.559  26.432  29.292  1.00  0.00     0.049 A 
ATOM     63  H   UNL A   1      43.504  27.171  31.017  1.00  0.00     0.167 HD
ATOM     64  C   UNL A   1      44.609  27.884  35.125  1.00  0.00     0.034 A 
ATOM     65  C   UNL A   1      43.322  25.377  28.918  1.00  0.00     0.034 A 
ATOM     66  C   UNL A   1      45.563  28.610  34.320  1.00  0.00     0.049 A 
ATOM     67  C   UNL A   1      44.620  25.512  29.609  1.00  0.00     0.074 A 
ATOM     68  C   UNL A   1      45.825  29.934  34.035  1.00  0.00     0.029 A 
ATOM     69  N   UNL A   1      46.198  27.871  33.353  1.00  0.00    -0.354 N 
ATOM     70  N   UNL A   1      45.479  26.457  29.352  1.00  0.00    -0.248 NA
ATOM     71  C   UNL A   1      44.834  24.791  30.853  1.00  0.00     0.031 C 
ATOM     72  C   UNL A   1      46.273  29.943  32.680  1.00  0.00     0.029 A 
ATOM     73  C   UNL A   1      46.327  28.624  32.225  1.00  0.00     0.049 A 
ATOM     74  H   UNL A   1      46.509  26.943  33.458  1.00  0.00     0.167 HD
ATOM     75  C   UNL A   1      46.014  26.767  30.593  1.00  0.00     0.074 A 
ATOM     76  C   UNL A   1      45.719  25.609  31.428  1.00  0.00     0.031 C 
ATOM     77  C   UNL A   1      46.359  28.054  30.894  1.00  0.00     0.034 A 
BRANCH  64  78
ATOM     78  C   UNL A   1      45.041  26.620  35.861  1.00  0.00     0.023 A 
ATOM     79  C   UNL A   1      45.978  26.790  36.911  1.00  0.00     0.012 A 
ATOM     80  C   UNL A   1      44.855  25.299  35.392  1.00  0.00     0.148 A 
ATOM     81  C   UNL A   1      46.764  25.733  37.383  1.00  0.00     0.002 A 
ATOM     82  C   UNL A   1      45.588  24.237  35.915  1.00  0.00     0.091 A 
ATOM     83  F   UNL A   1      44.061  25.055  34.351  1.00  0.00    -0.205 F 
ATOM     84  C   UNL A   1      46.572  24.454  36.881  1.00  0.00     0.022 A 
BRANCH  82  85
ATOM     85  S   UNL A   1      45.355  22.550  35.335  1.00  0.00     0.127 S 
ATOM     86  O   UNL A   1      46.177  22.543  34.128  1.00  0.00    -0.237 OA
ATOM     87  O   UNL A   1      45.890  21.776  36.456  1.00  0.00    -0.237 OA
ATOM     88  O   UNL A   1      43.921  22.395  35.132  1.00  0.00    -0.744 OA
ENDBRANCH  82  85
ENDBRANCH  64  78
BRANCH  65  89
ATOM     89  C   UNL A   1      42.970  24.149  28.164  1.00  0.00     0.023 A 
ATOM     90  C   UNL A   1      41.620  23.750  28.088  1.00  0.00     0.012 A 
ATOM     91  C   UNL A   1      43.893  23.549  27.281  1.00  0.00     0.148 A 
ATOM     92  C   UNL A   1      41.192  22.827  27.126  1.00  0.00     0.002 A 
ATOM     93  C   UNL A   1      43.463  22.627  26.329  1.00  0.00     0.091 A 
ATOM     94  F   UNL A   1      45.170  23.948  27.307  1.00  0.00    -0.205 F 
ATOM     95  C   UNL A   1      42.111  22.277  26.238  1.00  0.00     0.022 A 
BRANCH  93  96
ATOM     96  S   UNL A   1      44.590  21.898  25.132  1.00  0.00     0.127 S 
ATOM     97  O   UNL A   1      43.889  20.666  24.765  1.00  0.00    -0.237 OA
ATOM     98  O   UNL A   1      44.623  22.917  24.087  1.00  0.00    -0.237 OA
ATOM     99  O   UNL A   1      45.842  21.681  25.846  1.00  0.00    -0.744 OA
ENDBRANCH  93  96
ENDBRANCH  65  89
BRANCH  77 100
ATOM    100  C   UNL A   1      46.561  29.021  29.759  1.00  0.00     0.023 A 
ATOM    101  C   UNL A   1      47.780  29.153  29.066  1.00  0.00     0.012 A 
ATOM    102  C   UNL A   1      45.430  29.711  29.288  1.00  0.00     0.148 A 
ATOM    103  C   UNL A   1      47.873  29.978  27.941  1.00  0.00     0.002 A 
ATOM    104  C   UNL A   1      45.513  30.485  28.140  1.00  0.00     0.091 A 
ATOM    105  F   UNL A   1      44.279  29.579  29.965  1.00  0.00    -0.205 F 
ATOM    106  C   UNL A   1      46.736  30.632  27.470  1.00  0.00     0.022 A 
BRANCH 104 107
ATOM    107  S   UNL A   1      44.053  31.235  27.420  1.00  0.00     0.127 S 
ATOM    108  O   UNL A   1      44.552  31.701  26.129  1.00  0.00    -0.237 OA
ATOM    109  O   UNL A   1      43.121  30.108  27.346  1.00  0.00    -0.237 OA
ATOM    110  O   UNL A   1      43.642  32.280  28.351  1.00  0.00    -0.744 OA
ENDBRANCH 104 107
ENDBRANCH  77 100
ENDBRANCH  51  52
ENDBRANCH  43  46
ENDBRANCH  41  42
ENDBRANCH  40  41
ENDBRANCH   1  40
TORSDOF 20
ENDMDL
MODEL 3
REMARK VINA RESULT:     -10.1      8.223     13.661
REMARK SMILES COc1cc([C@@H]2CC(=O)Nc3c(C(=O)NCCCCCCNC(=O)c4ccc(-c5c6nc(c(-c7cccc(S(=O)(=O)[O-])c7F)c7ccc([nH]7)c(-c7cccc(S(=O)(=O)[O-])c7F)c7nc(c(-c8cccc(S(=O)(=O)[O-])c8F)c8ccc5[nH]8)C=C7)C=C6)cc4)cn(-c4ccc(F)cc4)c32)c(OC)c2c1OCO2
REMARK SMILES IDX 19 1 18 2 17 3 16 4 15 5 13 6 14 7 12 9 6 10 7 11 97 12 8 13
REMARK SMILES IDX 11 14 89 15 9 16 10 17 88 18 5 20 3 21 4 22 102 23 101 24
REMARK SMILES IDX 103 25 98 26 105 27 104 28 2 29 1 30 99 31 100 32 90 33
REMARK SMILES IDX 91 34 96 35 92 36 95 37 93 38 94 39 20 40 21 41 22 42 23 43
REMARK SMILES IDX 24 45 25 46 26 47 87 48 27 49 86 50 28 51 29 52 30 53 80 54
REMARK SMILES IDX 31 55 85 56 79 57 81 58 32 59 84 60 78 61 77 62 33 64 65 65
REMARK SMILES IDX 45 66 64 67 46 68 49 69 63 70 82 71 47 72 48 73 62 75 83 76
REMARK SMILES IDX 50 77 34 78 35 79 43 80 36 81 38 82 44 83 37 84 39 85 40 86
REMARK SMILES IDX 41 87 42 88 66 89 67 90 75 91 68 92 70 93 76 94 69 95 71 96
REMARK SMILES IDX 72 97 73 98 74 99 51 100 52 101 60 102 53 103 55 104 61 105
REMARK SMILES IDX 54 106 56 107 57 108 58 109 59 110
REMARK H PARENT 15 8 10 19 22 44 81 63 49 74
REMARK Flexibility Score: inf
ROOT
ATOM      1  C   UNL A   1      34.787  32.462  32.143  1.00  0.00     0.002 C 
ENDROOT
BRANCH   1   2
ATOM      2  C   UNL A   1      36.107  32.018  32.789  1.00  0.00     0.002 C 
BRANCH   2   3
ATOM      3  C   UNL A   1      37.183  33.103  32.846  1.00  0.00     0.021 C 
BRANCH   3   4
ATOM      4  C   UNL A   1      38.412  32.711  33.673  1.00  0.00     0.116 C 
BRANCH   4   5
ATOM      5  N   UNL A   1      39.470  33.672  33.481  1.00  0.00    -0.352 N 
ATOM      6  C   UNL A   1      40.062  34.589  34.307  1.00  0.00     0.254 C 
ATOM      7  O   UNL A   1      40.980  35.234  33.792  1.00  0.00    -0.269 OA
ATOM      8  H   UNL A   1      39.842  33.668  32.569  1.00  0.00     0.163 HD
BRANCH   6   9
ATOM      9  C   UNL A   1      39.744  34.745  35.730  1.00  0.00     0.081 A 
ATOM     10  C   UNL A   1      38.899  34.009  39.291  1.00  0.00     0.082 C 
ATOM     11  C   UNL A   1      37.732  33.032  39.088  1.00  0.00     0.115 C 
ATOM     12  C   UNL A   1      39.329  34.585  37.971  1.00  0.00     0.055 A 
ATOM     13  C   UNL A   1      37.835  32.216  37.819  1.00  0.00     0.225 C 
ATOM     14  C   UNL A   1      39.080  33.997  36.745  1.00  0.00     0.076 A 
ATOM     15  N   UNL A   1      39.869  35.828  37.731  1.00  0.00    -0.317 N 
ATOM     16  O   UNL A   1      37.410  31.065  37.730  1.00  0.00    -0.275 OA
ATOM     17  N   UNL A   1      38.332  32.846  36.709  1.00  0.00    -0.324 N 
ATOM     18  C   UNL A   1      40.113  35.920  36.383  1.00  0.00     0.107 A 
ATOM     19  H   UNL A   1      38.140  32.448  35.829  1.00  0.00     0.170 HD
BRANCH  10  20
ATOM     20  C   UNL A   1      40.019  33.356  40.113  1.00  0.00     0.012 A 
ATOM     21  C   UNL A   1      42.171  32.162  40.007  1.00  0.00     0.165 A 
ATOM     22  C   UNL A   1      41.113  32.820  39.380  1.00  0.00     0.059 A 
ATOM     23  C   UNL A   1      42.168  32.117  41.386  1.00  0.00     0.211 A 
ATOM     24  C   UNL A   1      41.136  32.667  42.124  1.00  0.00     0.211 A 
ATOM     25  O   UNL A   1      43.134  31.572  42.179  1.00  0.00    -0.449 OA
ATOM     26  C   UNL A   1      40.044  33.290  41.526  1.00  0.00     0.168 A 
ATOM     27  O   UNL A   1      41.344  32.499  43.465  1.00  0.00    -0.449 OA
ATOM     28  C   UNL A   1      42.662  31.934  43.483  1.00  0.00     0.468 C 
BRANCH  21  29
ATOM     29  O   UNL A   1      43.137  31.662  39.185  1.00  0.00    -0.493 OA
ATOM     30  C   UNL A   1      44.075  32.631  38.731  1.00  0.00     0.278 C 
ENDBRANCH  21  29
BRANCH  26  31
ATOM     31  O   UNL A   1      38.983  33.830  42.188  1.00  0.00    -0.492 OA
ATOM     32  C   UNL A   1      38.035  32.961  42.787  1.00  0.00     0.278 C 
ENDBRANCH  26  31
ENDBRANCH  10  20
BRANCH  15  33
ATOM     33  C   UNL A   1      40.069  36.883  38.648  1.00  0.00     0.046 A 
ATOM     34  C   UNL A   1      41.359  37.300  38.982  1.00  0.00     0.029 A 
ATOM     35  C   UNL A   1      38.949  37.485  39.238  1.00  0.00     0.029 A 
ATOM     36  C   UNL A   1      41.535  38.288  39.949  1.00  0.00     0.041 A 
ATOM     37  C   UNL A   1      39.132  38.463  40.215  1.00  0.00     0.041 A 
ATOM     38  C   UNL A   1      40.422  38.850  40.566  1.00  0.00     0.123 A 
ATOM     39  F   UNL A   1      40.597  39.786  41.509  1.00  0.00    -0.207 F 
ENDBRANCH  15  33
ENDBRANCH   6   9
ENDBRANCH   4   5
ENDBRANCH   3   4
ENDBRANCH   2   3
ENDBRANCH   1   2
BRANCH   1  40
ATOM     40  C   UNL A   1      34.789  33.867  31.518  1.00  0.00     0.021 C 
BRANCH  40  41
ATOM     41  C   UNL A   1      35.127  33.866  30.032  1.00  0.00     0.116 C 
BRANCH  41  42
ATOM     42  N   UNL A   1      34.365  32.839  29.330  1.00  0.00    -0.352 N 
ATOM     43  C   UNL A   1      34.810  31.685  28.728  1.00  0.00     0.251 C 
ATOM     44  H   UNL A   1      33.394  32.994  29.279  1.00  0.00     0.163 HD
ATOM     45  O   UNL A   1      34.115  31.112  27.904  1.00  0.00    -0.269 OA
BRANCH  43  46
ATOM     46  C   UNL A   1      36.139  31.158  29.082  1.00  0.00     0.039 A 
ATOM     47  C   UNL A   1      36.284  29.798  29.368  1.00  0.00     0.014 A 
ATOM     48  C   UNL A   1      37.235  32.021  29.121  1.00  0.00     0.014 A 
ATOM     49  C   UNL A   1      37.555  29.295  29.612  1.00  0.00     0.010 A 
ATOM     50  C   UNL A   1      38.505  31.507  29.276  1.00  0.00     0.010 A 
ATOM     51  C   UNL A   1      38.668  30.148  29.535  1.00  0.00    -0.014 A 
BRANCH  51  52
ATOM     52  C   UNL A   1      40.009  29.566  29.531  1.00  0.00     0.031 A 
ATOM     53  C   UNL A   1      40.586  29.391  30.892  1.00  0.00     0.074 A 
ATOM     54  C   UNL A   1      40.608  29.044  28.442  1.00  0.00     0.049 A 
ATOM     55  N   UNL A   1      41.565  30.052  31.418  1.00  0.00    -0.248 NA
ATOM     56  C   UNL A   1      39.889  28.508  31.841  1.00  0.00     0.031 C 
ATOM     57  C   UNL A   1      40.023  28.868  27.108  1.00  0.00     0.029 A 
ATOM     58  N   UNL A   1      41.818  28.419  28.329  1.00  0.00    -0.354 N 
ATOM     59  C   UNL A   1      41.780  29.465  32.662  1.00  0.00     0.074 A 
ATOM     60  C   UNL A   1      40.592  28.712  32.956  1.00  0.00     0.031 C 
ATOM     61  C   UNL A   1      40.753  27.970  26.415  1.00  0.00     0.029 A 
ATOM     62  C   UNL A   1      41.935  27.633  27.185  1.00  0.00     0.049 A 
ATOM     63  H   UNL A   1      42.539  28.518  28.992  1.00  0.00     0.167 HD
ATOM     64  C   UNL A   1      43.036  29.396  33.186  1.00  0.00     0.034 A 
ATOM     65  C   UNL A   1      42.906  26.727  26.915  1.00  0.00     0.034 A 
ATOM     66  C   UNL A   1      43.935  30.280  32.481  1.00  0.00     0.049 A 
ATOM     67  C   UNL A   1      44.076  27.083  27.744  1.00  0.00     0.074 A 
ATOM     68  C   UNL A   1      43.995  31.630  32.205  1.00  0.00     0.029 A 
ATOM     69  N   UNL A   1      44.792  29.665  31.602  1.00  0.00    -0.354 N 
ATOM     70  N   UNL A   1      44.782  28.163  27.569  1.00  0.00    -0.248 NA
ATOM     71  C   UNL A   1      44.270  26.405  29.015  1.00  0.00     0.031 C 
ATOM     72  C   UNL A   1      44.584  31.722  30.909  1.00  0.00     0.029 A 
ATOM     73  C   UNL A   1      44.915  30.433  30.483  1.00  0.00     0.049 A 
ATOM     74  H   UNL A   1      45.245  28.805  31.756  1.00  0.00     0.167 HD
ATOM     75  C   UNL A   1      45.113  28.557  28.856  1.00  0.00     0.074 A 
ATOM     76  C   UNL A   1      44.929  27.362  29.672  1.00  0.00     0.031 C 
ATOM     77  C   UNL A   1      45.194  29.882  29.174  1.00  0.00     0.034 A 
BRANCH  64  78
ATOM     78  C   UNL A   1      43.594  28.223  33.985  1.00  0.00     0.023 A 
ATOM     79  C   UNL A   1      44.245  28.543  35.204  1.00  0.00     0.012 A 
ATOM     80  C   UNL A   1      43.810  26.920  33.480  1.00  0.00     0.148 A 
ATOM     81  C   UNL A   1      45.146  27.664  35.817  1.00  0.00     0.002 A 
ATOM     82  C   UNL A   1      44.651  26.023  34.132  1.00  0.00     0.091 A 
ATOM     83  F   UNL A   1      43.311  26.561  32.300  1.00  0.00    -0.205 F 
ATOM     84  C   UNL A   1      45.352  26.403  35.278  1.00  0.00     0.022 A 
BRANCH  82  85
ATOM     85  S   UNL A   1      44.926  24.359  33.507  1.00  0.00     0.127 S 
ATOM     86  O   UNL A   1      46.012  23.902  34.370  1.00  0.00    -0.237 OA
ATOM     87  O   UNL A   1      43.628  23.731  33.755  1.00  0.00    -0.237 OA
ATOM     88  O   UNL A   1      45.255  24.514  32.096  1.00  0.00    -0.744 OA
ENDBRANCH  82  85
ENDBRANCH  64  78
BRANCH  65  89
ATOM     89  C   UNL A   1      42.858  25.459  26.146  1.00  0.00     0.023 A 
ATOM     90  C   UNL A   1      43.873  25.183  25.207  1.00  0.00     0.012 A 
ATOM     91  C   UNL A   1      42.009  24.402  26.539  1.00  0.00     0.148 A 
ATOM     92  C   UNL A   1      44.074  23.887  24.720  1.00  0.00     0.002 A 
ATOM     93  C   UNL A   1      42.209  23.115  26.047  1.00  0.00     0.091 A 
ATOM     94  F   UNL A   1      41.069  24.634  27.464  1.00  0.00    -0.205 F 
ATOM     95  C   UNL A   1      43.252  22.850  25.151  1.00  0.00     0.022 A 
BRANCH  93  96
ATOM     96  S   UNL A   1      41.204  21.723  26.582  1.00  0.00     0.127 S 
ATOM     97  O   UNL A   1      41.782  20.617  25.816  1.00  0.00    -0.237 OA
ATOM     98  O   UNL A   1      41.478  21.683  28.016  1.00  0.00    -0.237 OA
ATOM     99  O   UNL A   1      39.835  22.055  26.209  1.00  0.00    -0.744 OA
ENDBRANCH  93  96
ENDBRANCH  65  89
BRANCH  77 100
ATOM    100  C   UNL A   1      45.352  30.873  28.052  1.00  0.00     0.023 A 
ATOM    101  C   UNL A   1      44.262  31.419  27.346  1.00  0.00     0.012 A 
ATOM    102  C   UNL A   1      46.642  31.375  27.809  1.00  0.00     0.148 A 
ATOM    103  C   UNL A   1      44.462  32.426  26.398  1.00  0.00     0.002 A 
ATOM    104  C   UNL A   1      46.830  32.412  26.908  1.00  0.00     0.091 A 
ATOM    105  F   UNL A   1      47.670  30.837  28.485  1.00  0.00    -0.205 F 
ATOM    106  C   UNL A   1      45.743  32.933  26.190  1.00  0.00     0.022 A 
BRANCH 104 107
ATOM    107  S   UNL A   1      48.434  33.186  26.705  1.00  0.00     0.127 S 
ATOM    108  O   UNL A   1      49.276  32.053  26.331  1.00  0.00    -0.237 OA
ATOM    109  O   UNL A   1      48.188  34.148  25.630  1.00  0.00    -0.237 OA
ATOM    110  O   UNL A   1      48.743  33.803  27.990  1.00  0.00    -0.744 OA
ENDBRANCH 104 107
ENDBRANCH  77 100
ENDBRANCH  51  52
ENDBRANCH  43  46
ENDBRANCH  41  42
ENDBRANCH  40  41
ENDBRANCH   1  40
TORSDOF 20
ENDMDL
