MODEL 1
REMARK VINA RESULT:     -11.9      0.000      0.000
REMARK SMILES Cc1c(Cc2nc(C(C)(C)C)cs2)cccc1C(=O)NCCCCCCNC(=O)c1ccc(-c2c3nc(c(-c4cccc(S(=O)(=O)[O-])c4F)c4ccc([nH]4)c(-c4cccc(S(=O)(=O)[O-])c4F)c4nc(c(-c5cccc(S(=O)(=O)[O-])c5F)c5ccc2[nH]5)C=C4)C=C3)cc1
REMARK SMILES IDX 23 1 22 2 21 3 20 4 18 5 19 6 17 8 1 9 2 10 3 11 14 12 16 13
REMARK SMILES IDX 15 14 4 15 5 16 6 17 13 18 7 19 12 20 8 21 9 22 10 23 11 24
REMARK SMILES IDX 24 25 25 26 26 27 27 28 28 29 29 31 30 32 31 33 92 34 32 35
REMARK SMILES IDX 91 36 33 37 34 38 35 39 85 40 36 41 90 42 84 43 86 44 37 45
REMARK SMILES IDX 89 46 83 47 82 48 38 50 70 51 50 52 69 53 51 54 54 55 68 56
REMARK SMILES IDX 87 57 52 58 53 59 67 61 88 62 55 63 39 64 40 65 48 66 41 67
REMARK SMILES IDX 43 68 49 69 42 70 44 71 45 72 46 73 47 74 71 75 72 76 80 77
REMARK SMILES IDX 73 78 75 79 81 80 74 81 76 82 77 83 78 84 79 85 56 86 57 87
REMARK SMILES IDX 65 88 58 89 60 90 66 91 59 92 61 93 62 94 63 95 64 96
REMARK H PARENT 20 7 27 30 86 49 54 60
REMARK Flexibility Score: inf
ROOT
ATOM      1  C   UNL A   1      34.057  27.324  24.933  1.00  0.00     0.002 C 
ENDROOT
BRANCH   1   2
ATOM      2  C   UNL A   1      34.077  28.270  23.728  1.00  0.00     0.021 C 
BRANCH   2   3
ATOM      3  C   UNL A   1      33.639  27.639  22.398  1.00  0.00     0.116 C 
BRANCH   3   4
ATOM      4  N   UNL A   1      32.253  27.965  22.143  1.00  0.00    -0.352 N 
ATOM      5  C   UNL A   1      31.064  27.407  22.530  1.00  0.00     0.251 C 
ATOM      6  O   UNL A   1      30.046  27.905  22.040  1.00  0.00    -0.269 OA
ATOM      7  H   UNL A   1      32.141  28.755  21.568  1.00  0.00     0.163 HD
BRANCH   5   8
ATOM      8  C   UNL A   1      30.904  26.357  23.588  1.00  0.00     0.043 A 
ATOM      9  C   UNL A   1      31.641  24.289  22.266  1.00  0.00     0.045 C 
ATOM     10  C   UNL A   1      31.250  24.984  23.539  1.00  0.00    -0.035 A 
ATOM     11  C   UNL A   1      31.113  24.196  24.715  1.00  0.00    -0.037 A 
ATOM     12  C   UNL A   1      30.401  24.716  25.812  1.00  0.00     0.004 A 
ATOM     13  C   UNL A   1      30.236  26.843  24.733  1.00  0.00     0.014 A 
ATOM     14  C   UNL A   1      29.946  26.023  25.816  1.00  0.00     0.001 A 
BRANCH  11  15
ATOM     15  C   UNL A   1      31.697  22.790  24.850  1.00  0.00     0.103 C 
BRANCH  15  16
ATOM     16  C   UNL A   1      33.082  22.813  25.454  1.00  0.00     0.097 A 
ATOM     17  N   UNL A   1      34.186  22.903  24.742  1.00  0.00    -0.245 NA
ATOM     18  S   UNL A   1      33.324  22.628  27.143  1.00  0.00    -0.127 S 
ATOM     19  C   UNL A   1      35.305  22.708  25.535  1.00  0.00     0.057 A 
ATOM     20  C   UNL A   1      35.019  22.590  26.884  1.00  0.00     0.091 A 
BRANCH  19  21
ATOM     21  C   UNL A   1      36.668  22.639  24.863  1.00  0.00     0.005 C 
ATOM     22  C   UNL A   1      37.621  23.670  25.492  1.00  0.00     0.017 C 
ATOM     23  C   UNL A   1      37.272  21.228  25.014  1.00  0.00     0.017 C 
ATOM     24  C   UNL A   1      36.558  22.939  23.351  1.00  0.00     0.017 C 
ENDBRANCH  19  21
ENDBRANCH  15  16
ENDBRANCH  11  15
ENDBRANCH   5   8
ENDBRANCH   3   4
ENDBRANCH   2   3
ENDBRANCH   1   2
BRANCH   1  25
ATOM     25  C   UNL A   1      33.576  27.931  26.258  1.00  0.00     0.002 C 
BRANCH  25  26
ATOM     26  C   UNL A   1      33.282  29.431  26.230  1.00  0.00     0.021 C 
BRANCH  26  27
ATOM     27  C   UNL A   1      33.201  30.066  27.610  1.00  0.00     0.116 C 
BRANCH  27  28
ATOM     28  N   UNL A   1      33.978  31.285  27.714  1.00  0.00    -0.352 N 
ATOM     29  C   UNL A   1      35.254  31.496  28.215  1.00  0.00     0.251 C 
ATOM     30  H   UNL A   1      33.528  32.092  27.376  1.00  0.00     0.163 HD
ATOM     31  O   UNL A   1      35.598  32.630  28.463  1.00  0.00    -0.269 OA
BRANCH  29  32
ATOM     32  C   UNL A   1      36.214  30.359  28.287  1.00  0.00     0.039 A 
ATOM     33  C   UNL A   1      36.339  29.707  29.523  1.00  0.00     0.014 A 
ATOM     34  C   UNL A   1      37.119  30.086  27.268  1.00  0.00     0.014 A 
ATOM     35  C   UNL A   1      37.504  29.001  29.816  1.00  0.00     0.010 A 
ATOM     36  C   UNL A   1      38.303  29.456  27.577  1.00  0.00     0.010 A 
ATOM     37  C   UNL A   1      38.525  28.989  28.873  1.00  0.00    -0.014 A 
BRANCH  37  38
ATOM     38  C   UNL A   1      39.876  28.511  29.110  1.00  0.00     0.031 A 
ATOM     39  C   UNL A   1      40.223  27.121  28.768  1.00  0.00     0.074 A 
ATOM     40  C   UNL A   1      40.827  29.411  29.447  1.00  0.00     0.049 A 
ATOM     41  N   UNL A   1      41.343  26.562  29.061  1.00  0.00    -0.248 NA
ATOM     42  C   UNL A   1      39.300  26.244  28.062  1.00  0.00     0.031 C 
ATOM     43  C   UNL A   1      42.275  29.249  29.382  1.00  0.00     0.029 A 
ATOM     44  N   UNL A   1      40.661  30.615  30.138  1.00  0.00    -0.354 N 
ATOM     45  C   UNL A   1      41.400  25.357  28.394  1.00  0.00     0.074 A 
ATOM     46  C   UNL A   1      40.078  25.181  27.843  1.00  0.00     0.031 C 
ATOM     47  C   UNL A   1      42.841  30.110  30.242  1.00  0.00     0.029 A 
ATOM     48  C   UNL A   1      41.758  30.691  31.017  1.00  0.00     0.049 A 
ATOM     49  H   UNL A   1      39.933  31.270  30.032  1.00  0.00     0.167 HD
ATOM     50  C   UNL A   1      42.606  24.726  28.305  1.00  0.00     0.034 A 
ATOM     51  C   UNL A   1      41.623  30.601  32.378  1.00  0.00     0.034 A 
ATOM     52  C   UNL A   1      43.601  25.389  29.168  1.00  0.00     0.049 A 
ATOM     53  C   UNL A   1      42.383  29.424  32.991  1.00  0.00     0.074 A 
ATOM     54  C   UNL A   1      44.597  26.333  28.975  1.00  0.00     0.029 A 
ATOM     55  N   UNL A   1      43.421  25.302  30.536  1.00  0.00    -0.354 N 
ATOM     56  N   UNL A   1      43.100  28.565  32.315  1.00  0.00    -0.248 NA
ATOM     57  C   UNL A   1      42.306  29.071  34.411  1.00  0.00     0.031 C 
ATOM     58  C   UNL A   1      44.945  26.870  30.256  1.00  0.00     0.029 A 
ATOM     59  C   UNL A   1      44.189  26.228  31.221  1.00  0.00     0.049 A 
ATOM     60  H   UNL A   1      42.819  24.658  30.972  1.00  0.00     0.167 HD
ATOM     61  C   UNL A   1      43.424  27.505  33.120  1.00  0.00     0.074 A 
ATOM     62  C   UNL A   1      42.938  27.887  34.435  1.00  0.00     0.031 C 
ATOM     63  C   UNL A   1      43.999  26.352  32.662  1.00  0.00     0.034 A 
BRANCH  50  64
ATOM     64  C   UNL A   1      42.976  23.635  27.313  1.00  0.00     0.023 A 
ATOM     65  C   UNL A   1      43.736  24.026  26.186  1.00  0.00     0.012 A 
ATOM     66  C   UNL A   1      42.590  22.274  27.347  1.00  0.00     0.148 A 
ATOM     67  C   UNL A   1      44.024  23.154  25.128  1.00  0.00     0.002 A 
ATOM     68  C   UNL A   1      42.826  21.416  26.269  1.00  0.00     0.091 A 
ATOM     69  F   UNL A   1      42.045  21.761  28.448  1.00  0.00    -0.205 F 
ATOM     70  C   UNL A   1      43.543  21.854  25.155  1.00  0.00     0.022 A 
BRANCH  68  71
ATOM     71  S   UNL A   1      42.173  19.735  26.204  1.00  0.00     0.127 S 
ATOM     72  O   UNL A   1      40.730  19.973  26.119  1.00  0.00    -0.237 OA
ATOM     73  O   UNL A   1      42.774  19.210  24.979  1.00  0.00    -0.237 OA
ATOM     74  O   UNL A   1      42.596  19.081  27.436  1.00  0.00    -0.744 OA
ENDBRANCH  68  71
ENDBRANCH  50  64
BRANCH  51  75
ATOM     75  C   UNL A   1      40.303  31.114  32.872  1.00  0.00     0.023 A 
ATOM     76  C   UNL A   1      39.261  30.166  33.028  1.00  0.00     0.012 A 
ATOM     77  C   UNL A   1      40.188  32.350  33.530  1.00  0.00     0.148 A 
ATOM     78  C   UNL A   1      38.244  30.367  33.963  1.00  0.00     0.002 A 
ATOM     79  C   UNL A   1      39.149  32.558  34.434  1.00  0.00     0.091 A 
ATOM     80  F   UNL A   1      41.123  33.285  33.326  1.00  0.00    -0.205 F 
ATOM     81  C   UNL A   1      38.213  31.547  34.698  1.00  0.00     0.022 A 
BRANCH  79  82
ATOM     82  S   UNL A   1      39.041  34.091  35.365  1.00  0.00     0.127 S 
ATOM     83  O   UNL A   1      40.412  34.235  35.844  1.00  0.00    -0.237 OA
ATOM     84  O   UNL A   1      38.643  35.059  34.344  1.00  0.00    -0.237 OA
ATOM     85  O   UNL A   1      38.021  33.834  36.371  1.00  0.00    -0.744 OA
ENDBRANCH  79  82
ENDBRANCH  51  75
BRANCH  63  86
ATOM     86  C   UNL A   1      44.431  25.234  33.588  1.00  0.00     0.023 A 
ATOM     87  C   UNL A   1      43.461  24.397  34.178  1.00  0.00     0.012 A 
ATOM     88  C   UNL A   1      45.770  25.074  34.020  1.00  0.00     0.148 A 
ATOM     89  C   UNL A   1      43.807  23.415  35.112  1.00  0.00     0.002 A 
ATOM     90  C   UNL A   1      46.092  24.171  35.029  1.00  0.00     0.091 A 
ATOM     91  F   UNL A   1      46.750  25.758  33.419  1.00  0.00    -0.205 F 
ATOM     92  C   UNL A   1      45.120  23.318  35.555  1.00  0.00     0.022 A 
BRANCH  90  93
ATOM     93  S   UNL A   1      47.714  24.151  35.807  1.00  0.00     0.127 S 
ATOM     94  O   UNL A   1      47.862  25.545  36.231  1.00  0.00    -0.237 OA
ATOM     95  O   UNL A   1      47.515  23.200  36.897  1.00  0.00    -0.237 OA
ATOM     96  O   UNL A   1      48.646  23.744  34.764  1.00  0.00    -0.744 OA
ENDBRANCH  90  93
ENDBRANCH  63  86
ENDBRANCH  37  38
ENDBRANCH  29  32
ENDBRANCH  27  28
ENDBRANCH  26  27
ENDBRANCH  25  26
ENDBRANCH   1  25
TORSDOF 19
ENDMDL
MODEL 2
REMARK VINA RESULT:     -11.8      2.064      2.768
REMARK SMILES Cc1c(Cc2nc(C(C)(C)C)cs2)cccc1C(=O)NCCCCCCNC(=O)c1ccc(-c2c3nc(c(-c4cccc(S(=O)(=O)[O-])c4F)c4ccc([nH]4)c(-c4cccc(S(=O)(=O)[O-])c4F)c4nc(c(-c5cccc(S(=O)(=O)[O-])c5F)c5ccc2[nH]5)C=C4)C=C3)cc1
REMARK SMILES IDX 23 1 22 2 21 3 20 4 18 5 19 6 17 8 1 9 2 10 3 11 14 12 16 13
REMARK SMILES IDX 15 14 4 15 5 16 6 17 13 18 7 19 12 20 8 21 9 22 10 23 11 24
REMARK SMILES IDX 24 25 25 26 26 27 27 28 28 29 29 31 30 32 31 33 92 34 32 35
REMARK SMILES IDX 91 36 33 37 34 38 35 39 85 40 36 41 90 42 84 43 86 44 37 45
REMARK SMILES IDX 89 46 83 47 82 48 38 50 70 51 50 52 69 53 51 54 54 55 68 56
REMARK SMILES IDX 87 57 52 58 53 59 67 61 88 62 55 63 39 64 40 65 48 66 41 67
REMARK SMILES IDX 43 68 49 69 42 70 44 71 45 72 46 73 47 74 71 75 72 76 80 77
REMARK SMILES IDX 73 78 75 79 81 80 74 81 76 82 77 83 78 84 79 85 56 86 57 87
REMARK SMILES IDX 65 88 58 89 60 90 66 91 59 92 61 93 62 94 63 95 64 96
REMARK H PARENT 20 7 27 30 86 49 54 60
REMARK Flexibility Score: inf
ROOT
ATOM      1  C   UNL A   1      32.444  29.401  24.137  1.00  0.00     0.002 C 
ENDROOT
BRANCH   1   2
ATOM      2  C   UNL A   1      30.940  29.574  24.374  1.00  0.00     0.021 C 
BRANCH   2   3
ATOM      3  C   UNL A   1      30.048  29.240  23.169  1.00  0.00     0.116 C 
BRANCH   3   4
ATOM      4  N   UNL A   1      29.252  28.071  23.467  1.00  0.00    -0.352 N 
ATOM      5  C   UNL A   1      29.541  26.739  23.601  1.00  0.00     0.251 C 
ATOM      6  O   UNL A   1      28.576  25.988  23.775  1.00  0.00    -0.269 OA
ATOM      7  H   UNL A   1      28.299  28.275  23.602  1.00  0.00     0.163 HD
BRANCH   5   8
ATOM      8  C   UNL A   1      30.919  26.157  23.693  1.00  0.00     0.043 A 
ATOM      9  C   UNL A   1      31.225  26.155  26.237  1.00  0.00     0.045 C 
ATOM     10  C   UNL A   1      31.654  25.786  24.845  1.00  0.00    -0.035 A 
ATOM     11  C   UNL A   1      32.911  25.139  24.684  1.00  0.00    -0.037 A 
ATOM     12  C   UNL A   1      33.514  25.117  23.412  1.00  0.00     0.004 A 
ATOM     13  C   UNL A   1      31.551  26.067  22.433  1.00  0.00     0.014 A 
ATOM     14  C   UNL A   1      32.850  25.596  22.296  1.00  0.00     0.001 A 
BRANCH  11  15
ATOM     15  C   UNL A   1      33.657  24.466  25.836  1.00  0.00     0.103 C 
BRANCH  15  16
ATOM     16  C   UNL A   1      34.215  23.121  25.434  1.00  0.00     0.097 A 
ATOM     17  N   UNL A   1      33.466  22.087  25.112  1.00  0.00    -0.245 NA
ATOM     18  S   UNL A   1      35.904  22.811  25.454  1.00  0.00    -0.127 S 
ATOM     19  C   UNL A   1      34.232  20.942  24.976  1.00  0.00     0.057 A 
ATOM     20  C   UNL A   1      35.593  21.165  25.084  1.00  0.00     0.091 A 
BRANCH  19  21
ATOM     21  C   UNL A   1      33.522  19.617  24.740  1.00  0.00     0.005 C 
ATOM     22  C   UNL A   1      32.773  19.184  26.012  1.00  0.00     0.017 C 
ATOM     23  C   UNL A   1      32.520  19.743  23.576  1.00  0.00     0.017 C 
ATOM     24  C   UNL A   1      34.530  18.506  24.368  1.00  0.00     0.017 C 
ENDBRANCH  19  21
ENDBRANCH  15  16
ENDBRANCH  11  15
ENDBRANCH   5   8
ENDBRANCH   3   4
ENDBRANCH   2   3
ENDBRANCH   1   2
BRANCH   1  25
ATOM     25  C   UNL A   1      33.313  29.271  25.394  1.00  0.00     0.002 C 
BRANCH  25  26
ATOM     26  C   UNL A   1      33.159  30.390  26.424  1.00  0.00     0.021 C 
BRANCH  26  27
ATOM     27  C   UNL A   1      34.083  30.250  27.625  1.00  0.00     0.116 C 
BRANCH  27  28
ATOM     28  N   UNL A   1      35.047  31.328  27.720  1.00  0.00    -0.352 N 
ATOM     29  C   UNL A   1      36.367  31.316  28.144  1.00  0.00     0.251 C 
ATOM     30  H   UNL A   1      34.710  32.209  27.441  1.00  0.00     0.163 HD
ATOM     31  O   UNL A   1      36.899  32.371  28.409  1.00  0.00    -0.269 OA
BRANCH  29  32
ATOM     32  C   UNL A   1      37.139  30.042  28.114  1.00  0.00     0.039 A 
ATOM     33  C   UNL A   1      37.195  29.302  29.303  1.00  0.00     0.014 A 
ATOM     34  C   UNL A   1      37.961  29.698  27.047  1.00  0.00     0.014 A 
ATOM     35  C   UNL A   1      38.242  28.407  29.511  1.00  0.00     0.010 A 
ATOM     36  C   UNL A   1      39.040  28.874  27.274  1.00  0.00     0.010 A 
ATOM     37  C   UNL A   1      39.223  28.296  28.531  1.00  0.00    -0.014 A 
BRANCH  37  38
ATOM     38  C   UNL A   1      40.488  27.602  28.689  1.00  0.00     0.031 A 
ATOM     39  C   UNL A   1      40.537  26.140  28.515  1.00  0.00     0.074 A 
ATOM     40  C   UNL A   1      41.618  28.337  28.790  1.00  0.00     0.049 A 
ATOM     41  N   UNL A   1      41.571  25.416  28.765  1.00  0.00    -0.248 NA
ATOM     42  C   UNL A   1      39.391  25.376  28.045  1.00  0.00     0.031 C 
ATOM     43  C   UNL A   1      42.993  27.895  28.595  1.00  0.00     0.029 A 
ATOM     44  N   UNL A   1      41.757  29.626  29.315  1.00  0.00    -0.354 N 
ATOM     45  C   UNL A   1      41.328  24.151  28.275  1.00  0.00     0.074 A 
ATOM     46  C   UNL A   1      39.935  24.165  27.899  1.00  0.00     0.031 C 
ATOM     47  C   UNL A   1      43.809  28.729  29.258  1.00  0.00     0.029 A 
ATOM     48  C   UNL A   1      42.957  29.596  30.053  1.00  0.00     0.049 A 
ATOM     49  H   UNL A   1      41.148  30.390  29.195  1.00  0.00     0.167 HD
ATOM     50  C   UNL A   1      42.382  23.295  28.150  1.00  0.00     0.034 A 
ATOM     51  C   UNL A   1      42.987  29.699  31.419  1.00  0.00     0.034 A 
ATOM     52  C   UNL A   1      43.582  23.855  28.797  1.00  0.00     0.049 A 
ATOM     53  C   UNL A   1      43.603  28.482  32.109  1.00  0.00     0.074 A 
ATOM     54  C   UNL A   1      44.694  24.561  28.366  1.00  0.00     0.029 A 
ATOM     55  N   UNL A   1      43.572  23.971  30.176  1.00  0.00    -0.354 N 
ATOM     56  N   UNL A   1      44.063  27.426  31.491  1.00  0.00    -0.248 NA
ATOM     57  C   UNL A   1      43.652  28.325  33.566  1.00  0.00     0.031 C 
ATOM     58  C   UNL A   1      45.296  25.173  29.512  1.00  0.00     0.029 A 
ATOM     59  C   UNL A   1      44.572  24.808  30.635  1.00  0.00     0.049 A 
ATOM     60  H   UNL A   1      42.928  23.511  30.761  1.00  0.00     0.167 HD
ATOM     61  C   UNL A   1      44.299  26.429  32.401  1.00  0.00     0.074 A 
ATOM     62  C   UNL A   1      44.065  27.054  33.692  1.00  0.00     0.031 C 
ATOM     63  C   UNL A   1      44.598  25.140  32.055  1.00  0.00     0.034 A 
BRANCH  50  64
ATOM     64  C   UNL A   1      42.422  22.041  27.291  1.00  0.00     0.023 A 
ATOM     65  C   UNL A   1      41.428  21.066  27.536  1.00  0.00     0.012 A 
ATOM     66  C   UNL A   1      43.385  21.699  26.312  1.00  0.00     0.148 A 
ATOM     67  C   UNL A   1      41.432  19.808  26.918  1.00  0.00     0.002 A 
ATOM     68  C   UNL A   1      43.426  20.425  25.735  1.00  0.00     0.091 A 
ATOM     69  F   UNL A   1      44.243  22.615  25.868  1.00  0.00    -0.205 F 
ATOM     70  C   UNL A   1      42.450  19.476  26.038  1.00  0.00     0.022 A 
BRANCH  68  71
ATOM     71  S   UNL A   1      44.758  19.900  24.635  1.00  0.00     0.127 S 
ATOM     72  O   UNL A   1      45.948  20.300  25.388  1.00  0.00    -0.237 OA
ATOM     73  O   UNL A   1      44.548  18.455  24.555  1.00  0.00    -0.237 OA
ATOM     74  O   UNL A   1      44.571  20.627  23.386  1.00  0.00    -0.744 OA
ENDBRANCH  68  71
ENDBRANCH  50  64
BRANCH  51  75
ATOM     75  C   UNL A   1      41.854  30.512  31.971  1.00  0.00     0.023 A 
ATOM     76  C   UNL A   1      41.704  31.830  31.473  1.00  0.00     0.012 A 
ATOM     77  C   UNL A   1      40.762  29.914  32.622  1.00  0.00     0.148 A 
ATOM     78  C   UNL A   1      40.454  32.449  31.448  1.00  0.00     0.002 A 
ATOM     79  C   UNL A   1      39.525  30.554  32.627  1.00  0.00     0.091 A 
ATOM     80  F   UNL A   1      40.915  28.703  33.171  1.00  0.00    -0.205 F 
ATOM     81  C   UNL A   1      39.354  31.791  31.988  1.00  0.00     0.022 A 
BRANCH  79  82
ATOM     82  S   UNL A   1      38.090  29.762  33.363  1.00  0.00     0.127 S 
ATOM     83  O   UNL A   1      37.001  30.551  32.797  1.00  0.00    -0.237 OA
ATOM     84  O   UNL A   1      38.184  28.393  32.858  1.00  0.00    -0.237 OA
ATOM     85  O   UNL A   1      38.306  29.882  34.798  1.00  0.00    -0.744 OA
ENDBRANCH  79  82
ENDBRANCH  51  75
BRANCH  63  86
ATOM     86  C   UNL A   1      44.945  24.081  33.080  1.00  0.00     0.023 A 
ATOM     87  C   UNL A   1      43.946  23.203  33.548  1.00  0.00     0.012 A 
ATOM     88  C   UNL A   1      46.207  24.021  33.720  1.00  0.00     0.148 A 
ATOM     89  C   UNL A   1      44.198  22.274  34.562  1.00  0.00     0.002 A 
ATOM     90  C   UNL A   1      46.419  23.172  34.802  1.00  0.00     0.091 A 
ATOM     91  F   UNL A   1      47.227  24.749  33.250  1.00  0.00    -0.205 F 
ATOM     92  C   UNL A   1      45.429  22.275  35.205  1.00  0.00     0.022 A 
BRANCH  90  93
ATOM     93  S   UNL A   1      47.899  23.280  35.820  1.00  0.00     0.127 S 
ATOM     94  O   UNL A   1      47.644  22.251  36.831  1.00  0.00    -0.237 OA
ATOM     95  O   UNL A   1      48.950  22.947  34.863  1.00  0.00    -0.237 OA
ATOM     96  O   UNL A   1      47.918  24.639  36.345  1.00  0.00    -0.744 OA
ENDBRANCH  90  93
ENDBRANCH  63  86
ENDBRANCH  37  38
ENDBRANCH  29  32
ENDBRANCH  27  28
ENDBRANCH  26  27
ENDBRANCH  25  26
ENDBRANCH   1  25
TORSDOF 19
ENDMDL
MODEL 3
REMARK VINA RESULT:     -11.8      1.981      2.578
REMARK SMILES Cc1c(Cc2nc(C(C)(C)C)cs2)cccc1C(=O)NCCCCCCNC(=O)c1ccc(-c2c3nc(c(-c4cccc(S(=O)(=O)[O-])c4F)c4ccc([nH]4)c(-c4cccc(S(=O)(=O)[O-])c4F)c4nc(c(-c5cccc(S(=O)(=O)[O-])c5F)c5ccc2[nH]5)C=C4)C=C3)cc1
REMARK SMILES IDX 23 1 22 2 21 3 20 4 18 5 19 6 17 8 1 9 2 10 3 11 14 12 16 13
REMARK SMILES IDX 15 14 4 15 5 16 6 17 13 18 7 19 12 20 8 21 9 22 10 23 11 24
REMARK SMILES IDX 24 25 25 26 26 27 27 28 28 29 29 31 30 32 31 33 92 34 32 35
REMARK SMILES IDX 91 36 33 37 34 38 35 39 85 40 36 41 90 42 84 43 86 44 37 45
REMARK SMILES IDX 89 46 83 47 82 48 38 50 70 51 50 52 69 53 51 54 54 55 68 56
REMARK SMILES IDX 87 57 52 58 53 59 67 61 88 62 55 63 39 64 40 65 48 66 41 67
REMARK SMILES IDX 43 68 49 69 42 70 44 71 45 72 46 73 47 74 71 75 72 76 80 77
REMARK SMILES IDX 73 78 75 79 81 80 74 81 76 82 77 83 78 84 79 85 56 86 57 87
REMARK SMILES IDX 65 88 58 89 60 90 66 91 59 92 61 93 62 94 63 95 64 96
REMARK H PARENT 20 7 27 30 86 49 54 60
REMARK Flexibility Score: inf
ROOT
ATOM      1  C   UNL A   1      31.891  29.703  24.997  1.00  0.00     0.002 C 
ENDROOT
BRANCH   1   2
ATOM      2  C   UNL A   1      32.163  28.331  24.372  1.00  0.00     0.021 C 
BRANCH   2   3
ATOM      3  C   UNL A   1      33.585  28.132  23.830  1.00  0.00     0.116 C 
BRANCH   3   4
ATOM      4  N   UNL A   1      33.522  27.517  22.522  1.00  0.00    -0.352 N 
ATOM      5  C   UNL A   1      33.267  26.244  22.087  1.00  0.00     0.251 C 
ATOM      6  O   UNL A   1      33.386  26.051  20.874  1.00  0.00    -0.269 OA
ATOM      7  H   UNL A   1      33.701  28.148  21.789  1.00  0.00     0.163 HD
BRANCH   5   8
ATOM      8  C   UNL A   1      32.729  25.131  22.935  1.00  0.00     0.043 A 
ATOM      9  C   UNL A   1      34.927  24.130  23.789  1.00  0.00     0.045 C 
ATOM     10  C   UNL A   1      33.429  24.242  23.786  1.00  0.00    -0.035 A 
ATOM     11  C   UNL A   1      32.690  23.331  24.591  1.00  0.00    -0.037 A 
ATOM     12  C   UNL A   1      31.318  23.148  24.338  1.00  0.00     0.004 A 
ATOM     13  C   UNL A   1      31.341  24.939  22.755  1.00  0.00     0.014 A 
ATOM     14  C   UNL A   1      30.649  23.930  23.412  1.00  0.00     0.001 A 
BRANCH  11  15
ATOM     15  C   UNL A   1      33.318  22.521  25.725  1.00  0.00     0.103 C 
BRANCH  15  16
ATOM     16  C   UNL A   1      33.916  21.226  25.225  1.00  0.00     0.097 A 
ATOM     17  N   UNL A   1      33.203  20.243  24.715  1.00  0.00    -0.245 NA
ATOM     18  S   UNL A   1      35.596  20.901  25.372  1.00  0.00    -0.127 S 
ATOM     19  C   UNL A   1      33.982  19.115  24.522  1.00  0.00     0.057 A 
ATOM     20  C   UNL A   1      35.326  19.312  24.785  1.00  0.00     0.091 A 
BRANCH  19  21
ATOM     21  C   UNL A   1      33.302  17.832  24.067  1.00  0.00     0.005 C 
ATOM     22  C   UNL A   1      32.433  18.104  22.827  1.00  0.00     0.017 C 
ATOM     23  C   UNL A   1      34.354  16.756  23.727  1.00  0.00     0.017 C 
ATOM     24  C   UNL A   1      32.395  17.260  25.180  1.00  0.00     0.017 C 
ENDBRANCH  19  21
ENDBRANCH  15  16
ENDBRANCH  11  15
ENDBRANCH   5   8
ENDBRANCH   3   4
ENDBRANCH   2   3
ENDBRANCH   1   2
BRANCH   1  25
ATOM     25  C   UNL A   1      31.861  29.751  26.530  1.00  0.00     0.002 C 
BRANCH  25  26
ATOM     26  C   UNL A   1      32.810  30.758  27.180  1.00  0.00     0.021 C 
BRANCH  26  27
ATOM     27  C   UNL A   1      34.268  30.325  27.168  1.00  0.00     0.116 C 
BRANCH  27  28
ATOM     28  N   UNL A   1      35.172  31.384  27.568  1.00  0.00    -0.352 N 
ATOM     29  C   UNL A   1      36.394  31.322  28.221  1.00  0.00     0.251 C 
ATOM     30  H   UNL A   1      34.870  32.292  27.342  1.00  0.00     0.163 HD
ATOM     31  O   UNL A   1      36.843  32.337  28.705  1.00  0.00    -0.269 OA
BRANCH  29  32
ATOM     32  C   UNL A   1      37.189  30.063  28.176  1.00  0.00     0.039 A 
ATOM     33  C   UNL A   1      37.216  29.284  29.341  1.00  0.00     0.014 A 
ATOM     34  C   UNL A   1      38.055  29.769  27.129  1.00  0.00     0.014 A 
ATOM     35  C   UNL A   1      38.271  28.400  29.558  1.00  0.00     0.010 A 
ATOM     36  C   UNL A   1      39.141  28.957  27.368  1.00  0.00     0.010 A 
ATOM     37  C   UNL A   1      39.288  28.340  28.611  1.00  0.00    -0.014 A 
BRANCH  37  38
ATOM     38  C   UNL A   1      40.560  27.662  28.791  1.00  0.00     0.031 A 
ATOM     39  C   UNL A   1      40.643  26.209  28.566  1.00  0.00     0.074 A 
ATOM     40  C   UNL A   1      41.671  28.412  28.963  1.00  0.00     0.049 A 
ATOM     41  N   UNL A   1      41.680  25.495  28.828  1.00  0.00    -0.248 NA
ATOM     42  C   UNL A   1      39.530  25.443  28.024  1.00  0.00     0.031 C 
ATOM     43  C   UNL A   1      43.061  28.002  28.805  1.00  0.00     0.029 A 
ATOM     44  N   UNL A   1      41.766  29.683  29.540  1.00  0.00    -0.354 N 
ATOM     45  C   UNL A   1      41.480  24.244  28.284  1.00  0.00     0.074 A 
ATOM     46  C   UNL A   1      40.102  24.249  27.855  1.00  0.00     0.031 C 
ATOM     47  C   UNL A   1      43.835  28.825  29.528  1.00  0.00     0.029 A 
ATOM     48  C   UNL A   1      42.937  29.647  30.321  1.00  0.00     0.049 A 
ATOM     49  H   UNL A   1      41.148  30.440  29.424  1.00  0.00     0.167 HD
ATOM     50  C   UNL A   1      42.554  23.412  28.167  1.00  0.00     0.034 A 
ATOM     51  C   UNL A   1      42.914  29.699  31.691  1.00  0.00     0.034 A 
ATOM     52  C   UNL A   1      43.718  23.969  28.881  1.00  0.00     0.049 A 
ATOM     53  C   UNL A   1      43.526  28.467  32.359  1.00  0.00     0.074 A 
ATOM     54  C   UNL A   1      44.832  24.709  28.519  1.00  0.00     0.029 A 
ATOM     55  N   UNL A   1      43.653  24.032  30.261  1.00  0.00    -0.354 N 
ATOM     56  N   UNL A   1      44.029  27.444  31.721  1.00  0.00    -0.248 NA
ATOM     57  C   UNL A   1      43.523  28.258  33.810  1.00  0.00     0.031 C 
ATOM     58  C   UNL A   1      45.378  25.288  29.709  1.00  0.00     0.029 A 
ATOM     59  C   UNL A   1      44.619  24.869  30.789  1.00  0.00     0.049 A 
ATOM     60  H   UNL A   1      42.996  23.540  30.803  1.00  0.00     0.167 HD
ATOM     61  C   UNL A   1      44.249  26.418  32.602  1.00  0.00     0.074 A 
ATOM     62  C   UNL A   1      43.955  26.990  33.905  1.00  0.00     0.031 C 
ATOM     63  C   UNL A   1      44.585  25.148  32.220  1.00  0.00     0.034 A 
BRANCH  50  64
ATOM     64  C   UNL A   1      42.650  22.192  27.265  1.00  0.00     0.023 A 
ATOM     65  C   UNL A   1      41.749  21.133  27.523  1.00  0.00     0.012 A 
ATOM     66  C   UNL A   1      43.587  21.958  26.231  1.00  0.00     0.148 A 
ATOM     67  C   UNL A   1      41.821  19.899  26.863  1.00  0.00     0.002 A 
ATOM     68  C   UNL A   1      43.700  20.711  25.609  1.00  0.00     0.091 A 
ATOM     69  F   UNL A   1      44.347  22.954  25.779  1.00  0.00    -0.205 F 
ATOM     70  C   UNL A   1      42.818  19.677  25.925  1.00  0.00     0.022 A 
BRANCH  68  71
ATOM     71  S   UNL A   1      45.012  20.328  24.431  1.00  0.00     0.127 S 
ATOM     72  O   UNL A   1      44.705  21.241  23.328  1.00  0.00    -0.237 OA
ATOM     73  O   UNL A   1      46.219  20.668  25.182  1.00  0.00    -0.237 OA
ATOM     74  O   UNL A   1      44.864  18.917  24.094  1.00  0.00    -0.744 OA
ENDBRANCH  68  71
ENDBRANCH  50  64
BRANCH  51  75
ATOM     75  C   UNL A   1      41.746  30.470  32.229  1.00  0.00     0.023 A 
ATOM     76  C   UNL A   1      40.515  29.777  32.345  1.00  0.00     0.012 A 
ATOM     77  C   UNL A   1      41.915  31.660  32.957  1.00  0.00     0.148 A 
ATOM     78  C   UNL A   1      39.570  30.150  33.302  1.00  0.00     0.002 A 
ATOM     79  C   UNL A   1      40.950  32.047  33.884  1.00  0.00     0.091 A 
ATOM     80  F   UNL A   1      43.038  32.369  32.793  1.00  0.00    -0.205 F 
ATOM     81  C   UNL A   1      39.809  31.262  34.103  1.00  0.00     0.022 A 
BRANCH  79  82
ATOM     82  S   UNL A   1      41.195  33.509  34.899  1.00  0.00     0.127 S 
ATOM     83  O   UNL A   1      39.932  33.570  35.628  1.00  0.00    -0.237 OA
ATOM     84  O   UNL A   1      42.356  33.146  35.711  1.00  0.00    -0.237 OA
ATOM     85  O   UNL A   1      41.449  34.576  33.943  1.00  0.00    -0.744 OA
ENDBRANCH  79  82
ENDBRANCH  51  75
BRANCH  63  86
ATOM     86  C   UNL A   1      44.913  24.058  33.218  1.00  0.00     0.023 A 
ATOM     87  C   UNL A   1      43.903  23.174  33.649  1.00  0.00     0.012 A 
ATOM     88  C   UNL A   1      46.167  23.970  33.870  1.00  0.00     0.148 A 
ATOM     89  C   UNL A   1      44.137  22.214  34.638  1.00  0.00     0.002 A 
ATOM     90  C   UNL A   1      46.362  23.089  34.929  1.00  0.00     0.091 A 
ATOM     91  F   UNL A   1      47.197  24.703  33.433  1.00  0.00    -0.205 F 
ATOM     92  C   UNL A   1      45.360  22.187  35.295  1.00  0.00     0.022 A 
BRANCH  90  93
ATOM     93  S   UNL A   1      47.830  23.157  35.967  1.00  0.00     0.127 S 
ATOM     94  O   UNL A   1      47.629  24.415  36.691  1.00  0.00    -0.237 OA
ATOM     95  O   UNL A   1      47.681  21.954  36.781  1.00  0.00    -0.237 OA
ATOM     96  O   UNL A   1      48.961  23.173  35.049  1.00  0.00    -0.744 OA
ENDBRANCH  90  93
ENDBRANCH  63  86
ENDBRANCH  37  38
ENDBRANCH  29  32
ENDBRANCH  27  28
ENDBRANCH  26  27
ENDBRANCH  25  26
ENDBRANCH   1  25
TORSDOF 19
ENDMDL
