MODEL 1
REMARK VINA RESULT:     -12.4      0.000      0.000
REMARK SMILES Cc1cccc(C(=O)NCCCCCCNC(=O)c2ccc(-c3c4nc(c(-c5cccc(S(=O)(=O)[O-])c5F)c5ccc([nH]5)c(-c5cccc(S(=O)(=O)[O-])c5F)c5nc(c(-c6cccc(S(=O)(=O)[O-])c6F)c6ccc3[nH]6)C=C5)C=C4)cc2)c1OC[C@@H]1C[C@H]2CC[C@@H]1C2
REMARK SMILES IDX 12 1 11 2 10 3 9 4 7 5 8 6 6 8 1 9 2 10 3 11 82 12 4 13 5 14
REMARK SMILES IDX 83 15 84 16 85 17 86 18 90 19 87 20 89 21 91 22 88 23 13 24
REMARK SMILES IDX 14 25 15 26 16 27 17 28 18 30 19 31 20 32 81 33 21 34 80 35
REMARK SMILES IDX 22 36 23 37 24 38 74 39 25 40 79 41 73 42 75 43 26 44 78 45
REMARK SMILES IDX 72 46 71 47 27 49 59 50 39 51 58 52 40 53 43 54 57 55 76 56
REMARK SMILES IDX 41 57 42 58 56 60 77 61 44 62 28 63 29 64 37 65 30 66 32 67
REMARK SMILES IDX 38 68 31 69 33 70 34 71 35 72 36 73 60 74 61 75 69 76 62 77
REMARK SMILES IDX 64 78 70 79 63 80 65 81 66 82 67 83 68 84 45 85 46 86 54 87
REMARK SMILES IDX 47 88 49 89 55 90 48 91 50 92 51 93 52 94 53 95
REMARK H PARENT 9 7 16 29 75 48 43 59
REMARK Flexibility Score: inf
ROOT
ATOM      1  C   UNL A   1      34.575  22.276  24.627  1.00  0.00     0.002 C 
ENDROOT
BRANCH   1   2
ATOM      2  C   UNL A   1      33.492  22.602  25.665  1.00  0.00     0.021 C 
BRANCH   2   3
ATOM      3  C   UNL A   1      33.341  24.096  25.972  1.00  0.00     0.116 C 
BRANCH   3   4
ATOM      4  N   UNL A   1      31.956  24.414  26.178  1.00  0.00    -0.352 N 
ATOM      5  C   UNL A   1      31.268  25.590  26.184  1.00  0.00     0.255 C 
ATOM      6  O   UNL A   1      30.070  25.484  26.480  1.00  0.00    -0.269 OA
ATOM      7  H   UNL A   1      31.392  23.626  26.350  1.00  0.00     0.163 HD
BRANCH   5   8
ATOM      8  C   UNL A   1      31.777  26.949  25.799  1.00  0.00     0.082 A 
ATOM      9  C   UNL A   1      33.582  29.017  23.133  1.00  0.00     0.048 C 
ATOM     10  C   UNL A   1      32.876  28.609  24.400  1.00  0.00    -0.008 A 
ATOM     11  C   UNL A   1      33.327  29.274  25.559  1.00  0.00     0.007 A 
ATOM     12  C   UNL A   1      31.994  27.507  24.512  1.00  0.00     0.134 A 
ATOM     13  C   UNL A   1      33.004  28.812  26.821  1.00  0.00     0.001 A 
ATOM     14  C   UNL A   1      32.268  27.643  26.934  1.00  0.00     0.018 A 
BRANCH  12  15
ATOM     15  O   UNL A   1      31.468  26.892  23.413  1.00  0.00    -0.492 OA
BRANCH  15  16
ATOM     16  C   UNL A   1      30.285  27.408  22.747  1.00  0.00     0.233 C 
BRANCH  16  17
ATOM     17  C   UNL A   1      29.485  28.559  23.410  1.00  0.00     0.030 C 
ATOM     18  C   UNL A   1      27.959  28.491  23.093  1.00  0.00     0.011 C 
ATOM     19  C   UNL A   1      29.828  29.959  22.823  1.00  0.00    -0.004 C 
ATOM     20  C   UNL A   1      27.637  29.869  22.483  1.00  0.00    -0.010 C 
ATOM     21  C   UNL A   1      29.288  31.040  23.775  1.00  0.00     0.004 C 
ATOM     22  C   UNL A   1      28.876  30.104  21.632  1.00  0.00     0.007 C 
ATOM     23  C   UNL A   1      27.773  30.960  23.557  1.00  0.00     0.004 C 
ENDBRANCH  16  17
ENDBRANCH  15  16
ENDBRANCH  12  15
ENDBRANCH   5   8
ENDBRANCH   3   4
ENDBRANCH   2   3
ENDBRANCH   1   2
BRANCH   1  24
ATOM     24  C   UNL A   1      35.784  21.480  25.145  1.00  0.00     0.002 C 
BRANCH  24  25
ATOM     25  C   UNL A   1      36.829  22.285  25.922  1.00  0.00     0.021 C 
BRANCH  25  26
ATOM     26  C   UNL A   1      38.095  22.572  25.129  1.00  0.00     0.116 C 
BRANCH  26  27
ATOM     27  N   UNL A   1      39.301  22.250  25.874  1.00  0.00    -0.352 N 
ATOM     28  C   UNL A   1      40.207  23.094  26.483  1.00  0.00     0.251 C 
ATOM     29  H   UNL A   1      39.500  21.289  25.958  1.00  0.00     0.163 HD
ATOM     30  O   UNL A   1      41.298  22.654  26.839  1.00  0.00    -0.269 OA
BRANCH  28  31
ATOM     31  C   UNL A   1      39.785  24.470  26.823  1.00  0.00     0.039 A 
ATOM     32  C   UNL A   1      40.502  25.516  26.230  1.00  0.00     0.014 A 
ATOM     33  C   UNL A   1      38.930  24.712  27.894  1.00  0.00     0.014 A 
ATOM     34  C   UNL A   1      40.570  26.749  26.870  1.00  0.00     0.010 A 
ATOM     35  C   UNL A   1      39.054  25.903  28.573  1.00  0.00     0.010 A 
ATOM     36  C   UNL A   1      39.930  26.886  28.096  1.00  0.00    -0.014 A 
BRANCH  36  37
ATOM     37  C   UNL A   1      40.138  27.998  29.003  1.00  0.00     0.031 A 
ATOM     38  C   UNL A   1      39.262  29.173  28.936  1.00  0.00     0.074 A 
ATOM     39  C   UNL A   1      41.013  27.847  30.021  1.00  0.00     0.049 A 
ATOM     40  N   UNL A   1      39.554  30.308  29.468  1.00  0.00    -0.248 NA
ATOM     41  C   UNL A   1      37.978  29.158  28.246  1.00  0.00     0.031 C 
ATOM     42  C   UNL A   1      41.079  28.624  31.252  1.00  0.00     0.029 A 
ATOM     43  N   UNL A   1      42.165  27.055  30.054  1.00  0.00    -0.354 N 
ATOM     44  C   UNL A   1      38.410  31.071  29.448  1.00  0.00     0.074 A 
ATOM     45  C   UNL A   1      37.484  30.346  28.608  1.00  0.00     0.031 C 
ATOM     46  C   UNL A   1      42.305  28.490  31.780  1.00  0.00     0.029 A 
ATOM     47  C   UNL A   1      43.111  27.770  30.811  1.00  0.00     0.049 A 
ATOM     48  H   UNL A   1      42.289  26.174  29.633  1.00  0.00     0.167 HD
ATOM     49  C   UNL A   1      38.322  32.148  30.276  1.00  0.00     0.034 A 
ATOM     50  C   UNL A   1      44.315  28.182  30.315  1.00  0.00     0.034 A 
ATOM     51  C   UNL A   1      39.553  32.316  31.062  1.00  0.00     0.049 A 
ATOM     52  C   UNL A   1      44.493  29.696  30.350  1.00  0.00     0.074 A 
ATOM     53  C   UNL A   1      39.927  31.978  32.354  1.00  0.00     0.029 A 
ATOM     54  N   UNL A   1      40.726  32.648  30.404  1.00  0.00    -0.354 N 
ATOM     55  N   UNL A   1      43.653  30.542  30.881  1.00  0.00    -0.248 NA
ATOM     56  C   UNL A   1      45.602  30.375  29.684  1.00  0.00     0.031 C 
ATOM     57  C   UNL A   1      41.342  32.113  32.463  1.00  0.00     0.029 A 
ATOM     58  C   UNL A   1      41.826  32.554  31.245  1.00  0.00     0.049 A 
ATOM     59  H   UNL A   1      40.773  32.916  29.458  1.00  0.00     0.167 HD
ATOM     60  C   UNL A   1      43.972  31.823  30.491  1.00  0.00     0.074 A 
ATOM     61  C   UNL A   1      45.230  31.662  29.779  1.00  0.00     0.031 C 
ATOM     62  C   UNL A   1      43.139  32.895  30.709  1.00  0.00     0.034 A 
BRANCH  49  63
ATOM     63  C   UNL A   1      37.020  32.854  30.601  1.00  0.00     0.023 A 
ATOM     64  C   UNL A   1      36.534  32.746  31.922  1.00  0.00     0.012 A 
ATOM     65  C   UNL A   1      36.209  33.576  29.695  1.00  0.00     0.148 A 
ATOM     66  C   UNL A   1      35.275  33.219  32.301  1.00  0.00     0.002 A 
ATOM     67  C   UNL A   1      34.918  33.983  30.051  1.00  0.00     0.091 A 
ATOM     68  F   UNL A   1      36.706  33.939  28.507  1.00  0.00    -0.205 F 
ATOM     69  C   UNL A   1      34.449  33.802  31.356  1.00  0.00     0.022 A 
BRANCH  67  70
ATOM     70  S   UNL A   1      33.744  34.643  28.855  1.00  0.00     0.127 S 
ATOM     71  O   UNL A   1      34.460  35.811  28.333  1.00  0.00    -0.237 OA
ATOM     72  O   UNL A   1      33.605  33.544  27.903  1.00  0.00    -0.237 OA
ATOM     73  O   UNL A   1      32.546  34.981  29.614  1.00  0.00    -0.744 OA
ENDBRANCH  67  70
ENDBRANCH  49  63
BRANCH  50  74
ATOM     74  C   UNL A   1      44.858  27.266  29.266  1.00  0.00     0.023 A 
ATOM     75  C   UNL A   1      45.187  25.950  29.673  1.00  0.00     0.012 A 
ATOM     76  C   UNL A   1      44.674  27.525  27.897  1.00  0.00     0.148 A 
ATOM     77  C   UNL A   1      45.190  24.895  28.758  1.00  0.00     0.002 A 
ATOM     78  C   UNL A   1      44.683  26.467  26.989  1.00  0.00     0.091 A 
ATOM     79  F   UNL A   1      44.407  28.778  27.509  1.00  0.00    -0.205 F 
ATOM     80  C   UNL A   1      44.900  25.150  27.422  1.00  0.00     0.022 A 
BRANCH  78  81
ATOM     81  S   UNL A   1      44.274  26.723  25.259  1.00  0.00     0.127 S 
ATOM     82  O   UNL A   1      45.591  26.981  24.684  1.00  0.00    -0.237 OA
ATOM     83  O   UNL A   1      43.678  25.442  24.883  1.00  0.00    -0.237 OA
ATOM     84  O   UNL A   1      43.338  27.838  25.260  1.00  0.00    -0.744 OA
ENDBRANCH  78  81
ENDBRANCH  50  74
BRANCH  62  85
ATOM     85  C   UNL A   1      43.424  34.353  30.337  1.00  0.00     0.023 A 
ATOM     86  C   UNL A   1      43.551  35.367  31.302  1.00  0.00     0.012 A 
ATOM     87  C   UNL A   1      43.508  34.783  28.981  1.00  0.00     0.148 A 
ATOM     88  C   UNL A   1      43.907  36.682  30.965  1.00  0.00     0.002 A 
ATOM     89  C   UNL A   1      43.866  36.086  28.644  1.00  0.00     0.091 A 
ATOM     90  F   UNL A   1      43.164  33.956  27.988  1.00  0.00    -0.205 F 
ATOM     91  C   UNL A   1      44.098  37.034  29.637  1.00  0.00     0.022 A 
BRANCH  89  92
ATOM     92  S   UNL A   1      44.052  36.607  26.930  1.00  0.00     0.127 S 
ATOM     93  O   UNL A   1      44.823  35.498  26.368  1.00  0.00    -0.237 OA
ATOM     94  O   UNL A   1      42.662  36.674  26.479  1.00  0.00    -0.237 OA
ATOM     95  O   UNL A   1      44.732  37.893  26.977  1.00  0.00    -0.744 OA
ENDBRANCH  89  92
ENDBRANCH  62  85
ENDBRANCH  36  37
ENDBRANCH  28  31
ENDBRANCH  26  27
ENDBRANCH  25  26
ENDBRANCH  24  25
ENDBRANCH   1  24
TORSDOF 19
ENDMDL
MODEL 2
REMARK VINA RESULT:     -12.3      4.216     10.156
REMARK SMILES Cc1cccc(C(=O)NCCCCCCNC(=O)c2ccc(-c3c4nc(c(-c5cccc(S(=O)(=O)[O-])c5F)c5ccc([nH]5)c(-c5cccc(S(=O)(=O)[O-])c5F)c5nc(c(-c6cccc(S(=O)(=O)[O-])c6F)c6ccc3[nH]6)C=C5)C=C4)cc2)c1OC[C@@H]1C[C@H]2CC[C@@H]1C2
REMARK SMILES IDX 12 1 11 2 10 3 9 4 7 5 8 6 6 8 1 9 2 10 3 11 82 12 4 13 5 14
REMARK SMILES IDX 83 15 84 16 85 17 86 18 90 19 87 20 89 21 91 22 88 23 13 24
REMARK SMILES IDX 14 25 15 26 16 27 17 28 18 30 19 31 20 32 81 33 21 34 80 35
REMARK SMILES IDX 22 36 23 37 24 38 74 39 25 40 79 41 73 42 75 43 26 44 78 45
REMARK SMILES IDX 72 46 71 47 27 49 59 50 39 51 58 52 40 53 43 54 57 55 76 56
REMARK SMILES IDX 41 57 42 58 56 60 77 61 44 62 28 63 29 64 37 65 30 66 32 67
REMARK SMILES IDX 38 68 31 69 33 70 34 71 35 72 36 73 60 74 61 75 69 76 62 77
REMARK SMILES IDX 64 78 70 79 63 80 65 81 66 82 67 83 68 84 45 85 46 86 54 87
REMARK SMILES IDX 47 88 49 89 55 90 48 91 50 92 51 93 52 94 53 95
REMARK H PARENT 9 7 16 29 75 48 43 59
REMARK Flexibility Score: inf
ROOT
ATOM      1  C   UNL A   1      33.275  27.265  25.589  1.00  0.00     0.002 C 
ENDROOT
BRANCH   1   2
ATOM      2  C   UNL A   1      31.894  26.843  26.111  1.00  0.00     0.021 C 
BRANCH   2   3
ATOM      3  C   UNL A   1      31.774  25.353  26.449  1.00  0.00     0.116 C 
BRANCH   3   4
ATOM      4  N   UNL A   1      31.125  24.659  25.372  1.00  0.00    -0.352 N 
ATOM      5  C   UNL A   1      31.594  23.874  24.362  1.00  0.00     0.255 C 
ATOM      6  O   UNL A   1      30.729  23.501  23.557  1.00  0.00    -0.269 OA
ATOM      7  H   UNL A   1      30.148  24.774  25.361  1.00  0.00     0.163 HD
BRANCH   5   8
ATOM      8  C   UNL A   1      32.993  23.361  24.176  1.00  0.00     0.082 A 
ATOM      9  C   UNL A   1      35.860  21.351  25.721  1.00  0.00     0.048 C 
ATOM     10  C   UNL A   1      35.041  22.193  24.776  1.00  0.00    -0.008 A 
ATOM     11  C   UNL A   1      35.786  23.146  24.050  1.00  0.00     0.007 A 
ATOM     12  C   UNL A   1      33.626  22.225  24.744  1.00  0.00     0.134 A 
ATOM     13  C   UNL A   1      35.163  24.182  23.379  1.00  0.00     0.001 A 
ATOM     14  C   UNL A   1      33.785  24.303  23.474  1.00  0.00     0.018 A 
BRANCH  12  15
ATOM     15  O   UNL A   1      32.871  21.271  25.363  1.00  0.00    -0.492 OA
BRANCH  15  16
ATOM     16  C   UNL A   1      32.478  20.052  24.678  1.00  0.00     0.233 C 
BRANCH  16  17
ATOM     17  C   UNL A   1      33.065  18.696  25.150  1.00  0.00     0.030 C 
ATOM     18  C   UNL A   1      34.517  18.457  24.633  1.00  0.00     0.011 C 
ATOM     19  C   UNL A   1      32.343  17.467  24.524  1.00  0.00    -0.004 C 
ATOM     20  C   UNL A   1      34.441  17.106  23.897  1.00  0.00    -0.010 C 
ATOM     21  C   UNL A   1      32.728  16.209  25.322  1.00  0.00     0.004 C 
ATOM     22  C   UNL A   1      33.089  17.229  23.209  1.00  0.00     0.007 C 
ATOM     23  C   UNL A   1      34.185  15.975  24.906  1.00  0.00     0.004 C 
ENDBRANCH  16  17
ENDBRANCH  15  16
ENDBRANCH  12  15
ENDBRANCH   5   8
ENDBRANCH   3   4
ENDBRANCH   2   3
ENDBRANCH   1   2
BRANCH   1  24
ATOM     24  C   UNL A   1      34.087  28.190  26.511  1.00  0.00     0.002 C 
BRANCH  24  25
ATOM     25  C   UNL A   1      33.787  29.686  26.386  1.00  0.00     0.021 C 
BRANCH  25  26
ATOM     26  C   UNL A   1      33.779  30.421  27.718  1.00  0.00     0.116 C 
BRANCH  26  27
ATOM     27  N   UNL A   1      34.753  31.500  27.761  1.00  0.00    -0.352 N 
ATOM     28  C   UNL A   1      36.072  31.473  28.164  1.00  0.00     0.251 C 
ATOM     29  H   UNL A   1      34.424  32.377  27.458  1.00  0.00     0.163 HD
ATOM     30  O   UNL A   1      36.661  32.532  28.378  1.00  0.00    -0.269 OA
BRANCH  28  31
ATOM     31  C   UNL A   1      36.788  30.179  28.186  1.00  0.00     0.039 A 
ATOM     32  C   UNL A   1      36.942  29.563  29.434  1.00  0.00     0.014 A 
ATOM     33  C   UNL A   1      37.523  29.749  27.086  1.00  0.00     0.014 A 
ATOM     34  C   UNL A   1      38.013  28.701  29.645  1.00  0.00     0.010 A 
ATOM     35  C   UNL A   1      38.629  28.959  27.306  1.00  0.00     0.010 A 
ATOM     36  C   UNL A   1      38.907  28.501  28.600  1.00  0.00    -0.014 A 
BRANCH  36  37
ATOM     37  C   UNL A   1      40.203  27.867  28.747  1.00  0.00     0.031 A 
ATOM     38  C   UNL A   1      40.344  26.425  28.512  1.00  0.00     0.074 A 
ATOM     39  C   UNL A   1      41.292  28.650  28.909  1.00  0.00     0.049 A 
ATOM     40  N   UNL A   1      41.354  25.736  28.913  1.00  0.00    -0.248 NA
ATOM     41  C   UNL A   1      39.338  25.641  27.808  1.00  0.00     0.031 C 
ATOM     42  C   UNL A   1      42.682  28.290  28.666  1.00  0.00     0.029 A 
ATOM     43  N   UNL A   1      41.365  29.904  29.521  1.00  0.00    -0.354 N 
ATOM     44  C   UNL A   1      41.283  24.512  28.291  1.00  0.00     0.074 A 
ATOM     45  C   UNL A   1      39.973  24.472  27.680  1.00  0.00     0.031 C 
ATOM     46  C   UNL A   1      43.470  29.135  29.346  1.00  0.00     0.029 A 
ATOM     47  C   UNL A   1      42.606  29.945  30.184  1.00  0.00     0.049 A 
ATOM     48  H   UNL A   1      40.685  30.615  29.495  1.00  0.00     0.167 HD
ATOM     49  C   UNL A   1      42.402  23.740  28.225  1.00  0.00     0.034 A 
ATOM     50  C   UNL A   1      42.733  30.111  31.533  1.00  0.00     0.034 A 
ATOM     51  C   UNL A   1      43.536  24.389  28.899  1.00  0.00     0.049 A 
ATOM     52  C   UNL A   1      43.436  28.944  32.218  1.00  0.00     0.074 A 
ATOM     53  C   UNL A   1      44.623  25.130  28.461  1.00  0.00     0.029 A 
ATOM     54  N   UNL A   1      43.482  24.572  30.272  1.00  0.00    -0.354 N 
ATOM     55  N   UNL A   1      43.967  27.920  31.608  1.00  0.00    -0.248 NA
ATOM     56  C   UNL A   1      43.496  28.804  33.671  1.00  0.00     0.031 C 
ATOM     57  C   UNL A   1      45.223  25.760  29.591  1.00  0.00     0.029 A 
ATOM     58  C   UNL A   1      44.515  25.385  30.718  1.00  0.00     0.049 A 
ATOM     59  H   UNL A   1      42.797  24.176  30.857  1.00  0.00     0.167 HD
ATOM     60  C   UNL A   1      44.257  26.932  32.521  1.00  0.00     0.074 A 
ATOM     61  C   UNL A   1      43.983  27.559  33.804  1.00  0.00     0.031 C 
ATOM     62  C   UNL A   1      44.613  25.658  32.147  1.00  0.00     0.034 A 
BRANCH  49  63
ATOM     63  C   UNL A   1      42.552  22.554  27.292  1.00  0.00     0.023 A 
ATOM     64  C   UNL A   1      41.814  21.390  27.597  1.00  0.00     0.012 A 
ATOM     65  C   UNL A   1      43.402  22.476  26.164  1.00  0.00     0.148 A 
ATOM     66  C   UNL A   1      41.985  20.188  26.905  1.00  0.00     0.002 A 
ATOM     67  C   UNL A   1      43.632  21.256  25.519  1.00  0.00     0.091 A 
ATOM     68  F   UNL A   1      43.937  23.595  25.661  1.00  0.00    -0.205 F 
ATOM     69  C   UNL A   1      42.925  20.109  25.892  1.00  0.00     0.022 A 
BRANCH  67  70
ATOM     70  S   UNL A   1      44.916  21.045  24.273  1.00  0.00     0.127 S 
ATOM     71  O   UNL A   1      44.708  19.657  23.849  1.00  0.00    -0.237 OA
ATOM     72  O   UNL A   1      44.554  22.043  23.270  1.00  0.00    -0.237 OA
ATOM     73  O   UNL A   1      46.182  21.265  24.961  1.00  0.00    -0.744 OA
ENDBRANCH  67  70
ENDBRANCH  49  63
BRANCH  50  74
ATOM     74  C   UNL A   1      41.635  30.935  32.126  1.00  0.00     0.023 A 
ATOM     75  C   UNL A   1      41.506  32.265  31.655  1.00  0.00     0.012 A 
ATOM     76  C   UNL A   1      40.544  30.343  32.785  1.00  0.00     0.148 A 
ATOM     77  C   UNL A   1      40.281  32.931  31.711  1.00  0.00     0.002 A 
ATOM     78  C   UNL A   1      39.325  31.015  32.841  1.00  0.00     0.091 A 
ATOM     79  F   UNL A   1      40.682  29.102  33.268  1.00  0.00    -0.205 F 
ATOM     80  C   UNL A   1      39.181  32.290  32.271  1.00  0.00     0.022 A 
BRANCH  78  81
ATOM     81  S   UNL A   1      37.857  30.227  33.511  1.00  0.00     0.127 S 
ATOM     82  O   UNL A   1      38.177  30.178  34.934  1.00  0.00    -0.237 OA
ATOM     83  O   UNL A   1      36.800  31.170  33.149  1.00  0.00    -0.237 OA
ATOM     84  O   UNL A   1      37.776  28.947  32.820  1.00  0.00    -0.744 OA
ENDBRANCH  78  81
ENDBRANCH  50  74
BRANCH  62  85
ATOM     85  C   UNL A   1      44.979  24.507  33.090  1.00  0.00     0.023 A 
ATOM     86  C   UNL A   1      44.052  23.526  33.479  1.00  0.00     0.012 A 
ATOM     87  C   UNL A   1      46.270  24.403  33.687  1.00  0.00     0.148 A 
ATOM     88  C   UNL A   1      44.415  22.421  34.265  1.00  0.00     0.002 A 
ATOM     89  C   UNL A   1      46.634  23.305  34.462  1.00  0.00     0.091 A 
ATOM     90  F   UNL A   1      47.145  25.407  33.580  1.00  0.00    -0.205 F 
ATOM     91  C   UNL A   1      45.716  22.293  34.729  1.00  0.00     0.022 A 
BRANCH  89  92
ATOM     92  S   UNL A   1      48.290  23.134  35.148  1.00  0.00     0.127 S 
ATOM     93  O   UNL A   1      48.334  24.252  36.090  1.00  0.00    -0.237 OA
ATOM     94  O   UNL A   1      48.226  21.812  35.773  1.00  0.00    -0.237 OA
ATOM     95  O   UNL A   1      49.200  23.221  34.015  1.00  0.00    -0.744 OA
ENDBRANCH  89  92
ENDBRANCH  62  85
ENDBRANCH  36  37
ENDBRANCH  28  31
ENDBRANCH  26  27
ENDBRANCH  25  26
ENDBRANCH  24  25
ENDBRANCH   1  24
TORSDOF 19
ENDMDL
MODEL 3
REMARK VINA RESULT:     -12.3      3.804      9.040
REMARK SMILES Cc1cccc(C(=O)NCCCCCCNC(=O)c2ccc(-c3c4nc(c(-c5cccc(S(=O)(=O)[O-])c5F)c5ccc([nH]5)c(-c5cccc(S(=O)(=O)[O-])c5F)c5nc(c(-c6cccc(S(=O)(=O)[O-])c6F)c6ccc3[nH]6)C=C5)C=C4)cc2)c1OC[C@@H]1C[C@H]2CC[C@@H]1C2
REMARK SMILES IDX 12 1 11 2 10 3 9 4 7 5 8 6 6 8 1 9 2 10 3 11 82 12 4 13 5 14
REMARK SMILES IDX 83 15 84 16 85 17 86 18 90 19 87 20 89 21 91 22 88 23 13 24
REMARK SMILES IDX 14 25 15 26 16 27 17 28 18 30 19 31 20 32 81 33 21 34 80 35
REMARK SMILES IDX 22 36 23 37 24 38 74 39 25 40 79 41 73 42 75 43 26 44 78 45
REMARK SMILES IDX 72 46 71 47 27 49 59 50 39 51 58 52 40 53 43 54 57 55 76 56
REMARK SMILES IDX 41 57 42 58 56 60 77 61 44 62 28 63 29 64 37 65 30 66 32 67
REMARK SMILES IDX 38 68 31 69 33 70 34 71 35 72 36 73 60 74 61 75 69 76 62 77
REMARK SMILES IDX 64 78 70 79 63 80 65 81 66 82 67 83 68 84 45 85 46 86 54 87
REMARK SMILES IDX 47 88 49 89 55 90 48 91 50 92 51 93 52 94 53 95
REMARK H PARENT 9 7 16 29 75 48 43 59
REMARK Flexibility Score: inf
ROOT
ATOM      1  C   UNL A   1      33.877  28.360  25.214  1.00  0.00     0.002 C 
ENDROOT
BRANCH   1   2
ATOM      2  C   UNL A   1      34.351  28.726  23.800  1.00  0.00     0.021 C 
BRANCH   2   3
ATOM      3  C   UNL A   1      33.220  28.928  22.787  1.00  0.00     0.116 C 
BRANCH   3   4
ATOM      4  N   UNL A   1      33.247  27.878  21.808  1.00  0.00    -0.352 N 
ATOM      5  C   UNL A   1      32.998  26.541  21.878  1.00  0.00     0.255 C 
ATOM      6  O   UNL A   1      33.201  25.923  20.823  1.00  0.00    -0.269 OA
ATOM      7  H   UNL A   1      33.495  28.186  20.907  1.00  0.00     0.163 HD
BRANCH   5   8
ATOM      8  C   UNL A   1      32.442  25.774  23.043  1.00  0.00     0.082 A 
ATOM      9  C   UNL A   1      29.934  25.784  25.934  1.00  0.00     0.048 C 
ATOM     10  C   UNL A   1      31.025  25.370  24.979  1.00  0.00    -0.008 A 
ATOM     11  C   UNL A   1      32.062  24.618  25.570  1.00  0.00     0.007 A 
ATOM     12  C   UNL A   1      31.164  25.854  23.655  1.00  0.00     0.134 A 
ATOM     13  C   UNL A   1      33.264  24.421  24.917  1.00  0.00     0.001 A 
ATOM     14  C   UNL A   1      33.459  25.024  23.684  1.00  0.00     0.018 A 
BRANCH  12  15
ATOM     15  O   UNL A   1      30.151  26.511  23.020  1.00  0.00    -0.492 OA
BRANCH  15  16
ATOM     16  C   UNL A   1      29.527  27.688  23.600  1.00  0.00     0.233 C 
BRANCH  16  17
ATOM     17  C   UNL A   1      29.466  28.997  22.772  1.00  0.00     0.030 C 
ATOM     18  C   UNL A   1      29.813  30.261  23.619  1.00  0.00     0.011 C 
ATOM     19  C   UNL A   1      28.025  29.362  22.310  1.00  0.00    -0.004 C 
ATOM     20  C   UNL A   1      28.595  31.187  23.436  1.00  0.00    -0.010 C 
ATOM     21  C   UNL A   1      28.115  30.431  21.207  1.00  0.00     0.004 C 
ATOM     22  C   UNL A   1      27.457  30.177  23.474  1.00  0.00     0.007 C 
ATOM     23  C   UNL A   1      28.532  31.685  21.983  1.00  0.00     0.004 C 
ENDBRANCH  16  17
ENDBRANCH  15  16
ENDBRANCH  12  15
ENDBRANCH   5   8
ENDBRANCH   3   4
ENDBRANCH   2   3
ENDBRANCH   1   2
BRANCH   1  24
ATOM     24  C   UNL A   1      32.483  28.874  25.609  1.00  0.00     0.002 C 
BRANCH  24  25
ATOM     25  C   UNL A   1      32.455  30.178  26.411  1.00  0.00     0.021 C 
BRANCH  25  26
ATOM     26  C   UNL A   1      33.315  30.144  27.665  1.00  0.00     0.116 C 
BRANCH  26  27
ATOM     27  N   UNL A   1      34.100  31.356  27.832  1.00  0.00    -0.352 N 
ATOM     28  C   UNL A   1      35.347  31.522  28.398  1.00  0.00     0.251 C 
ATOM     29  H   UNL A   1      33.681  32.179  27.490  1.00  0.00     0.163 HD
ATOM     30  O   UNL A   1      35.736  32.653  28.685  1.00  0.00    -0.269 OA
BRANCH  28  31
ATOM     31  C   UNL A   1      36.244  30.351  28.509  1.00  0.00     0.039 A 
ATOM     32  C   UNL A   1      36.636  29.975  29.799  1.00  0.00     0.014 A 
ATOM     33  C   UNL A   1      36.897  29.841  27.391  1.00  0.00     0.014 A 
ATOM     34  C   UNL A   1      37.840  29.304  29.980  1.00  0.00     0.010 A 
ATOM     35  C   UNL A   1      38.126  29.246  27.566  1.00  0.00     0.010 A 
ATOM     36  C   UNL A   1      38.622  29.049  28.860  1.00  0.00    -0.014 A 
BRANCH  36  37
ATOM     37  C   UNL A   1      40.006  28.617  28.914  1.00  0.00     0.031 A 
ATOM     38  C   UNL A   1      40.340  27.201  28.727  1.00  0.00     0.074 A 
ATOM     39  C   UNL A   1      40.975  29.557  28.943  1.00  0.00     0.049 A 
ATOM     40  N   UNL A   1      41.472  26.688  29.061  1.00  0.00    -0.248 NA
ATOM     41  C   UNL A   1      39.406  26.242  28.150  1.00  0.00     0.031 C 
ATOM     42  C   UNL A   1      42.378  29.390  28.588  1.00  0.00     0.029 A 
ATOM     43  N   UNL A   1      40.913  30.840  29.494  1.00  0.00    -0.354 N 
ATOM     44  C   UNL A   1      41.532  25.435  28.499  1.00  0.00     0.074 A 
ATOM     45  C   UNL A   1      40.195  25.172  28.013  1.00  0.00     0.031 C 
ATOM     46  C   UNL A   1      43.087  30.376  29.157  1.00  0.00     0.029 A 
ATOM     47  C   UNL A   1      42.185  31.097  30.037  1.00  0.00     0.049 A 
ATOM     48  H   UNL A   1      40.134  31.443  29.501  1.00  0.00     0.167 HD
ATOM     49  C   UNL A   1      42.744  24.830  28.362  1.00  0.00     0.034 A 
ATOM     50  C   UNL A   1      42.400  31.351  31.361  1.00  0.00     0.034 A 
ATOM     51  C   UNL A   1      43.821  25.672  28.902  1.00  0.00     0.049 A 
ATOM     52  C   UNL A   1      43.324  30.338  32.026  1.00  0.00     0.074 A 
ATOM     53  C   UNL A   1      44.744  26.538  28.336  1.00  0.00     0.029 A 
ATOM     54  N   UNL A   1      43.857  25.920  30.265  1.00  0.00    -0.354 N 
ATOM     55  N   UNL A   1      43.948  29.370  31.412  1.00  0.00    -0.248 NA
ATOM     56  C   UNL A   1      43.527  30.286  33.472  1.00  0.00     0.031 C 
ATOM     57  C   UNL A   1      45.337  27.309  29.379  1.00  0.00     0.029 A 
ATOM     58  C   UNL A   1      44.791  26.897  30.581  1.00  0.00     0.049 A 
ATOM     59  H   UNL A   1      43.290  25.461  30.926  1.00  0.00     0.167 HD
ATOM     60  C   UNL A   1      44.459  28.485  32.335  1.00  0.00     0.074 A 
ATOM     61  C   UNL A   1      44.204  29.134  33.611  1.00  0.00     0.031 C 
ATOM     62  C   UNL A   1      44.968  27.258  31.983  1.00  0.00     0.034 A 
BRANCH  49  63
ATOM     63  C   UNL A   1      42.989  23.630  27.468  1.00  0.00     0.023 A 
ATOM     64  C   UNL A   1      43.730  23.842  26.285  1.00  0.00     0.012 A 
ATOM     65  C   UNL A   1      42.505  22.317  27.675  1.00  0.00     0.148 A 
ATOM     66  C   UNL A   1      43.888  22.855  25.310  1.00  0.00     0.002 A 
ATOM     67  C   UNL A   1      42.596  21.350  26.667  1.00  0.00     0.091 A 
ATOM     68  F   UNL A   1      42.020  21.972  28.873  1.00  0.00    -0.205 F 
ATOM     69  C   UNL A   1      43.286  21.619  25.482  1.00  0.00     0.022 A 
BRANCH  67  70
ATOM     70  S   UNL A   1      41.747  19.764  26.766  1.00  0.00     0.127 S 
ATOM     71  O   UNL A   1      42.723  18.936  27.482  1.00  0.00    -0.237 OA
ATOM     72  O   UNL A   1      40.551  20.090  27.537  1.00  0.00    -0.237 OA
ATOM     73  O   UNL A   1      41.521  19.345  25.388  1.00  0.00    -0.744 OA
ENDBRANCH  67  70
ENDBRANCH  49  63
BRANCH  50  74
ATOM     74  C   UNL A   1      41.246  32.039  32.018  1.00  0.00     0.023 A 
ATOM     75  C   UNL A   1      40.904  33.325  31.531  1.00  0.00     0.012 A 
ATOM     76  C   UNL A   1      40.296  31.326  32.769  1.00  0.00     0.148 A 
ATOM     77  C   UNL A   1      39.607  33.822  31.666  1.00  0.00     0.002 A 
ATOM     78  C   UNL A   1      39.004  31.831  32.902  1.00  0.00     0.091 A 
ATOM     79  F   UNL A   1      40.634  30.130  33.266  1.00  0.00    -0.205 F 
ATOM     80  C   UNL A   1      38.648  33.057  32.319  1.00  0.00     0.022 A 
BRANCH  78  81
ATOM     81  S   UNL A   1      37.708  30.874  33.697  1.00  0.00     0.127 S 
ATOM     82  O   UNL A   1      38.147  29.509  33.426  1.00  0.00    -0.237 OA
ATOM     83  O   UNL A   1      37.820  31.291  35.094  1.00  0.00    -0.237 OA
ATOM     84  O   UNL A   1      36.479  31.301  33.044  1.00  0.00    -0.744 OA
ENDBRANCH  78  81
ENDBRANCH  50  74
BRANCH  62  85
ATOM     85  C   UNL A   1      45.580  26.225  32.934  1.00  0.00     0.023 A 
ATOM     86  C   UNL A   1      46.959  25.955  32.969  1.00  0.00     0.012 A 
ATOM     87  C   UNL A   1      44.777  25.424  33.797  1.00  0.00     0.148 A 
ATOM     88  C   UNL A   1      47.528  25.080  33.907  1.00  0.00     0.002 A 
ATOM     89  C   UNL A   1      45.339  24.559  34.732  1.00  0.00     0.091 A 
ATOM     90  F   UNL A   1      43.446  25.425  33.672  1.00  0.00    -0.205 F 
ATOM     91  C   UNL A   1      46.720  24.407  34.812  1.00  0.00     0.022 A 
BRANCH  89  92
ATOM     92  S   UNL A   1      44.325  23.608  35.877  1.00  0.00     0.127 S 
ATOM     93  O   UNL A   1      43.901  24.641  36.820  1.00  0.00    -0.237 OA
ATOM     94  O   UNL A   1      43.264  23.109  35.001  1.00  0.00    -0.237 OA
ATOM     95  O   UNL A   1      45.196  22.574  36.415  1.00  0.00    -0.744 OA
ENDBRANCH  89  92
ENDBRANCH  62  85
ENDBRANCH  36  37
ENDBRANCH  28  31
ENDBRANCH  26  27
ENDBRANCH  25  26
ENDBRANCH  24  25
ENDBRANCH   1  24
TORSDOF 19
ENDMDL
