MODEL 1
REMARK VINA RESULT:     -12.4      0.000      0.000
REMARK SMILES Cc1cc(C(=O)NCCCCCCNC(=O)c2ccc(-c3c4nc(c(-c5cccc(S(=O)(=O)[O-])c5F)c5ccc([nH]5)c(-c5cccc(S(=O)(=O)[O-])c5F)c5nc(c(-c6cccc(S(=O)(=O)[O-])c6F)c6ccc3[nH]6)C=C5)C=C4)cc2)ccc1NC(=O)c1ccc(=O)n(CCOc2ccccc2)n1
REMARK SMILES IDX 9 1 8 2 7 3 5 4 6 5 4 7 1 8 2 9 3 10 82 11 81 12 80 13 83 14
REMARK SMILES IDX 84 15 85 17 86 18 87 19 101 20 88 21 91 22 89 23 90 24 92 25
REMARK SMILES IDX 93 26 94 27 95 28 96 29 100 30 97 31 99 32 98 33 10 34 11 35
REMARK SMILES IDX 12 36 13 37 14 38 15 39 16 41 17 42 18 43 79 44 19 45 78 46
REMARK SMILES IDX 20 47 21 48 22 49 72 50 23 51 77 52 71 53 73 54 24 55 76 56
REMARK SMILES IDX 70 57 69 58 25 60 57 61 37 62 56 63 38 64 41 65 55 66 74 67
REMARK SMILES IDX 39 68 40 69 54 71 75 72 42 73 26 74 27 75 35 76 28 77 30 78
REMARK SMILES IDX 36 79 29 80 31 81 32 82 33 83 34 84 58 85 59 86 67 87 60 88
REMARK SMILES IDX 62 89 68 90 61 91 63 92 64 93 65 94 66 95 43 96 44 97 52 98
REMARK SMILES IDX 45 99 47 100 53 101 46 102 48 103 49 104 50 105 51 106
REMARK H PARENT 7 6 83 16 14 40 73 59 41 70
REMARK Flexibility Score: inf
ROOT
ATOM      1  C   UNL A   1      35.534  30.223  28.340  1.00  0.00     0.021 C 
ENDROOT
BRANCH   1   2
ATOM      2  C   UNL A   1      34.868  29.291  27.325  1.00  0.00     0.116 C 
BRANCH   2   3
ATOM      3  N   UNL A   1      33.481  29.004  27.676  1.00  0.00    -0.352 N 
ATOM      4  C   UNL A   1      32.427  28.532  26.930  1.00  0.00     0.251 C 
ATOM      5  O   UNL A   1      31.395  28.190  27.507  1.00  0.00    -0.269 OA
ATOM      6  H   UNL A   1      33.260  29.181  28.618  1.00  0.00     0.163 HD
BRANCH   4   7
ATOM      7  C   UNL A   1      32.509  28.373  25.456  1.00  0.00     0.040 A 
ATOM      8  C   UNL A   1      30.075  27.946  22.569  1.00  0.00     0.046 C 
ATOM      9  C   UNL A   1      31.378  27.912  23.320  1.00  0.00    -0.027 A 
ATOM     10  C   UNL A   1      31.338  28.179  24.711  1.00  0.00     0.019 A 
ATOM     11  C   UNL A   1      32.626  27.741  22.708  1.00  0.00     0.044 A 
ATOM     12  C   UNL A   1      33.736  28.216  23.402  1.00  0.00     0.027 A 
ATOM     13  C   UNL A   1      33.696  28.520  24.761  1.00  0.00     0.016 A 
BRANCH  11  14
ATOM     14  N   UNL A   1      32.740  27.094  21.454  1.00  0.00    -0.320 N 
ATOM     15  C   UNL A   1      32.875  25.742  21.157  1.00  0.00     0.276 C 
ATOM     16  H   UNL A   1      32.723  27.692  20.673  1.00  0.00     0.170 HD
ATOM     17  O   UNL A   1      32.935  25.337  20.000  1.00  0.00    -0.267 OA
BRANCH  15  18
ATOM     18  C   UNL A   1      32.926  24.729  22.285  1.00  0.00     0.149 A 
ATOM     19  C   UNL A   1      31.609  24.221  22.722  1.00  0.00     0.042 A 
ATOM     20  N   UNL A   1      34.071  24.321  22.752  1.00  0.00    -0.164 NA
ATOM     21  C   UNL A   1      31.628  22.973  23.194  1.00  0.00     0.076 A 
ATOM     22  N   UNL A   1      34.011  23.153  23.512  1.00  0.00    -0.226 N 
ATOM     23  C   UNL A   1      32.931  22.286  23.381  1.00  0.00     0.266 A 
ATOM     24  O   UNL A   1      32.973  21.066  23.494  1.00  0.00    -0.268 OA
BRANCH  22  25
ATOM     25  C   UNL A   1      35.212  22.731  24.237  1.00  0.00     0.190 C 
BRANCH  25  26
ATOM     26  C   UNL A   1      34.939  22.448  25.730  1.00  0.00     0.253 C 
BRANCH  26  27
ATOM     27  O   UNL A   1      34.507  23.619  26.458  1.00  0.00    -0.492 OA
BRANCH  27  28
ATOM     28  C   UNL A   1      33.145  23.728  26.499  1.00  0.00     0.119 A 
ATOM     29  C   UNL A   1      32.506  24.935  26.239  1.00  0.00     0.046 A 
ATOM     30  C   UNL A   1      32.393  22.639  26.918  1.00  0.00     0.046 A 
ATOM     31  C   UNL A   1      31.106  24.997  26.278  1.00  0.00     0.004 A 
ATOM     32  C   UNL A   1      31.003  22.669  26.882  1.00  0.00     0.004 A 
ATOM     33  C   UNL A   1      30.355  23.852  26.552  1.00  0.00     0.000 A 
ENDBRANCH  27  28
ENDBRANCH  26  27
ENDBRANCH  25  26
ENDBRANCH  22  25
ENDBRANCH  15  18
ENDBRANCH  11  14
ENDBRANCH   4   7
ENDBRANCH   2   3
ENDBRANCH   1   2
BRANCH   1  34
ATOM     34  C   UNL A   1      35.459  31.718  27.999  1.00  0.00     0.002 C 
BRANCH  34  35
ATOM     35  C   UNL A   1      34.269  32.496  28.585  1.00  0.00     0.002 C 
BRANCH  35  36
ATOM     36  C   UNL A   1      34.567  33.356  29.815  1.00  0.00     0.021 C 
BRANCH  36  37
ATOM     37  C   UNL A   1      33.903  34.726  29.793  1.00  0.00     0.116 C 
BRANCH  37  38
ATOM     38  N   UNL A   1      32.981  34.937  30.897  1.00  0.00    -0.352 N 
ATOM     39  C   UNL A   1      33.103  34.591  32.230  1.00  0.00     0.251 C 
ATOM     40  H   UNL A   1      32.144  35.396  30.660  1.00  0.00     0.163 HD
ATOM     41  O   UNL A   1      32.098  34.641  32.937  1.00  0.00    -0.269 OA
BRANCH  39  42
ATOM     42  C   UNL A   1      34.441  34.326  32.818  1.00  0.00     0.039 A 
ATOM     43  C   UNL A   1      35.427  35.308  32.657  1.00  0.00     0.014 A 
ATOM     44  C   UNL A   1      34.796  33.065  33.288  1.00  0.00     0.014 A 
ATOM     45  C   UNL A   1      36.772  34.946  32.684  1.00  0.00     0.010 A 
ATOM     46  C   UNL A   1      36.115  32.681  33.229  1.00  0.00     0.010 A 
ATOM     47  C   UNL A   1      37.090  33.601  32.840  1.00  0.00    -0.014 A 
BRANCH  47  48
ATOM     48  C   UNL A   1      38.401  33.017  32.626  1.00  0.00     0.031 A 
ATOM     49  C   UNL A   1      38.506  31.720  31.937  1.00  0.00     0.074 A 
ATOM     50  C   UNL A   1      39.491  33.784  32.860  1.00  0.00     0.049 A 
ATOM     51  N   UNL A   1      39.601  31.060  31.801  1.00  0.00    -0.248 NA
ATOM     52  C   UNL A   1      37.353  31.060  31.340  1.00  0.00     0.031 C 
ATOM     53  C   UNL A   1      40.850  33.571  32.376  1.00  0.00     0.029 A 
ATOM     54  N   UNL A   1      39.633  34.841  33.765  1.00  0.00    -0.354 N 
ATOM     55  C   UNL A   1      39.370  30.034  30.911  1.00  0.00     0.074 A 
ATOM     56  C   UNL A   1      37.940  30.040  30.709  1.00  0.00     0.031 C 
ATOM     57  C   UNL A   1      41.701  34.220  33.188  1.00  0.00     0.029 A 
ATOM     58  C   UNL A   1      40.917  34.679  34.321  1.00  0.00     0.049 A 
ATOM     59  H   UNL A   1      38.976  35.545  33.971  1.00  0.00     0.167 HD
ATOM     60  C   UNL A   1      40.447  29.394  30.373  1.00  0.00     0.034 A 
ATOM     61  C   UNL A   1      41.122  34.304  35.624  1.00  0.00     0.034 A 
ATOM     62  C   UNL A   1      41.688  29.817  31.048  1.00  0.00     0.049 A 
ATOM     63  C   UNL A   1      41.896  32.991  35.770  1.00  0.00     0.074 A 
ATOM     64  C   UNL A   1      42.689  30.738  30.781  1.00  0.00     0.029 A 
ATOM     65  N   UNL A   1      41.855  29.452  32.372  1.00  0.00    -0.354 N 
ATOM     66  N   UNL A   1      42.335  32.269  34.773  1.00  0.00    -0.248 NA
ATOM     67  C   UNL A   1      42.146  32.345  37.062  1.00  0.00     0.031 C 
ATOM     68  C   UNL A   1      43.403  30.976  31.998  1.00  0.00     0.029 A 
ATOM     69  C   UNL A   1      42.861  30.174  32.988  1.00  0.00     0.049 A 
ATOM     70  H   UNL A   1      41.319  28.760  32.822  1.00  0.00     0.167 HD
ATOM     71  C   UNL A   1      42.741  31.044  35.237  1.00  0.00     0.074 A 
ATOM     72  C   UNL A   1      42.643  31.156  36.682  1.00  0.00     0.031 C 
ATOM     73  C   UNL A   1      43.062  29.992  34.423  1.00  0.00     0.034 A 
BRANCH  60  74
ATOM     74  C   UNL A   1      40.446  28.533  29.119  1.00  0.00     0.023 A 
ATOM     75  C   UNL A   1      39.591  27.405  29.115  1.00  0.00     0.012 A 
ATOM     76  C   UNL A   1      41.258  28.687  27.970  1.00  0.00     0.148 A 
ATOM     77  C   UNL A   1      39.595  26.456  28.087  1.00  0.00     0.002 A 
ATOM     78  C   UNL A   1      41.304  27.712  26.967  1.00  0.00     0.091 A 
ATOM     79  F   UNL A   1      41.951  29.808  27.785  1.00  0.00    -0.205 F 
ATOM     80  C   UNL A   1      40.473  26.593  27.024  1.00  0.00     0.022 A 
BRANCH  78  81
ATOM     81  S   UNL A   1      42.468  27.788  25.590  1.00  0.00     0.127 S 
ATOM     82  O   UNL A   1      42.106  29.058  24.956  1.00  0.00    -0.237 OA
ATOM     83  O   UNL A   1      43.761  27.798  26.271  1.00  0.00    -0.237 OA
ATOM     84  O   UNL A   1      42.207  26.615  24.764  1.00  0.00    -0.744 OA
ENDBRANCH  78  81
ENDBRANCH  60  74
BRANCH  61  85
ATOM     85  C   UNL A   1      40.027  34.757  36.543  1.00  0.00     0.023 A 
ATOM     86  C   UNL A   1      39.019  33.813  36.858  1.00  0.00     0.012 A 
ATOM     87  C   UNL A   1      40.177  35.880  37.375  1.00  0.00     0.148 A 
ATOM     88  C   UNL A   1      38.333  33.877  38.073  1.00  0.00     0.002 A 
ATOM     89  C   UNL A   1      39.458  35.958  38.566  1.00  0.00     0.091 A 
ATOM     90  F   UNL A   1      41.058  36.828  37.037  1.00  0.00    -0.205 F 
ATOM     91  C   UNL A   1      38.586  34.928  38.946  1.00  0.00     0.022 A 
BRANCH  89  92
ATOM     92  S   UNL A   1      39.709  37.335  39.692  1.00  0.00     0.127 S 
ATOM     93  O   UNL A   1      39.613  36.672  40.988  1.00  0.00    -0.237 OA
ATOM     94  O   UNL A   1      41.049  37.801  39.338  1.00  0.00    -0.237 OA
ATOM     95  O   UNL A   1      38.647  38.274  39.360  1.00  0.00    -0.744 OA
ENDBRANCH  89  92
ENDBRANCH  61  85
BRANCH  73  96
ATOM     96  C   UNL A   1      43.599  28.680  34.958  1.00  0.00     0.023 A 
ATOM     97  C   UNL A   1      44.928  28.300  34.682  1.00  0.00     0.012 A 
ATOM     98  C   UNL A   1      42.779  27.724  35.606  1.00  0.00     0.148 A 
ATOM     99  C   UNL A   1      45.438  27.060  35.083  1.00  0.00     0.002 A 
ATOM    100  C   UNL A   1      43.259  26.452  35.903  1.00  0.00     0.091 A 
ATOM    101  F   UNL A   1      41.541  28.056  35.989  1.00  0.00    -0.205 F 
ATOM    102  C   UNL A   1      44.598  26.127  35.674  1.00  0.00     0.022 A 
BRANCH 100 103
ATOM    103  S   UNL A   1      42.174  25.127  36.456  1.00  0.00     0.127 S 
ATOM    104  O   UNL A   1      41.190  25.074  35.372  1.00  0.00    -0.237 OA
ATOM    105  O   UNL A   1      43.088  23.988  36.504  1.00  0.00    -0.237 OA
ATOM    106  O   UNL A   1      41.630  25.566  37.733  1.00  0.00    -0.744 OA
ENDBRANCH 100 103
ENDBRANCH  73  96
ENDBRANCH  47  48
ENDBRANCH  39  42
ENDBRANCH  37  38
ENDBRANCH  36  37
ENDBRANCH  35  36
ENDBRANCH  34  35
ENDBRANCH   1  34
TORSDOF 22
ENDMDL
MODEL 2
REMARK VINA RESULT:     -11.8      1.698      2.086
REMARK SMILES Cc1cc(C(=O)NCCCCCCNC(=O)c2ccc(-c3c4nc(c(-c5cccc(S(=O)(=O)[O-])c5F)c5ccc([nH]5)c(-c5cccc(S(=O)(=O)[O-])c5F)c5nc(c(-c6cccc(S(=O)(=O)[O-])c6F)c6ccc3[nH]6)C=C5)C=C4)cc2)ccc1NC(=O)c1ccc(=O)n(CCOc2ccccc2)n1
REMARK SMILES IDX 9 1 8 2 7 3 5 4 6 5 4 7 1 8 2 9 3 10 82 11 81 12 80 13 83 14
REMARK SMILES IDX 84 15 85 17 86 18 87 19 101 20 88 21 91 22 89 23 90 24 92 25
REMARK SMILES IDX 93 26 94 27 95 28 96 29 100 30 97 31 99 32 98 33 10 34 11 35
REMARK SMILES IDX 12 36 13 37 14 38 15 39 16 41 17 42 18 43 79 44 19 45 78 46
REMARK SMILES IDX 20 47 21 48 22 49 72 50 23 51 77 52 71 53 73 54 24 55 76 56
REMARK SMILES IDX 70 57 69 58 25 60 57 61 37 62 56 63 38 64 41 65 55 66 74 67
REMARK SMILES IDX 39 68 40 69 54 71 75 72 42 73 26 74 27 75 35 76 28 77 30 78
REMARK SMILES IDX 36 79 29 80 31 81 32 82 33 83 34 84 58 85 59 86 67 87 60 88
REMARK SMILES IDX 62 89 68 90 61 91 63 92 64 93 65 94 66 95 43 96 44 97 52 98
REMARK SMILES IDX 45 99 47 100 53 101 46 102 48 103 49 104 50 105 51 106
REMARK H PARENT 7 6 83 16 14 40 73 59 41 70
REMARK Flexibility Score: inf
ROOT
ATOM      1  C   UNL A   1      35.810  29.777  28.344  1.00  0.00     0.021 C 
ENDROOT
BRANCH   1   2
ATOM      2  C   UNL A   1      35.008  28.963  27.326  1.00  0.00     0.116 C 
BRANCH   2   3
ATOM      3  N   UNL A   1      33.593  28.894  27.673  1.00  0.00    -0.352 N 
ATOM      4  C   UNL A   1      32.480  28.592  26.924  1.00  0.00     0.251 C 
ATOM      5  O   UNL A   1      31.406  28.414  27.499  1.00  0.00    -0.269 OA
ATOM      6  H   UNL A   1      33.400  29.102  28.616  1.00  0.00     0.163 HD
BRANCH   4   7
ATOM      7  C   UNL A   1      32.540  28.426  25.450  1.00  0.00     0.040 A 
ATOM      8  C   UNL A   1      30.074  27.827  22.622  1.00  0.00     0.046 C 
ATOM      9  C   UNL A   1      31.392  27.878  23.344  1.00  0.00    -0.027 A 
ATOM     10  C   UNL A   1      31.366  28.155  24.733  1.00  0.00     0.019 A 
ATOM     11  C   UNL A   1      32.634  27.776  22.706  1.00  0.00     0.044 A 
ATOM     12  C   UNL A   1      33.729  28.323  23.370  1.00  0.00     0.027 A 
ATOM     13  C   UNL A   1      33.700  28.638  24.727  1.00  0.00     0.016 A 
BRANCH  11  14
ATOM     14  N   UNL A   1      32.761  27.126  21.454  1.00  0.00    -0.320 N 
ATOM     15  C   UNL A   1      32.919  25.775  21.163  1.00  0.00     0.276 C 
ATOM     16  H   UNL A   1      32.733  27.720  20.671  1.00  0.00     0.170 HD
ATOM     17  O   UNL A   1      32.986  25.366  20.008  1.00  0.00    -0.267 OA
BRANCH  15  18
ATOM     18  C   UNL A   1      32.988  24.769  22.296  1.00  0.00     0.149 A 
ATOM     19  C   UNL A   1      31.683  24.220  22.717  1.00  0.00     0.042 A 
ATOM     20  N   UNL A   1      34.139  24.400  22.779  1.00  0.00    -0.164 NA
ATOM     21  C   UNL A   1      31.736  22.974  23.194  1.00  0.00     0.076 A 
ATOM     22  N   UNL A   1      34.106  23.233  23.544  1.00  0.00    -0.226 N 
ATOM     23  C   UNL A   1      33.057  22.330  23.401  1.00  0.00     0.266 A 
ATOM     24  O   UNL A   1      33.137  21.113  23.519  1.00  0.00    -0.268 OA
BRANCH  22  25
ATOM     25  C   UNL A   1      35.311  22.853  24.286  1.00  0.00     0.190 C 
BRANCH  25  26
ATOM     26  C   UNL A   1      35.011  22.456  25.748  1.00  0.00     0.253 C 
BRANCH  26  27
ATOM     27  O   UNL A   1      34.572  23.570  26.556  1.00  0.00    -0.492 OA
BRANCH  27  28
ATOM     28  C   UNL A   1      33.209  23.678  26.593  1.00  0.00     0.119 A 
ATOM     29  C   UNL A   1      32.402  22.582  26.878  1.00  0.00     0.046 A 
ATOM     30  C   UNL A   1      32.618  24.880  26.229  1.00  0.00     0.046 A 
ATOM     31  C   UNL A   1      31.010  22.743  26.919  1.00  0.00     0.004 A 
ATOM     32  C   UNL A   1      31.244  25.069  26.345  1.00  0.00     0.004 A 
ATOM     33  C   UNL A   1      30.437  23.997  26.700  1.00  0.00     0.000 A 
ENDBRANCH  27  28
ENDBRANCH  26  27
ENDBRANCH  25  26
ENDBRANCH  22  25
ENDBRANCH  15  18
ENDBRANCH  11  14
ENDBRANCH   4   7
ENDBRANCH   2   3
ENDBRANCH   1   2
BRANCH   1  34
ATOM     34  C   UNL A   1      35.814  31.294  28.108  1.00  0.00     0.002 C 
BRANCH  34  35
ATOM     35  C   UNL A   1      35.052  32.150  29.134  1.00  0.00     0.002 C 
BRANCH  35  36
ATOM     36  C   UNL A   1      35.887  33.164  29.918  1.00  0.00     0.021 C 
BRANCH  36  37
ATOM     37  C   UNL A   1      35.213  34.515  30.105  1.00  0.00     0.116 C 
BRANCH  37  38
ATOM     38  N   UNL A   1      34.265  34.540  31.206  1.00  0.00    -0.352 N 
ATOM     39  C   UNL A   1      34.328  33.921  32.441  1.00  0.00     0.251 C 
ATOM     40  H   UNL A   1      33.457  35.079  31.050  1.00  0.00     0.163 HD
ATOM     41  O   UNL A   1      33.303  33.873  33.120  1.00  0.00    -0.269 OA
BRANCH  39  42
ATOM     42  C   UNL A   1      35.633  33.474  32.993  1.00  0.00     0.039 A 
ATOM     43  C   UNL A   1      36.683  34.401  33.006  1.00  0.00     0.014 A 
ATOM     44  C   UNL A   1      35.896  32.131  33.252  1.00  0.00     0.014 A 
ATOM     45  C   UNL A   1      38.002  33.950  32.988  1.00  0.00     0.010 A 
ATOM     46  C   UNL A   1      37.189  31.675  33.145  1.00  0.00     0.010 A 
ATOM     47  C   UNL A   1      38.229  32.580  32.924  1.00  0.00    -0.014 A 
BRANCH  47  48
ATOM     48  C   UNL A   1      39.504  31.952  32.631  1.00  0.00     0.031 A 
ATOM     49  C   UNL A   1      39.524  30.670  31.906  1.00  0.00     0.074 A 
ATOM     50  C   UNL A   1      40.633  32.670  32.828  1.00  0.00     0.049 A 
ATOM     51  N   UNL A   1      40.585  29.973  31.701  1.00  0.00    -0.248 NA
ATOM     52  C   UNL A   1      38.319  30.070  31.352  1.00  0.00     0.031 C 
ATOM     53  C   UNL A   1      41.958  32.419  32.272  1.00  0.00     0.029 A 
ATOM     54  N   UNL A   1      40.860  33.698  33.750  1.00  0.00    -0.354 N 
ATOM     55  C   UNL A   1      40.271  28.980  30.799  1.00  0.00     0.074 A 
ATOM     56  C   UNL A   1      38.834  29.044  30.669  1.00  0.00     0.031 C 
ATOM     57  C   UNL A   1      42.872  33.014  33.056  1.00  0.00     0.029 A 
ATOM     58  C   UNL A   1      42.163  33.474  34.238  1.00  0.00     0.049 A 
ATOM     59  H   UNL A   1      40.243  34.421  34.005  1.00  0.00     0.167 HD
ATOM     60  C   UNL A   1      41.294  28.313  30.193  1.00  0.00     0.034 A 
ATOM     61  C   UNL A   1      42.416  33.058  35.519  1.00  0.00     0.034 A 
ATOM     62  C   UNL A   1      42.582  28.671  30.815  1.00  0.00     0.049 A 
ATOM     63  C   UNL A   1      43.145  31.713  35.595  1.00  0.00     0.074 A 
ATOM     64  C   UNL A   1      43.604  29.561  30.520  1.00  0.00     0.029 A 
ATOM     65  N   UNL A   1      42.800  28.267  32.120  1.00  0.00    -0.354 N 
ATOM     66  N   UNL A   1      43.506  31.001  34.560  1.00  0.00    -0.248 NA
ATOM     67  C   UNL A   1      43.432  31.026  36.857  1.00  0.00     0.031 C 
ATOM     68  C   UNL A   1      44.386  29.741  31.706  1.00  0.00     0.029 A 
ATOM     69  C   UNL A   1      43.862  28.934  32.702  1.00  0.00     0.049 A 
ATOM     70  H   UNL A   1      42.260  27.584  32.580  1.00  0.00     0.167 HD
ATOM     71  C   UNL A   1      43.886  29.750  34.974  1.00  0.00     0.074 A 
ATOM     72  C   UNL A   1      43.863  29.828  36.425  1.00  0.00     0.031 C 
ATOM     73  C   UNL A   1      44.126  28.708  34.120  1.00  0.00     0.034 A 
BRANCH  60  74
ATOM     74  C   UNL A   1      41.199  27.485  28.921  1.00  0.00     0.023 A 
ATOM     75  C   UNL A   1      40.300  26.392  28.932  1.00  0.00     0.012 A 
ATOM     76  C   UNL A   1      41.959  27.637  27.737  1.00  0.00     0.148 A 
ATOM     77  C   UNL A   1      40.217  25.470  27.883  1.00  0.00     0.002 A 
ATOM     78  C   UNL A   1      41.918  26.687  26.710  1.00  0.00     0.091 A 
ATOM     79  F   UNL A   1      42.688  28.734  27.545  1.00  0.00    -0.205 F 
ATOM     80  C   UNL A   1      41.047  25.599  26.781  1.00  0.00     0.022 A 
BRANCH  78  81
ATOM     81  S   UNL A   1      43.017  26.753  25.280  1.00  0.00     0.127 S 
ATOM     82  O   UNL A   1      42.519  27.933  24.569  1.00  0.00    -0.237 OA
ATOM     83  O   UNL A   1      44.329  26.927  25.898  1.00  0.00    -0.237 OA
ATOM     84  O   UNL A   1      42.829  25.501  24.557  1.00  0.00    -0.744 OA
ENDBRANCH  78  81
ENDBRANCH  60  74
BRANCH  61  85
ATOM     85  C   UNL A   1      41.386  33.528  36.502  1.00  0.00     0.023 A 
ATOM     86  C   UNL A   1      41.310  34.923  36.739  1.00  0.00     0.012 A 
ATOM     87  C   UNL A   1      40.291  32.726  36.865  1.00  0.00     0.148 A 
ATOM     88  C   UNL A   1      40.107  35.518  37.123  1.00  0.00     0.002 A 
ATOM     89  C   UNL A   1      39.106  33.325  37.288  1.00  0.00     0.091 A 
ATOM     90  F   UNL A   1      40.385  31.397  36.738  1.00  0.00    -0.205 F 
ATOM     91  C   UNL A   1      38.992  34.721  37.355  1.00  0.00     0.022 A 
BRANCH  89  92
ATOM     92  S   UNL A   1      37.661  32.323  37.660  1.00  0.00     0.127 S 
ATOM     93  O   UNL A   1      36.627  33.344  37.794  1.00  0.00    -0.237 OA
ATOM     94  O   UNL A   1      37.540  31.478  36.474  1.00  0.00    -0.237 OA
ATOM     95  O   UNL A   1      38.024  31.600  38.871  1.00  0.00    -0.744 OA
ENDBRANCH  89  92
ENDBRANCH  61  85
BRANCH  73  96
ATOM     96  C   UNL A   1      44.636  27.364  34.597  1.00  0.00     0.023 A 
ATOM     97  C   UNL A   1      45.996  27.209  34.939  1.00  0.00     0.012 A 
ATOM     98  C   UNL A   1      43.843  26.190  34.574  1.00  0.00     0.148 A 
ATOM     99  C   UNL A   1      46.528  25.966  35.301  1.00  0.00     0.002 A 
ATOM    100  C   UNL A   1      44.402  24.941  34.828  1.00  0.00     0.091 A 
ATOM    101  F   UNL A   1      42.526  26.279  34.360  1.00  0.00    -0.205 F 
ATOM    102  C   UNL A   1      45.737  24.829  35.224  1.00  0.00     0.022 A 
BRANCH 100 103
ATOM    103  S   UNL A   1      43.501  23.413  34.527  1.00  0.00     0.127 S 
ATOM    104  O   UNL A   1      42.204  23.704  35.141  1.00  0.00    -0.237 OA
ATOM    105  O   UNL A   1      43.484  23.355  33.068  1.00  0.00    -0.237 OA
ATOM    106  O   UNL A   1      44.257  22.367  35.201  1.00  0.00    -0.744 OA
ENDBRANCH 100 103
ENDBRANCH  73  96
ENDBRANCH  47  48
ENDBRANCH  39  42
ENDBRANCH  37  38
ENDBRANCH  36  37
ENDBRANCH  35  36
ENDBRANCH  34  35
ENDBRANCH   1  34
TORSDOF 22
ENDMDL
MODEL 3
REMARK VINA RESULT:     -11.3      6.405     11.239
REMARK SMILES Cc1cc(C(=O)NCCCCCCNC(=O)c2ccc(-c3c4nc(c(-c5cccc(S(=O)(=O)[O-])c5F)c5ccc([nH]5)c(-c5cccc(S(=O)(=O)[O-])c5F)c5nc(c(-c6cccc(S(=O)(=O)[O-])c6F)c6ccc3[nH]6)C=C5)C=C4)cc2)ccc1NC(=O)c1ccc(=O)n(CCOc2ccccc2)n1
REMARK SMILES IDX 9 1 8 2 7 3 5 4 6 5 4 7 1 8 2 9 3 10 82 11 81 12 80 13 83 14
REMARK SMILES IDX 84 15 85 17 86 18 87 19 101 20 88 21 91 22 89 23 90 24 92 25
REMARK SMILES IDX 93 26 94 27 95 28 96 29 100 30 97 31 99 32 98 33 10 34 11 35
REMARK SMILES IDX 12 36 13 37 14 38 15 39 16 41 17 42 18 43 79 44 19 45 78 46
REMARK SMILES IDX 20 47 21 48 22 49 72 50 23 51 77 52 71 53 73 54 24 55 76 56
REMARK SMILES IDX 70 57 69 58 25 60 57 61 37 62 56 63 38 64 41 65 55 66 74 67
REMARK SMILES IDX 39 68 40 69 54 71 75 72 42 73 26 74 27 75 35 76 28 77 30 78
REMARK SMILES IDX 36 79 29 80 31 81 32 82 33 83 34 84 58 85 59 86 67 87 60 88
REMARK SMILES IDX 62 89 68 90 61 91 63 92 64 93 65 94 66 95 43 96 44 97 52 98
REMARK SMILES IDX 45 99 47 100 53 101 46 102 48 103 49 104 50 105 51 106
REMARK H PARENT 7 6 83 16 14 40 73 59 41 70
REMARK Flexibility Score: inf
ROOT
ATOM      1  C   UNL A   1      37.601  23.519  25.951  1.00  0.00     0.021 C 
ENDROOT
BRANCH   1   2
ATOM      2  C   UNL A   1      36.417  22.562  25.788  1.00  0.00     0.116 C 
BRANCH   2   3
ATOM      3  N   UNL A   1      35.940  22.513  24.410  1.00  0.00    -0.352 N 
ATOM      4  C   UNL A   1      35.214  23.408  23.660  1.00  0.00     0.251 C 
ATOM      5  O   UNL A   1      35.099  23.217  22.450  1.00  0.00    -0.269 OA
ATOM      6  H   UNL A   1      36.183  21.689  23.930  1.00  0.00     0.163 HD
BRANCH   4   7
ATOM      7  C   UNL A   1      34.603  24.624  24.254  1.00  0.00     0.040 A 
ATOM      8  C   UNL A   1      33.689  28.123  23.087  1.00  0.00     0.046 C 
ATOM      9  C   UNL A   1      34.005  27.001  24.037  1.00  0.00    -0.027 A 
ATOM     10  C   UNL A   1      34.477  25.787  23.480  1.00  0.00     0.019 A 
ATOM     11  C   UNL A   1      33.759  27.054  25.414  1.00  0.00     0.044 A 
ATOM     12  C   UNL A   1      33.622  25.836  26.075  1.00  0.00     0.027 A 
ATOM     13  C   UNL A   1      34.045  24.631  25.519  1.00  0.00     0.016 A 
BRANCH  11  14
ATOM     14  N   UNL A   1      33.678  28.294  26.094  1.00  0.00    -0.320 N 
ATOM     15  C   UNL A   1      32.647  29.226  26.129  1.00  0.00     0.276 C 
ATOM     16  H   UNL A   1      34.474  28.533  26.621  1.00  0.00     0.170 HD
ATOM     17  O   UNL A   1      32.725  30.252  26.798  1.00  0.00    -0.267 OA
BRANCH  15  18
ATOM     18  C   UNL A   1      31.377  28.966  25.341  1.00  0.00     0.149 A 
ATOM     19  C   UNL A   1      30.781  30.164  24.714  1.00  0.00     0.042 A 
ATOM     20  N   UNL A   1      30.926  27.753  25.201  1.00  0.00    -0.164 NA
ATOM     21  C   UNL A   1      30.117  29.922  23.582  1.00  0.00     0.076 A 
ATOM     22  N   UNL A   1      29.986  27.592  24.183  1.00  0.00    -0.226 N 
ATOM     23  C   UNL A   1      29.907  28.518  23.148  1.00  0.00     0.266 A 
ATOM     24  O   UNL A   1      29.604  28.272  21.986  1.00  0.00    -0.268 OA
BRANCH  22  25
ATOM     25  C   UNL A   1      29.282  26.310  24.081  1.00  0.00     0.190 C 
BRANCH  25  26
ATOM     26  C   UNL A   1      30.217  25.146  23.690  1.00  0.00     0.253 C 
BRANCH  26  27
ATOM     27  O   UNL A   1      30.586  24.316  24.814  1.00  0.00    -0.492 OA
BRANCH  27  28
ATOM     28  C   UNL A   1      31.183  23.149  24.421  1.00  0.00     0.119 A 
ATOM     29  C   UNL A   1      31.458  22.890  23.084  1.00  0.00     0.046 A 
ATOM     30  C   UNL A   1      31.417  22.161  25.367  1.00  0.00     0.046 A 
ATOM     31  C   UNL A   1      32.085  21.687  22.729  1.00  0.00     0.004 A 
ATOM     32  C   UNL A   1      32.111  21.001  25.036  1.00  0.00     0.004 A 
ATOM     33  C   UNL A   1      32.454  20.766  23.711  1.00  0.00     0.000 A 
ENDBRANCH  27  28
ENDBRANCH  26  27
ENDBRANCH  25  26
ENDBRANCH  22  25
ENDBRANCH  15  18
ENDBRANCH  11  14
ENDBRANCH   4   7
ENDBRANCH   2   3
ENDBRANCH   1   2
BRANCH   1  34
ATOM     34  C   UNL A   1      38.872  22.889  26.538  1.00  0.00     0.002 C 
BRANCH  34  35
ATOM     35  C   UNL A   1      39.778  23.816  27.365  1.00  0.00     0.002 C 
BRANCH  35  36
ATOM     36  C   UNL A   1      39.636  25.315  27.092  1.00  0.00     0.021 C 
BRANCH  36  37
ATOM     37  C   UNL A   1      39.744  26.188  28.335  1.00  0.00     0.116 C 
BRANCH  37  38
ATOM     38  N   UNL A   1      38.762  27.258  28.375  1.00  0.00    -0.352 N 
ATOM     39  C   UNL A   1      38.946  28.625  28.466  1.00  0.00     0.251 C 
ATOM     40  H   UNL A   1      37.823  26.965  28.329  1.00  0.00     0.163 HD
ATOM     41  O   UNL A   1      37.972  29.326  28.737  1.00  0.00    -0.269 OA
BRANCH  39  42
ATOM     42  C   UNL A   1      40.246  29.235  28.088  1.00  0.00     0.039 A 
ATOM     43  C   UNL A   1      40.800  28.869  26.854  1.00  0.00     0.014 A 
ATOM     44  C   UNL A   1      41.018  29.940  29.007  1.00  0.00     0.014 A 
ATOM     45  C   UNL A   1      42.179  28.947  26.666  1.00  0.00     0.010 A 
ATOM     46  C   UNL A   1      42.386  29.939  28.865  1.00  0.00     0.010 A 
ATOM     47  C   UNL A   1      42.967  29.362  27.735  1.00  0.00    -0.014 A 
BRANCH  47  48
ATOM     48  C   UNL A   1      44.412  29.249  27.807  1.00  0.00     0.031 A 
ATOM     49  C   UNL A   1      45.246  30.353  27.302  1.00  0.00     0.074 A 
ATOM     50  C   UNL A   1      44.941  28.242  28.539  1.00  0.00     0.049 A 
ATOM     51  N   UNL A   1      46.527  30.306  27.209  1.00  0.00    -0.248 NA
ATOM     52  C   UNL A   1      44.676  31.615  26.852  1.00  0.00     0.031 C 
ATOM     53  C   UNL A   1      46.298  28.139  29.065  1.00  0.00     0.029 A 
ATOM     54  N   UNL A   1      44.396  26.981  28.806  1.00  0.00    -0.354 N 
ATOM     55  C   UNL A   1      46.978  31.579  26.931  1.00  0.00     0.074 A 
ATOM     56  C   UNL A   1      45.782  32.338  26.652  1.00  0.00     0.031 C 
ATOM     57  C   UNL A   1      46.574  26.844  29.289  1.00  0.00     0.029 A 
ATOM     58  C   UNL A   1      45.478  26.084  28.712  1.00  0.00     0.049 A 
ATOM     59  H   UNL A   1      43.458  26.766  29.013  1.00  0.00     0.167 HD
ATOM     60  C   UNL A   1      48.306  31.841  27.093  1.00  0.00     0.034 A 
ATOM     61  C   UNL A   1      45.602  25.173  27.696  1.00  0.00     0.034 A 
ATOM     62  C   UNL A   1      49.051  30.593  27.345  1.00  0.00     0.049 A 
ATOM     63  C   UNL A   1      46.870  25.356  26.857  1.00  0.00     0.074 A 
ATOM     64  C   UNL A   1      49.518  29.936  28.473  1.00  0.00     0.029 A 
ATOM     65  N   UNL A   1      49.133  29.675  26.314  1.00  0.00    -0.354 N 
ATOM     66  N   UNL A   1      47.771  26.282  27.059  1.00  0.00    -0.248 NA
ATOM     67  C   UNL A   1      47.165  24.562  25.661  1.00  0.00     0.031 C 
ATOM     68  C   UNL A   1      49.802  28.582  28.107  1.00  0.00     0.029 A 
ATOM     69  C   UNL A   1      49.544  28.431  26.755  1.00  0.00     0.049 A 
ATOM     70  H   UNL A   1      48.924  29.885  25.374  1.00  0.00     0.167 HD
ATOM     71  C   UNL A   1      48.623  26.335  25.987  1.00  0.00     0.074 A 
ATOM     72  C   UNL A   1      48.229  25.209  25.156  1.00  0.00     0.031 C 
ATOM     73  C   UNL A   1      49.548  27.326  25.799  1.00  0.00     0.034 A 
BRANCH  60  74
ATOM     74  C   UNL A   1      48.941  33.217  27.225  1.00  0.00     0.023 A 
ATOM     75  C   UNL A   1      49.009  34.007  26.053  1.00  0.00     0.012 A 
ATOM     76  C   UNL A   1      49.539  33.781  28.377  1.00  0.00     0.148 A 
ATOM     77  C   UNL A   1      49.689  35.229  26.003  1.00  0.00     0.002 A 
ATOM     78  C   UNL A   1      50.266  34.975  28.317  1.00  0.00     0.091 A 
ATOM     79  F   UNL A   1      49.364  33.215  29.568  1.00  0.00    -0.205 F 
ATOM     80  C   UNL A   1      50.344  35.702  27.128  1.00  0.00     0.022 A 
BRANCH  78  81
ATOM     81  S   UNL A   1      51.199  35.617  29.721  1.00  0.00     0.127 S 
ATOM     82  O   UNL A   1      52.231  36.419  29.060  1.00  0.00    -0.237 OA
ATOM     83  O   UNL A   1      50.193  36.397  30.438  1.00  0.00    -0.237 OA
ATOM     84  O   UNL A   1      51.717  34.457  30.438  1.00  0.00    -0.744 OA
ENDBRANCH  78  81
ENDBRANCH  60  74
BRANCH  61  85
ATOM     85  C   UNL A   1      44.281  24.713  27.156  1.00  0.00     0.023 A 
ATOM     86  C   UNL A   1      43.651  25.547  26.199  1.00  0.00     0.012 A 
ATOM     87  C   UNL A   1      43.868  23.373  27.253  1.00  0.00     0.148 A 
ATOM     88  C   UNL A   1      42.796  25.009  25.234  1.00  0.00     0.002 A 
ATOM     89  C   UNL A   1      42.983  22.853  26.311  1.00  0.00     0.091 A 
ATOM     90  F   UNL A   1      44.384  22.600  28.215  1.00  0.00    -0.205 F 
ATOM     91  C   UNL A   1      42.498  23.652  25.265  1.00  0.00     0.022 A 
BRANCH  89  92
ATOM     92  S   UNL A   1      42.520  21.118  26.356  1.00  0.00     0.127 S 
ATOM     93  O   UNL A   1      41.477  21.069  25.338  1.00  0.00    -0.237 OA
ATOM     94  O   UNL A   1      43.765  20.443  25.992  1.00  0.00    -0.237 OA
ATOM     95  O   UNL A   1      42.101  20.890  27.731  1.00  0.00    -0.744 OA
ENDBRANCH  89  92
ENDBRANCH  61  85
BRANCH  73  96
ATOM     96  C   UNL A   1      50.542  27.310  24.657  1.00  0.00     0.023 A 
ATOM     97  C   UNL A   1      51.906  27.061  24.914  1.00  0.00     0.012 A 
ATOM     98  C   UNL A   1      50.197  27.687  23.335  1.00  0.00     0.148 A 
ATOM     99  C   UNL A   1      52.870  27.122  23.902  1.00  0.00     0.002 A 
ATOM    100  C   UNL A   1      51.175  27.853  22.359  1.00  0.00     0.091 A 
ATOM    101  F   UNL A   1      48.911  27.837  22.998  1.00  0.00    -0.205 F 
ATOM    102  C   UNL A   1      52.508  27.540  22.629  1.00  0.00     0.022 A 
BRANCH 100 103
ATOM    103  S   UNL A   1      50.813  28.605  20.764  1.00  0.00     0.127 S 
ATOM    104  O   UNL A   1      52.144  28.672  20.156  1.00  0.00    -0.237 OA
ATOM    105  O   UNL A   1      49.919  27.619  20.162  1.00  0.00    -0.237 OA
ATOM    106  O   UNL A   1      50.228  29.904  21.061  1.00  0.00    -0.744 OA
ENDBRANCH 100 103
ENDBRANCH  73  96
ENDBRANCH  47  48
ENDBRANCH  39  42
ENDBRANCH  37  38
ENDBRANCH  36  37
ENDBRANCH  35  36
ENDBRANCH  34  35
ENDBRANCH   1  34
TORSDOF 22
ENDMDL
