MODEL 1
REMARK VINA RESULT:      -8.9      0.000      0.000
REMARK SMILES CS(=O)(=O)c1ccc(C2=NN(c3ccc(C(=O)NCCCCCCNC(=O)c4ccc(-c5c6nc(c(-c7cccc(S(=O)(=O)[O-])c7F)c7ccc([nH]7)c(-c7cccc(S(=O)(=O)[O-])c7F)c7nc(c(-c8cccc(S(=O)(=O)[O-])c8F)c8ccc5[nH]8)C=C7)C=C6)cc4)cc3)[C@H](c3ccccc3)C2)cc1
REMARK SMILES IDX 21 1 20 2 19 3 18 4 16 5 17 6 15 8 12 9 13 10 92 11 14 12
REMARK SMILES IDX 91 13 11 14 9 15 10 16 100 17 93 18 8 19 5 20 6 21 102 22
REMARK SMILES IDX 7 23 101 24 2 25 1 26 3 27 4 28 94 29 95 30 99 31 96 32
REMARK SMILES IDX 98 33 97 34 22 35 23 36 24 37 25 38 26 39 27 41 28 42 29 43
REMARK SMILES IDX 90 44 30 45 89 46 31 47 32 48 33 49 83 50 34 51 88 52 82 53
REMARK SMILES IDX 84 54 35 55 87 56 81 57 80 58 36 60 68 61 48 62 67 63 49 64
REMARK SMILES IDX 52 65 66 66 85 67 50 68 51 69 65 71 86 72 53 73 37 74 38 75
REMARK SMILES IDX 46 76 39 77 41 78 47 79 40 80 42 81 43 82 44 83 45 84 69 85
REMARK SMILES IDX 70 86 78 87 71 88 73 89 79 90 72 91 74 92 75 93 76 94 77 95
REMARK SMILES IDX 54 96 55 97 63 98 56 99 58 100 64 101 57 102 59 103 60 104
REMARK SMILES IDX 61 105 62 106
REMARK H PARENT 18 7 25 40 84 59 52 70
REMARK Flexibility Score: inf
ROOT
ATOM      1  C   UNL A   1      39.090  33.328  31.485  1.00  0.00     0.002 C 
ENDROOT
BRANCH   1   2
ATOM      2  C   UNL A   1      37.914  32.741  30.695  1.00  0.00     0.021 C 
BRANCH   2   3
ATOM      3  C   UNL A   1      38.355  31.824  29.551  1.00  0.00     0.116 C 
BRANCH   3   4
ATOM      4  N   UNL A   1      37.236  31.012  29.104  1.00  0.00    -0.352 N 
ATOM      5  C   UNL A   1      37.195  29.815  28.435  1.00  0.00     0.251 C 
ATOM      6  O   UNL A   1      36.094  29.318  28.194  1.00  0.00    -0.269 OA
ATOM      7  H   UNL A   1      36.352  31.388  29.320  1.00  0.00     0.163 HD
BRANCH   5   8
ATOM      8  C   UNL A   1      38.428  29.074  28.064  1.00  0.00     0.039 A 
ATOM      9  C   UNL A   1      40.840  27.702  27.578  1.00  0.00     0.060 A 
ATOM     10  C   UNL A   1      40.031  27.349  28.662  1.00  0.00     0.029 A 
ATOM     11  C   UNL A   1      40.387  28.690  26.700  1.00  0.00     0.029 A 
ATOM     12  C   UNL A   1      38.835  28.032  28.908  1.00  0.00     0.016 A 
ATOM     13  C   UNL A   1      39.181  29.352  26.923  1.00  0.00     0.016 A 
BRANCH   9  14
ATOM     14  N   UNL A   1      42.046  27.075  27.323  1.00  0.00    -0.257 N 
ATOM     15  C   UNL A   1      43.185  25.324  26.968  1.00  0.00     0.071 C 
ATOM     16  N   UNL A   1      42.014  25.838  26.783  1.00  0.00    -0.176 NA
ATOM     17  C   UNL A   1      44.152  26.151  27.766  1.00  0.00     0.091 C 
ATOM     18  C   UNL A   1      43.321  27.438  27.958  1.00  0.00     0.144 C 
BRANCH  15  19
ATOM     19  C   UNL A   1      43.534  24.013  26.406  1.00  0.00    -0.002 A 
ATOM     20  C   UNL A   1      44.125  21.462  25.476  1.00  0.00     0.067 A 
ATOM     21  C   UNL A   1      42.922  21.684  26.148  1.00  0.00     0.021 A 
ATOM     22  C   UNL A   1      45.034  22.512  25.270  1.00  0.00     0.021 A 
ATOM     23  C   UNL A   1      42.637  22.961  26.627  1.00  0.00     0.011 A 
ATOM     24  C   UNL A   1      44.733  23.798  25.727  1.00  0.00     0.011 A 
BRANCH  20  25
ATOM     25  S   UNL A   1      44.549  19.840  24.885  1.00  0.00     0.175 S 
ATOM     26  C   UNL A   1      46.229  19.549  25.370  1.00  0.00     0.163 C 
ATOM     27  O   UNL A   1      44.533  19.904  23.436  1.00  0.00    -0.224 OA
ATOM     28  O   UNL A   1      43.701  18.907  25.603  1.00  0.00    -0.224 OA
ENDBRANCH  20  25
ENDBRANCH  15  19
BRANCH  18  29
ATOM     29  C   UNL A   1      43.877  28.745  27.398  1.00  0.00    -0.023 A 
ATOM     30  C   UNL A   1      43.194  29.972  27.421  1.00  0.00     0.006 A 
ATOM     31  C   UNL A   1      45.170  28.736  26.832  1.00  0.00     0.006 A 
ATOM     32  C   UNL A   1      43.776  31.132  26.891  1.00  0.00     0.000 A 
ATOM     33  C   UNL A   1      45.761  29.898  26.332  1.00  0.00     0.000 A 
ATOM     34  C   UNL A   1      45.060  31.097  26.355  1.00  0.00     0.000 A 
ENDBRANCH  18  29
ENDBRANCH   9  14
ENDBRANCH   5   8
ENDBRANCH   3   4
ENDBRANCH   2   3
ENDBRANCH   1   2
BRANCH   1  35
ATOM     35  C   UNL A   1      39.026  33.084  32.996  1.00  0.00     0.002 C 
BRANCH  35  36
ATOM     36  C   UNL A   1      38.278  31.813  33.409  1.00  0.00     0.021 C 
BRANCH  36  37
ATOM     37  C   UNL A   1      38.862  31.118  34.635  1.00  0.00     0.116 C 
BRANCH  37  38
ATOM     38  N   UNL A   1      39.034  29.690  34.405  1.00  0.00    -0.352 N 
ATOM     39  C   UNL A   1      39.802  29.052  33.464  1.00  0.00     0.251 C 
ATOM     40  H   UNL A   1      38.529  29.100  35.011  1.00  0.00     0.163 HD
ATOM     41  O   UNL A   1      39.642  27.854  33.249  1.00  0.00    -0.269 OA
BRANCH  39  42
ATOM     42  C   UNL A   1      40.816  29.816  32.707  1.00  0.00     0.039 A 
ATOM     43  C   UNL A   1      41.848  30.449  33.402  1.00  0.00     0.014 A 
ATOM     44  C   UNL A   1      40.740  29.910  31.315  1.00  0.00     0.014 A 
ATOM     45  C   UNL A   1      42.834  31.138  32.692  1.00  0.00     0.010 A 
ATOM     46  C   UNL A   1      41.764  30.530  30.607  1.00  0.00     0.010 A 
ATOM     47  C   UNL A   1      42.817  31.160  31.287  1.00  0.00    -0.014 A 
BRANCH  47  48
ATOM     48  C   UNL A   1      43.893  31.832  30.515  1.00  0.00     0.031 A 
ATOM     49  C   UNL A   1      45.159  31.092  30.178  1.00  0.00     0.074 A 
ATOM     50  C   UNL A   1      43.762  33.132  30.188  1.00  0.00     0.049 A 
ATOM     51  N   UNL A   1      46.230  31.529  29.569  1.00  0.00    -0.248 NA
ATOM     52  C   UNL A   1      45.243  29.684  30.601  1.00  0.00     0.031 C 
ATOM     53  C   UNL A   1      42.617  33.980  30.530  1.00  0.00     0.029 A 
ATOM     54  N   UNL A   1      44.612  33.978  29.520  1.00  0.00    -0.354 N 
ATOM     55  C   UNL A   1      47.124  30.464  29.558  1.00  0.00     0.074 A 
ATOM     56  C   UNL A   1      46.485  29.372  30.261  1.00  0.00     0.031 C 
ATOM     57  C   UNL A   1      42.838  35.224  30.075  1.00  0.00     0.029 A 
ATOM     58  C   UNL A   1      44.151  35.272  29.438  1.00  0.00     0.049 A 
ATOM     59  H   UNL A   1      45.471  33.687  29.136  1.00  0.00     0.167 HD
ATOM     60  C   UNL A   1      48.349  30.387  28.987  1.00  0.00     0.034 A 
ATOM     61  C   UNL A   1      44.727  36.377  28.925  1.00  0.00     0.034 A 
ATOM     62  C   UNL A   1      48.968  31.466  28.266  1.00  0.00     0.049 A 
ATOM     63  C   UNL A   1      46.078  36.259  28.274  1.00  0.00     0.074 A 
ATOM     64  C   UNL A   1      50.178  31.468  27.595  1.00  0.00     0.029 A 
ATOM     65  N   UNL A   1      48.431  32.736  28.126  1.00  0.00    -0.354 N 
ATOM     66  N   UNL A   1      46.845  35.203  28.148  1.00  0.00    -0.248 NA
ATOM     67  C   UNL A   1      46.629  37.477  27.660  1.00  0.00     0.031 C 
ATOM     68  C   UNL A   1      50.385  32.749  27.071  1.00  0.00     0.029 A 
ATOM     69  C   UNL A   1      49.287  33.533  27.385  1.00  0.00     0.049 A 
ATOM     70  H   UNL A   1      47.568  33.029  28.498  1.00  0.00     0.167 HD
ATOM     71  C   UNL A   1      47.948  35.618  27.411  1.00  0.00     0.074 A 
ATOM     72  C   UNL A   1      47.739  37.017  27.099  1.00  0.00     0.031 C 
ATOM     73  C   UNL A   1      49.042  34.910  27.038  1.00  0.00     0.034 A 
BRANCH  60  74
ATOM     74  C   UNL A   1      49.079  29.071  29.070  1.00  0.00     0.023 A 
ATOM     75  C   UNL A   1      49.851  28.777  30.214  1.00  0.00     0.012 A 
ATOM     76  C   UNL A   1      48.958  28.104  28.053  1.00  0.00     0.148 A 
ATOM     77  C   UNL A   1      50.519  27.559  30.328  1.00  0.00     0.002 A 
ATOM     78  C   UNL A   1      49.588  26.873  28.196  1.00  0.00     0.091 A 
ATOM     79  F   UNL A   1      48.235  28.407  26.966  1.00  0.00    -0.205 F 
ATOM     80  C   UNL A   1      50.379  26.604  29.326  1.00  0.00     0.022 A 
BRANCH  78  81
ATOM     81  S   UNL A   1      49.406  25.544  27.002  1.00  0.00     0.127 S 
ATOM     82  O   UNL A   1      50.182  24.475  27.631  1.00  0.00    -0.237 OA
ATOM     83  O   UNL A   1      47.960  25.328  27.000  1.00  0.00    -0.237 OA
ATOM     84  O   UNL A   1      49.950  26.050  25.749  1.00  0.00    -0.744 OA
ENDBRANCH  78  81
ENDBRANCH  60  74
BRANCH  61  85
ATOM     85  C   UNL A   1      44.010  37.683  28.974  1.00  0.00     0.023 A 
ATOM     86  C   UNL A   1      44.096  38.486  30.127  1.00  0.00     0.012 A 
ATOM     87  C   UNL A   1      43.258  38.139  27.874  1.00  0.00     0.148 A 
ATOM     88  C   UNL A   1      43.412  39.700  30.200  1.00  0.00     0.002 A 
ATOM     89  C   UNL A   1      42.629  39.376  27.930  1.00  0.00     0.091 A 
ATOM     90  F   UNL A   1      43.182  37.356  26.788  1.00  0.00    -0.205 F 
ATOM     91  C   UNL A   1      42.687  40.150  29.100  1.00  0.00     0.022 A 
BRANCH  89  92
ATOM     92  S   UNL A   1      41.789  40.091  26.512  1.00  0.00     0.127 S 
ATOM     93  O   UNL A   1      42.910  40.556  25.702  1.00  0.00    -0.237 OA
ATOM     94  O   UNL A   1      41.072  38.936  25.971  1.00  0.00    -0.237 OA
ATOM     95  O   UNL A   1      40.923  41.132  27.052  1.00  0.00    -0.744 OA
ENDBRANCH  89  92
ENDBRANCH  61  85
BRANCH  73  96
ATOM     96  C   UNL A   1      50.083  35.617  26.210  1.00  0.00     0.023 A 
ATOM     97  C   UNL A   1      50.010  35.580  24.803  1.00  0.00     0.012 A 
ATOM     98  C   UNL A   1      51.093  36.379  26.831  1.00  0.00     0.148 A 
ATOM     99  C   UNL A   1      50.950  36.260  24.028  1.00  0.00     0.002 A 
ATOM    100  C   UNL A   1      51.993  37.095  26.052  1.00  0.00     0.091 A 
ATOM    101  F   UNL A   1      51.155  36.387  28.170  1.00  0.00    -0.205 F 
ATOM    102  C   UNL A   1      51.931  37.026  24.651  1.00  0.00     0.022 A 
BRANCH 100 103
ATOM    103  S   UNL A   1      53.229  38.187  26.765  1.00  0.00     0.127 S 
ATOM    104  O   UNL A   1      52.510  38.738  27.912  1.00  0.00    -0.237 OA
ATOM    105  O   UNL A   1      54.302  37.254  27.109  1.00  0.00    -0.237 OA
ATOM    106  O   UNL A   1      53.570  39.145  25.723  1.00  0.00    -0.744 OA
ENDBRANCH 100 103
ENDBRANCH  73  96
ENDBRANCH  47  48
ENDBRANCH  39  42
ENDBRANCH  37  38
ENDBRANCH  36  37
ENDBRANCH  35  36
ENDBRANCH   1  35
TORSDOF 20
ENDMDL
MODEL 2
REMARK VINA RESULT:      -8.8      5.690     10.167
REMARK SMILES CS(=O)(=O)c1ccc(C2=NN(c3ccc(C(=O)NCCCCCCNC(=O)c4ccc(-c5c6nc(c(-c7cccc(S(=O)(=O)[O-])c7F)c7ccc([nH]7)c(-c7cccc(S(=O)(=O)[O-])c7F)c7nc(c(-c8cccc(S(=O)(=O)[O-])c8F)c8ccc5[nH]8)C=C7)C=C6)cc4)cc3)[C@H](c3ccccc3)C2)cc1
REMARK SMILES IDX 21 1 20 2 19 3 18 4 16 5 17 6 15 8 12 9 13 10 92 11 14 12
REMARK SMILES IDX 91 13 11 14 9 15 10 16 100 17 93 18 8 19 5 20 6 21 102 22
REMARK SMILES IDX 7 23 101 24 2 25 1 26 3 27 4 28 94 29 95 30 99 31 96 32
REMARK SMILES IDX 98 33 97 34 22 35 23 36 24 37 25 38 26 39 27 41 28 42 29 43
REMARK SMILES IDX 90 44 30 45 89 46 31 47 32 48 33 49 83 50 34 51 88 52 82 53
REMARK SMILES IDX 84 54 35 55 87 56 81 57 80 58 36 60 68 61 48 62 67 63 49 64
REMARK SMILES IDX 52 65 66 66 85 67 50 68 51 69 65 71 86 72 53 73 37 74 38 75
REMARK SMILES IDX 46 76 39 77 41 78 47 79 40 80 42 81 43 82 44 83 45 84 69 85
REMARK SMILES IDX 70 86 78 87 71 88 73 89 79 90 72 91 74 92 75 93 76 94 77 95
REMARK SMILES IDX 54 96 55 97 63 98 56 99 58 100 64 101 57 102 59 103 60 104
REMARK SMILES IDX 61 105 62 106
REMARK H PARENT 18 7 25 40 84 59 52 70
REMARK Flexibility Score: inf
ROOT
ATOM      1  C   UNL A   1      41.737  24.947  28.078  1.00  0.00     0.002 C 
ENDROOT
BRANCH   1   2
ATOM      2  C   UNL A   1      41.080  25.316  26.742  1.00  0.00     0.021 C 
BRANCH   2   3
ATOM      3  C   UNL A   1      39.666  24.751  26.591  1.00  0.00     0.116 C 
BRANCH   3   4
ATOM      4  N   UNL A   1      39.723  23.315  26.380  1.00  0.00    -0.352 N 
ATOM      5  C   UNL A   1      38.768  22.420  25.970  1.00  0.00     0.251 C 
ATOM      6  O   UNL A   1      39.089  21.238  25.847  1.00  0.00    -0.269 OA
ATOM      7  H   UNL A   1      40.603  22.914  26.566  1.00  0.00     0.163 HD
BRANCH   5   8
ATOM      8  C   UNL A   1      37.393  22.845  25.602  1.00  0.00     0.039 A 
ATOM      9  C   UNL A   1      34.707  23.484  25.042  1.00  0.00     0.060 A 
ATOM     10  C   UNL A   1      35.150  23.386  26.364  1.00  0.00     0.029 A 
ATOM     11  C   UNL A   1      35.639  23.339  24.012  1.00  0.00     0.029 A 
ATOM     12  C   UNL A   1      36.482  23.065  26.644  1.00  0.00     0.016 A 
ATOM     13  C   UNL A   1      36.975  23.050  24.287  1.00  0.00     0.016 A 
BRANCH   9  14
ATOM     14  N   UNL A   1      33.390  23.763  24.725  1.00  0.00    -0.257 N 
ATOM     15  C   UNL A   1      31.765  25.116  24.586  1.00  0.00     0.071 C 
ATOM     16  N   UNL A   1      33.053  25.052  24.503  1.00  0.00    -0.176 NA
ATOM     17  C   UNL A   1      31.063  23.848  24.979  1.00  0.00     0.091 C 
ATOM     18  C   UNL A   1      32.258  22.871  25.016  1.00  0.00     0.144 C 
BRANCH  15  19
ATOM     19  C   UNL A   1      31.048  26.363  24.289  1.00  0.00    -0.002 A 
ATOM     20  C   UNL A   1      29.619  28.644  23.600  1.00  0.00     0.067 A 
ATOM     21  C   UNL A   1      29.024  27.392  23.446  1.00  0.00     0.021 A 
ATOM     22  C   UNL A   1      30.928  28.759  24.094  1.00  0.00     0.021 A 
ATOM     23  C   UNL A   1      29.749  26.250  23.778  1.00  0.00     0.011 A 
ATOM     24  C   UNL A   1      31.644  27.613  24.453  1.00  0.00     0.011 A 
BRANCH  20  25
ATOM     25  S   UNL A   1      28.747  30.126  23.149  1.00  0.00     0.175 S 
ATOM     26  C   UNL A   1      29.156  30.458  21.457  1.00  0.00     0.163 C 
ATOM     27  O   UNL A   1      29.311  31.203  23.938  1.00  0.00    -0.224 OA
ATOM     28  O   UNL A   1      27.333  29.807  23.220  1.00  0.00    -0.224 OA
ENDBRANCH  20  25
ENDBRANCH  15  19
BRANCH  18  29
ATOM     29  C   UNL A   1      32.235  21.668  24.075  1.00  0.00    -0.023 A 
ATOM     30  C   UNL A   1      32.440  20.340  24.481  1.00  0.00     0.006 A 
ATOM     31  C   UNL A   1      31.972  21.893  22.706  1.00  0.00     0.006 A 
ATOM     32  C   UNL A   1      32.395  19.288  23.556  1.00  0.00     0.000 A 
ATOM     33  C   UNL A   1      31.899  20.840  21.791  1.00  0.00     0.000 A 
ATOM     34  C   UNL A   1      32.117  19.537  22.215  1.00  0.00     0.000 A 
ENDBRANCH  18  29
ENDBRANCH   9  14
ENDBRANCH   5   8
ENDBRANCH   3   4
ENDBRANCH   2   3
ENDBRANCH   1   2
BRANCH   1  35
ATOM     35  C   UNL A   1      41.801  23.442  28.361  1.00  0.00     0.002 C 
BRANCH  35  36
ATOM     36  C   UNL A   1      43.137  22.780  28.012  1.00  0.00     0.021 C 
BRANCH  36  37
ATOM     37  C   UNL A   1      43.373  22.605  26.514  1.00  0.00     0.116 C 
BRANCH  37  38
ATOM     38  N   UNL A   1      44.787  22.428  26.216  1.00  0.00    -0.352 N 
ATOM     39  C   UNL A   1      45.767  23.378  26.072  1.00  0.00     0.251 C 
ATOM     40  H   UNL A   1      45.083  21.495  26.104  1.00  0.00     0.163 HD
ATOM     41  O   UNL A   1      46.850  23.074  25.579  1.00  0.00    -0.269 OA
BRANCH  39  42
ATOM     42  C   UNL A   1      45.508  24.767  26.504  1.00  0.00     0.039 A 
ATOM     43  C   UNL A   1      45.804  25.136  27.818  1.00  0.00     0.014 A 
ATOM     44  C   UNL A   1      44.967  25.699  25.615  1.00  0.00     0.014 A 
ATOM     45  C   UNL A   1      45.602  26.457  28.224  1.00  0.00     0.010 A 
ATOM     46  C   UNL A   1      44.839  27.029  25.999  1.00  0.00     0.010 A 
ATOM     47  C   UNL A   1      45.146  27.421  27.310  1.00  0.00    -0.014 A 
BRANCH  47  48
ATOM     48  C   UNL A   1      44.988  28.844  27.708  1.00  0.00     0.031 A 
ATOM     49  C   UNL A   1      46.152  29.792  27.612  1.00  0.00     0.074 A 
ATOM     50  C   UNL A   1      43.818  29.261  28.231  1.00  0.00     0.049 A 
ATOM     51  N   UNL A   1      46.224  31.047  27.970  1.00  0.00    -0.248 NA
ATOM     52  C   UNL A   1      47.409  29.253  27.065  1.00  0.00     0.031 C 
ATOM     53  C   UNL A   1      42.641  28.417  28.451  1.00  0.00     0.029 A 
ATOM     54  N   UNL A   1      43.434  30.493  28.699  1.00  0.00    -0.354 N 
ATOM     55  C   UNL A   1      47.533  31.442  27.717  1.00  0.00     0.074 A 
ATOM     56  C   UNL A   1      48.234  30.279  27.217  1.00  0.00     0.031 C 
ATOM     57  C   UNL A   1      41.670  29.154  29.015  1.00  0.00     0.029 A 
ATOM     58  C   UNL A   1      42.164  30.511  29.227  1.00  0.00     0.049 A 
ATOM     59  H   UNL A   1      44.014  31.288  28.662  1.00  0.00     0.167 HD
ATOM     60  C   UNL A   1      48.093  32.666  27.856  1.00  0.00     0.034 A 
ATOM     61  C   UNL A   1      41.480  31.503  29.831  1.00  0.00     0.034 A 
ATOM     62  C   UNL A   1      47.386  33.825  28.327  1.00  0.00     0.049 A 
ATOM     63  C   UNL A   1      42.117  32.861  29.949  1.00  0.00     0.074 A 
ATOM     64  C   UNL A   1      47.846  35.126  28.442  1.00  0.00     0.029 A 
ATOM     65  N   UNL A   1      46.072  33.826  28.769  1.00  0.00    -0.354 N 
ATOM     66  N   UNL A   1      43.310  33.248  29.570  1.00  0.00    -0.248 NA
ATOM     67  C   UNL A   1      41.299  33.929  30.544  1.00  0.00     0.031 C 
ATOM     68  C   UNL A   1      46.817  35.907  28.979  1.00  0.00     0.029 A 
ATOM     69  C   UNL A   1      45.705  35.102  29.163  1.00  0.00     0.049 A 
ATOM     70  H   UNL A   1      45.486  33.036  28.798  1.00  0.00     0.167 HD
ATOM     71  C   UNL A   1      43.374  34.609  29.845  1.00  0.00     0.074 A 
ATOM     72  C   UNL A   1      42.091  34.983  30.403  1.00  0.00     0.031 C 
ATOM     73  C   UNL A   1      44.407  35.470  29.668  1.00  0.00     0.034 A 
BRANCH  60  74
ATOM     74  C   UNL A   1      49.532  32.828  27.437  1.00  0.00     0.023 A 
ATOM     75  C   UNL A   1      49.829  33.288  26.137  1.00  0.00     0.012 A 
ATOM     76  C   UNL A   1      50.586  32.585  28.340  1.00  0.00     0.148 A 
ATOM     77  C   UNL A   1      51.150  33.469  25.730  1.00  0.00     0.002 A 
ATOM     78  C   UNL A   1      51.899  32.813  27.942  1.00  0.00     0.091 A 
ATOM     79  F   UNL A   1      50.287  32.132  29.564  1.00  0.00    -0.205 F 
ATOM     80  C   UNL A   1      52.183  33.242  26.634  1.00  0.00     0.022 A 
BRANCH  78  81
ATOM     81  S   UNL A   1      53.298  32.630  29.054  1.00  0.00     0.127 S 
ATOM     82  O   UNL A   1      53.131  31.252  29.513  1.00  0.00    -0.237 OA
ATOM     83  O   UNL A   1      54.433  32.840  28.155  1.00  0.00    -0.237 OA
ATOM     84  O   UNL A   1      53.134  33.651  30.080  1.00  0.00    -0.744 OA
ENDBRANCH  78  81
ENDBRANCH  60  74
BRANCH  61  85
ATOM     85  C   UNL A   1      40.099  31.256  30.334  1.00  0.00     0.023 A 
ATOM     86  C   UNL A   1      38.993  31.746  29.612  1.00  0.00     0.012 A 
ATOM     87  C   UNL A   1      39.877  30.524  31.516  1.00  0.00     0.148 A 
ATOM     88  C   UNL A   1      37.694  31.546  30.080  1.00  0.00     0.002 A 
ATOM     89  C   UNL A   1      38.579  30.276  31.944  1.00  0.00     0.091 A 
ATOM     90  F   UNL A   1      40.943  30.073  32.193  1.00  0.00    -0.205 F 
ATOM     91  C   UNL A   1      37.485  30.804  31.240  1.00  0.00     0.022 A 
BRANCH  89  92
ATOM     92  S   UNL A   1      38.217  29.217  33.350  1.00  0.00     0.127 S 
ATOM     93  O   UNL A   1      36.781  29.004  33.201  1.00  0.00    -0.237 OA
ATOM     94  O   UNL A   1      39.048  28.046  33.068  1.00  0.00    -0.237 OA
ATOM     95  O   UNL A   1      38.627  29.972  34.527  1.00  0.00    -0.744 OA
ENDBRANCH  89  92
ENDBRANCH  61  85
BRANCH  73  96
ATOM     96  C   UNL A   1      44.185  36.913  30.034  1.00  0.00     0.023 A 
ATOM     97  C   UNL A   1      43.881  37.857  29.033  1.00  0.00     0.012 A 
ATOM     98  C   UNL A   1      44.206  37.320  31.384  1.00  0.00     0.148 A 
ATOM     99  C   UNL A   1      43.639  39.191  29.366  1.00  0.00     0.002 A 
ATOM    100  C   UNL A   1      43.913  38.637  31.712  1.00  0.00     0.091 A 
ATOM    101  F   UNL A   1      44.514  36.410  32.319  1.00  0.00    -0.205 F 
ATOM    102  C   UNL A   1      43.643  39.576  30.703  1.00  0.00     0.022 A 
BRANCH 100 103
ATOM    103  S   UNL A   1      43.798  39.204  33.412  1.00  0.00     0.127 S 
ATOM    104  O   UNL A   1      45.152  38.950  33.902  1.00  0.00    -0.237 OA
ATOM    105  O   UNL A   1      43.466  40.619  33.244  1.00  0.00    -0.237 OA
ATOM    106  O   UNL A   1      42.751  38.406  34.033  1.00  0.00    -0.744 OA
ENDBRANCH 100 103
ENDBRANCH  73  96
ENDBRANCH  47  48
ENDBRANCH  39  42
ENDBRANCH  37  38
ENDBRANCH  36  37
ENDBRANCH  35  36
ENDBRANCH   1  35
TORSDOF 20
ENDMDL
MODEL 3
REMARK VINA RESULT:      -8.7      4.615     12.318
REMARK SMILES CS(=O)(=O)c1ccc(C2=NN(c3ccc(C(=O)NCCCCCCNC(=O)c4ccc(-c5c6nc(c(-c7cccc(S(=O)(=O)[O-])c7F)c7ccc([nH]7)c(-c7cccc(S(=O)(=O)[O-])c7F)c7nc(c(-c8cccc(S(=O)(=O)[O-])c8F)c8ccc5[nH]8)C=C7)C=C6)cc4)cc3)[C@H](c3ccccc3)C2)cc1
REMARK SMILES IDX 21 1 20 2 19 3 18 4 16 5 17 6 15 8 12 9 13 10 92 11 14 12
REMARK SMILES IDX 91 13 11 14 9 15 10 16 100 17 93 18 8 19 5 20 6 21 102 22
REMARK SMILES IDX 7 23 101 24 2 25 1 26 3 27 4 28 94 29 95 30 99 31 96 32
REMARK SMILES IDX 98 33 97 34 22 35 23 36 24 37 25 38 26 39 27 41 28 42 29 43
REMARK SMILES IDX 90 44 30 45 89 46 31 47 32 48 33 49 83 50 34 51 88 52 82 53
REMARK SMILES IDX 84 54 35 55 87 56 81 57 80 58 36 60 68 61 48 62 67 63 49 64
REMARK SMILES IDX 52 65 66 66 85 67 50 68 51 69 65 71 86 72 53 73 37 74 38 75
REMARK SMILES IDX 46 76 39 77 41 78 47 79 40 80 42 81 43 82 44 83 45 84 69 85
REMARK SMILES IDX 70 86 78 87 71 88 73 89 79 90 72 91 74 92 75 93 76 94 77 95
REMARK SMILES IDX 54 96 55 97 63 98 56 99 58 100 64 101 57 102 59 103 60 104
REMARK SMILES IDX 61 105 62 106
REMARK H PARENT 18 7 25 40 84 59 52 70
REMARK Flexibility Score: inf
ROOT
ATOM      1  C   UNL A   1      45.173  24.666  26.852  1.00  0.00     0.002 C 
ENDROOT
BRANCH   1   2
ATOM      2  C   UNL A   1      44.258  25.149  27.984  1.00  0.00     0.021 C 
BRANCH   2   3
ATOM      3  C   UNL A   1      42.837  25.469  27.514  1.00  0.00     0.116 C 
BRANCH   3   4
ATOM      4  N   UNL A   1      42.878  26.140  26.227  1.00  0.00    -0.352 N 
ATOM      5  C   UNL A   1      42.354  27.337  25.811  1.00  0.00     0.251 C 
ATOM      6  O   UNL A   1      42.558  27.694  24.650  1.00  0.00    -0.269 OA
ATOM      7  H   UNL A   1      43.368  25.647  25.529  1.00  0.00     0.163 HD
BRANCH   5   8
ATOM      8  C   UNL A   1      41.621  28.242  26.734  1.00  0.00     0.039 A 
ATOM      9  C   UNL A   1      40.380  29.894  28.650  1.00  0.00     0.060 A 
ATOM     10  C   UNL A   1      41.758  29.975  28.432  1.00  0.00     0.029 A 
ATOM     11  C   UNL A   1      39.626  29.038  27.844  1.00  0.00     0.029 A 
ATOM     12  C   UNL A   1      42.377  29.153  27.484  1.00  0.00     0.016 A 
ATOM     13  C   UNL A   1      40.233  28.239  26.876  1.00  0.00     0.016 A 
BRANCH   9  14
ATOM     14  N   UNL A   1      39.738  30.663  29.603  1.00  0.00    -0.257 N 
ATOM     15  C   UNL A   1      38.369  32.190  30.135  1.00  0.00     0.071 C 
ATOM     16  N   UNL A   1      38.585  31.273  29.251  1.00  0.00    -0.176 NA
ATOM     17  C   UNL A   1      39.437  32.373  31.175  1.00  0.00     0.091 C 
ATOM     18  C   UNL A   1      40.387  31.215  30.800  1.00  0.00     0.144 C 
BRANCH  15  19
ATOM     19  C   UNL A   1      37.133  32.983  30.117  1.00  0.00    -0.002 A 
ATOM     20  C   UNL A   1      34.856  34.567  29.952  1.00  0.00     0.067 A 
ATOM     21  C   UNL A   1      35.505  34.179  28.780  1.00  0.00     0.021 A 
ATOM     22  C   UNL A   1      35.344  34.168  31.206  1.00  0.00     0.021 A 
ATOM     23  C   UNL A   1      36.655  33.397  28.867  1.00  0.00     0.011 A 
ATOM     24  C   UNL A   1      36.482  33.361  31.290  1.00  0.00     0.011 A 
BRANCH  20  25
ATOM     25  S   UNL A   1      33.410  35.599  29.890  1.00  0.00     0.175 S 
ATOM     26  C   UNL A   1      33.290  36.396  31.469  1.00  0.00     0.163 C 
ATOM     27  O   UNL A   1      32.267  34.714  29.777  1.00  0.00    -0.224 OA
ATOM     28  O   UNL A   1      33.673  36.615  28.888  1.00  0.00    -0.224 OA
ENDBRANCH  20  25
ENDBRANCH  15  19
BRANCH  18  29
ATOM     29  C   UNL A   1      40.653  30.134  31.845  1.00  0.00    -0.023 A 
ATOM     30  C   UNL A   1      39.999  30.051  33.085  1.00  0.00     0.006 A 
ATOM     31  C   UNL A   1      41.606  29.136  31.549  1.00  0.00     0.006 A 
ATOM     32  C   UNL A   1      40.295  29.022  33.989  1.00  0.00     0.000 A 
ATOM     33  C   UNL A   1      41.878  28.094  32.439  1.00  0.00     0.000 A 
ATOM     34  C   UNL A   1      41.226  28.041  33.664  1.00  0.00     0.000 A 
ENDBRANCH  18  29
ENDBRANCH   9  14
ENDBRANCH   5   8
ENDBRANCH   3   4
ENDBRANCH   2   3
ENDBRANCH   1   2
BRANCH   1  35
ATOM     35  C   UNL A   1      46.595  24.306  27.293  1.00  0.00     0.002 C 
BRANCH  35  36
ATOM     36  C   UNL A   1      47.666  24.477  26.212  1.00  0.00     0.021 C 
BRANCH  36  37
ATOM     37  C   UNL A   1      48.903  25.240  26.676  1.00  0.00     0.116 C 
BRANCH  37  38
ATOM     38  N   UNL A   1      49.201  26.358  25.792  1.00  0.00    -0.352 N 
ATOM     39  C   UNL A   1      48.681  27.627  25.798  1.00  0.00     0.251 C 
ATOM     40  H   UNL A   1      49.870  26.178  25.092  1.00  0.00     0.163 HD
ATOM     41  O   UNL A   1      48.857  28.369  24.835  1.00  0.00    -0.269 OA
BRANCH  39  42
ATOM     42  C   UNL A   1      47.904  28.094  26.965  1.00  0.00     0.039 A 
ATOM     43  C   UNL A   1      48.577  28.672  28.044  1.00  0.00     0.014 A 
ATOM     44  C   UNL A   1      46.513  27.953  26.995  1.00  0.00     0.014 A 
ATOM     45  C   UNL A   1      47.847  29.154  29.132  1.00  0.00     0.010 A 
ATOM     46  C   UNL A   1      45.785  28.502  28.044  1.00  0.00     0.010 A 
ATOM     47  C   UNL A   1      46.443  29.099  29.129  1.00  0.00    -0.014 A 
BRANCH  47  48
ATOM     48  C   UNL A   1      45.649  29.666  30.250  1.00  0.00     0.031 A 
ATOM     49  C   UNL A   1      44.975  31.003  30.101  1.00  0.00     0.074 A 
ATOM     50  C   UNL A   1      45.602  29.012  31.427  1.00  0.00     0.049 A 
ATOM     51  N   UNL A   1      44.295  31.685  30.985  1.00  0.00    -0.248 NA
ATOM     52  C   UNL A   1      45.102  31.674  28.795  1.00  0.00     0.031 C 
ATOM     53  C   UNL A   1      46.282  27.748  31.721  1.00  0.00     0.029 A 
ATOM     54  N   UNL A   1      44.979  29.335  32.606  1.00  0.00    -0.354 N 
ATOM     55  C   UNL A   1      43.935  32.871  30.356  1.00  0.00     0.074 A 
ATOM     56  C   UNL A   1      44.511  32.836  29.029  1.00  0.00     0.031 C 
ATOM     57  C   UNL A   1      46.042  27.406  32.997  1.00  0.00     0.029 A 
ATOM     58  C   UNL A   1      45.222  28.439  33.622  1.00  0.00     0.049 A 
ATOM     59  H   UNL A   1      44.411  30.132  32.716  1.00  0.00     0.167 HD
ATOM     60  C   UNL A   1      43.168  33.884  30.825  1.00  0.00     0.034 A 
ATOM     61  C   UNL A   1      44.843  28.455  34.914  1.00  0.00     0.034 A 
ATOM     62  C   UNL A   1      42.575  33.902  32.135  1.00  0.00     0.049 A 
ATOM     63  C   UNL A   1      43.970  29.579  35.404  1.00  0.00     0.074 A 
ATOM     64  C   UNL A   1      41.729  34.851  32.682  1.00  0.00     0.029 A 
ATOM     65  N   UNL A   1      42.770  32.932  33.106  1.00  0.00    -0.354 N 
ATOM     66  N   UNL A   1      43.521  30.621  34.748  1.00  0.00    -0.248 NA
ATOM     67  C   UNL A   1      43.519  29.509  36.802  1.00  0.00     0.031 C 
ATOM     68  C   UNL A   1      41.433  34.467  33.995  1.00  0.00     0.029 A 
ATOM     69  C   UNL A   1      42.065  33.261  34.252  1.00  0.00     0.049 A 
ATOM     70  H   UNL A   1      43.327  32.128  32.998  1.00  0.00     0.167 HD
ATOM     71  C   UNL A   1      42.707  31.311  35.639  1.00  0.00     0.074 A 
ATOM     72  C   UNL A   1      42.707  30.555  36.875  1.00  0.00     0.031 C 
ATOM     73  C   UNL A   1      42.033  32.473  35.457  1.00  0.00     0.034 A 
BRANCH  60  74
ATOM     74  C   UNL A   1      42.878  35.032  29.893  1.00  0.00     0.023 A 
ATOM     75  C   UNL A   1      41.806  34.932  28.982  1.00  0.00     0.012 A 
ATOM     76  C   UNL A   1      43.622  36.227  29.955  1.00  0.00     0.148 A 
ATOM     77  C   UNL A   1      41.501  35.988  28.123  1.00  0.00     0.002 A 
ATOM     78  C   UNL A   1      43.281  37.293  29.130  1.00  0.00     0.091 A 
ATOM     79  F   UNL A   1      44.647  36.298  30.814  1.00  0.00    -0.205 F 
ATOM     80  C   UNL A   1      42.230  37.170  28.205  1.00  0.00     0.022 A 
BRANCH  78  81
ATOM     81  S   UNL A   1      44.104  38.887  29.211  1.00  0.00     0.127 S 
ATOM     82  O   UNL A   1      45.464  38.538  28.802  1.00  0.00    -0.237 OA
ATOM     83  O   UNL A   1      43.354  39.669  28.228  1.00  0.00    -0.237 OA
ATOM     84  O   UNL A   1      43.966  39.343  30.587  1.00  0.00    -0.744 OA
ENDBRANCH  78  81
ENDBRANCH  60  74
BRANCH  61  85
ATOM     85  C   UNL A   1      45.256  27.351  35.827  1.00  0.00     0.023 A 
ATOM     86  C   UNL A   1      44.475  26.182  35.908  1.00  0.00     0.012 A 
ATOM     87  C   UNL A   1      46.428  27.449  36.601  1.00  0.00     0.148 A 
ATOM     88  C   UNL A   1      44.833  25.148  36.774  1.00  0.00     0.002 A 
ATOM     89  C   UNL A   1      46.812  26.392  37.415  1.00  0.00     0.091 A 
ATOM     90  F   UNL A   1      47.153  28.574  36.515  1.00  0.00    -0.205 F 
ATOM     91  C   UNL A   1      46.005  25.247  37.520  1.00  0.00     0.022 A 
BRANCH  89  92
ATOM     92  S   UNL A   1      48.372  26.381  38.305  1.00  0.00     0.127 S 
ATOM     93  O   UNL A   1      49.337  26.518  37.219  1.00  0.00    -0.237 OA
ATOM     94  O   UNL A   1      48.238  27.558  39.164  1.00  0.00    -0.237 OA
ATOM     95  O   UNL A   1      48.405  25.115  39.026  1.00  0.00    -0.744 OA
ENDBRANCH  89  92
ENDBRANCH  61  85
BRANCH  73  96
ATOM     96  C   UNL A   1      41.197  32.983  36.602  1.00  0.00     0.023 A 
ATOM     97  C   UNL A   1      41.707  33.979  37.458  1.00  0.00     0.012 A 
ATOM     98  C   UNL A   1      39.878  32.523  36.784  1.00  0.00     0.148 A 
ATOM     99  C   UNL A   1      40.927  34.483  38.501  1.00  0.00     0.002 A 
ATOM    100  C   UNL A   1      39.091  33.067  37.791  1.00  0.00     0.091 A 
ATOM    101  F   UNL A   1      39.418  31.563  35.968  1.00  0.00    -0.205 F 
ATOM    102  C   UNL A   1      39.619  34.036  38.659  1.00  0.00     0.022 A 
BRANCH 100 103
ATOM    103  S   UNL A   1      37.363  32.625  38.008  1.00  0.00     0.127 S 
ATOM    104  O   UNL A   1      37.413  31.169  37.891  1.00  0.00    -0.237 OA
ATOM    105  O   UNL A   1      37.086  33.119  39.357  1.00  0.00    -0.237 OA
ATOM    106  O   UNL A   1      36.635  33.312  36.951  1.00  0.00    -0.744 OA
ENDBRANCH 100 103
ENDBRANCH  73  96
ENDBRANCH  47  48
ENDBRANCH  39  42
ENDBRANCH  37  38
ENDBRANCH  36  37
ENDBRANCH  35  36
ENDBRANCH   1  35
TORSDOF 20
ENDMDL
