MODEL 1
REMARK VINA RESULT:     -10.8      0.000      0.000
REMARK SMILES C[C@](O)(C(=O)NCCCCCCNC(=O)c1ccc(-c2c3nc(c(-c4cccc(S(=O)(=O)[O-])c4F)c4ccc([nH]4)c(-c4cccc(S(=O)(=O)[O-])c4F)c4nc(c(-c5cccc(S(=O)(=O)[O-])c5F)c5ccc2[nH]5)C=C4)C=C3)cc1)c1ccc(O)cc1
REMARK SMILES IDX 10 1 9 2 8 3 7 4 6 5 4 6 5 7 2 9 1 10 79 11 80 12 85 13
REMARK SMILES IDX 81 14 84 15 82 16 83 17 3 19 11 21 12 22 13 23 14 24 15 26
REMARK SMILES IDX 16 27 17 28 78 29 18 30 77 31 19 32 20 33 21 34 71 35 22 36
REMARK SMILES IDX 76 37 70 38 72 39 23 40 75 41 69 42 68 43 24 45 56 46 36 47
REMARK SMILES IDX 55 48 37 49 40 50 54 51 73 52 38 53 39 54 53 56 74 57 41 58
REMARK SMILES IDX 25 59 26 60 34 61 27 62 29 63 35 64 28 65 30 66 31 67 32 68
REMARK SMILES IDX 33 69 57 70 58 71 66 72 59 73 61 74 67 75 60 76 62 77 63 78
REMARK SMILES IDX 64 79 65 80 42 81 43 82 51 83 44 84 46 85 52 86 45 87 47 88
REMARK SMILES IDX 48 89 49 90 50 91
REMARK H PARENT 6 8 83 18 3 20 13 25 72 44 40 55
REMARK Flexibility Score: inf
ROOT
ATOM      1  C   UNL A   1      31.297  31.133  25.730  1.00  0.00     0.002 C 
ENDROOT
BRANCH   1   2
ATOM      2  C   UNL A   1      31.614  29.691  26.139  1.00  0.00     0.002 C 
BRANCH   2   3
ATOM      3  C   UNL A   1      33.085  29.281  25.995  1.00  0.00     0.021 C 
BRANCH   3   4
ATOM      4  C   UNL A   1      33.308  27.974  25.240  1.00  0.00     0.116 C 
BRANCH   4   5
ATOM      5  N   UNL A   1      33.896  28.215  23.935  1.00  0.00    -0.353 N 
ATOM      6  C   UNL A   1      33.458  27.888  22.681  1.00  0.00     0.256 C 
ATOM      7  O   UNL A   1      34.108  28.375  21.753  1.00  0.00    -0.271 OA
ATOM      8  H   UNL A   1      34.755  28.695  23.956  1.00  0.00     0.163 HD
BRANCH   6   9
ATOM      9  C   UNL A   1      32.173  27.001  22.497  1.00  0.00     0.165 C 
ATOM     10  C   UNL A   1      32.343  25.840  23.509  1.00  0.00     0.058 C 
BRANCH   9  11
ATOM     11  C   UNL A   1      30.821  27.716  22.671  1.00  0.00    -0.007 A 
ATOM     12  C   UNL A   1      29.717  27.154  23.336  1.00  0.00     0.011 A 
ATOM     13  C   UNL A   1      30.669  29.040  22.201  1.00  0.00     0.011 A 
ATOM     14  C   UNL A   1      28.492  27.826  23.411  1.00  0.00     0.046 A 
ATOM     15  C   UNL A   1      29.446  29.714  22.267  1.00  0.00     0.046 A 
ATOM     16  C   UNL A   1      28.357  29.088  22.854  1.00  0.00     0.115 A 
BRANCH  16  17
ATOM     17  O   UNL A   1      27.135  29.690  22.909  1.00  0.00    -0.508 OA
ATOM     18  H   UNL A   1      27.066  30.587  23.170  1.00  0.00     0.293 HD
ENDBRANCH  16  17
ENDBRANCH   9  11
BRANCH   9  19
ATOM     19  O   UNL A   1      32.110  26.437  21.180  1.00  0.00    -0.376 OA
ATOM     20  H   UNL A   1      32.881  25.866  21.036  1.00  0.00     0.212 HD
ENDBRANCH   9  19
ENDBRANCH   6   9
ENDBRANCH   4   5
ENDBRANCH   3   4
ENDBRANCH   2   3
ENDBRANCH   1   2
BRANCH   1  21
ATOM     21  C   UNL A   1      31.313  32.150  26.874  1.00  0.00     0.021 C 
BRANCH  21  22
ATOM     22  C   UNL A   1      32.659  32.830  27.102  1.00  0.00     0.116 C 
BRANCH  22  23
ATOM     23  N   UNL A   1      32.513  34.166  27.657  1.00  0.00    -0.352 N 
ATOM     24  C   UNL A   1      33.167  34.733  28.721  1.00  0.00     0.251 C 
ATOM     25  H   UNL A   1      31.855  34.743  27.207  1.00  0.00     0.163 HD
ATOM     26  O   UNL A   1      32.788  35.813  29.172  1.00  0.00    -0.269 OA
BRANCH  24  27
ATOM     27  C   UNL A   1      34.314  34.032  29.335  1.00  0.00     0.039 A 
ATOM     28  C   UNL A   1      35.608  34.383  28.947  1.00  0.00     0.014 A 
ATOM     29  C   UNL A   1      34.113  33.039  30.299  1.00  0.00     0.014 A 
ATOM     30  C   UNL A   1      36.703  33.777  29.566  1.00  0.00     0.010 A 
ATOM     31  C   UNL A   1      35.204  32.494  30.970  1.00  0.00     0.010 A 
ATOM     32  C   UNL A   1      36.511  32.850  30.606  1.00  0.00    -0.014 A 
BRANCH  32  33
ATOM     33  C   UNL A   1      37.665  32.255  31.328  1.00  0.00     0.031 A 
ATOM     34  C   UNL A   1      38.429  31.107  30.725  1.00  0.00     0.074 A 
ATOM     35  C   UNL A   1      37.978  32.698  32.562  1.00  0.00     0.049 A 
ATOM     36  N   UNL A   1      39.427  30.428  31.226  1.00  0.00    -0.248 NA
ATOM     37  C   UNL A   1      37.999  30.643  29.394  1.00  0.00     0.031 C 
ATOM     38  C   UNL A   1      37.269  33.755  33.287  1.00  0.00     0.029 A 
ATOM     39  N   UNL A   1      38.960  32.301  33.436  1.00  0.00    -0.354 N 
ATOM     40  C   UNL A   1      39.725  29.442  30.292  1.00  0.00     0.074 A 
ATOM     41  C   UNL A   1      38.779  29.588  29.209  1.00  0.00     0.031 C 
ATOM     42  C   UNL A   1      37.840  33.923  34.491  1.00  0.00     0.029 A 
ATOM     43  C   UNL A   1      38.931  32.966  34.640  1.00  0.00     0.049 A 
ATOM     44  H   UNL A   1      39.623  31.605  33.221  1.00  0.00     0.167 HD
ATOM     45  C   UNL A   1      40.716  28.519  30.318  1.00  0.00     0.034 A 
ATOM     46  C   UNL A   1      39.688  32.814  35.744  1.00  0.00     0.034 A 
ATOM     47  C   UNL A   1      41.678  28.399  31.381  1.00  0.00     0.049 A 
ATOM     48  C   UNL A   1      40.794  31.794  35.737  1.00  0.00     0.074 A 
ATOM     49  C   UNL A   1      42.765  27.548  31.464  1.00  0.00     0.029 A 
ATOM     50  N   UNL A   1      41.663  29.142  32.551  1.00  0.00    -0.354 N 
ATOM     51  N   UNL A   1      41.156  30.975  34.779  1.00  0.00    -0.248 NA
ATOM     52  C   UNL A   1      41.621  31.701  36.949  1.00  0.00     0.031 C 
ATOM     53  C   UNL A   1      43.389  27.753  32.697  1.00  0.00     0.029 A 
ATOM     54  C   UNL A   1      42.714  28.760  33.367  1.00  0.00     0.049 A 
ATOM     55  H   UNL A   1      41.002  29.838  32.770  1.00  0.00     0.167 HD
ATOM     56  C   UNL A   1      42.274  30.300  35.257  1.00  0.00     0.074 A 
ATOM     57  C   UNL A   1      42.543  30.822  36.580  1.00  0.00     0.031 C 
ATOM     58  C   UNL A   1      43.004  29.325  34.659  1.00  0.00     0.034 A 
BRANCH  45  59
ATOM     59  C   UNL A   1      40.845  27.590  29.139  1.00  0.00     0.023 A 
ATOM     60  C   UNL A   1      40.028  26.443  29.064  1.00  0.00     0.012 A 
ATOM     61  C   UNL A   1      41.715  27.890  28.072  1.00  0.00     0.148 A 
ATOM     62  C   UNL A   1      40.098  25.591  27.961  1.00  0.00     0.002 A 
ATOM     63  C   UNL A   1      41.745  27.063  26.955  1.00  0.00     0.091 A 
ATOM     64  F   UNL A   1      42.495  28.975  28.171  1.00  0.00    -0.205 F 
ATOM     65  C   UNL A   1      40.946  25.908  26.903  1.00  0.00     0.022 A 
BRANCH  63  66
ATOM     66  S   UNL A   1      42.741  27.424  25.505  1.00  0.00     0.127 S 
ATOM     67  O   UNL A   1      42.102  28.640  25.004  1.00  0.00    -0.237 OA
ATOM     68  O   UNL A   1      44.067  27.626  26.088  1.00  0.00    -0.237 OA
ATOM     69  O   UNL A   1      42.626  26.260  24.637  1.00  0.00    -0.744 OA
ENDBRANCH  63  66
ENDBRANCH  45  59
BRANCH  46  70
ATOM     70  C   UNL A   1      39.457  33.676  36.939  1.00  0.00     0.023 A 
ATOM     71  C   UNL A   1      39.889  35.017  36.924  1.00  0.00     0.012 A 
ATOM     72  C   UNL A   1      38.810  33.177  38.086  1.00  0.00     0.148 A 
ATOM     73  C   UNL A   1      39.723  35.831  38.045  1.00  0.00     0.002 A 
ATOM     74  C   UNL A   1      38.595  34.010  39.177  1.00  0.00     0.091 A 
ATOM     75  F   UNL A   1      38.416  31.896  38.086  1.00  0.00    -0.205 F 
ATOM     76  C   UNL A   1      39.068  35.331  39.167  1.00  0.00     0.022 A 
BRANCH  74  77
ATOM     77  S   UNL A   1      37.646  33.491  40.611  1.00  0.00     0.127 S 
ATOM     78  O   UNL A   1      36.409  33.015  39.995  1.00  0.00    -0.237 OA
ATOM     79  O   UNL A   1      38.499  32.443  41.173  1.00  0.00    -0.237 OA
ATOM     80  O   UNL A   1      37.521  34.676  41.449  1.00  0.00    -0.744 OA
ENDBRANCH  74  77
ENDBRANCH  46  70
BRANCH  58  81
ATOM     81  C   UNL A   1      44.196  28.787  35.406  1.00  0.00     0.023 A 
ATOM     82  C   UNL A   1      45.467  29.367  35.222  1.00  0.00     0.012 A 
ATOM     83  C   UNL A   1      44.040  27.749  36.346  1.00  0.00     0.148 A 
ATOM     84  C   UNL A   1      46.570  28.897  35.933  1.00  0.00     0.002 A 
ATOM     85  C   UNL A   1      45.132  27.322  37.091  1.00  0.00     0.091 A 
ATOM     86  F   UNL A   1      42.826  27.198  36.496  1.00  0.00    -0.205 F 
ATOM     87  C   UNL A   1      46.401  27.885  36.875  1.00  0.00     0.022 A 
BRANCH  85  88
ATOM     88  S   UNL A   1      44.991  26.095  38.394  1.00  0.00     0.127 S 
ATOM     89  O   UNL A   1      46.380  25.962  38.830  1.00  0.00    -0.237 OA
ATOM     90  O   UNL A   1      44.112  26.765  39.354  1.00  0.00    -0.237 OA
ATOM     91  O   UNL A   1      44.417  24.910  37.773  1.00  0.00    -0.744 OA
ENDBRANCH  85  88
ENDBRANCH  58  81
ENDBRANCH  32  33
ENDBRANCH  24  27
ENDBRANCH  22  23
ENDBRANCH  21  22
ENDBRANCH   1  21
TORSDOF 19
ENDMDL
MODEL 2
REMARK VINA RESULT:     -10.8      4.288      7.217
REMARK SMILES C[C@](O)(C(=O)NCCCCCCNC(=O)c1ccc(-c2c3nc(c(-c4cccc(S(=O)(=O)[O-])c4F)c4ccc([nH]4)c(-c4cccc(S(=O)(=O)[O-])c4F)c4nc(c(-c5cccc(S(=O)(=O)[O-])c5F)c5ccc2[nH]5)C=C4)C=C3)cc1)c1ccc(O)cc1
REMARK SMILES IDX 10 1 9 2 8 3 7 4 6 5 4 6 5 7 2 9 1 10 79 11 80 12 85 13
REMARK SMILES IDX 81 14 84 15 82 16 83 17 3 19 11 21 12 22 13 23 14 24 15 26
REMARK SMILES IDX 16 27 17 28 78 29 18 30 77 31 19 32 20 33 21 34 71 35 22 36
REMARK SMILES IDX 76 37 70 38 72 39 23 40 75 41 69 42 68 43 24 45 56 46 36 47
REMARK SMILES IDX 55 48 37 49 40 50 54 51 73 52 38 53 39 54 53 56 74 57 41 58
REMARK SMILES IDX 25 59 26 60 34 61 27 62 29 63 35 64 28 65 30 66 31 67 32 68
REMARK SMILES IDX 33 69 57 70 58 71 66 72 59 73 61 74 67 75 60 76 62 77 63 78
REMARK SMILES IDX 64 79 65 80 42 81 43 82 51 83 44 84 46 85 52 86 45 87 47 88
REMARK SMILES IDX 48 89 49 90 50 91
REMARK H PARENT 6 8 83 18 3 20 13 25 72 44 40 55
REMARK Flexibility Score: inf
ROOT
ATOM      1  C   UNL A   1      36.251  34.109  28.731  1.00  0.00     0.002 C 
ENDROOT
BRANCH   1   2
ATOM      2  C   UNL A   1      37.541  33.376  29.112  1.00  0.00     0.002 C 
BRANCH   2   3
ATOM      3  C   UNL A   1      38.412  34.087  30.154  1.00  0.00     0.021 C 
BRANCH   3   4
ATOM      4  C   UNL A   1      37.873  34.025  31.580  1.00  0.00     0.116 C 
BRANCH   4   5
ATOM      5  N   UNL A   1      37.091  32.821  31.795  1.00  0.00    -0.353 N 
ATOM      6  C   UNL A   1      35.961  32.607  32.535  1.00  0.00     0.256 C 
ATOM      7  O   UNL A   1      35.437  31.500  32.388  1.00  0.00    -0.271 OA
ATOM      8  H   UNL A   1      37.432  32.024  31.329  1.00  0.00     0.163 HD
BRANCH   6   9
ATOM      9  C   UNL A   1      35.380  33.752  33.443  1.00  0.00     0.165 C 
ATOM     10  C   UNL A   1      36.590  34.256  34.269  1.00  0.00     0.058 C 
BRANCH   9  11
ATOM     11  C   UNL A   1      34.668  34.906  32.714  1.00  0.00    -0.007 A 
ATOM     12  C   UNL A   1      34.098  34.791  31.435  1.00  0.00     0.011 A 
ATOM     13  C   UNL A   1      34.507  36.148  33.369  1.00  0.00     0.011 A 
ATOM     14  C   UNL A   1      33.516  35.891  30.793  1.00  0.00     0.046 A 
ATOM     15  C   UNL A   1      33.932  37.252  32.732  1.00  0.00     0.046 A 
ATOM     16  C   UNL A   1      33.461  37.119  31.435  1.00  0.00     0.115 A 
BRANCH  16  17
ATOM     17  O   UNL A   1      32.928  38.175  30.760  1.00  0.00    -0.508 OA
ATOM     18  H   UNL A   1      33.489  38.775  30.309  1.00  0.00     0.293 HD
ENDBRANCH  16  17
ENDBRANCH   9  11
BRANCH   9  19
ATOM     19  O   UNL A   1      34.397  33.248  34.356  1.00  0.00    -0.376 OA
ATOM     20  H   UNL A   1      33.945  33.991  34.787  1.00  0.00     0.212 HD
ENDBRANCH   9  19
ENDBRANCH   6   9
ENDBRANCH   4   5
ENDBRANCH   3   4
ENDBRANCH   2   3
ENDBRANCH   1   2
BRANCH   1  21
ATOM     21  C   UNL A   1      35.209  33.254  28.006  1.00  0.00     0.021 C 
BRANCH  21  22
ATOM     22  C   UNL A   1      34.387  32.347  28.915  1.00  0.00     0.116 C 
BRANCH  22  23
ATOM     23  N   UNL A   1      33.881  31.178  28.214  1.00  0.00    -0.352 N 
ATOM     24  C   UNL A   1      34.563  30.067  27.787  1.00  0.00     0.251 C 
ATOM     25  H   UNL A   1      32.916  31.184  28.019  1.00  0.00     0.163 HD
ATOM     26  O   UNL A   1      34.014  29.255  27.044  1.00  0.00    -0.269 OA
BRANCH  24  27
ATOM     27  C   UNL A   1      35.966  29.862  28.206  1.00  0.00     0.039 A 
ATOM     28  C   UNL A   1      36.224  29.373  29.487  1.00  0.00     0.014 A 
ATOM     29  C   UNL A   1      37.021  30.141  27.332  1.00  0.00     0.014 A 
ATOM     30  C   UNL A   1      37.540  29.111  29.873  1.00  0.00     0.010 A 
ATOM     31  C   UNL A   1      38.324  29.805  27.690  1.00  0.00     0.010 A 
ATOM     32  C   UNL A   1      38.599  29.294  28.967  1.00  0.00    -0.014 A 
BRANCH  32  33
ATOM     33  C   UNL A   1      39.996  28.946  29.336  1.00  0.00     0.031 A 
ATOM     34  C   UNL A   1      40.683  27.774  28.687  1.00  0.00     0.074 A 
ATOM     35  C   UNL A   1      40.620  29.638  30.310  1.00  0.00     0.049 A 
ATOM     36  N   UNL A   1      41.875  27.289  28.916  1.00  0.00    -0.248 NA
ATOM     37  C   UNL A   1      39.923  27.034  27.664  1.00  0.00     0.031 C 
ATOM     38  C   UNL A   1      40.035  30.747  31.067  1.00  0.00     0.029 A 
ATOM     39  N   UNL A   1      41.874  29.496  30.849  1.00  0.00    -0.354 N 
ATOM     40  C   UNL A   1      41.998  26.174  28.093  1.00  0.00     0.074 A 
ATOM     41  C   UNL A   1      40.746  26.033  27.385  1.00  0.00     0.031 C 
ATOM     42  C   UNL A   1      40.930  31.186  31.968  1.00  0.00     0.029 A 
ATOM     43  C   UNL A   1      42.136  30.370  31.878  1.00  0.00     0.049 A 
ATOM     44  H   UNL A   1      42.526  28.831  30.528  1.00  0.00     0.167 HD
ATOM     45  C   UNL A   1      43.066  25.361  27.920  1.00  0.00     0.034 A 
ATOM     46  C   UNL A   1      43.219  30.494  32.670  1.00  0.00     0.034 A 
ATOM     47  C   UNL A   1      44.323  25.525  28.599  1.00  0.00     0.049 A 
ATOM     48  C   UNL A   1      44.399  29.588  32.441  1.00  0.00     0.074 A 
ATOM     49  C   UNL A   1      45.490  24.800  28.434  1.00  0.00     0.029 A 
ATOM     50  N   UNL A   1      44.576  26.470  29.581  1.00  0.00    -0.354 N 
ATOM     51  N   UNL A   1      44.549  28.638  31.550  1.00  0.00    -0.248 NA
ATOM     52  C   UNL A   1      45.574  29.795  33.301  1.00  0.00     0.031 C 
ATOM     53  C   UNL A   1      46.439  25.285  29.338  1.00  0.00     0.029 A 
ATOM     54  C   UNL A   1      45.876  26.339  30.040  1.00  0.00     0.049 A 
ATOM     55  H   UNL A   1      43.927  27.135  29.905  1.00  0.00     0.167 HD
ATOM     56  C   UNL A   1      45.845  28.162  31.716  1.00  0.00     0.074 A 
ATOM     57  C   UNL A   1      46.445  28.944  32.777  1.00  0.00     0.031 C 
ATOM     58  C   UNL A   1      46.478  27.159  31.059  1.00  0.00     0.034 A 
BRANCH  45  59
ATOM     59  C   UNL A   1      42.944  24.242  26.919  1.00  0.00     0.023 A 
ATOM     60  C   UNL A   1      43.569  24.361  25.660  1.00  0.00     0.012 A 
ATOM     61  C   UNL A   1      42.278  23.044  27.248  1.00  0.00     0.148 A 
ATOM     62  C   UNL A   1      43.506  23.321  24.733  1.00  0.00     0.002 A 
ATOM     63  C   UNL A   1      42.262  21.993  26.338  1.00  0.00     0.091 A 
ATOM     64  F   UNL A   1      41.676  22.956  28.442  1.00  0.00    -0.205 F 
ATOM     65  C   UNL A   1      42.864  22.134  25.077  1.00  0.00     0.022 A 
BRANCH  63  66
ATOM     66  S   UNL A   1      41.533  20.395  26.712  1.00  0.00     0.127 S 
ATOM     67  O   UNL A   1      41.809  19.651  25.483  1.00  0.00    -0.237 OA
ATOM     68  O   UNL A   1      42.315  19.967  27.872  1.00  0.00    -0.237 OA
ATOM     69  O   UNL A   1      40.125  20.646  26.983  1.00  0.00    -0.744 OA
ENDBRANCH  63  66
ENDBRANCH  45  59
BRANCH  46  70
ATOM     70  C   UNL A   1      43.260  31.542  33.731  1.00  0.00     0.023 A 
ATOM     71  C   UNL A   1      43.830  32.797  33.446  1.00  0.00     0.012 A 
ATOM     72  C   UNL A   1      42.735  31.302  35.015  1.00  0.00     0.148 A 
ATOM     73  C   UNL A   1      43.919  33.779  34.434  1.00  0.00     0.002 A 
ATOM     74  C   UNL A   1      42.773  32.305  35.977  1.00  0.00     0.091 A 
ATOM     75  F   UNL A   1      42.207  30.097  35.271  1.00  0.00    -0.205 F 
ATOM     76  C   UNL A   1      43.383  33.537  35.696  1.00  0.00     0.022 A 
BRANCH  74  77
ATOM     77  S   UNL A   1      41.991  32.126  37.584  1.00  0.00     0.127 S 
ATOM     78  O   UNL A   1      40.614  31.812  37.213  1.00  0.00    -0.237 OA
ATOM     79  O   UNL A   1      42.744  31.014  38.164  1.00  0.00    -0.237 OA
ATOM     80  O   UNL A   1      42.190  33.401  38.260  1.00  0.00    -0.744 OA
ENDBRANCH  74  77
ENDBRANCH  46  70
BRANCH  58  81
ATOM     81  C   UNL A   1      47.911  26.874  31.429  1.00  0.00     0.023 A 
ATOM     82  C   UNL A   1      48.954  27.613  30.839  1.00  0.00     0.012 A 
ATOM     83  C   UNL A   1      48.215  25.917  32.418  1.00  0.00     0.148 A 
ATOM     84  C   UNL A   1      50.280  27.380  31.199  1.00  0.00     0.002 A 
ATOM     85  C   UNL A   1      49.534  25.727  32.812  1.00  0.00     0.091 A 
ATOM     86  F   UNL A   1      47.209  25.211  32.956  1.00  0.00    -0.205 F 
ATOM     87  C   UNL A   1      50.569  26.447  32.193  1.00  0.00     0.022 A 
BRANCH  85  88
ATOM     88  S   UNL A   1      49.990  24.621  34.150  1.00  0.00     0.127 S 
ATOM     89  O   UNL A   1      51.407  24.938  34.328  1.00  0.00    -0.237 OA
ATOM     90  O   UNL A   1      49.122  25.076  35.236  1.00  0.00    -0.237 OA
ATOM     91  O   UNL A   1      49.709  23.274  33.674  1.00  0.00    -0.744 OA
ENDBRANCH  85  88
ENDBRANCH  58  81
ENDBRANCH  32  33
ENDBRANCH  24  27
ENDBRANCH  22  23
ENDBRANCH  21  22
ENDBRANCH   1  21
TORSDOF 19
ENDMDL
MODEL 3
REMARK VINA RESULT:     -10.8      1.768      2.239
REMARK SMILES C[C@](O)(C(=O)NCCCCCCNC(=O)c1ccc(-c2c3nc(c(-c4cccc(S(=O)(=O)[O-])c4F)c4ccc([nH]4)c(-c4cccc(S(=O)(=O)[O-])c4F)c4nc(c(-c5cccc(S(=O)(=O)[O-])c5F)c5ccc2[nH]5)C=C4)C=C3)cc1)c1ccc(O)cc1
REMARK SMILES IDX 10 1 9 2 8 3 7 4 6 5 4 6 5 7 2 9 1 10 79 11 80 12 85 13
REMARK SMILES IDX 81 14 84 15 82 16 83 17 3 19 11 21 12 22 13 23 14 24 15 26
REMARK SMILES IDX 16 27 17 28 78 29 18 30 77 31 19 32 20 33 21 34 71 35 22 36
REMARK SMILES IDX 76 37 70 38 72 39 23 40 75 41 69 42 68 43 24 45 56 46 36 47
REMARK SMILES IDX 55 48 37 49 40 50 54 51 73 52 38 53 39 54 53 56 74 57 41 58
REMARK SMILES IDX 25 59 26 60 34 61 27 62 29 63 35 64 28 65 30 66 31 67 32 68
REMARK SMILES IDX 33 69 57 70 58 71 66 72 59 73 61 74 67 75 60 76 62 77 63 78
REMARK SMILES IDX 64 79 65 80 42 81 43 82 51 83 44 84 46 85 52 86 45 87 47 88
REMARK SMILES IDX 48 89 49 90 50 91
REMARK H PARENT 6 8 83 18 3 20 13 25 72 44 40 55
REMARK Flexibility Score: inf
ROOT
ATOM      1  C   UNL A   1      31.124  30.489  25.670  1.00  0.00     0.002 C 
ENDROOT
BRANCH   1   2
ATOM      2  C   UNL A   1      32.437  29.720  25.849  1.00  0.00     0.002 C 
BRANCH   2   3
ATOM      3  C   UNL A   1      32.460  28.733  27.022  1.00  0.00     0.021 C 
BRANCH   3   4
ATOM      4  C   UNL A   1      31.402  27.637  26.950  1.00  0.00     0.116 C 
BRANCH   4   5
ATOM      5  N   UNL A   1      32.000  26.345  26.666  1.00  0.00    -0.353 N 
ATOM      6  C   UNL A   1      31.695  25.405  25.721  1.00  0.00     0.256 C 
ATOM      7  O   UNL A   1      32.497  24.472  25.628  1.00  0.00    -0.271 OA
ATOM      8  H   UNL A   1      32.752  26.105  27.254  1.00  0.00     0.163 HD
BRANCH   6   9
ATOM      9  C   UNL A   1      30.432  25.586  24.801  1.00  0.00     0.165 C 
ATOM     10  C   UNL A   1      29.227  25.578  25.776  1.00  0.00     0.058 C 
BRANCH   9  11
ATOM     11  C   UNL A   1      30.422  26.830  23.894  1.00  0.00    -0.007 A 
ATOM     12  C   UNL A   1      29.278  27.605  23.639  1.00  0.00     0.011 A 
ATOM     13  C   UNL A   1      31.632  27.280  23.318  1.00  0.00     0.011 A 
ATOM     14  C   UNL A   1      29.314  28.690  22.756  1.00  0.00     0.046 A 
ATOM     15  C   UNL A   1      31.674  28.359  22.431  1.00  0.00     0.046 A 
ATOM     16  C   UNL A   1      30.504  29.043  22.138  1.00  0.00     0.115 A 
BRANCH  16  17
ATOM     17  O   UNL A   1      30.488  30.078  21.251  1.00  0.00    -0.508 OA
ATOM     18  H   UNL A   1      29.806  30.135  20.611  1.00  0.00     0.293 HD
ENDBRANCH  16  17
ENDBRANCH   9  11
BRANCH   9  19
ATOM     19  O   UNL A   1      30.280  24.485  23.897  1.00  0.00    -0.376 OA
ATOM     20  H   UNL A   1      29.939  24.808  23.048  1.00  0.00     0.212 HD
ENDBRANCH   9  19
ENDBRANCH   6   9
ENDBRANCH   4   5
ENDBRANCH   3   4
ENDBRANCH   2   3
ENDBRANCH   1   2
BRANCH   1  21
ATOM     21  C   UNL A   1      31.116  31.903  26.254  1.00  0.00     0.021 C 
BRANCH  21  22
ATOM     22  C   UNL A   1      32.441  32.347  26.862  1.00  0.00     0.116 C 
BRANCH  22  23
ATOM     23  N   UNL A   1      32.392  33.717  27.347  1.00  0.00    -0.352 N 
ATOM     24  C   UNL A   1      33.163  34.319  28.310  1.00  0.00     0.251 C 
ATOM     25  H   UNL A   1      31.714  34.293  26.927  1.00  0.00     0.163 HD
ATOM     26  O   UNL A   1      32.863  35.436  28.729  1.00  0.00    -0.269 OA
BRANCH  24  27
ATOM     27  C   UNL A   1      34.339  33.611  28.856  1.00  0.00     0.039 A 
ATOM     28  C   UNL A   1      35.598  34.204  28.743  1.00  0.00     0.014 A 
ATOM     29  C   UNL A   1      34.199  32.371  29.487  1.00  0.00     0.014 A 
ATOM     30  C   UNL A   1      36.709  33.578  29.312  1.00  0.00     0.010 A 
ATOM     31  C   UNL A   1      35.293  31.789  30.122  1.00  0.00     0.010 A 
ATOM     32  C   UNL A   1      36.561  32.381  30.035  1.00  0.00    -0.014 A 
BRANCH  32  33
ATOM     33  C   UNL A   1      37.720  31.744  30.713  1.00  0.00     0.031 A 
ATOM     34  C   UNL A   1      38.528  30.689  30.006  1.00  0.00     0.074 A 
ATOM     35  C   UNL A   1      37.998  32.061  31.993  1.00  0.00     0.049 A 
ATOM     36  N   UNL A   1      39.537  29.988  30.452  1.00  0.00    -0.248 NA
ATOM     37  C   UNL A   1      38.136  30.358  28.625  1.00  0.00     0.031 C 
ATOM     38  C   UNL A   1      37.245  33.014  32.812  1.00  0.00     0.029 A 
ATOM     39  N   UNL A   1      38.976  31.600  32.839  1.00  0.00    -0.354 N 
ATOM     40  C   UNL A   1      39.880  29.116  29.425  1.00  0.00     0.074 A 
ATOM     41  C   UNL A   1      38.950  29.351  28.345  1.00  0.00     0.031 C 
ATOM     42  C   UNL A   1      37.790  33.068  34.038  1.00  0.00     0.029 A 
ATOM     43  C   UNL A   1      38.906  32.131  34.106  1.00  0.00     0.049 A 
ATOM     44  H   UNL A   1      39.663  30.949  32.565  1.00  0.00     0.167 HD
ATOM     45  C   UNL A   1      40.897  28.224  29.373  1.00  0.00     0.034 A 
ATOM     46  C   UNL A   1      39.649  31.883  35.203  1.00  0.00     0.034 A 
ATOM     47  C   UNL A   1      41.844  28.017  30.437  1.00  0.00     0.049 A 
ATOM     48  C   UNL A   1      40.784  30.900  35.110  1.00  0.00     0.074 A 
ATOM     49  C   UNL A   1      42.955  27.193  30.450  1.00  0.00     0.029 A 
ATOM     50  N   UNL A   1      41.786  28.630  31.679  1.00  0.00    -0.354 N 
ATOM     51  N   UNL A   1      41.187  30.199  34.078  1.00  0.00    -0.248 NA
ATOM     52  C   UNL A   1      41.593  30.701  36.322  1.00  0.00     0.031 C 
ATOM     53  C   UNL A   1      43.551  27.282  31.711  1.00  0.00     0.029 A 
ATOM     54  C   UNL A   1      42.834  28.193  32.470  1.00  0.00     0.049 A 
ATOM     55  H   UNL A   1      41.101  29.280  31.957  1.00  0.00     0.167 HD
ATOM     56  C   UNL A   1      42.316  29.508  34.504  1.00  0.00     0.074 A 
ATOM     57  C   UNL A   1      42.546  29.893  35.881  1.00  0.00     0.031 C 
ATOM     58  C   UNL A   1      43.084  28.624  33.821  1.00  0.00     0.034 A 
BRANCH  45  59
ATOM     59  C   UNL A   1      41.074  27.430  28.105  1.00  0.00     0.023 A 
ATOM     60  C   UNL A   1      41.655  28.043  26.975  1.00  0.00     0.012 A 
ATOM     61  C   UNL A   1      40.738  26.062  28.053  1.00  0.00     0.148 A 
ATOM     62  C   UNL A   1      41.869  27.317  25.804  1.00  0.00     0.002 A 
ATOM     63  C   UNL A   1      40.999  25.334  26.898  1.00  0.00     0.091 A 
ATOM     64  F   UNL A   1      40.171  25.503  29.131  1.00  0.00    -0.205 F 
ATOM     65  C   UNL A   1      41.553  25.962  25.770  1.00  0.00     0.022 A 
BRANCH  63  66
ATOM     66  S   UNL A   1      40.705  23.566  26.777  1.00  0.00     0.127 S 
ATOM     67  O   UNL A   1      41.086  23.112  28.114  1.00  0.00    -0.237 OA
ATOM     68  O   UNL A   1      39.270  23.514  26.501  1.00  0.00    -0.237 OA
ATOM     69  O   UNL A   1      41.554  23.088  25.695  1.00  0.00    -0.744 OA
ENDBRANCH  63  66
ENDBRANCH  45  59
BRANCH  46  70
ATOM     70  C   UNL A   1      39.371  32.606  36.478  1.00  0.00     0.023 A 
ATOM     71  C   UNL A   1      40.049  33.807  36.759  1.00  0.00     0.012 A 
ATOM     72  C   UNL A   1      38.438  32.111  37.410  1.00  0.00     0.148 A 
ATOM     73  C   UNL A   1      39.839  34.479  37.964  1.00  0.00     0.002 A 
ATOM     74  C   UNL A   1      38.189  32.816  38.581  1.00  0.00     0.091 A 
ATOM     75  F   UNL A   1      37.810  30.960  37.131  1.00  0.00    -0.205 F 
ATOM     76  C   UNL A   1      38.903  33.989  38.871  1.00  0.00     0.022 A 
BRANCH  74  77
ATOM     77  S   UNL A   1      36.909  32.330  39.743  1.00  0.00     0.127 S 
ATOM     78  O   UNL A   1      37.386  31.021  40.184  1.00  0.00    -0.237 OA
ATOM     79  O   UNL A   1      36.994  33.390  40.748  1.00  0.00    -0.237 OA
ATOM     80  O   UNL A   1      35.667  32.327  38.980  1.00  0.00    -0.744 OA
ENDBRANCH  74  77
ENDBRANCH  46  70
BRANCH  58  81
ATOM     81  C   UNL A   1      44.279  28.042  34.531  1.00  0.00     0.023 A 
ATOM     82  C   UNL A   1      45.517  28.713  34.499  1.00  0.00     0.012 A 
ATOM     83  C   UNL A   1      44.153  26.861  35.290  1.00  0.00     0.148 A 
ATOM     84  C   UNL A   1      46.620  28.199  35.180  1.00  0.00     0.002 A 
ATOM     85  C   UNL A   1      45.241  26.384  36.010  1.00  0.00     0.091 A 
ATOM     86  F   UNL A   1      42.971  26.227  35.295  1.00  0.00    -0.205 F 
ATOM     87  C   UNL A   1      46.479  27.043  35.944  1.00  0.00     0.022 A 
BRANCH  85  88
ATOM     88  S   UNL A   1      45.127  24.961  37.099  1.00  0.00     0.127 S 
ATOM     89  O   UNL A   1      44.102  25.393  38.048  1.00  0.00    -0.237 OA
ATOM     90  O   UNL A   1      44.702  23.903  36.181  1.00  0.00    -0.237 OA
ATOM     91  O   UNL A   1      46.458  24.775  37.661  1.00  0.00    -0.744 OA
ENDBRANCH  85  88
ENDBRANCH  58  81
ENDBRANCH  32  33
ENDBRANCH  24  27
ENDBRANCH  22  23
ENDBRANCH  21  22
ENDBRANCH   1  21
TORSDOF 19
ENDMDL
