MODEL 1
REMARK VINA RESULT:     -11.8      0.000      0.000
REMARK SMILES Cc1cc(=O)cc(C)n1C[C@H]1CCCC[C@@H]1C(=O)NCCCCCCNC(=O)c1ccc(-c2c3nc(c(-c4cccc(S(=O)(=O)[O-])c4F)c4ccc([nH]4)c(-c4cccc(S(=O)(=O)[O-])c4F)c4nc(c(-c5cccc(S(=O)(=O)[O-])c5F)c5ccc2[nH]5)C=C4)C=C3)cc1
REMARK SMILES IDX 23 1 22 2 21 3 20 4 19 5 17 6 18 7 16 9 11 10 12 11 13 12
REMARK SMILES IDX 15 13 14 14 10 15 9 16 1 17 2 18 3 19 4 20 7 21 5 22 6 23
REMARK SMILES IDX 8 24 24 25 25 26 26 27 27 28 28 30 29 31 30 32 91 33 31 34
REMARK SMILES IDX 90 35 32 36 33 37 34 38 84 39 35 40 89 41 83 42 85 43 36 44
REMARK SMILES IDX 88 45 82 46 81 47 37 49 69 50 49 51 68 52 50 53 53 54 67 55
REMARK SMILES IDX 86 56 51 57 52 58 66 60 87 61 54 62 38 63 39 64 47 65 40 66
REMARK SMILES IDX 42 67 48 68 41 69 43 70 44 71 45 72 46 73 70 74 71 75 79 76
REMARK SMILES IDX 72 77 74 78 80 79 73 80 75 81 76 82 77 83 78 84 55 85 56 86
REMARK SMILES IDX 64 87 57 88 59 89 65 90 58 91 60 92 61 93 62 94 63 95
REMARK H PARENT 19 8 26 29 85 48 53 59
REMARK Flexibility Score: inf
ROOT
ATOM      1  C   UNL A   1      31.526  29.648  24.593  1.00  0.00     0.002 C 
ENDROOT
BRANCH   1   2
ATOM      2  C   UNL A   1      30.268  29.526  23.724  1.00  0.00     0.002 C 
BRANCH   2   3
ATOM      3  C   UNL A   1      30.289  28.511  22.587  1.00  0.00     0.021 C 
BRANCH   3   4
ATOM      4  C   UNL A   1      31.190  27.302  22.754  1.00  0.00     0.116 C 
BRANCH   4   5
ATOM      5  N   UNL A   1      31.975  26.764  21.697  1.00  0.00    -0.356 N 
ATOM      6  C   UNL A   1      32.735  25.628  21.796  1.00  0.00     0.223 C 
ATOM      7  O   UNL A   1      33.316  25.266  20.765  1.00  0.00    -0.275 OA
ATOM      8  H   UNL A   1      31.973  27.239  20.834  1.00  0.00     0.163 HD
BRANCH   6   9
ATOM      9  C   UNL A   1      33.008  24.849  23.137  1.00  0.00     0.083 C 
ATOM     10  C   UNL A   1      34.458  24.487  23.628  1.00  0.00     0.021 C 
ATOM     11  C   UNL A   1      34.934  23.124  23.100  1.00  0.00     0.006 C 
ATOM     12  C   UNL A   1      33.920  21.996  23.233  1.00  0.00     0.000 C 
ATOM     13  C   UNL A   1      32.020  23.679  23.288  1.00  0.00     0.014 C 
ATOM     14  C   UNL A   1      32.522  22.348  22.743  1.00  0.00     0.001 C 
BRANCH  10  15
ATOM     15  C   UNL A   1      34.552  24.429  25.207  1.00  0.00     0.126 C 
BRANCH  15  16
ATOM     16  N   UNL A   1      33.268  24.778  25.908  1.00  0.00    -0.349 N 
ATOM     17  C   UNL A   1      33.016  22.405  26.811  1.00  0.00     0.064 C 
ATOM     18  C   UNL A   1      32.442  23.754  26.451  1.00  0.00     0.018 A 
ATOM     19  C   UNL A   1      31.149  23.960  26.757  1.00  0.00     0.073 A 
ATOM     20  C   UNL A   1      30.548  25.281  26.508  1.00  0.00     0.182 A 
ATOM     21  C   UNL A   1      32.789  26.118  26.061  1.00  0.00     0.018 A 
ATOM     22  O   UNL A   1      29.340  25.430  26.505  1.00  0.00    -0.290 OA
ATOM     23  C   UNL A   1      31.493  26.391  26.310  1.00  0.00     0.073 A 
ATOM     24  C   UNL A   1      33.701  27.326  26.063  1.00  0.00     0.064 C 
ENDBRANCH  15  16
ENDBRANCH  10  15
ENDBRANCH   6   9
ENDBRANCH   4   5
ENDBRANCH   3   4
ENDBRANCH   2   3
ENDBRANCH   1   2
BRANCH   1  25
ATOM     25  C   UNL A   1      31.399  30.351  25.951  1.00  0.00     0.021 C 
BRANCH  25  26
ATOM     26  C   UNL A   1      32.699  30.776  26.630  1.00  0.00     0.116 C 
BRANCH  26  27
ATOM     27  N   UNL A   1      32.745  32.197  26.934  1.00  0.00    -0.352 N 
ATOM     28  C   UNL A   1      33.633  32.920  27.691  1.00  0.00     0.251 C 
ATOM     29  H   UNL A   1      32.022  32.728  26.529  1.00  0.00     0.163 HD
ATOM     30  O   UNL A   1      33.402  34.103  27.927  1.00  0.00    -0.269 OA
BRANCH  28  31
ATOM     31  C   UNL A   1      34.852  32.285  28.237  1.00  0.00     0.039 A 
ATOM     32  C   UNL A   1      36.042  33.020  28.252  1.00  0.00     0.014 A 
ATOM     33  C   UNL A   1      34.837  30.969  28.706  1.00  0.00     0.014 A 
ATOM     34  C   UNL A   1      37.199  32.456  28.794  1.00  0.00     0.010 A 
ATOM     35  C   UNL A   1      35.973  30.433  29.308  1.00  0.00     0.010 A 
ATOM     36  C   UNL A   1      37.168  31.168  29.355  1.00  0.00    -0.014 A 
BRANCH  36  37
ATOM     37  C   UNL A   1      38.375  30.585  29.997  1.00  0.00     0.031 A 
ATOM     38  C   UNL A   1      38.793  31.028  31.372  1.00  0.00     0.074 A 
ATOM     39  C   UNL A   1      39.121  29.690  29.319  1.00  0.00     0.049 A 
ATOM     40  N   UNL A   1      39.819  30.640  32.085  1.00  0.00    -0.248 NA
ATOM     41  C   UNL A   1      37.963  32.053  32.030  1.00  0.00     0.031 C 
ATOM     42  C   UNL A   1      38.851  29.226  27.956  1.00  0.00     0.029 A 
ATOM     43  N   UNL A   1      40.262  29.016  29.678  1.00  0.00    -0.354 N 
ATOM     44  C   UNL A   1      39.767  31.378  33.261  1.00  0.00     0.074 A 
ATOM     45  C   UNL A   1      38.638  32.274  33.148  1.00  0.00     0.031 C 
ATOM     46  C   UNL A   1      39.784  28.326  27.605  1.00  0.00     0.029 A 
ATOM     47  C   UNL A   1      40.736  28.172  28.700  1.00  0.00     0.049 A 
ATOM     48  H   UNL A   1      40.701  29.127  30.552  1.00  0.00     0.167 HD
ATOM     49  C   UNL A   1      40.561  31.289  34.354  1.00  0.00     0.034 A 
ATOM     50  C   UNL A   1      41.813  27.360  28.689  1.00  0.00     0.034 A 
ATOM     51  C   UNL A   1      41.661  30.369  34.475  1.00  0.00     0.049 A 
ATOM     52  C   UNL A   1      42.683  27.285  29.915  1.00  0.00     0.074 A 
ATOM     53  C   UNL A   1      42.490  30.165  35.563  1.00  0.00     0.029 A 
ATOM     54  N   UNL A   1      42.086  29.504  33.479  1.00  0.00    -0.354 N 
ATOM     55  N   UNL A   1      42.539  27.894  31.067  1.00  0.00    -0.248 NA
ATOM     56  C   UNL A   1      43.848  26.389  29.852  1.00  0.00     0.031 C 
ATOM     57  C   UNL A   1      43.434  29.196  35.215  1.00  0.00     0.029 A 
ATOM     58  C   UNL A   1      43.173  28.771  33.923  1.00  0.00     0.049 A 
ATOM     59  H   UNL A   1      41.675  29.423  32.588  1.00  0.00     0.167 HD
ATOM     60  C   UNL A   1      43.572  27.432  31.876  1.00  0.00     0.074 A 
ATOM     61  C   UNL A   1      44.322  26.475  31.089  1.00  0.00     0.031 C 
ATOM     62  C   UNL A   1      43.879  27.782  33.148  1.00  0.00     0.034 A 
BRANCH  49  63
ATOM     63  C   UNL A   1      40.233  32.155  35.542  1.00  0.00     0.023 A 
ATOM     64  C   UNL A   1      40.943  33.360  35.732  1.00  0.00     0.012 A 
ATOM     65  C   UNL A   1      39.168  31.838  36.407  1.00  0.00     0.148 A 
ATOM     66  C   UNL A   1      40.615  34.221  36.778  1.00  0.00     0.002 A 
ATOM     67  C   UNL A   1      38.816  32.725  37.419  1.00  0.00     0.091 A 
ATOM     68  F   UNL A   1      38.515  30.681  36.221  1.00  0.00    -0.205 F 
ATOM     69  C   UNL A   1      39.545  33.910  37.612  1.00  0.00     0.022 A 
BRANCH  67  70
ATOM     70  S   UNL A   1      37.401  32.465  38.494  1.00  0.00     0.127 S 
ATOM     71  O   UNL A   1      37.439  31.016  38.686  1.00  0.00    -0.237 OA
ATOM     72  O   UNL A   1      37.766  33.247  39.675  1.00  0.00    -0.237 OA
ATOM     73  O   UNL A   1      36.242  32.962  37.765  1.00  0.00    -0.744 OA
ENDBRANCH  67  70
ENDBRANCH  49  63
BRANCH  50  74
ATOM     74  C   UNL A   1      42.080  26.493  27.506  1.00  0.00     0.023 A 
ATOM     75  C   UNL A   1      42.727  27.044  26.382  1.00  0.00     0.012 A 
ATOM     76  C   UNL A   1      41.733  25.128  27.497  1.00  0.00     0.148 A 
ATOM     77  C   UNL A   1      43.002  26.258  25.262  1.00  0.00     0.002 A 
ATOM     78  C   UNL A   1      42.055  24.339  26.398  1.00  0.00     0.091 A 
ATOM     79  F   UNL A   1      41.106  24.626  28.571  1.00  0.00    -0.205 F 
ATOM     80  C   UNL A   1      42.677  24.905  25.275  1.00  0.00     0.022 A 
BRANCH  78  81
ATOM     81  S   UNL A   1      41.783  22.563  26.371  1.00  0.00     0.127 S 
ATOM     82  O   UNL A   1      42.421  22.146  27.619  1.00  0.00    -0.237 OA
ATOM     83  O   UNL A   1      40.322  22.485  26.372  1.00  0.00    -0.237 OA
ATOM     84  O   UNL A   1      42.420  22.086  25.151  1.00  0.00    -0.744 OA
ENDBRANCH  78  81
ENDBRANCH  50  74
BRANCH  62  85
ATOM     85  C   UNL A   1      45.068  27.124  33.802  1.00  0.00     0.023 A 
ATOM     86  C   UNL A   1      46.325  27.757  33.759  1.00  0.00     0.012 A 
ATOM     87  C   UNL A   1      44.909  25.951  34.569  1.00  0.00     0.148 A 
ATOM     88  C   UNL A   1      47.409  27.227  34.456  1.00  0.00     0.002 A 
ATOM     89  C   UNL A   1      45.979  25.460  35.304  1.00  0.00     0.091 A 
ATOM     90  F   UNL A   1      43.707  25.357  34.584  1.00  0.00    -0.205 F 
ATOM     91  C   UNL A   1      47.233  26.090  35.241  1.00  0.00     0.022 A 
BRANCH  89  92
ATOM     92  S   UNL A   1      45.824  24.069  36.432  1.00  0.00     0.127 S 
ATOM     93  O   UNL A   1      45.217  24.702  37.603  1.00  0.00    -0.237 OA
ATOM     94  O   UNL A   1      44.935  23.172  35.694  1.00  0.00    -0.237 OA
ATOM     95  O   UNL A   1      47.173  23.560  36.634  1.00  0.00    -0.744 OA
ENDBRANCH  89  92
ENDBRANCH  62  85
ENDBRANCH  36  37
ENDBRANCH  28  31
ENDBRANCH  26  27
ENDBRANCH  25  26
ENDBRANCH   1  25
TORSDOF 18
ENDMDL
MODEL 2
REMARK VINA RESULT:     -11.8      1.043      2.381
REMARK SMILES Cc1cc(=O)cc(C)n1C[C@H]1CCCC[C@@H]1C(=O)NCCCCCCNC(=O)c1ccc(-c2c3nc(c(-c4cccc(S(=O)(=O)[O-])c4F)c4ccc([nH]4)c(-c4cccc(S(=O)(=O)[O-])c4F)c4nc(c(-c5cccc(S(=O)(=O)[O-])c5F)c5ccc2[nH]5)C=C4)C=C3)cc1
REMARK SMILES IDX 23 1 22 2 21 3 20 4 19 5 17 6 18 7 16 9 11 10 12 11 13 12
REMARK SMILES IDX 15 13 14 14 10 15 9 16 1 17 2 18 3 19 4 20 7 21 5 22 6 23
REMARK SMILES IDX 8 24 24 25 25 26 26 27 27 28 28 30 29 31 30 32 91 33 31 34
REMARK SMILES IDX 90 35 32 36 33 37 34 38 84 39 35 40 89 41 83 42 85 43 36 44
REMARK SMILES IDX 88 45 82 46 81 47 37 49 69 50 49 51 68 52 50 53 53 54 67 55
REMARK SMILES IDX 86 56 51 57 52 58 66 60 87 61 54 62 38 63 39 64 47 65 40 66
REMARK SMILES IDX 42 67 48 68 41 69 43 70 44 71 45 72 46 73 70 74 71 75 79 76
REMARK SMILES IDX 72 77 74 78 80 79 73 80 75 81 76 82 77 83 78 84 55 85 56 86
REMARK SMILES IDX 64 87 57 88 59 89 65 90 58 91 60 92 61 93 62 94 63 95
REMARK H PARENT 19 8 26 29 85 48 53 59
REMARK Flexibility Score: inf
ROOT
ATOM      1  C   UNL A   1      31.923  28.378  27.639  1.00  0.00     0.002 C 
ENDROOT
BRANCH   1   2
ATOM      2  C   UNL A   1      31.786  27.060  26.866  1.00  0.00     0.002 C 
BRANCH   2   3
ATOM      3  C   UNL A   1      30.818  27.029  25.689  1.00  0.00     0.021 C 
BRANCH   3   4
ATOM      4  C   UNL A   1      30.275  25.675  25.274  1.00  0.00     0.116 C 
BRANCH   4   5
ATOM      5  N   UNL A   1      29.865  24.681  26.205  1.00  0.00    -0.356 N 
ATOM      6  C   UNL A   1      30.671  23.676  26.672  1.00  0.00     0.223 C 
ATOM      7  O   UNL A   1      30.173  22.925  27.521  1.00  0.00    -0.275 OA
ATOM      8  H   UNL A   1      28.938  24.716  26.535  1.00  0.00     0.163 HD
BRANCH   6   9
ATOM      9  C   UNL A   1      32.109  23.353  26.118  1.00  0.00     0.083 C 
ATOM     10  C   UNL A   1      32.353  22.369  24.916  1.00  0.00     0.021 C 
ATOM     11  C   UNL A   1      32.539  20.913  25.377  1.00  0.00     0.006 C 
ATOM     12  C   UNL A   1      33.493  20.729  26.550  1.00  0.00     0.000 C 
ATOM     13  C   UNL A   1      33.093  23.128  27.280  1.00  0.00     0.014 C 
ATOM     14  C   UNL A   1      33.241  21.676  27.716  1.00  0.00     0.001 C 
BRANCH  10  15
ATOM     15  C   UNL A   1      33.641  22.757  24.083  1.00  0.00     0.126 C 
BRANCH  15  16
ATOM     16  N   UNL A   1      33.561  24.110  23.432  1.00  0.00    -0.349 N 
ATOM     17  C   UNL A   1      35.036  25.160  25.230  1.00  0.00     0.064 C 
ATOM     18  C   UNL A   1      34.022  25.269  24.118  1.00  0.00     0.018 A 
ATOM     19  C   UNL A   1      33.657  26.511  23.754  1.00  0.00     0.073 A 
ATOM     20  C   UNL A   1      32.733  26.693  22.622  1.00  0.00     0.182 A 
ATOM     21  C   UNL A   1      33.019  24.328  22.125  1.00  0.00     0.018 A 
ATOM     22  O   UNL A   1      32.166  27.754  22.439  1.00  0.00    -0.290 OA
ATOM     23  C   UNL A   1      32.582  25.538  21.723  1.00  0.00     0.073 A 
ATOM     24  C   UNL A   1      32.987  23.258  21.055  1.00  0.00     0.064 C 
ENDBRANCH  15  16
ENDBRANCH  10  15
ENDBRANCH   6   9
ENDBRANCH   4   5
ENDBRANCH   3   4
ENDBRANCH   2   3
ENDBRANCH   1   2
BRANCH   1  25
ATOM     25  C   UNL A   1      31.687  29.689  26.876  1.00  0.00     0.021 C 
BRANCH  25  26
ATOM     26  C   UNL A   1      32.929  30.475  26.461  1.00  0.00     0.116 C 
BRANCH  26  27
ATOM     27  N   UNL A   1      32.887  31.868  26.877  1.00  0.00    -0.352 N 
ATOM     28  C   UNL A   1      33.710  32.574  27.718  1.00  0.00     0.251 C 
ATOM     29  H   UNL A   1      32.147  32.390  26.490  1.00  0.00     0.163 HD
ATOM     30  O   UNL A   1      33.406  33.721  28.038  1.00  0.00    -0.269 OA
BRANCH  28  31
ATOM     31  C   UNL A   1      34.945  31.964  28.255  1.00  0.00     0.039 A 
ATOM     32  C   UNL A   1      36.128  32.709  28.228  1.00  0.00     0.014 A 
ATOM     33  C   UNL A   1      34.951  30.660  28.755  1.00  0.00     0.014 A 
ATOM     34  C   UNL A   1      37.301  32.169  28.760  1.00  0.00     0.010 A 
ATOM     35  C   UNL A   1      36.104  30.149  29.348  1.00  0.00     0.010 A 
ATOM     36  C   UNL A   1      37.292  30.895  29.353  1.00  0.00    -0.014 A 
BRANCH  36  37
ATOM     37  C   UNL A   1      38.517  30.338  29.984  1.00  0.00     0.031 A 
ATOM     38  C   UNL A   1      38.953  30.811  31.344  1.00  0.00     0.074 A 
ATOM     39  C   UNL A   1      39.262  29.440  29.311  1.00  0.00     0.049 A 
ATOM     40  N   UNL A   1      39.996  30.448  32.046  1.00  0.00    -0.248 NA
ATOM     41  C   UNL A   1      38.122  31.838  31.997  1.00  0.00     0.031 C 
ATOM     42  C   UNL A   1      38.976  28.948  27.961  1.00  0.00     0.029 A 
ATOM     43  N   UNL A   1      40.418  28.786  29.661  1.00  0.00    -0.354 N 
ATOM     44  C   UNL A   1      39.955  31.208  33.209  1.00  0.00     0.074 A 
ATOM     45  C   UNL A   1      38.813  32.088  33.100  1.00  0.00     0.031 C 
ATOM     46  C   UNL A   1      39.914  28.052  27.610  1.00  0.00     0.029 A 
ATOM     47  C   UNL A   1      40.886  27.930  28.691  1.00  0.00     0.049 A 
ATOM     48  H   UNL A   1      40.870  28.918  30.526  1.00  0.00     0.167 HD
ATOM     49  C   UNL A   1      40.769  31.148  34.290  1.00  0.00     0.034 A 
ATOM     50  C   UNL A   1      41.972  27.131  28.677  1.00  0.00     0.034 A 
ATOM     51  C   UNL A   1      41.881  30.244  34.408  1.00  0.00     0.049 A 
ATOM     52  C   UNL A   1      42.864  27.089  29.889  1.00  0.00     0.074 A 
ATOM     53  C   UNL A   1      42.731  30.070  35.486  1.00  0.00     0.029 A 
ATOM     54  N   UNL A   1      42.300  29.366  33.421  1.00  0.00    -0.354 N 
ATOM     55  N   UNL A   1      42.732  27.717  31.032  1.00  0.00    -0.248 NA
ATOM     56  C   UNL A   1      44.039  26.206  29.822  1.00  0.00     0.031 C 
ATOM     57  C   UNL A   1      43.681  29.106  35.139  1.00  0.00     0.029 A 
ATOM     58  C   UNL A   1      43.403  28.654  33.859  1.00  0.00     0.049 A 
ATOM     59  H   UNL A   1      41.875  29.263  32.539  1.00  0.00     0.167 HD
ATOM     60  C   UNL A   1      43.784  27.283  31.831  1.00  0.00     0.074 A 
ATOM     61  C   UNL A   1      44.533  26.321  31.049  1.00  0.00     0.031 C 
ATOM     62  C   UNL A   1      44.108  27.660  33.091  1.00  0.00     0.034 A 
BRANCH  49  63
ATOM     63  C   UNL A   1      40.449  32.032  35.468  1.00  0.00     0.023 A 
ATOM     64  C   UNL A   1      41.200  33.211  35.666  1.00  0.00     0.012 A 
ATOM     65  C   UNL A   1      39.357  31.759  36.313  1.00  0.00     0.148 A 
ATOM     66  C   UNL A   1      40.884  34.088  36.702  1.00  0.00     0.002 A 
ATOM     67  C   UNL A   1      39.019  32.663  37.314  1.00  0.00     0.091 A 
ATOM     68  F   UNL A   1      38.666  30.626  36.119  1.00  0.00    -0.205 F 
ATOM     69  C   UNL A   1      39.788  33.822  37.516  1.00  0.00     0.022 A 
BRANCH  67  70
ATOM     70  S   UNL A   1      37.575  32.462  38.362  1.00  0.00     0.127 S 
ATOM     71  O   UNL A   1      36.506  32.941  37.488  1.00  0.00    -0.237 OA
ATOM     72  O   UNL A   1      37.567  31.018  38.599  1.00  0.00    -0.237 OA
ATOM     73  O   UNL A   1      37.817  33.275  39.546  1.00  0.00    -0.744 OA
ENDBRANCH  67  70
ENDBRANCH  49  63
BRANCH  50  74
ATOM     74  C   UNL A   1      42.230  26.246  27.505  1.00  0.00     0.023 A 
ATOM     75  C   UNL A   1      42.908  26.767  26.385  1.00  0.00     0.012 A 
ATOM     76  C   UNL A   1      41.842  24.891  27.503  1.00  0.00     0.148 A 
ATOM     77  C   UNL A   1      43.176  25.963  25.276  1.00  0.00     0.002 A 
ATOM     78  C   UNL A   1      42.156  24.083  26.416  1.00  0.00     0.091 A 
ATOM     79  F   UNL A   1      41.186  24.419  28.572  1.00  0.00    -0.205 F 
ATOM     80  C   UNL A   1      42.810  24.620  25.296  1.00  0.00     0.022 A 
BRANCH  78  81
ATOM     81  S   UNL A   1      41.832  22.316  26.401  1.00  0.00     0.127 S 
ATOM     82  O   UNL A   1      40.385  22.282  26.192  1.00  0.00    -0.237 OA
ATOM     83  O   UNL A   1      42.629  21.877  25.256  1.00  0.00    -0.237 OA
ATOM     84  O   UNL A   1      42.291  21.821  27.692  1.00  0.00    -0.744 OA
ENDBRANCH  78  81
ENDBRANCH  50  74
BRANCH  62  85
ATOM     85  C   UNL A   1      45.316  27.028  33.736  1.00  0.00     0.023 A 
ATOM     86  C   UNL A   1      46.568  27.667  33.646  1.00  0.00     0.012 A 
ATOM     87  C   UNL A   1      45.182  25.877  34.540  1.00  0.00     0.148 A 
ATOM     88  C   UNL A   1      47.671  27.164  34.333  1.00  0.00     0.002 A 
ATOM     89  C   UNL A   1      46.272  25.414  35.265  1.00  0.00     0.091 A 
ATOM     90  F   UNL A   1      43.985  25.277  34.601  1.00  0.00    -0.205 F 
ATOM     91  C   UNL A   1      47.520  26.050  35.154  1.00  0.00     0.022 A 
BRANCH  89  92
ATOM     92  S   UNL A   1      46.152  24.056  36.436  1.00  0.00     0.127 S 
ATOM     93  O   UNL A   1      47.366  24.242  37.232  1.00  0.00    -0.237 OA
ATOM     94  O   UNL A   1      44.908  24.365  37.139  1.00  0.00    -0.237 OA
ATOM     95  O   UNL A   1      46.116  22.837  35.640  1.00  0.00    -0.744 OA
ENDBRANCH  89  92
ENDBRANCH  62  85
ENDBRANCH  36  37
ENDBRANCH  28  31
ENDBRANCH  26  27
ENDBRANCH  25  26
ENDBRANCH   1  25
TORSDOF 18
ENDMDL
MODEL 3
REMARK VINA RESULT:     -11.7      2.302      8.241
REMARK SMILES Cc1cc(=O)cc(C)n1C[C@H]1CCCC[C@@H]1C(=O)NCCCCCCNC(=O)c1ccc(-c2c3nc(c(-c4cccc(S(=O)(=O)[O-])c4F)c4ccc([nH]4)c(-c4cccc(S(=O)(=O)[O-])c4F)c4nc(c(-c5cccc(S(=O)(=O)[O-])c5F)c5ccc2[nH]5)C=C4)C=C3)cc1
REMARK SMILES IDX 23 1 22 2 21 3 20 4 19 5 17 6 18 7 16 9 11 10 12 11 13 12
REMARK SMILES IDX 15 13 14 14 10 15 9 16 1 17 2 18 3 19 4 20 7 21 5 22 6 23
REMARK SMILES IDX 8 24 24 25 25 26 26 27 27 28 28 30 29 31 30 32 91 33 31 34
REMARK SMILES IDX 90 35 32 36 33 37 34 38 84 39 35 40 89 41 83 42 85 43 36 44
REMARK SMILES IDX 88 45 82 46 81 47 37 49 69 50 49 51 68 52 50 53 53 54 67 55
REMARK SMILES IDX 86 56 51 57 52 58 66 60 87 61 54 62 38 63 39 64 47 65 40 66
REMARK SMILES IDX 42 67 48 68 41 69 43 70 44 71 45 72 46 73 70 74 71 75 79 76
REMARK SMILES IDX 72 77 74 78 80 79 73 80 75 81 76 82 77 83 78 84 55 85 56 86
REMARK SMILES IDX 64 87 57 88 59 89 65 90 58 91 60 92 61 93 62 94 63 95
REMARK H PARENT 19 8 26 29 85 48 53 59
REMARK Flexibility Score: inf
ROOT
ATOM      1  C   UNL A   1      31.753  30.392  26.421  1.00  0.00     0.002 C 
ENDROOT
BRANCH   1   2
ATOM      2  C   UNL A   1      32.843  29.609  27.163  1.00  0.00     0.002 C 
BRANCH   2   3
ATOM      3  C   UNL A   1      32.690  28.095  27.251  1.00  0.00     0.021 C 
BRANCH   3   4
ATOM      4  C   UNL A   1      31.649  27.450  26.358  1.00  0.00     0.116 C 
BRANCH   4   5
ATOM      5  N   UNL A   1      30.861  26.335  26.758  1.00  0.00    -0.356 N 
ATOM      6  C   UNL A   1      30.920  25.095  26.176  1.00  0.00     0.223 C 
ATOM      7  O   UNL A   1      30.205  24.219  26.681  1.00  0.00    -0.275 OA
ATOM      8  H   UNL A   1      30.230  26.462  27.503  1.00  0.00     0.163 HD
BRANCH   6   9
ATOM      9  C   UNL A   1      31.723  24.760  24.864  1.00  0.00     0.083 C 
ATOM     10  C   UNL A   1      33.275  24.982  24.740  1.00  0.00     0.021 C 
ATOM     11  C   UNL A   1      33.629  26.389  24.230  1.00  0.00     0.006 C 
ATOM     12  C   UNL A   1      32.823  26.853  23.023  1.00  0.00     0.000 C 
ATOM     13  C   UNL A   1      30.952  25.248  23.625  1.00  0.00     0.014 C 
ATOM     14  C   UNL A   1      31.320  26.649  23.156  1.00  0.00     0.001 C 
BRANCH  10  15
ATOM     15  C   UNL A   1      33.944  23.949  23.746  1.00  0.00     0.126 C 
BRANCH  15  16
ATOM     16  N   UNL A   1      34.479  22.714  24.419  1.00  0.00    -0.349 N 
ATOM     17  C   UNL A   1      36.336  24.037  25.563  1.00  0.00     0.064 C 
ATOM     18  C   UNL A   1      35.743  22.739  25.072  1.00  0.00     0.018 A 
ATOM     19  C   UNL A   1      36.422  21.616  25.366  1.00  0.00     0.073 A 
ATOM     20  C   UNL A   1      35.858  20.309  24.988  1.00  0.00     0.182 A 
ATOM     21  C   UNL A   1      33.787  21.462  24.438  1.00  0.00     0.018 A 
ATOM     22  O   UNL A   1      36.549  19.307  24.981  1.00  0.00    -0.290 OA
ATOM     23  C   UNL A   1      34.422  20.295  24.670  1.00  0.00     0.073 A 
ATOM     24  C   UNL A   1      32.283  21.347  24.308  1.00  0.00     0.064 C 
ENDBRANCH  15  16
ENDBRANCH  10  15
ENDBRANCH   6   9
ENDBRANCH   4   5
ENDBRANCH   3   4
ENDBRANCH   2   3
ENDBRANCH   1   2
BRANCH   1  25
ATOM     25  C   UNL A   1      31.601  31.887  26.733  1.00  0.00     0.021 C 
BRANCH  25  26
ATOM     26  C   UNL A   1      32.869  32.639  27.130  1.00  0.00     0.116 C 
BRANCH  26  27
ATOM     27  N   UNL A   1      32.607  33.988  27.605  1.00  0.00    -0.352 N 
ATOM     28  C   UNL A   1      33.154  34.690  28.649  1.00  0.00     0.251 C 
ATOM     29  H   UNL A   1      31.926  34.480  27.090  1.00  0.00     0.163 HD
ATOM     30  O   UNL A   1      32.682  35.781  28.957  1.00  0.00    -0.269 OA
BRANCH  28  31
ATOM     31  C   UNL A   1      34.292  34.139  29.416  1.00  0.00     0.039 A 
ATOM     32  C   UNL A   1      34.025  33.311  30.511  1.00  0.00     0.014 A 
ATOM     33  C   UNL A   1      35.611  34.451  29.081  1.00  0.00     0.014 A 
ATOM     34  C   UNL A   1      35.082  32.750  31.230  1.00  0.00     0.010 A 
ATOM     35  C   UNL A   1      36.664  33.836  29.755  1.00  0.00     0.010 A 
ATOM     36  C   UNL A   1      36.412  32.982  30.840  1.00  0.00    -0.014 A 
BRANCH  36  37
ATOM     37  C   UNL A   1      37.542  32.334  31.555  1.00  0.00     0.031 A 
ATOM     38  C   UNL A   1      38.281  31.185  30.925  1.00  0.00     0.074 A 
ATOM     39  C   UNL A   1      37.873  32.752  32.793  1.00  0.00     0.049 A 
ATOM     40  N   UNL A   1      39.282  30.491  31.401  1.00  0.00    -0.248 NA
ATOM     41  C   UNL A   1      37.827  30.743  29.595  1.00  0.00     0.031 C 
ATOM     42  C   UNL A   1      37.193  33.818  33.533  1.00  0.00     0.029 A 
ATOM     43  N   UNL A   1      38.856  32.328  33.653  1.00  0.00    -0.354 N 
ATOM     44  C   UNL A   1      39.568  29.527  30.441  1.00  0.00     0.074 A 
ATOM     45  C   UNL A   1      38.603  29.691  29.377  1.00  0.00     0.031 C 
ATOM     46  C   UNL A   1      37.796  33.981  34.723  1.00  0.00     0.029 A 
ATOM     47  C   UNL A   1      38.881  33.013  34.846  1.00  0.00     0.049 A 
ATOM     48  H   UNL A   1      39.484  31.602  33.436  1.00  0.00     0.167 HD
ATOM     49  C   UNL A   1      40.569  28.615  30.427  1.00  0.00     0.034 A 
ATOM     50  C   UNL A   1      39.690  32.880  35.916  1.00  0.00     0.034 A 
ATOM     51  C   UNL A   1      41.548  28.481  31.472  1.00  0.00     0.049 A 
ATOM     52  C   UNL A   1      40.791  31.853  35.877  1.00  0.00     0.074 A 
ATOM     53  C   UNL A   1      42.633  27.625  31.523  1.00  0.00     0.029 A 
ATOM     54  N   UNL A   1      41.562  29.218  32.646  1.00  0.00    -0.354 N 
ATOM     55  N   UNL A   1      41.126  31.042  34.904  1.00  0.00    -0.248 NA
ATOM     56  C   UNL A   1      41.644  31.744  37.071  1.00  0.00     0.031 C 
ATOM     57  C   UNL A   1      43.288  27.824  32.741  1.00  0.00     0.029 A 
ATOM     58  C   UNL A   1      42.632  28.828  33.434  1.00  0.00     0.049 A 
ATOM     59  H   UNL A   1      40.909  29.915  32.884  1.00  0.00     0.167 HD
ATOM     60  C   UNL A   1      42.246  30.350  35.352  1.00  0.00     0.074 A 
ATOM     61  C   UNL A   1      42.545  30.853  36.677  1.00  0.00     0.031 C 
ATOM     62  C   UNL A   1      42.951  29.375  34.729  1.00  0.00     0.034 A 
BRANCH  49  63
ATOM     63  C   UNL A   1      40.708  27.734  29.213  1.00  0.00     0.023 A 
ATOM     64  C   UNL A   1      39.882  26.596  29.090  1.00  0.00     0.012 A 
ATOM     65  C   UNL A   1      41.572  28.077  28.155  1.00  0.00     0.148 A 
ATOM     66  C   UNL A   1      39.933  25.801  27.947  1.00  0.00     0.002 A 
ATOM     67  C   UNL A   1      41.581  27.306  26.997  1.00  0.00     0.091 A 
ATOM     68  F   UNL A   1      42.360  29.152  28.296  1.00  0.00    -0.205 F 
ATOM     69  C   UNL A   1      40.771  26.163  26.897  1.00  0.00     0.022 A 
BRANCH  67  70
ATOM     70  S   UNL A   1      42.558  27.731  25.551  1.00  0.00     0.127 S 
ATOM     71  O   UNL A   1      43.901  27.832  26.122  1.00  0.00    -0.237 OA
ATOM     72  O   UNL A   1      42.349  26.569  24.688  1.00  0.00    -0.237 OA
ATOM     73  O   UNL A   1      42.006  28.979  25.043  1.00  0.00    -0.744 OA
ENDBRANCH  67  70
ENDBRANCH  49  63
BRANCH  50  74
ATOM     74  C   UNL A   1      39.540  33.797  37.082  1.00  0.00     0.023 A 
ATOM     75  C   UNL A   1      39.999  35.125  36.976  1.00  0.00     0.012 A 
ATOM     76  C   UNL A   1      38.918  33.380  38.275  1.00  0.00     0.148 A 
ATOM     77  C   UNL A   1      39.864  36.013  38.044  1.00  0.00     0.002 A 
ATOM     78  C   UNL A   1      38.741  34.284  39.317  1.00  0.00     0.091 A 
ATOM     79  F   UNL A   1      38.500  32.109  38.361  1.00  0.00    -0.205 F 
ATOM     80  C   UNL A   1      39.226  35.596  39.208  1.00  0.00     0.022 A 
BRANCH  78  81
ATOM     81  S   UNL A   1      37.826  33.873  40.808  1.00  0.00     0.127 S 
ATOM     82  O   UNL A   1      36.615  33.270  40.255  1.00  0.00    -0.237 OA
ATOM     83  O   UNL A   1      38.735  32.935  41.466  1.00  0.00    -0.237 OA
ATOM     84  O   UNL A   1      37.635  35.134  41.511  1.00  0.00    -0.744 OA
ENDBRANCH  78  81
ENDBRANCH  50  74
BRANCH  62  85
ATOM     85  C   UNL A   1      44.136  28.781  35.447  1.00  0.00     0.023 A 
ATOM     86  C   UNL A   1      45.406  29.372  35.301  1.00  0.00     0.012 A 
ATOM     87  C   UNL A   1      43.964  27.727  36.368  1.00  0.00     0.148 A 
ATOM     88  C   UNL A   1      46.491  28.913  36.047  1.00  0.00     0.002 A 
ATOM     89  C   UNL A   1      45.036  27.312  37.147  1.00  0.00     0.091 A 
ATOM     90  F   UNL A   1      42.750  27.170  36.481  1.00  0.00    -0.205 F 
ATOM     91  C   UNL A   1      46.303  27.897  36.981  1.00  0.00     0.022 A 
BRANCH  89  92
ATOM     92  S   UNL A   1      44.870  26.090  38.454  1.00  0.00     0.127 S 
ATOM     93  O   UNL A   1      43.868  26.714  39.318  1.00  0.00    -0.237 OA
ATOM     94  O   UNL A   1      44.398  24.917  37.720  1.00  0.00    -0.237 OA
ATOM     95  O   UNL A   1      46.194  25.948  39.045  1.00  0.00    -0.744 OA
ENDBRANCH  89  92
ENDBRANCH  62  85
ENDBRANCH  36  37
ENDBRANCH  28  31
ENDBRANCH  26  27
ENDBRANCH  25  26
ENDBRANCH   1  25
TORSDOF 18
ENDMDL
