MODEL 1
REMARK VINA RESULT:     -11.2      0.000      0.000
REMARK SMILES CC[C@H](C)[C@H](NC(=O)N1CCCCC1)C(=O)NCCCCCCNC(=O)c1ccc(-c2c3nc(c(-c4cccc(S(=O)(=O)[O-])c4F)c4ccc([nH]4)c(-c4cccc(S(=O)(=O)[O-])c4F)c4nc(c(-c5cccc(S(=O)(=O)[O-])c5F)c5ccc2[nH]5)C=C4)C=C3)cc1
REMARK SMILES IDX 21 1 20 2 19 3 18 4 17 5 15 6 16 7 5 9 3 10 4 11 2 12 1 13
REMARK SMILES IDX 6 14 7 15 8 17 9 18 10 19 14 20 11 21 13 22 12 23 22 24
REMARK SMILES IDX 23 25 24 26 25 27 26 29 27 30 28 31 89 32 29 33 88 34 30 35
REMARK SMILES IDX 31 36 32 37 82 38 33 39 87 40 81 41 83 42 34 43 86 44 80 45
REMARK SMILES IDX 79 46 35 48 67 49 47 50 66 51 48 52 51 53 65 54 84 55 49 56
REMARK SMILES IDX 50 57 64 59 85 60 52 61 36 62 37 63 45 64 38 65 40 66 46 67
REMARK SMILES IDX 39 68 41 69 42 70 43 71 44 72 68 73 69 74 77 75 70 76 72 77
REMARK SMILES IDX 78 78 71 79 73 80 74 81 75 82 76 83 53 84 54 85 62 86 55 87
REMARK SMILES IDX 57 88 63 89 56 90 58 91 59 92 60 93 61 94
REMARK H PARENT 17 8 6 16 24 28 83 47 51 58
REMARK Flexibility Score: inf
ROOT
ATOM      1  C   UNL A   1      31.966  30.480  26.088  1.00  0.00     0.002 C 
ENDROOT
BRANCH   1   2
ATOM      2  C   UNL A   1      32.220  29.297  27.023  1.00  0.00     0.002 C 
BRANCH   2   3
ATOM      3  C   UNL A   1      33.678  28.837  27.077  1.00  0.00     0.021 C 
BRANCH   3   4
ATOM      4  C   UNL A   1      33.929  27.539  26.324  1.00  0.00     0.116 C 
BRANCH   4   5
ATOM      5  N   UNL A   1      32.838  26.591  26.467  1.00  0.00    -0.354 N 
ATOM      6  C   UNL A   1      32.180  25.902  25.486  1.00  0.00     0.242 C 
ATOM      7  O   UNL A   1      31.279  25.123  25.808  1.00  0.00    -0.273 OA
ATOM      8  H   UNL A   1      32.532  26.424  27.387  1.00  0.00     0.163 HD
BRANCH   6   9
ATOM      9  C   UNL A   1      32.652  26.030  24.034  1.00  0.00     0.176 C 
BRANCH   9  10
ATOM     10  C   UNL A   1      31.692  27.087  23.273  1.00  0.00     0.018 C 
ATOM     11  C   UNL A   1      30.414  27.541  24.003  1.00  0.00     0.010 C 
BRANCH  10  12
ATOM     12  C   UNL A   1      32.459  28.347  22.734  1.00  0.00     0.002 C 
ATOM     13  C   UNL A   1      33.936  28.496  23.064  1.00  0.00     0.004 C 
ENDBRANCH  10  12
ENDBRANCH   9  10
BRANCH   9  14
ATOM     14  N   UNL A   1      32.877  24.721  23.351  1.00  0.00    -0.326 N 
ATOM     15  C   UNL A   1      33.979  24.002  23.019  1.00  0.00     0.318 C 
ATOM     16  H   UNL A   1      32.039  24.283  23.080  1.00  0.00     0.166 HD
ATOM     17  O   UNL A   1      33.930  23.500  21.891  1.00  0.00    -0.249 OA
ATOM     18  N   UNL A   1      35.049  23.783  23.847  1.00  0.00    -0.325 N 
ATOM     19  C   UNL A   1      36.270  23.200  23.274  1.00  0.00     0.121 C 
ATOM     20  C   UNL A   1      35.132  24.038  25.274  1.00  0.00     0.121 C 
ATOM     21  C   UNL A   1      36.804  22.009  24.077  1.00  0.00     0.022 C 
ATOM     22  C   UNL A   1      35.684  22.877  26.098  1.00  0.00     0.022 C 
ATOM     23  C   UNL A   1      36.997  22.369  25.544  1.00  0.00     0.004 C 
ENDBRANCH   9  14
ENDBRANCH   6   9
ENDBRANCH   4   5
ENDBRANCH   3   4
ENDBRANCH   2   3
ENDBRANCH   1   2
BRANCH   1  24
ATOM     24  C   UNL A   1      31.608  31.783  26.800  1.00  0.00     0.021 C 
BRANCH  24  25
ATOM     25  C   UNL A   1      32.793  32.469  27.461  1.00  0.00     0.116 C 
BRANCH  25  26
ATOM     26  N   UNL A   1      32.575  33.899  27.603  1.00  0.00    -0.352 N 
ATOM     27  C   UNL A   1      33.138  34.764  28.508  1.00  0.00     0.251 C 
ATOM     28  H   UNL A   1      31.939  34.300  26.966  1.00  0.00     0.163 HD
ATOM     29  O   UNL A   1      32.695  35.891  28.652  1.00  0.00    -0.269 OA
BRANCH  27  30
ATOM     30  C   UNL A   1      34.279  34.288  29.316  1.00  0.00     0.039 A 
ATOM     31  C   UNL A   1      34.029  33.600  30.503  1.00  0.00     0.014 A 
ATOM     32  C   UNL A   1      35.589  34.484  28.866  1.00  0.00     0.014 A 
ATOM     33  C   UNL A   1      35.098  33.057  31.216  1.00  0.00     0.010 A 
ATOM     34  C   UNL A   1      36.641  33.864  29.529  1.00  0.00     0.010 A 
ATOM     35  C   UNL A   1      36.408  33.156  30.717  1.00  0.00    -0.014 A 
BRANCH  35  36
ATOM     36  C   UNL A   1      37.550  32.525  31.421  1.00  0.00     0.031 A 
ATOM     37  C   UNL A   1      38.280  31.371  30.789  1.00  0.00     0.074 A 
ATOM     38  C   UNL A   1      37.875  32.935  32.664  1.00  0.00     0.049 A 
ATOM     39  N   UNL A   1      39.261  30.654  31.270  1.00  0.00    -0.248 NA
ATOM     40  C   UNL A   1      37.830  30.950  29.450  1.00  0.00     0.031 C 
ATOM     41  C   UNL A   1      37.192  33.991  33.414  1.00  0.00     0.029 A 
ATOM     42  N   UNL A   1      38.848  32.494  33.526  1.00  0.00    -0.354 N 
ATOM     43  C   UNL A   1      39.521  29.679  30.315  1.00  0.00     0.074 A 
ATOM     44  C   UNL A   1      38.569  29.871  29.244  1.00  0.00     0.031 C 
ATOM     45  C   UNL A   1      37.770  34.122  34.618  1.00  0.00     0.029 A 
ATOM     46  C   UNL A   1      38.841  33.138  34.740  1.00  0.00     0.049 A 
ATOM     47  H   UNL A   1      39.490  31.784  33.296  1.00  0.00     0.167 HD
ATOM     48  C   UNL A   1      40.486  28.729  30.314  1.00  0.00     0.034 A 
ATOM     49  C   UNL A   1      39.604  32.949  35.835  1.00  0.00     0.034 A 
ATOM     50  C   UNL A   1      41.453  28.568  31.364  1.00  0.00     0.049 A 
ATOM     51  C   UNL A   1      40.686  31.904  35.797  1.00  0.00     0.074 A 
ATOM     52  C   UNL A   1      42.523  27.693  31.421  1.00  0.00     0.029 A 
ATOM     53  N   UNL A   1      41.463  29.290  32.548  1.00  0.00    -0.354 N 
ATOM     54  N   UNL A   1      41.018  31.093  34.821  1.00  0.00    -0.248 NA
ATOM     55  C   UNL A   1      41.523  31.770  36.999  1.00  0.00     0.031 C 
ATOM     56  C   UNL A   1      43.160  27.862  32.653  1.00  0.00     0.029 A 
ATOM     57  C   UNL A   1      42.511  28.870  33.349  1.00  0.00     0.049 A 
ATOM     58  H   UNL A   1      40.819  29.995  32.785  1.00  0.00     0.167 HD
ATOM     59  C   UNL A   1      42.121  30.380  35.276  1.00  0.00     0.074 A 
ATOM     60  C   UNL A   1      42.414  30.870  36.606  1.00  0.00     0.031 C 
ATOM     61  C   UNL A   1      42.821  29.402  34.652  1.00  0.00     0.034 A 
BRANCH  48  62
ATOM     62  C   UNL A   1      40.572  27.820  29.115  1.00  0.00     0.023 A 
ATOM     63  C   UNL A   1      39.681  26.731  29.000  1.00  0.00     0.012 A 
ATOM     64  C   UNL A   1      41.493  28.071  28.081  1.00  0.00     0.148 A 
ATOM     65  C   UNL A   1      39.732  25.885  27.893  1.00  0.00     0.002 A 
ATOM     66  C   UNL A   1      41.504  27.252  26.957  1.00  0.00     0.091 A 
ATOM     67  F   UNL A   1      42.345  29.097  28.216  1.00  0.00    -0.205 F 
ATOM     68  C   UNL A   1      40.635  26.153  26.868  1.00  0.00     0.022 A 
BRANCH  66  69
ATOM     69  S   UNL A   1      42.571  27.558  25.544  1.00  0.00     0.127 S 
ATOM     70  O   UNL A   1      42.002  28.793  25.007  1.00  0.00    -0.237 OA
ATOM     71  O   UNL A   1      43.880  27.717  26.179  1.00  0.00    -0.237 OA
ATOM     72  O   UNL A   1      42.448  26.390  24.686  1.00  0.00    -0.744 OA
ENDBRANCH  66  69
ENDBRANCH  48  62
BRANCH  49  73
ATOM     73  C   UNL A   1      39.410  33.809  37.037  1.00  0.00     0.023 A 
ATOM     74  C   UNL A   1      39.851  35.146  37.012  1.00  0.00     0.012 A 
ATOM     75  C   UNL A   1      38.773  33.318  38.193  1.00  0.00     0.148 A 
ATOM     76  C   UNL A   1      39.694  35.969  38.127  1.00  0.00     0.002 A 
ATOM     77  C   UNL A   1      38.567  34.160  39.280  1.00  0.00     0.091 A 
ATOM     78  F   UNL A   1      38.367  32.041  38.201  1.00  0.00    -0.205 F 
ATOM     79  C   UNL A   1      39.044  35.480  39.256  1.00  0.00     0.022 A 
BRANCH  77  80
ATOM     80  S   UNL A   1      37.626  33.656  40.724  1.00  0.00     0.127 S 
ATOM     81  O   UNL A   1      36.404  33.134  40.119  1.00  0.00    -0.237 OA
ATOM     82  O   UNL A   1      38.502  32.646  41.317  1.00  0.00    -0.237 OA
ATOM     83  O   UNL A   1      37.467  34.860  41.531  1.00  0.00    -0.744 OA
ENDBRANCH  77  80
ENDBRANCH  49  73
BRANCH  61  84
ATOM     84  C   UNL A   1      44.003  28.814  35.378  1.00  0.00     0.023 A 
ATOM     85  C   UNL A   1      45.280  29.389  35.225  1.00  0.00     0.012 A 
ATOM     86  C   UNL A   1      43.829  27.741  36.274  1.00  0.00     0.148 A 
ATOM     87  C   UNL A   1      46.373  28.882  35.929  1.00  0.00     0.002 A 
ATOM     88  C   UNL A   1      44.911  27.277  37.012  1.00  0.00     0.091 A 
ATOM     89  F   UNL A   1      42.608  27.198  36.393  1.00  0.00    -0.205 F 
ATOM     90  C   UNL A   1      46.186  27.837  36.831  1.00  0.00     0.022 A 
BRANCH  88  91
ATOM     91  S   UNL A   1      44.747  26.002  38.267  1.00  0.00     0.127 S 
ATOM     92  O   UNL A   1      43.795  26.615  39.191  1.00  0.00    -0.237 OA
ATOM     93  O   UNL A   1      44.214  24.878  37.497  1.00  0.00    -0.237 OA
ATOM     94  O   UNL A   1      46.086  25.788  38.802  1.00  0.00    -0.744 OA
ENDBRANCH  88  91
ENDBRANCH  61  84
ENDBRANCH  35  36
ENDBRANCH  27  30
ENDBRANCH  25  26
ENDBRANCH  24  25
ENDBRANCH   1  24
TORSDOF 19
ENDMDL
MODEL 2
REMARK VINA RESULT:     -10.9      5.652     11.822
REMARK SMILES CC[C@H](C)[C@H](NC(=O)N1CCCCC1)C(=O)NCCCCCCNC(=O)c1ccc(-c2c3nc(c(-c4cccc(S(=O)(=O)[O-])c4F)c4ccc([nH]4)c(-c4cccc(S(=O)(=O)[O-])c4F)c4nc(c(-c5cccc(S(=O)(=O)[O-])c5F)c5ccc2[nH]5)C=C4)C=C3)cc1
REMARK SMILES IDX 21 1 20 2 19 3 18 4 17 5 15 6 16 7 5 9 3 10 4 11 2 12 1 13
REMARK SMILES IDX 6 14 7 15 8 17 9 18 10 19 14 20 11 21 13 22 12 23 22 24
REMARK SMILES IDX 23 25 24 26 25 27 26 29 27 30 28 31 89 32 29 33 88 34 30 35
REMARK SMILES IDX 31 36 32 37 82 38 33 39 87 40 81 41 83 42 34 43 86 44 80 45
REMARK SMILES IDX 79 46 35 48 67 49 47 50 66 51 48 52 51 53 65 54 84 55 49 56
REMARK SMILES IDX 50 57 64 59 85 60 52 61 36 62 37 63 45 64 38 65 40 66 46 67
REMARK SMILES IDX 39 68 41 69 42 70 43 71 44 72 68 73 69 74 77 75 70 76 72 77
REMARK SMILES IDX 78 78 71 79 73 80 74 81 75 82 76 83 53 84 54 85 62 86 55 87
REMARK SMILES IDX 57 88 63 89 56 90 58 91 59 92 60 93 61 94
REMARK H PARENT 17 8 6 16 24 28 83 47 51 58
REMARK Flexibility Score: inf
ROOT
ATOM      1  C   UNL A   1      36.947  20.361  24.762  1.00  0.00     0.002 C 
ENDROOT
BRANCH   1   2
ATOM      2  C   UNL A   1      37.248  21.859  24.833  1.00  0.00     0.002 C 
BRANCH   2   3
ATOM      3  C   UNL A   1      36.782  22.655  23.612  1.00  0.00     0.021 C 
BRANCH   3   4
ATOM      4  C   UNL A   1      35.578  23.542  23.894  1.00  0.00     0.116 C 
BRANCH   4   5
ATOM      5  N   UNL A   1      34.432  23.203  23.069  1.00  0.00    -0.354 N 
ATOM      6  C   UNL A   1      33.167  22.875  23.470  1.00  0.00     0.242 C 
ATOM      7  O   UNL A   1      32.315  22.630  22.612  1.00  0.00    -0.273 OA
ATOM      8  H   UNL A   1      34.585  23.211  22.097  1.00  0.00     0.163 HD
BRANCH   6   9
ATOM      9  C   UNL A   1      32.815  22.931  24.960  1.00  0.00     0.176 C 
BRANCH   9  10
ATOM     10  C   UNL A   1      32.846  21.425  25.552  1.00  0.00     0.018 C 
ATOM     11  C   UNL A   1      33.235  20.289  24.587  1.00  0.00     0.010 C 
BRANCH  10  12
ATOM     12  C   UNL A   1      33.682  21.294  26.874  1.00  0.00     0.002 C 
ATOM     13  C   UNL A   1      34.453  22.508  27.372  1.00  0.00     0.004 C 
ENDBRANCH  10  12
ENDBRANCH   9  10
BRANCH   9  14
ATOM     14  N   UNL A   1      31.601  23.743  25.267  1.00  0.00    -0.326 N 
ATOM     15  C   UNL A   1      31.383  24.913  25.920  1.00  0.00     0.318 C 
ATOM     16  H   UNL A   1      30.773  23.340  24.921  1.00  0.00     0.166 HD
ATOM     17  O   UNL A   1      30.394  24.899  26.661  1.00  0.00    -0.249 OA
ATOM     18  N   UNL A   1      32.134  26.048  25.762  1.00  0.00    -0.325 N 
ATOM     19  C   UNL A   1      31.937  27.156  26.709  1.00  0.00     0.121 C 
ATOM     20  C   UNL A   1      33.118  26.324  24.731  1.00  0.00     0.121 C 
ATOM     21  C   UNL A   1      31.738  28.510  26.019  1.00  0.00     0.022 C 
ATOM     22  C   UNL A   1      32.960  27.677  24.043  1.00  0.00     0.022 C 
ATOM     23  C   UNL A   1      32.868  28.808  25.043  1.00  0.00     0.004 C 
ENDBRANCH   9  14
ENDBRANCH   6   9
ENDBRANCH   4   5
ENDBRANCH   3   4
ENDBRANCH   2   3
ENDBRANCH   1   2
BRANCH   1  24
ATOM     24  C   UNL A   1      38.168  19.462  24.947  1.00  0.00     0.021 C 
BRANCH  24  25
ATOM     25  C   UNL A   1      39.258  20.074  25.813  1.00  0.00     0.116 C 
BRANCH  25  26
ATOM     26  N   UNL A   1      40.375  19.163  25.993  1.00  0.00    -0.352 N 
ATOM     27  C   UNL A   1      41.699  19.463  26.202  1.00  0.00     0.251 C 
ATOM     28  H   UNL A   1      40.155  18.204  25.960  1.00  0.00     0.163 HD
ATOM     29  O   UNL A   1      42.556  18.600  26.114  1.00  0.00    -0.269 OA
BRANCH  27  30
ATOM     30  C   UNL A   1      42.059  20.861  26.516  1.00  0.00     0.039 A 
ATOM     31  C   UNL A   1      42.329  21.209  27.840  1.00  0.00     0.014 A 
ATOM     32  C   UNL A   1      42.174  21.805  25.492  1.00  0.00     0.014 A 
ATOM     33  C   UNL A   1      42.771  22.500  28.130  1.00  0.00     0.010 A 
ATOM     34  C   UNL A   1      42.701  23.059  25.772  1.00  0.00     0.010 A 
ATOM     35  C   UNL A   1      42.993  23.424  27.094  1.00  0.00    -0.014 A 
BRANCH  35  36
ATOM     36  C   UNL A   1      43.530  24.778  27.373  1.00  0.00     0.031 A 
ATOM     37  C   UNL A   1      42.611  25.865  27.861  1.00  0.00     0.074 A 
ATOM     38  C   UNL A   1      44.822  25.050  27.105  1.00  0.00     0.049 A 
ATOM     39  N   UNL A   1      42.879  27.122  28.104  1.00  0.00    -0.248 NA
ATOM     40  C   UNL A   1      41.200  25.500  28.079  1.00  0.00     0.031 C 
ATOM     41  C   UNL A   1      45.792  24.101  26.555  1.00  0.00     0.029 A 
ATOM     42  N   UNL A   1      45.537  26.215  27.237  1.00  0.00    -0.354 N 
ATOM     43  C   UNL A   1      41.670  27.703  28.467  1.00  0.00     0.074 A 
ATOM     44  C   UNL A   1      40.660  26.672  28.375  1.00  0.00     0.031 C 
ATOM     45  C   UNL A   1      46.975  24.717  26.404  1.00  0.00     0.029 A 
ATOM     46  C   UNL A   1      46.841  26.111  26.812  1.00  0.00     0.049 A 
ATOM     47  H   UNL A   1      45.153  27.045  27.601  1.00  0.00     0.167 HD
ATOM     48  C   UNL A   1      41.427  28.971  28.872  1.00  0.00     0.034 A 
ATOM     49  C   UNL A   1      47.816  27.040  26.748  1.00  0.00     0.034 A 
ATOM     50  C   UNL A   1      42.442  29.981  28.998  1.00  0.00     0.049 A 
ATOM     51  C   UNL A   1      47.526  28.435  27.229  1.00  0.00     0.074 A 
ATOM     52  C   UNL A   1      42.316  31.271  29.480  1.00  0.00     0.029 A 
ATOM     53  N   UNL A   1      43.769  29.819  28.631  1.00  0.00    -0.354 N 
ATOM     54  N   UNL A   1      46.412  28.926  27.716  1.00  0.00    -0.248 NA
ATOM     55  C   UNL A   1      48.636  29.398  27.184  1.00  0.00     0.031 C 
ATOM     56  C   UNL A   1      43.559  31.901  29.372  1.00  0.00     0.029 A 
ATOM     57  C   UNL A   1      44.470  30.990  28.861  1.00  0.00     0.049 A 
ATOM     58  H   UNL A   1      44.156  28.993  28.260  1.00  0.00     0.167 HD
ATOM     59  C   UNL A   1      46.696  30.240  28.069  1.00  0.00     0.074 A 
ATOM     60  C   UNL A   1      48.093  30.462  27.759  1.00  0.00     0.031 C 
ATOM     61  C   UNL A   1      45.872  31.181  28.592  1.00  0.00     0.034 A 
BRANCH  48  62
ATOM     62  C   UNL A   1      40.013  29.326  29.255  1.00  0.00     0.023 A 
ATOM     63  C   UNL A   1      39.077  29.645  28.248  1.00  0.00     0.012 A 
ATOM     64  C   UNL A   1      39.596  29.291  30.599  1.00  0.00     0.148 A 
ATOM     65  C   UNL A   1      37.760  29.961  28.577  1.00  0.00     0.002 A 
ATOM     66  C   UNL A   1      38.269  29.560  30.915  1.00  0.00     0.091 A 
ATOM     67  F   UNL A   1      40.504  29.006  31.544  1.00  0.00    -0.205 F 
ATOM     68  C   UNL A   1      37.354  29.908  29.908  1.00  0.00     0.022 A 
BRANCH  66  69
ATOM     69  S   UNL A   1      37.626  29.437  32.587  1.00  0.00     0.127 S 
ATOM     70  O   UNL A   1      38.526  30.330  33.315  1.00  0.00    -0.237 OA
ATOM     71  O   UNL A   1      36.263  29.945  32.428  1.00  0.00    -0.237 OA
ATOM     72  O   UNL A   1      37.714  28.031  32.951  1.00  0.00    -0.744 OA
ENDBRANCH  66  69
ENDBRANCH  48  62
BRANCH  49  73
ATOM     73  C   UNL A   1      49.174  26.662  26.264  1.00  0.00     0.023 A 
ATOM     74  C   UNL A   1      49.978  25.811  27.046  1.00  0.00     0.012 A 
ATOM     75  C   UNL A   1      49.663  27.122  25.025  1.00  0.00     0.148 A 
ATOM     76  C   UNL A   1      51.258  25.452  26.622  1.00  0.00     0.002 A 
ATOM     77  C   UNL A   1      50.916  26.714  24.582  1.00  0.00     0.091 A 
ATOM     78  F   UNL A   1      48.886  27.937  24.299  1.00  0.00    -0.205 F 
ATOM     79  C   UNL A   1      51.723  25.895  25.387  1.00  0.00     0.022 A 
BRANCH  77  80
ATOM     80  S   UNL A   1      51.543  27.128  22.950  1.00  0.00     0.127 S 
ATOM     81  O   UNL A   1      50.478  26.628  22.085  1.00  0.00    -0.237 OA
ATOM     82  O   UNL A   1      51.643  28.585  23.028  1.00  0.00    -0.237 OA
ATOM     83  O   UNL A   1      52.824  26.443  22.834  1.00  0.00    -0.744 OA
ENDBRANCH  77  80
ENDBRANCH  49  73
BRANCH  61  84
ATOM     84  C   UNL A   1      46.462  32.532  28.905  1.00  0.00     0.023 A 
ATOM     85  C   UNL A   1      47.095  32.755  30.143  1.00  0.00     0.012 A 
ATOM     86  C   UNL A   1      46.455  33.555  27.936  1.00  0.00     0.148 A 
ATOM     87  C   UNL A   1      47.685  33.987  30.425  1.00  0.00     0.002 A 
ATOM     88  C   UNL A   1      47.091  34.761  28.204  1.00  0.00     0.091 A 
ATOM     89  F   UNL A   1      45.832  33.328  26.770  1.00  0.00    -0.205 F 
ATOM     90  C   UNL A   1      47.695  34.984  29.452  1.00  0.00     0.022 A 
BRANCH  88  91
ATOM     91  S   UNL A   1      47.240  36.066  26.978  1.00  0.00     0.127 S 
ATOM     92  O   UNL A   1      47.915  35.370  25.883  1.00  0.00    -0.237 OA
ATOM     93  O   UNL A   1      45.841  36.404  26.716  1.00  0.00    -0.237 OA
ATOM     94  O   UNL A   1      48.012  37.128  27.610  1.00  0.00    -0.744 OA
ENDBRANCH  88  91
ENDBRANCH  61  84
ENDBRANCH  35  36
ENDBRANCH  27  30
ENDBRANCH  25  26
ENDBRANCH  24  25
ENDBRANCH   1  24
TORSDOF 19
ENDMDL
MODEL 3
REMARK VINA RESULT:     -10.8      1.609      7.802
REMARK SMILES CC[C@H](C)[C@H](NC(=O)N1CCCCC1)C(=O)NCCCCCCNC(=O)c1ccc(-c2c3nc(c(-c4cccc(S(=O)(=O)[O-])c4F)c4ccc([nH]4)c(-c4cccc(S(=O)(=O)[O-])c4F)c4nc(c(-c5cccc(S(=O)(=O)[O-])c5F)c5ccc2[nH]5)C=C4)C=C3)cc1
REMARK SMILES IDX 21 1 20 2 19 3 18 4 17 5 15 6 16 7 5 9 3 10 4 11 2 12 1 13
REMARK SMILES IDX 6 14 7 15 8 17 9 18 10 19 14 20 11 21 13 22 12 23 22 24
REMARK SMILES IDX 23 25 24 26 25 27 26 29 27 30 28 31 89 32 29 33 88 34 30 35
REMARK SMILES IDX 31 36 32 37 82 38 33 39 87 40 81 41 83 42 34 43 86 44 80 45
REMARK SMILES IDX 79 46 35 48 67 49 47 50 66 51 48 52 51 53 65 54 84 55 49 56
REMARK SMILES IDX 50 57 64 59 85 60 52 61 36 62 37 63 45 64 38 65 40 66 46 67
REMARK SMILES IDX 39 68 41 69 42 70 43 71 44 72 68 73 69 74 77 75 70 76 72 77
REMARK SMILES IDX 78 78 71 79 73 80 74 81 75 82 76 83 53 84 54 85 62 86 55 87
REMARK SMILES IDX 57 88 63 89 56 90 58 91 59 92 60 93 61 94
REMARK H PARENT 17 8 6 16 24 28 83 47 51 58
REMARK Flexibility Score: inf
ROOT
ATOM      1  C   UNL A   1      31.047  31.380  25.813  1.00  0.00     0.002 C 
ENDROOT
BRANCH   1   2
ATOM      2  C   UNL A   1      31.812  30.070  25.617  1.00  0.00     0.002 C 
BRANCH   2   3
ATOM      3  C   UNL A   1      31.816  29.152  26.840  1.00  0.00     0.021 C 
BRANCH   3   4
ATOM      4  C   UNL A   1      32.125  27.700  26.505  1.00  0.00     0.116 C 
BRANCH   4   5
ATOM      5  N   UNL A   1      31.048  26.801  26.880  1.00  0.00    -0.354 N 
ATOM      6  C   UNL A   1      30.413  25.871  26.105  1.00  0.00     0.242 C 
ATOM      7  O   UNL A   1      29.521  25.184  26.610  1.00  0.00    -0.273 OA
ATOM      8  H   UNL A   1      30.735  26.870  27.810  1.00  0.00     0.163 HD
BRANCH   6   9
ATOM      9  C   UNL A   1      30.898  25.631  24.672  1.00  0.00     0.176 C 
BRANCH   9  10
ATOM     10  C   UNL A   1      29.879  26.370  23.654  1.00  0.00     0.018 C 
ATOM     11  C   UNL A   1      28.386  26.382  24.026  1.00  0.00     0.010 C 
BRANCH  10  12
ATOM     12  C   UNL A   1      30.332  27.823  23.268  1.00  0.00     0.002 C 
ATOM     13  C   UNL A   1      29.267  28.847  22.911  1.00  0.00     0.004 C 
ENDBRANCH  10  12
ENDBRANCH   9  10
BRANCH   9  14
ATOM     14  N   UNL A   1      31.224  24.205  24.371  1.00  0.00    -0.326 N 
ATOM     15  C   UNL A   1      32.247  23.580  23.737  1.00  0.00     0.318 C 
ATOM     16  H   UNL A   1      30.543  23.579  24.708  1.00  0.00     0.166 HD
ATOM     17  O   UNL A   1      31.890  22.661  22.990  1.00  0.00    -0.249 OA
ATOM     18  N   UNL A   1      33.574  23.872  23.915  1.00  0.00    -0.325 N 
ATOM     19  C   UNL A   1      34.551  23.289  22.986  1.00  0.00     0.121 C 
ATOM     20  C   UNL A   1      34.168  24.693  24.955  1.00  0.00     0.121 C 
ATOM     21  C   UNL A   1      35.731  22.616  23.695  1.00  0.00     0.022 C 
ATOM     22  C   UNL A   1      35.363  24.059  25.664  1.00  0.00     0.022 C 
ATOM     23  C   UNL A   1      36.401  23.564  24.681  1.00  0.00     0.004 C 
ENDBRANCH   9  14
ENDBRANCH   6   9
ENDBRANCH   4   5
ENDBRANCH   3   4
ENDBRANCH   2   3
ENDBRANCH   1   2
BRANCH   1  24
ATOM     24  C   UNL A   1      31.432  32.154  27.072  1.00  0.00     0.021 C 
BRANCH  24  25
ATOM     25  C   UNL A   1      32.679  33.010  26.912  1.00  0.00     0.116 C 
BRANCH  25  26
ATOM     26  N   UNL A   1      32.568  34.260  27.644  1.00  0.00    -0.352 N 
ATOM     27  C   UNL A   1      33.239  34.651  28.777  1.00  0.00     0.251 C 
ATOM     28  H   UNL A   1      31.928  34.914  27.280  1.00  0.00     0.163 HD
ATOM     29  O   UNL A   1      32.885  35.635  29.404  1.00  0.00    -0.269 OA
BRANCH  27  30
ATOM     30  C   UNL A   1      34.388  33.838  29.226  1.00  0.00     0.039 A 
ATOM     31  C   UNL A   1      35.680  34.264  28.920  1.00  0.00     0.014 A 
ATOM     32  C   UNL A   1      34.178  32.686  29.990  1.00  0.00     0.014 A 
ATOM     33  C   UNL A   1      36.771  33.559  29.430  1.00  0.00     0.010 A 
ATOM     34  C   UNL A   1      35.263  32.041  30.571  1.00  0.00     0.010 A 
ATOM     35  C   UNL A   1      36.570  32.463  30.286  1.00  0.00    -0.014 A 
BRANCH  35  36
ATOM     36  C   UNL A   1      37.714  31.743  30.896  1.00  0.00     0.031 A 
ATOM     37  C   UNL A   1      38.162  32.087  32.291  1.00  0.00     0.074 A 
ATOM     38  C   UNL A   1      38.400  30.842  30.165  1.00  0.00     0.049 A 
ATOM     39  N   UNL A   1      39.172  31.613  32.972  1.00  0.00    -0.248 NA
ATOM     40  C   UNL A   1      37.391  33.120  33.004  1.00  0.00     0.031 C 
ATOM     41  C   UNL A   1      38.111  30.480  28.776  1.00  0.00     0.029 A 
ATOM     42  N   UNL A   1      39.500  30.084  30.483  1.00  0.00    -0.354 N 
ATOM     43  C   UNL A   1      39.179  32.310  34.173  1.00  0.00     0.074 A 
ATOM     44  C   UNL A   1      38.099  33.269  34.113  1.00  0.00     0.031 C 
ATOM     45  C   UNL A   1      39.003  29.566  28.364  1.00  0.00     0.029 A 
ATOM     46  C   UNL A   1      39.948  29.302  29.444  1.00  0.00     0.049 A 
ATOM     47  H   UNL A   1      39.927  30.098  31.369  1.00  0.00     0.167 HD
ATOM     48  C   UNL A   1      39.992  32.147  35.244  1.00  0.00     0.034 A 
ATOM     49  C   UNL A   1      41.008  28.474  29.367  1.00  0.00     0.034 A 
ATOM     50  C   UNL A   1      41.041  31.167  35.312  1.00  0.00     0.049 A 
ATOM     51  C   UNL A   1      41.880  28.291  30.579  1.00  0.00     0.074 A 
ATOM     52  C   UNL A   1      41.865  30.863  36.380  1.00  0.00     0.029 A 
ATOM     53  N   UNL A   1      41.418  30.338  34.267  1.00  0.00    -0.354 N 
ATOM     54  N   UNL A   1      41.777  28.848  31.762  1.00  0.00    -0.248 NA
ATOM     55  C   UNL A   1      42.995  27.341  30.460  1.00  0.00     0.031 C 
ATOM     56  C   UNL A   1      42.763  29.873  35.970  1.00  0.00     0.029 A 
ATOM     57  C   UNL A   1      42.473  29.532  34.659  1.00  0.00     0.049 A 
ATOM     58  H   UNL A   1      40.998  30.325  33.376  1.00  0.00     0.167 HD
ATOM     59  C   UNL A   1      42.787  28.290  32.536  1.00  0.00     0.074 A 
ATOM     60  C   UNL A   1      43.478  27.336  31.695  1.00  0.00     0.031 C 
ATOM     61  C   UNL A   1      43.119  28.552  33.824  1.00  0.00     0.034 A 
BRANCH  48  62
ATOM     62  C   UNL A   1      39.747  33.019  36.448  1.00  0.00     0.023 A 
ATOM     63  C   UNL A   1      40.280  34.325  36.484  1.00  0.00     0.012 A 
ATOM     64  C   UNL A   1      38.950  32.569  37.517  1.00  0.00     0.148 A 
ATOM     65  C   UNL A   1      40.054  35.155  37.582  1.00  0.00     0.002 A 
ATOM     66  C   UNL A   1      38.688  33.420  38.586  1.00  0.00     0.091 A 
ATOM     67  F   UNL A   1      38.469  31.319  37.476  1.00  0.00    -0.205 F 
ATOM     68  C   UNL A   1      39.250  34.706  38.625  1.00  0.00     0.022 A 
BRANCH  66  69
ATOM     69  S   UNL A   1      37.598  32.969  39.940  1.00  0.00     0.127 S 
ATOM     70  O   UNL A   1      37.726  34.130  40.820  1.00  0.00    -0.237 OA
ATOM     71  O   UNL A   1      36.304  32.855  39.266  1.00  0.00    -0.237 OA
ATOM     72  O   UNL A   1      38.117  31.720  40.476  1.00  0.00    -0.744 OA
ENDBRANCH  66  69
ENDBRANCH  48  62
BRANCH  49  73
ATOM     73  C   UNL A   1      41.268  27.709  28.114  1.00  0.00     0.023 A 
ATOM     74  C   UNL A   1      41.826  28.369  27.002  1.00  0.00     0.012 A 
ATOM     75  C   UNL A   1      40.989  26.332  28.025  1.00  0.00     0.148 A 
ATOM     76  C   UNL A   1      42.068  27.681  25.813  1.00  0.00     0.002 A 
ATOM     77  C   UNL A   1      41.286  25.640  26.857  1.00  0.00     0.091 A 
ATOM     78  F   UNL A   1      40.452  25.723  29.092  1.00  0.00    -0.205 F 
ATOM     79  C   UNL A   1      41.807  26.316  25.743  1.00  0.00     0.022 A 
BRANCH  77  80
ATOM     80  S   UNL A   1      41.106  23.857  26.721  1.00  0.00     0.127 S 
ATOM     81  O   UNL A   1      42.010  23.549  25.616  1.00  0.00    -0.237 OA
ATOM     82  O   UNL A   1      41.561  23.408  28.036  1.00  0.00    -0.237 OA
ATOM     83  O   UNL A   1      39.691  23.622  26.463  1.00  0.00    -0.744 OA
ENDBRANCH  77  80
ENDBRANCH  49  73
BRANCH  61  84
ATOM     84  C   UNL A   1      44.257  27.770  34.426  1.00  0.00     0.023 A 
ATOM     85  C   UNL A   1      45.558  28.309  34.432  1.00  0.00     0.012 A 
ATOM     86  C   UNL A   1      44.018  26.533  35.058  1.00  0.00     0.148 A 
ATOM     87  C   UNL A   1      46.610  27.614  35.029  1.00  0.00     0.002 A 
ATOM     88  C   UNL A   1      45.060  25.872  35.697  1.00  0.00     0.091 A 
ATOM     89  F   UNL A   1      42.775  26.029  35.028  1.00  0.00    -0.205 F 
ATOM     90  C   UNL A   1      46.359  26.404  35.671  1.00  0.00     0.022 A 
BRANCH  88  91
ATOM     91  S   UNL A   1      44.812  24.360  36.634  1.00  0.00     0.127 S 
ATOM     92  O   UNL A   1      44.146  24.859  37.836  1.00  0.00    -0.237 OA
ATOM     93  O   UNL A   1      43.955  23.580  35.741  1.00  0.00    -0.237 OA
ATOM     94  O   UNL A   1      46.138  23.794  36.846  1.00  0.00    -0.744 OA
ENDBRANCH  88  91
ENDBRANCH  61  84
ENDBRANCH  35  36
ENDBRANCH  27  30
ENDBRANCH  25  26
ENDBRANCH  24  25
ENDBRANCH   1  24
TORSDOF 19
ENDMDL
