MODEL 1
REMARK VINA RESULT:     -12.0      0.000      0.000
REMARK SMILES O=C(NCCCCCCNC(=O)[C@H]1CC[C@H]2CCCC[C@@H]2N1C(=O)c1ccn[nH]1)c1ccc(-c2c3nc(c(-c4cccc(S(=O)(=O)[O-])c4F)c4ccc([nH]4)c(-c4cccc(S(=O)(=O)[O-])c4F)c4nc(c(-c5cccc(S(=O)(=O)[O-])c5F)c5ccc2[nH]5)C=C4)C=C3)cc1
REMARK SMILES IDX 6 1 5 2 4 3 3 4 1 5 2 6 30 8 31 9 92 10 32 11 91 12 33 13
REMARK SMILES IDX 34 14 35 15 85 16 36 17 90 18 84 19 86 20 37 21 89 22 83 23
REMARK SMILES IDX 82 24 38 26 70 27 50 28 69 29 51 30 54 31 68 32 87 33 52 34
REMARK SMILES IDX 53 35 67 37 88 38 55 39 39 40 40 41 48 42 41 43 43 44 49 45
REMARK SMILES IDX 42 46 44 47 45 48 46 49 47 50 71 51 72 52 80 53 73 54 75 55
REMARK SMILES IDX 81 56 74 57 76 58 77 59 78 60 79 61 56 62 57 63 65 64 58 65
REMARK SMILES IDX 60 66 66 67 59 68 61 69 62 70 63 71 64 72 7 73 8 74 9 75
REMARK SMILES IDX 10 76 11 77 12 79 13 80 14 81 22 82 15 83 21 84 16 85 20 86
REMARK SMILES IDX 17 87 19 88 18 89 23 90 24 91 25 92 26 93 29 94 27 95 28 96
REMARK H PARENT 3 7 86 25 54 36 10 78 29 97
REMARK Flexibility Score: inf
ROOT
ATOM      1  C   UNL A   1      36.653  20.340  24.973  1.00  0.00     0.002 C 
ENDROOT
BRANCH   1   2
ATOM      2  C   UNL A   1      37.974  19.568  24.989  1.00  0.00     0.021 C 
BRANCH   2   3
ATOM      3  C   UNL A   1      39.147  20.290  25.647  1.00  0.00     0.116 C 
BRANCH   3   4
ATOM      4  N   UNL A   1      40.208  19.385  26.045  1.00  0.00    -0.352 N 
ATOM      5  O   UNL A   1      42.300  18.775  26.607  1.00  0.00    -0.269 OA
ATOM      6  C   UNL A   1      41.485  19.679  26.456  1.00  0.00     0.251 C 
ATOM      7  H   UNL A   1      39.980  18.427  26.017  1.00  0.00     0.163 HD
BRANCH   6   8
ATOM      8  C   UNL A   1      41.882  21.088  26.688  1.00  0.00     0.039 A 
ATOM      9  C   UNL A   1      41.868  22.021  25.646  1.00  0.00     0.014 A 
ATOM     10  C   UNL A   1      42.251  21.482  27.977  1.00  0.00     0.014 A 
ATOM     11  C   UNL A   1      42.322  23.320  25.873  1.00  0.00     0.010 A 
ATOM     12  C   UNL A   1      42.651  22.800  28.215  1.00  0.00     0.010 A 
ATOM     13  C   UNL A   1      42.710  23.724  27.161  1.00  0.00    -0.014 A 
BRANCH  13  14
ATOM     14  C   UNL A   1      43.087  25.139  27.406  1.00  0.00     0.031 A 
ATOM     15  C   UNL A   1      42.151  26.090  28.098  1.00  0.00     0.074 A 
ATOM     16  C   UNL A   1      44.288  25.569  26.974  1.00  0.00     0.049 A 
ATOM     17  N   UNL A   1      42.345  27.345  28.416  1.00  0.00    -0.248 NA
ATOM     18  C   UNL A   1      40.827  25.575  28.480  1.00  0.00     0.031 C 
ATOM     19  C   UNL A   1      45.254  24.752  26.235  1.00  0.00     0.029 A 
ATOM     20  N   UNL A   1      44.899  26.792  27.083  1.00  0.00    -0.354 N 
ATOM     21  C   UNL A   1      41.164  27.781  29.002  1.00  0.00     0.074 A 
ATOM     22  C   UNL A   1      40.252  26.655  28.994  1.00  0.00     0.031 C 
ATOM     23  C   UNL A   1      46.343  25.491  25.973  1.00  0.00     0.029 A 
ATOM     24  C   UNL A   1      46.143  26.837  26.496  1.00  0.00     0.049 A 
ATOM     25  H   UNL A   1      44.487  27.562  27.536  1.00  0.00     0.167 HD
ATOM     26  C   UNL A   1      40.874  29.000  29.516  1.00  0.00     0.034 A 
ATOM     27  C   UNL A   1      47.025  27.849  26.391  1.00  0.00     0.034 A 
ATOM     28  C   UNL A   1      41.799  30.101  29.563  1.00  0.00     0.049 A 
ATOM     29  C   UNL A   1      46.693  29.174  27.015  1.00  0.00     0.074 A 
ATOM     30  C   UNL A   1      41.621  31.349  30.136  1.00  0.00     0.029 A 
ATOM     31  N   UNL A   1      43.073  30.091  29.017  1.00  0.00    -0.354 N 
ATOM     32  N   UNL A   1      45.631  29.517  27.700  1.00  0.00    -0.248 NA
ATOM     33  C   UNL A   1      47.693  30.243  26.877  1.00  0.00     0.031 C 
ATOM     34  C   UNL A   1      42.789  32.096  29.933  1.00  0.00     0.029 A 
ATOM     35  C   UNL A   1      43.691  31.311  29.233  1.00  0.00     0.049 A 
ATOM     36  H   UNL A   1      43.479  29.328  28.545  1.00  0.00     0.167 HD
ATOM     37  C   UNL A   1      45.837  30.835  28.088  1.00  0.00     0.074 A 
ATOM     38  C   UNL A   1      47.142  31.219  27.587  1.00  0.00     0.031 C 
ATOM     39  C   UNL A   1      45.010  31.661  28.773  1.00  0.00     0.034 A 
BRANCH  26  40
ATOM     40  C   UNL A   1      39.518  29.198  30.138  1.00  0.00     0.023 A 
ATOM     41  C   UNL A   1      39.269  28.664  31.418  1.00  0.00     0.012 A 
ATOM     42  C   UNL A   1      38.531  29.981  29.510  1.00  0.00     0.148 A 
ATOM     43  C   UNL A   1      38.053  28.896  32.059  1.00  0.00     0.002 A 
ATOM     44  C   UNL A   1      37.331  30.231  30.167  1.00  0.00     0.091 A 
ATOM     45  F   UNL A   1      38.779  30.460  28.282  1.00  0.00    -0.205 F 
ATOM     46  C   UNL A   1      37.089  29.688  31.439  1.00  0.00     0.022 A 
BRANCH  44  47
ATOM     47  S   UNL A   1      36.054  31.289  29.472  1.00  0.00     0.127 S 
ATOM     48  O   UNL A   1      35.461  30.410  28.465  1.00  0.00    -0.237 OA
ATOM     49  O   UNL A   1      35.199  31.550  30.631  1.00  0.00    -0.237 OA
ATOM     50  O   UNL A   1      36.746  32.461  28.957  1.00  0.00    -0.744 OA
ENDBRANCH  44  47
ENDBRANCH  26  40
BRANCH  27  51
ATOM     51  C   UNL A   1      48.337  27.610  25.731  1.00  0.00     0.023 A 
ATOM     52  C   UNL A   1      49.444  27.233  26.515  1.00  0.00     0.012 A 
ATOM     53  C   UNL A   1      48.480  27.684  24.332  1.00  0.00     0.148 A 
ATOM     54  C   UNL A   1      50.672  26.945  25.918  1.00  0.00     0.002 A 
ATOM     55  C   UNL A   1      49.692  27.343  23.740  1.00  0.00     0.091 A 
ATOM     56  F   UNL A   1      47.425  28.069  23.599  1.00  0.00    -0.205 F 
ATOM     57  C   UNL A   1      50.793  26.986  24.531  1.00  0.00     0.022 A 
BRANCH  55  58
ATOM     58  S   UNL A   1      49.848  27.234  21.954  1.00  0.00     0.127 S 
ATOM     59  O   UNL A   1      48.800  26.275  21.615  1.00  0.00    -0.237 OA
ATOM     60  O   UNL A   1      49.584  28.609  21.525  1.00  0.00    -0.237 OA
ATOM     61  O   UNL A   1      51.221  26.799  21.733  1.00  0.00    -0.744 OA
ENDBRANCH  55  58
ENDBRANCH  27  51
BRANCH  39  62
ATOM     62  C   UNL A   1      45.487  33.065  29.022  1.00  0.00     0.023 A 
ATOM     63  C   UNL A   1      46.217  33.342  30.194  1.00  0.00     0.012 A 
ATOM     64  C   UNL A   1      45.276  34.087  28.077  1.00  0.00     0.148 A 
ATOM     65  C   UNL A   1      46.712  34.624  30.432  1.00  0.00     0.002 A 
ATOM     66  C   UNL A   1      45.803  35.353  28.306  1.00  0.00     0.091 A 
ATOM     67  F   UNL A   1      44.556  33.810  26.979  1.00  0.00    -0.205 F 
ATOM     68  C   UNL A   1      46.515  35.626  29.485  1.00  0.00     0.022 A 
BRANCH  66  69
ATOM     69  S   UNL A   1      45.654  36.669  27.091  1.00  0.00     0.127 S 
ATOM     70  O   UNL A   1      46.329  36.088  25.934  1.00  0.00    -0.237 OA
ATOM     71  O   UNL A   1      44.204  36.809  26.944  1.00  0.00    -0.237 OA
ATOM     72  O   UNL A   1      46.305  37.826  27.693  1.00  0.00    -0.744 OA
ENDBRANCH  66  69
ENDBRANCH  39  62
ENDBRANCH  13  14
ENDBRANCH   6   8
ENDBRANCH   3   4
ENDBRANCH   2   3
ENDBRANCH   1   2
BRANCH   1  73
ATOM     73  C   UNL A   1      36.726  21.770  24.431  1.00  0.00     0.002 C 
BRANCH  73  74
ATOM     74  C   UNL A   1      36.058  22.848  25.293  1.00  0.00     0.021 C 
BRANCH  74  75
ATOM     75  C   UNL A   1      34.548  22.982  25.102  1.00  0.00     0.116 C 
BRANCH  75  76
ATOM     76  N   UNL A   1      34.181  22.858  23.709  1.00  0.00    -0.354 N 
ATOM     77  C   UNL A   1      33.630  23.768  22.853  1.00  0.00     0.242 C 
ATOM     78  H   UNL A   1      34.358  21.974  23.312  1.00  0.00     0.163 HD
ATOM     79  O   UNL A   1      33.545  23.430  21.668  1.00  0.00    -0.273 OA
BRANCH  77  80
ATOM     80  C   UNL A   1      33.377  25.235  23.300  1.00  0.00     0.175 C 
ATOM     81  C   UNL A   1      33.169  26.177  22.099  1.00  0.00     0.036 C 
ATOM     82  N   UNL A   1      32.371  25.538  24.336  1.00  0.00    -0.322 N 
ATOM     83  C   UNL A   1      32.894  27.631  22.528  1.00  0.00     0.008 C 
ATOM     84  C   UNL A   1      32.458  26.902  24.903  1.00  0.00     0.089 C 
ATOM     85  C   UNL A   1      33.274  27.856  23.994  1.00  0.00     0.012 C 
ATOM     86  C   UNL A   1      33.030  26.972  26.322  1.00  0.00     0.025 C 
ATOM     87  C   UNL A   1      33.075  29.298  24.468  1.00  0.00     0.006 C 
ATOM     88  C   UNL A   1      32.895  28.404  26.856  1.00  0.00     0.002 C 
ATOM     89  C   UNL A   1      33.523  29.446  25.926  1.00  0.00     0.000 C 
BRANCH  82  90
ATOM     90  C   UNL A   1      31.110  24.930  24.207  1.00  0.00     0.272 C 
ATOM     91  O   UNL A   1      30.435  25.042  23.187  1.00  0.00    -0.267 OA
BRANCH  90  92
ATOM     92  C   UNL A   1      30.655  24.144  25.324  1.00  0.00     0.123 A 
ATOM     93  C   UNL A   1      30.909  22.827  25.653  1.00  0.00     0.055 A 
ATOM     94  N   UNL A   1      29.897  24.627  26.353  1.00  0.00    -0.273 N 
ATOM     95  C   UNL A   1      30.192  22.603  26.842  1.00  0.00     0.135 A 
ATOM     96  N   UNL A   1      29.558  23.699  27.262  1.00  0.00    -0.183 NA
ATOM     97  H   UNL A   1      29.623  25.570  26.421  1.00  0.00     0.190 HD
ENDBRANCH  90  92
ENDBRANCH  82  90
ENDBRANCH  77  80
ENDBRANCH  75  76
ENDBRANCH  74  75
ENDBRANCH  73  74
ENDBRANCH   1  73
TORSDOF 18
ENDMDL
MODEL 2
REMARK VINA RESULT:     -11.9      5.892     11.136
REMARK SMILES O=C(NCCCCCCNC(=O)[C@H]1CC[C@H]2CCCC[C@@H]2N1C(=O)c1ccn[nH]1)c1ccc(-c2c3nc(c(-c4cccc(S(=O)(=O)[O-])c4F)c4ccc([nH]4)c(-c4cccc(S(=O)(=O)[O-])c4F)c4nc(c(-c5cccc(S(=O)(=O)[O-])c5F)c5ccc2[nH]5)C=C4)C=C3)cc1
REMARK SMILES IDX 6 1 5 2 4 3 3 4 1 5 2 6 30 8 31 9 92 10 32 11 91 12 33 13
REMARK SMILES IDX 34 14 35 15 85 16 36 17 90 18 84 19 86 20 37 21 89 22 83 23
REMARK SMILES IDX 82 24 38 26 70 27 50 28 69 29 51 30 54 31 68 32 87 33 52 34
REMARK SMILES IDX 53 35 67 37 88 38 55 39 39 40 40 41 48 42 41 43 43 44 49 45
REMARK SMILES IDX 42 46 44 47 45 48 46 49 47 50 71 51 72 52 80 53 73 54 75 55
REMARK SMILES IDX 81 56 74 57 76 58 77 59 78 60 79 61 56 62 57 63 65 64 58 65
REMARK SMILES IDX 60 66 66 67 59 68 61 69 62 70 63 71 64 72 7 73 8 74 9 75
REMARK SMILES IDX 10 76 11 77 12 79 13 80 14 81 22 82 15 83 21 84 16 85 20 86
REMARK SMILES IDX 17 87 19 88 18 89 23 90 24 91 25 92 26 93 29 94 27 95 28 96
REMARK H PARENT 3 7 86 25 54 36 10 78 29 97
REMARK Flexibility Score: inf
ROOT
ATOM      1  C   UNL A   1      31.706  30.495  25.744  1.00  0.00     0.002 C 
ENDROOT
BRANCH   1   2
ATOM      2  C   UNL A   1      31.480  31.750  26.590  1.00  0.00     0.021 C 
BRANCH   2   3
ATOM      3  C   UNL A   1      32.735  32.357  27.212  1.00  0.00     0.116 C 
BRANCH   3   4
ATOM      4  N   UNL A   1      32.539  33.728  27.640  1.00  0.00    -0.352 N 
ATOM      5  O   UNL A   1      32.798  35.540  28.950  1.00  0.00    -0.269 OA
ATOM      6  C   UNL A   1      33.203  34.431  28.616  1.00  0.00     0.251 C 
ATOM      7  H   UNL A   1      31.833  34.224  27.165  1.00  0.00     0.163 HD
BRANCH   6   8
ATOM      8  C   UNL A   1      34.386  33.837  29.281  1.00  0.00     0.039 A 
ATOM      9  C   UNL A   1      35.681  34.256  28.957  1.00  0.00     0.014 A 
ATOM     10  C   UNL A   1      34.191  32.860  30.260  1.00  0.00     0.014 A 
ATOM     11  C   UNL A   1      36.780  33.625  29.538  1.00  0.00     0.010 A 
ATOM     12  C   UNL A   1      35.293  32.269  30.885  1.00  0.00     0.010 A 
ATOM     13  C   UNL A   1      36.597  32.631  30.514  1.00  0.00    -0.014 A 
BRANCH  13  14
ATOM     14  C   UNL A   1      37.776  32.048  31.200  1.00  0.00     0.031 A 
ATOM     15  C   UNL A   1      38.547  30.905  30.599  1.00  0.00     0.074 A 
ATOM     16  C   UNL A   1      38.139  32.550  32.396  1.00  0.00     0.049 A 
ATOM     17  N   UNL A   1      39.619  30.309  31.056  1.00  0.00    -0.248 NA
ATOM     18  C   UNL A   1      38.055  30.356  29.325  1.00  0.00     0.031 C 
ATOM     19  C   UNL A   1      37.430  33.618  33.106  1.00  0.00     0.029 A 
ATOM     20  N   UNL A   1      39.182  32.232  33.229  1.00  0.00    -0.354 N 
ATOM     21  C   UNL A   1      39.911  29.296  30.152  1.00  0.00     0.074 A 
ATOM     22  C   UNL A   1      38.901  29.355  29.116  1.00  0.00     0.031 C 
ATOM     23  C   UNL A   1      38.067  33.877  34.258  1.00  0.00     0.029 A 
ATOM     24  C   UNL A   1      39.209  32.979  34.383  1.00  0.00     0.049 A 
ATOM     25  H   UNL A   1      39.845  31.536  33.019  1.00  0.00     0.167 HD
ATOM     26  C   UNL A   1      40.938  28.413  30.173  1.00  0.00     0.034 A 
ATOM     27  C   UNL A   1      40.059  32.947  35.427  1.00  0.00     0.034 A 
ATOM     28  C   UNL A   1      41.965  28.388  31.180  1.00  0.00     0.049 A 
ATOM     29  C   UNL A   1      41.216  31.989  35.397  1.00  0.00     0.074 A 
ATOM     30  C   UNL A   1      43.088  27.581  31.243  1.00  0.00     0.029 A 
ATOM     31  N   UNL A   1      41.997  29.202  32.302  1.00  0.00    -0.354 N 
ATOM     32  N   UNL A   1      41.560  31.145  34.456  1.00  0.00    -0.248 NA
ATOM     33  C   UNL A   1      42.116  31.998  36.558  1.00  0.00     0.031 C 
ATOM     34  C   UNL A   1      43.799  27.906  32.405  1.00  0.00     0.029 A 
ATOM     35  C   UNL A   1      43.116  28.915  33.065  1.00  0.00     0.049 A 
ATOM     36  H   UNL A   1      41.323  29.885  32.523  1.00  0.00     0.167 HD
ATOM     37  C   UNL A   1      42.724  30.533  34.902  1.00  0.00     0.074 A 
ATOM     38  C   UNL A   1      43.043  31.125  36.185  1.00  0.00     0.031 C 
ATOM     39  C   UNL A   1      43.447  29.549  34.315  1.00  0.00     0.034 A 
BRANCH  26  40
ATOM     40  C   UNL A   1      41.050  27.434  29.036  1.00  0.00     0.023 A 
ATOM     41  C   UNL A   1      40.223  26.293  29.033  1.00  0.00     0.012 A 
ATOM     42  C   UNL A   1      41.894  27.681  27.936  1.00  0.00     0.148 A 
ATOM     43  C   UNL A   1      40.242  25.406  27.957  1.00  0.00     0.002 A 
ATOM     44  C   UNL A   1      41.888  26.807  26.855  1.00  0.00     0.091 A 
ATOM     45  F   UNL A   1      42.690  28.759  27.971  1.00  0.00    -0.205 F 
ATOM     46  C   UNL A   1      41.065  25.668  26.865  1.00  0.00     0.022 A 
BRANCH  44  47
ATOM     47  S   UNL A   1      42.870  27.094  25.377  1.00  0.00     0.127 S 
ATOM     48  O   UNL A   1      44.207  27.268  25.943  1.00  0.00    -0.237 OA
ATOM     49  O   UNL A   1      42.683  25.851  24.629  1.00  0.00    -0.237 OA
ATOM     50  O   UNL A   1      42.296  28.272  24.742  1.00  0.00    -0.744 OA
ENDBRANCH  44  47
ENDBRANCH  26  40
BRANCH  27  51
ATOM     51  C   UNL A   1      39.880  33.911  36.546  1.00  0.00     0.023 A 
ATOM     52  C   UNL A   1      40.141  35.277  36.326  1.00  0.00     0.012 A 
ATOM     53  C   UNL A   1      39.389  33.499  37.800  1.00  0.00     0.148 A 
ATOM     54  C   UNL A   1      39.927  36.213  37.339  1.00  0.00     0.002 A 
ATOM     55  C   UNL A   1      39.125  34.444  38.785  1.00  0.00     0.091 A 
ATOM     56  F   UNL A   1      39.167  32.193  38.004  1.00  0.00    -0.205 F 
ATOM     57  C   UNL A   1      39.405  35.800  38.563  1.00  0.00     0.022 A 
BRANCH  55  58
ATOM     58  S   UNL A   1      38.313  33.978  40.318  1.00  0.00     0.127 S 
ATOM     59  O   UNL A   1      37.117  33.296  39.833  1.00  0.00    -0.237 OA
ATOM     60  O   UNL A   1      39.303  33.105  40.952  1.00  0.00    -0.237 OA
ATOM     61  O   UNL A   1      38.102  35.238  41.018  1.00  0.00    -0.744 OA
ENDBRANCH  55  58
ENDBRANCH  27  51
BRANCH  39  62
ATOM     62  C   UNL A   1      44.657  29.047  35.053  1.00  0.00     0.023 A 
ATOM     63  C   UNL A   1      45.915  29.617  34.776  1.00  0.00     0.012 A 
ATOM     64  C   UNL A   1      44.545  28.069  36.060  1.00  0.00     0.148 A 
ATOM     65  C   UNL A   1      47.048  29.205  35.475  1.00  0.00     0.002 A 
ATOM     66  C   UNL A   1      45.674  27.689  36.777  1.00  0.00     0.091 A 
ATOM     67  F   UNL A   1      43.344  27.519  36.292  1.00  0.00    -0.205 F 
ATOM     68  C   UNL A   1      46.927  28.251  36.482  1.00  0.00     0.022 A 
BRANCH  66  69
ATOM     69  S   UNL A   1      45.576  26.522  38.140  1.00  0.00     0.127 S 
ATOM     70  O   UNL A   1      46.970  26.446  38.572  1.00  0.00    -0.237 OA
ATOM     71  O   UNL A   1      44.682  27.201  39.080  1.00  0.00    -0.237 OA
ATOM     72  O   UNL A   1      45.021  25.303  37.566  1.00  0.00    -0.744 OA
ENDBRANCH  66  69
ENDBRANCH  39  62
ENDBRANCH  13  14
ENDBRANCH   6   8
ENDBRANCH   3   4
ENDBRANCH   2   3
ENDBRANCH   1   2
BRANCH   1  73
ATOM     73  C   UNL A   1      31.818  29.182  26.523  1.00  0.00     0.002 C 
BRANCH  73  74
ATOM     74  C   UNL A   1      31.499  27.906  25.734  1.00  0.00     0.021 C 
BRANCH  74  75
ATOM     75  C   UNL A   1      32.240  26.656  26.202  1.00  0.00     0.116 C 
BRANCH  75  76
ATOM     76  N   UNL A   1      31.322  25.656  26.703  1.00  0.00    -0.354 N 
ATOM     77  C   UNL A   1      31.461  24.302  26.812  1.00  0.00     0.242 C 
ATOM     78  H   UNL A   1      30.458  26.009  27.017  1.00  0.00     0.163 HD
ATOM     79  O   UNL A   1      30.559  23.702  27.407  1.00  0.00    -0.273 OA
BRANCH  77  80
ATOM     80  C   UNL A   1      32.799  23.603  26.446  1.00  0.00     0.175 C 
ATOM     81  C   UNL A   1      33.211  22.557  27.500  1.00  0.00     0.036 C 
ATOM     82  N   UNL A   1      33.005  23.041  25.097  1.00  0.00    -0.322 N 
ATOM     83  C   UNL A   1      34.525  21.838  27.139  1.00  0.00     0.008 C 
ATOM     84  C   UNL A   1      34.410  22.708  24.773  1.00  0.00     0.089 C 
ATOM     85  C   UNL A   1      35.287  22.595  26.047  1.00  0.00     0.012 C 
ATOM     86  C   UNL A   1      35.090  23.672  23.797  1.00  0.00     0.025 C 
ATOM     87  C   UNL A   1      36.631  21.961  25.680  1.00  0.00     0.006 C 
ATOM     88  C   UNL A   1      36.465  23.117  23.406  1.00  0.00     0.002 C 
ATOM     89  C   UNL A   1      37.346  22.804  24.620  1.00  0.00     0.000 C 
BRANCH  82  90
ATOM     90  C   UNL A   1      31.974  22.247  24.566  1.00  0.00     0.272 C 
ATOM     91  O   UNL A   1      30.933  22.735  24.133  1.00  0.00    -0.267 OA
BRANCH  90  92
ATOM     92  C   UNL A   1      32.207  20.827  24.529  1.00  0.00     0.123 A 
ATOM     93  C   UNL A   1      32.704  20.028  23.519  1.00  0.00     0.055 A 
ATOM     94  N   UNL A   1      32.024  19.985  25.590  1.00  0.00    -0.273 N 
ATOM     95  C   UNL A   1      32.698  18.724  24.048  1.00  0.00     0.135 A 
ATOM     96  N   UNL A   1      32.266  18.695  25.310  1.00  0.00    -0.183 NA
ATOM     97  H   UNL A   1      31.740  20.297  26.480  1.00  0.00     0.190 HD
ENDBRANCH  90  92
ENDBRANCH  82  90
ENDBRANCH  77  80
ENDBRANCH  75  76
ENDBRANCH  74  75
ENDBRANCH  73  74
ENDBRANCH   1  73
TORSDOF 18
ENDMDL
MODEL 3
REMARK VINA RESULT:     -11.8      5.787     11.260
REMARK SMILES O=C(NCCCCCCNC(=O)[C@H]1CC[C@H]2CCCC[C@@H]2N1C(=O)c1ccn[nH]1)c1ccc(-c2c3nc(c(-c4cccc(S(=O)(=O)[O-])c4F)c4ccc([nH]4)c(-c4cccc(S(=O)(=O)[O-])c4F)c4nc(c(-c5cccc(S(=O)(=O)[O-])c5F)c5ccc2[nH]5)C=C4)C=C3)cc1
REMARK SMILES IDX 6 1 5 2 4 3 3 4 1 5 2 6 30 8 31 9 92 10 32 11 91 12 33 13
REMARK SMILES IDX 34 14 35 15 85 16 36 17 90 18 84 19 86 20 37 21 89 22 83 23
REMARK SMILES IDX 82 24 38 26 70 27 50 28 69 29 51 30 54 31 68 32 87 33 52 34
REMARK SMILES IDX 53 35 67 37 88 38 55 39 39 40 40 41 48 42 41 43 43 44 49 45
REMARK SMILES IDX 42 46 44 47 45 48 46 49 47 50 71 51 72 52 80 53 73 54 75 55
REMARK SMILES IDX 81 56 74 57 76 58 77 59 78 60 79 61 56 62 57 63 65 64 58 65
REMARK SMILES IDX 60 66 66 67 59 68 61 69 62 70 63 71 64 72 7 73 8 74 9 75
REMARK SMILES IDX 10 76 11 77 12 79 13 80 14 81 22 82 15 83 21 84 16 85 20 86
REMARK SMILES IDX 17 87 19 88 18 89 23 90 24 91 25 92 26 93 29 94 27 95 28 96
REMARK H PARENT 3 7 86 25 54 36 10 78 29 97
REMARK Flexibility Score: inf
ROOT
ATOM      1  C   UNL A   1      31.433  30.592  26.017  1.00  0.00     0.002 C 
ENDROOT
BRANCH   1   2
ATOM      2  C   UNL A   1      31.373  32.044  26.495  1.00  0.00     0.021 C 
BRANCH   2   3
ATOM      3  C   UNL A   1      32.624  32.553  27.205  1.00  0.00     0.116 C 
BRANCH   3   4
ATOM      4  N   UNL A   1      32.506  33.936  27.624  1.00  0.00    -0.352 N 
ATOM      5  O   UNL A   1      32.862  35.739  28.924  1.00  0.00    -0.269 OA
ATOM      6  C   UNL A   1      33.204  34.606  28.599  1.00  0.00     0.251 C 
ATOM      7  H   UNL A   1      31.831  34.468  27.143  1.00  0.00     0.163 HD
BRANCH   6   8
ATOM      8  C   UNL A   1      34.350  33.950  29.272  1.00  0.00     0.039 A 
ATOM      9  C   UNL A   1      35.667  34.259  28.918  1.00  0.00     0.014 A 
ATOM     10  C   UNL A   1      34.096  33.026  30.289  1.00  0.00     0.014 A 
ATOM     11  C   UNL A   1      36.724  33.569  29.510  1.00  0.00     0.010 A 
ATOM     12  C   UNL A   1      35.159  32.378  30.923  1.00  0.00     0.010 A 
ATOM     13  C   UNL A   1      36.482  32.628  30.524  1.00  0.00    -0.014 A 
BRANCH  13  14
ATOM     14  C   UNL A   1      37.624  31.983  31.219  1.00  0.00     0.031 A 
ATOM     15  C   UNL A   1      38.389  30.853  30.587  1.00  0.00     0.074 A 
ATOM     16  C   UNL A   1      37.958  32.418  32.449  1.00  0.00     0.049 A 
ATOM     17  N   UNL A   1      39.430  30.209  31.049  1.00  0.00    -0.248 NA
ATOM     18  C   UNL A   1      37.927  30.379  29.273  1.00  0.00     0.031 C 
ATOM     19  C   UNL A   1      37.249  33.467  33.188  1.00  0.00     0.029 A 
ATOM     20  N   UNL A   1      38.964  32.034  33.298  1.00  0.00    -0.354 N 
ATOM     21  C   UNL A   1      39.729  29.235  30.105  1.00  0.00     0.074 A 
ATOM     22  C   UNL A   1      38.756  29.369  29.041  1.00  0.00     0.031 C 
ATOM     23  C   UNL A   1      37.853  33.655  34.371  1.00  0.00     0.029 A 
ATOM     24  C   UNL A   1      38.970  32.724  34.488  1.00  0.00     0.049 A 
ATOM     25  H   UNL A   1      39.618  31.334  33.077  1.00  0.00     0.167 HD
ATOM     26  C   UNL A   1      40.735  28.327  30.117  1.00  0.00     0.034 A 
ATOM     27  C   UNL A   1      39.783  32.620  35.556  1.00  0.00     0.034 A 
ATOM     28  C   UNL A   1      41.727  28.228  31.154  1.00  0.00     0.049 A 
ATOM     29  C   UNL A   1      40.918  31.638  35.517  1.00  0.00     0.074 A 
ATOM     30  C   UNL A   1      42.829  27.392  31.213  1.00  0.00     0.029 A 
ATOM     31  N   UNL A   1      41.740  28.986  32.315  1.00  0.00    -0.354 N 
ATOM     32  N   UNL A   1      41.275  30.832  34.546  1.00  0.00    -0.248 NA
ATOM     33  C   UNL A   1      41.780  31.568  36.705  1.00  0.00     0.031 C 
ATOM     34  C   UNL A   1      43.507  27.644  32.412  1.00  0.00     0.029 A 
ATOM     35  C   UNL A   1      42.826  28.635  33.098  1.00  0.00     0.049 A 
ATOM     36  H   UNL A   1      41.074  29.674  32.547  1.00  0.00     0.167 HD
ATOM     37  C   UNL A   1      42.409  30.171  34.999  1.00  0.00     0.074 A 
ATOM     38  C   UNL A   1      42.698  30.692  36.320  1.00  0.00     0.031 C 
ATOM     39  C   UNL A   1      43.129  29.200  34.388  1.00  0.00     0.034 A 
BRANCH  26  40
ATOM     40  C   UNL A   1      40.863  27.403  28.936  1.00  0.00     0.023 A 
ATOM     41  C   UNL A   1      39.972  26.316  28.820  1.00  0.00     0.012 A 
ATOM     42  C   UNL A   1      41.790  27.653  27.906  1.00  0.00     0.148 A 
ATOM     43  C   UNL A   1      40.009  25.486  27.700  1.00  0.00     0.002 A 
ATOM     44  C   UNL A   1      41.802  26.836  26.780  1.00  0.00     0.091 A 
ATOM     45  F   UNL A   1      42.643  28.676  28.049  1.00  0.00    -0.205 F 
ATOM     46  C   UNL A   1      40.915  25.752  26.677  1.00  0.00     0.022 A 
BRANCH  44  47
ATOM     47  S   UNL A   1      42.893  27.137  25.384  1.00  0.00     0.127 S 
ATOM     48  O   UNL A   1      44.161  27.418  26.057  1.00  0.00    -0.237 OA
ATOM     49  O   UNL A   1      42.852  25.859  24.673  1.00  0.00    -0.237 OA
ATOM     50  O   UNL A   1      42.306  28.252  24.654  1.00  0.00    -0.744 OA
ENDBRANCH  44  47
ENDBRANCH  26  40
BRANCH  27  51
ATOM     51  C   UNL A   1      39.589  33.533  36.716  1.00  0.00     0.023 A 
ATOM     52  C   UNL A   1      39.967  34.884  36.599  1.00  0.00     0.012 A 
ATOM     53  C   UNL A   1      38.970  33.094  37.902  1.00  0.00     0.148 A 
ATOM     54  C   UNL A   1      39.744  35.778  37.647  1.00  0.00     0.002 A 
ATOM     55  C   UNL A   1      38.701  34.001  38.920  1.00  0.00     0.091 A 
ATOM     56  F   UNL A   1      38.637  31.799  38.009  1.00  0.00    -0.205 F 
ATOM     57  C   UNL A   1      39.098  35.341  38.802  1.00  0.00     0.022 A 
BRANCH  55  58
ATOM     58  S   UNL A   1      37.737  33.517  40.357  1.00  0.00     0.127 S 
ATOM     59  O   UNL A   1      38.584  32.493  40.960  1.00  0.00    -0.237 OA
ATOM     60  O   UNL A   1      37.646  34.765  41.117  1.00  0.00    -0.237 OA
ATOM     61  O   UNL A   1      36.465  33.066  39.808  1.00  0.00    -0.744 OA
ENDBRANCH  55  58
ENDBRANCH  27  51
BRANCH  39  62
ATOM     62  C   UNL A   1      44.302  28.633  35.140  1.00  0.00     0.023 A 
ATOM     63  C   UNL A   1      45.584  29.169  34.913  1.00  0.00     0.012 A 
ATOM     64  C   UNL A   1      44.131  27.628  36.110  1.00  0.00     0.148 A 
ATOM     65  C   UNL A   1      46.685  28.696  35.626  1.00  0.00     0.002 A 
ATOM     66  C   UNL A   1      45.228  27.186  36.842  1.00  0.00     0.091 A 
ATOM     67  F   UNL A   1      42.907  27.111  36.294  1.00  0.00    -0.205 F 
ATOM     68  C   UNL A   1      46.506  27.714  36.598  1.00  0.00     0.022 A 
BRANCH  66  69
ATOM     69  S   UNL A   1      45.056  25.980  38.163  1.00  0.00     0.127 S 
ATOM     70  O   UNL A   1      44.148  26.664  39.079  1.00  0.00    -0.237 OA
ATOM     71  O   UNL A   1      44.472  24.828  37.472  1.00  0.00    -0.237 OA
ATOM     72  O   UNL A   1      46.408  25.753  38.658  1.00  0.00    -0.744 OA
ENDBRANCH  66  69
ENDBRANCH  39  62
ENDBRANCH  13  14
ENDBRANCH   6   8
ENDBRANCH   3   4
ENDBRANCH   2   3
ENDBRANCH   1   2
BRANCH   1  73
ATOM     73  C   UNL A   1      32.473  29.707  26.710  1.00  0.00     0.002 C 
BRANCH  73  74
ATOM     74  C   UNL A   1      31.923  28.493  27.467  1.00  0.00     0.021 C 
BRANCH  74  75
ATOM     75  C   UNL A   1      31.904  27.190  26.670  1.00  0.00     0.116 C 
BRANCH  75  76
ATOM     76  N   UNL A   1      30.659  26.478  26.854  1.00  0.00    -0.354 N 
ATOM     77  C   UNL A   1      30.301  25.211  26.493  1.00  0.00     0.242 C 
ATOM     78  H   UNL A   1      29.955  26.990  27.314  1.00  0.00     0.163 HD
ATOM     79  O   UNL A   1      29.205  24.810  26.899  1.00  0.00    -0.273 OA
BRANCH  77  80
ATOM     80  C   UNL A   1      31.329  24.244  25.842  1.00  0.00     0.175 C 
ATOM     81  C   UNL A   1      30.819  22.791  25.815  1.00  0.00     0.036 C 
ATOM     82  N   UNL A   1      31.941  24.570  24.539  1.00  0.00    -0.322 N 
ATOM     83  C   UNL A   1      31.818  21.825  25.151  1.00  0.00     0.008 C 
ATOM     84  C   UNL A   1      33.127  23.757  24.192  1.00  0.00     0.089 C 
ATOM     85  C   UNL A   1      33.208  22.459  25.037  1.00  0.00     0.012 C 
ATOM     86  C   UNL A   1      34.465  24.493  24.301  1.00  0.00     0.025 C 
ATOM     87  C   UNL A   1      34.262  21.528  24.433  1.00  0.00     0.006 C 
ATOM     88  C   UNL A   1      35.583  23.605  23.742  1.00  0.00     0.002 C 
ATOM     89  C   UNL A   1      35.628  22.222  24.400  1.00  0.00     0.000 C 
BRANCH  82  90
ATOM     90  C   UNL A   1      31.080  24.998  23.513  1.00  0.00     0.272 C 
ATOM     91  O   UNL A   1      30.332  24.222  22.925  1.00  0.00    -0.267 OA
BRANCH  90  92
ATOM     92  C   UNL A   1      31.100  26.403  23.199  1.00  0.00     0.123 A 
ATOM     93  C   UNL A   1      30.070  27.320  23.138  1.00  0.00     0.055 A 
ATOM     94  N   UNL A   1      32.234  27.127  22.959  1.00  0.00    -0.273 N 
ATOM     95  C   UNL A   1      30.682  28.533  22.774  1.00  0.00     0.135 A 
ATOM     96  N   UNL A   1      32.004  28.412  22.648  1.00  0.00    -0.183 NA
ATOM     97  H   UNL A   1      33.138  26.740  23.010  1.00  0.00     0.190 HD
ENDBRANCH  90  92
ENDBRANCH  82  90
ENDBRANCH  77  80
ENDBRANCH  75  76
ENDBRANCH  74  75
ENDBRANCH  73  74
ENDBRANCH   1  73
TORSDOF 18
ENDMDL
