MODEL 1
REMARK VINA RESULT:     -12.4      0.000      0.000
REMARK SMILES O=C(NCCCCCCNC(=O)[C@@H]1CC2(CC[NH2+]CC2)C[N@H+]1Cc1cccc2nonc12)c1ccc(-c2c3nc(c(-c4cccc(S(=O)(=O)[O-])c4F)c4ccc([nH]4)c(-c4cccc(S(=O)(=O)[O-])c4F)c4nc(c(-c5cccc(S(=O)(=O)[O-])c5F)c5ccc2[nH]5)C=C4)C=C3)cc1
REMARK SMILES IDX 6 1 5 2 4 3 3 4 1 5 2 6 33 8 34 9 95 10 35 11 94 12 36 13
REMARK SMILES IDX 37 14 38 15 88 16 39 17 93 18 87 19 89 20 40 21 92 22 86 23
REMARK SMILES IDX 85 24 41 26 73 27 53 28 72 29 54 30 57 31 71 32 90 33 55 34
REMARK SMILES IDX 56 35 70 37 91 38 58 39 42 40 43 41 51 42 44 43 46 44 52 45
REMARK SMILES IDX 45 46 47 47 48 48 49 49 50 50 74 51 75 52 83 53 76 54 78 55
REMARK SMILES IDX 84 56 77 57 79 58 80 59 81 60 82 61 59 62 60 63 68 64 61 65
REMARK SMILES IDX 63 66 69 67 62 68 64 69 65 70 66 71 67 72 7 73 8 74 9 75
REMARK SMILES IDX 10 76 11 77 12 79 13 80 14 81 22 82 15 83 21 84 16 86 20 87
REMARK SMILES IDX 17 88 19 89 18 90 23 93 24 94 25 95 32 96 26 97 28 98 31 99
REMARK SMILES IDX 27 100 29 101 30 102
REMARK H PARENT 3 7 89 25 57 36 10 78 22 85 18 91 18 92
REMARK Flexibility Score: inf
ROOT
ATOM      1  C   UNL A   1      34.667  29.724  27.792  1.00  0.00     0.002 C 
ENDROOT
BRANCH   1   2
ATOM      2  C   UNL A   1      34.015  31.029  27.305  1.00  0.00     0.021 C 
BRANCH   2   3
ATOM      3  C   UNL A   1      33.886  32.123  28.378  1.00  0.00     0.116 C 
BRANCH   3   4
ATOM      4  N   UNL A   1      34.933  33.111  28.196  1.00  0.00    -0.352 N 
ATOM      5  O   UNL A   1      36.386  34.452  29.237  1.00  0.00    -0.269 OA
ATOM      6  C   UNL A   1      36.049  33.300  28.964  1.00  0.00     0.251 C 
ATOM      7  H   UNL A   1      34.828  33.717  27.427  1.00  0.00     0.163 HD
BRANCH   6   8
ATOM      8  C   UNL A   1      36.893  32.157  29.393  1.00  0.00     0.039 A 
ATOM      9  C   UNL A   1      36.983  31.895  30.767  1.00  0.00     0.014 A 
ATOM     10  C   UNL A   1      37.731  31.474  28.506  1.00  0.00     0.014 A 
ATOM     11  C   UNL A   1      37.903  30.966  31.252  1.00  0.00     0.010 A 
ATOM     12  C   UNL A   1      38.652  30.539  28.993  1.00  0.00     0.010 A 
ATOM     13  C   UNL A   1      38.748  30.282  30.368  1.00  0.00    -0.014 A 
BRANCH  13  14
ATOM     14  C   UNL A   1      39.688  29.284  30.921  1.00  0.00     0.031 A 
ATOM     15  C   UNL A   1      39.714  27.968  30.218  1.00  0.00     0.074 A 
ATOM     16  C   UNL A   1      40.773  29.647  31.642  1.00  0.00     0.049 A 
ATOM     17  N   UNL A   1      40.387  27.785  29.122  1.00  0.00    -0.248 NA
ATOM     18  C   UNL A   1      38.811  26.867  30.548  1.00  0.00     0.031 C 
ATOM     19  C   UNL A   1      41.436  30.951  31.503  1.00  0.00     0.029 A 
ATOM     20  N   UNL A   1      41.635  28.911  32.427  1.00  0.00    -0.354 N 
ATOM     21  C   UNL A   1      39.958  26.597  28.566  1.00  0.00     0.074 A 
ATOM     22  C   UNL A   1      39.001  26.045  29.502  1.00  0.00     0.031 C 
ATOM     23  C   UNL A   1      42.675  30.865  32.029  1.00  0.00     0.029 A 
ATOM     24  C   UNL A   1      42.840  29.570  32.681  1.00  0.00     0.049 A 
ATOM     25  H   UNL A   1      41.423  28.015  32.774  1.00  0.00     0.167 HD
ATOM     26  C   UNL A   1      40.402  26.148  27.362  1.00  0.00     0.034 A 
ATOM     27  C   UNL A   1      44.043  28.968  32.896  1.00  0.00     0.034 A 
ATOM     28  C   UNL A   1      41.368  26.987  26.712  1.00  0.00     0.049 A 
ATOM     29  C   UNL A   1      44.307  28.355  31.541  1.00  0.00     0.074 A 
ATOM     30  C   UNL A   1      41.374  27.954  25.731  1.00  0.00     0.029 A 
ATOM     31  N   UNL A   1      42.659  26.960  27.179  1.00  0.00    -0.354 N 
ATOM     32  N   UNL A   1      44.699  28.995  30.471  1.00  0.00    -0.248 NA
ATOM     33  C   UNL A   1      43.755  27.025  31.291  1.00  0.00     0.031 C 
ATOM     34  C   UNL A   1      42.535  28.755  25.988  1.00  0.00     0.029 A 
ATOM     35  C   UNL A   1      43.151  28.239  27.127  1.00  0.00     0.049 A 
ATOM     36  H   UNL A   1      43.146  26.164  27.494  1.00  0.00     0.167 HD
ATOM     37  C   UNL A   1      44.153  28.285  29.399  1.00  0.00     0.074 A 
ATOM     38  C   UNL A   1      43.607  27.071  29.974  1.00  0.00     0.031 C 
ATOM     39  C   UNL A   1      44.029  28.793  28.136  1.00  0.00     0.034 A 
BRANCH  26  40
ATOM     40  C   UNL A   1      40.109  24.803  26.821  1.00  0.00     0.023 A 
ATOM     41  C   UNL A   1      38.765  24.542  26.489  1.00  0.00     0.012 A 
ATOM     42  C   UNL A   1      41.045  23.755  26.813  1.00  0.00     0.148 A 
ATOM     43  C   UNL A   1      38.343  23.249  26.195  1.00  0.00     0.002 A 
ATOM     44  C   UNL A   1      40.617  22.464  26.511  1.00  0.00     0.091 A 
ATOM     45  F   UNL A   1      42.317  24.028  27.137  1.00  0.00    -0.205 F 
ATOM     46  C   UNL A   1      39.266  22.210  26.215  1.00  0.00     0.022 A 
BRANCH  44  47
ATOM     47  S   UNL A   1      41.716  21.042  26.503  1.00  0.00     0.127 S 
ATOM     48  O   UNL A   1      42.235  21.054  27.875  1.00  0.00    -0.237 OA
ATOM     49  O   UNL A   1      40.785  19.945  26.219  1.00  0.00    -0.237 OA
ATOM     50  O   UNL A   1      42.693  21.291  25.463  1.00  0.00    -0.744 OA
ENDBRANCH  44  47
ENDBRANCH  26  40
BRANCH  27  51
ATOM     51  C   UNL A   1      44.173  28.192  34.181  1.00  0.00     0.023 A 
ATOM     52  C   UNL A   1      43.109  28.284  35.112  1.00  0.00     0.012 A 
ATOM     53  C   UNL A   1      45.279  27.399  34.544  1.00  0.00     0.148 A 
ATOM     54  C   UNL A   1      43.092  27.536  36.292  1.00  0.00     0.002 A 
ATOM     55  C   UNL A   1      45.234  26.607  35.693  1.00  0.00     0.091 A 
ATOM     56  F   UNL A   1      46.367  27.408  33.766  1.00  0.00    -0.205 F 
ATOM     57  C   UNL A   1      44.141  26.672  36.568  1.00  0.00     0.022 A 
BRANCH  55  58
ATOM     58  S   UNL A   1      46.509  25.402  36.090  1.00  0.00     0.127 S 
ATOM     59  O   UNL A   1      47.671  26.252  36.341  1.00  0.00    -0.237 OA
ATOM     60  O   UNL A   1      45.942  24.766  37.278  1.00  0.00    -0.237 OA
ATOM     61  O   UNL A   1      46.620  24.542  34.920  1.00  0.00    -0.744 OA
ENDBRANCH  55  58
ENDBRANCH  27  51
BRANCH  39  62
ATOM     62  C   UNL A   1      44.728  30.091  27.868  1.00  0.00     0.023 A 
ATOM     63  C   UNL A   1      46.031  30.039  27.335  1.00  0.00     0.012 A 
ATOM     64  C   UNL A   1      44.106  31.345  28.042  1.00  0.00     0.148 A 
ATOM     65  C   UNL A   1      46.695  31.202  26.955  1.00  0.00     0.002 A 
ATOM     66  C   UNL A   1      44.764  32.503  27.636  1.00  0.00     0.091 A 
ATOM     67  F   UNL A   1      42.871  31.387  28.565  1.00  0.00    -0.205 F 
ATOM     68  C   UNL A   1      46.059  32.432  27.094  1.00  0.00     0.022 A 
BRANCH  66  69
ATOM     69  S   UNL A   1      44.021  34.137  27.720  1.00  0.00     0.127 S 
ATOM     70  O   UNL A   1      43.249  34.062  28.961  1.00  0.00    -0.237 OA
ATOM     71  O   UNL A   1      45.199  35.001  27.791  1.00  0.00    -0.237 OA
ATOM     72  O   UNL A   1      43.218  34.286  26.513  1.00  0.00    -0.744 OA
ENDBRANCH  66  69
ENDBRANCH  39  62
ENDBRANCH  13  14
ENDBRANCH   6   8
ENDBRANCH   3   4
ENDBRANCH   2   3
ENDBRANCH   1   2
BRANCH   1  73
ATOM     73  C   UNL A   1      35.042  28.745  26.682  1.00  0.00     0.002 C 
BRANCH  73  74
ATOM     74  C   UNL A   1      33.938  27.742  26.314  1.00  0.00     0.021 C 
BRANCH  74  75
ATOM     75  C   UNL A   1      33.104  28.123  25.081  1.00  0.00     0.116 C 
BRANCH  75  76
ATOM     76  N   UNL A   1      31.835  28.685  25.493  1.00  0.00    -0.351 N 
ATOM     77  C   UNL A   1      31.034  29.423  24.664  1.00  0.00     0.278 C 
ATOM     78  H   UNL A   1      31.532  28.526  26.417  1.00  0.00     0.163 HD
ATOM     79  O   UNL A   1      30.747  30.550  25.068  1.00  0.00    -0.268 OA
BRANCH  77  80
ATOM     80  C   UNL A   1      30.529  28.790  23.341  1.00  0.00     0.275 C 
ATOM     81  C   UNL A   1      30.165  29.813  22.258  1.00  0.00     0.089 C 
ATOM     82  N   UNL A   1      29.276  28.049  23.501  1.00  0.00    -0.320 N 
ATOM     83  C   UNL A   1      28.635  29.988  22.338  1.00  0.00     0.036 C 
ATOM     84  C   UNL A   1      28.179  28.576  22.727  1.00  0.00     0.270 C 
ATOM     85  H   UNL A   1      29.313  27.610  24.420  1.00  0.00     0.349 HD
ATOM     86  C   UNL A   1      28.023  30.420  20.993  1.00  0.00     0.074 C 
ATOM     87  C   UNL A   1      28.227  31.031  23.412  1.00  0.00     0.074 C 
ATOM     88  C   UNL A   1      28.353  31.873  20.650  1.00  0.00     0.261 C 
ATOM     89  C   UNL A   1      28.522  32.469  22.980  1.00  0.00     0.261 C 
ATOM     90  N   UNL A   1      27.903  32.784  21.697  1.00  0.00    -0.346 N 
ATOM     91  H   UNL A   1      26.889  32.708  21.789  1.00  0.00     0.346 HD
ATOM     92  H   UNL A   1      28.171  33.732  21.434  1.00  0.00     0.346 HD
BRANCH  82  93
ATOM     93  C   UNL A   1      29.135  26.854  24.299  1.00  0.00     0.302 C 
BRANCH  93  94
ATOM     94  C   UNL A   1      30.333  25.953  24.199  1.00  0.00     0.038 A 
ATOM     95  C   UNL A   1      30.884  25.571  22.945  1.00  0.00     0.012 A 
ATOM     96  C   UNL A   1      30.896  25.253  25.292  1.00  0.00     0.144 A 
ATOM     97  C   UNL A   1      31.837  24.531  22.780  1.00  0.00     0.003 A 
ATOM     98  C   UNL A   1      31.881  24.190  25.119  1.00  0.00     0.135 A 
ATOM     99  N   UNL A   1      30.640  25.369  26.604  1.00  0.00    -0.049 NA
ATOM    100  C   UNL A   1      32.356  23.793  23.856  1.00  0.00     0.034 A 
ATOM    101  N   UNL A   1      32.192  23.702  26.327  1.00  0.00    -0.050 NA
ATOM    102  O   UNL A   1      31.424  24.416  27.229  1.00  0.00    -0.243 OA
ENDBRANCH  93  94
ENDBRANCH  82  93
ENDBRANCH  77  80
ENDBRANCH  75  76
ENDBRANCH  74  75
ENDBRANCH  73  74
ENDBRANCH   1  73
TORSDOF 18
ENDMDL
MODEL 2
REMARK VINA RESULT:     -12.3      2.359      3.449
REMARK SMILES O=C(NCCCCCCNC(=O)[C@@H]1CC2(CC[NH2+]CC2)C[N@H+]1Cc1cccc2nonc12)c1ccc(-c2c3nc(c(-c4cccc(S(=O)(=O)[O-])c4F)c4ccc([nH]4)c(-c4cccc(S(=O)(=O)[O-])c4F)c4nc(c(-c5cccc(S(=O)(=O)[O-])c5F)c5ccc2[nH]5)C=C4)C=C3)cc1
REMARK SMILES IDX 6 1 5 2 4 3 3 4 1 5 2 6 33 8 34 9 95 10 35 11 94 12 36 13
REMARK SMILES IDX 37 14 38 15 88 16 39 17 93 18 87 19 89 20 40 21 92 22 86 23
REMARK SMILES IDX 85 24 41 26 73 27 53 28 72 29 54 30 57 31 71 32 90 33 55 34
REMARK SMILES IDX 56 35 70 37 91 38 58 39 42 40 43 41 51 42 44 43 46 44 52 45
REMARK SMILES IDX 45 46 47 47 48 48 49 49 50 50 74 51 75 52 83 53 76 54 78 55
REMARK SMILES IDX 84 56 77 57 79 58 80 59 81 60 82 61 59 62 60 63 68 64 61 65
REMARK SMILES IDX 63 66 69 67 62 68 64 69 65 70 66 71 67 72 7 73 8 74 9 75
REMARK SMILES IDX 10 76 11 77 12 79 13 80 14 81 22 82 15 83 21 84 16 86 20 87
REMARK SMILES IDX 17 88 19 89 18 90 23 93 24 94 25 95 32 96 26 97 28 98 31 99
REMARK SMILES IDX 27 100 29 101 30 102
REMARK H PARENT 3 7 89 25 57 36 10 78 22 85 18 91 18 92
REMARK Flexibility Score: inf
ROOT
ATOM      1  C   UNL A   1      34.105  29.055  27.260  1.00  0.00     0.002 C 
ENDROOT
BRANCH   1   2
ATOM      2  C   UNL A   1      34.762  30.444  27.195  1.00  0.00     0.021 C 
BRANCH   2   3
ATOM      3  C   UNL A   1      34.049  31.532  28.013  1.00  0.00     0.116 C 
BRANCH   3   4
ATOM      4  N   UNL A   1      34.773  32.785  27.896  1.00  0.00    -0.352 N 
ATOM      5  O   UNL A   1      35.512  34.583  28.999  1.00  0.00    -0.269 OA
ATOM      6  C   UNL A   1      35.595  33.367  28.823  1.00  0.00     0.251 C 
ATOM      7  H   UNL A   1      34.661  33.273  27.048  1.00  0.00     0.163 HD
BRANCH   6   8
ATOM      8  C   UNL A   1      36.625  32.580  29.544  1.00  0.00     0.039 A 
ATOM      9  C   UNL A   1      37.710  32.095  28.801  1.00  0.00     0.014 A 
ATOM     10  C   UNL A   1      36.452  32.156  30.866  1.00  0.00     0.014 A 
ATOM     11  C   UNL A   1      38.609  31.191  29.369  1.00  0.00     0.010 A 
ATOM     12  C   UNL A   1      37.356  31.253  31.435  1.00  0.00     0.010 A 
ATOM     13  C   UNL A   1      38.437  30.760  30.690  1.00  0.00    -0.014 A 
BRANCH  13  14
ATOM     14  C   UNL A   1      39.430  29.825  31.262  1.00  0.00     0.031 A 
ATOM     15  C   UNL A   1      39.548  28.510  30.568  1.00  0.00     0.074 A 
ATOM     16  C   UNL A   1      40.480  30.260  31.995  1.00  0.00     0.049 A 
ATOM     17  N   UNL A   1      40.246  28.363  29.483  1.00  0.00    -0.248 NA
ATOM     18  C   UNL A   1      38.711  27.357  30.893  1.00  0.00     0.031 C 
ATOM     19  C   UNL A   1      41.061  31.603  31.856  1.00  0.00     0.029 A 
ATOM     20  N   UNL A   1      41.375  29.584  32.797  1.00  0.00    -0.354 N 
ATOM     21  C   UNL A   1      39.900  27.147  28.929  1.00  0.00     0.074 A 
ATOM     22  C   UNL A   1      38.967  26.541  29.855  1.00  0.00     0.031 C 
ATOM     23  C   UNL A   1      42.296  31.598  32.400  1.00  0.00     0.029 A 
ATOM     24  C   UNL A   1      42.533  30.319  33.062  1.00  0.00     0.049 A 
ATOM     25  H   UNL A   1      41.214  28.678  33.146  1.00  0.00     0.167 HD
ATOM     26  C   UNL A   1      40.388  26.720  27.734  1.00  0.00     0.034 A 
ATOM     27  C   UNL A   1      43.768  29.795  33.298  1.00  0.00     0.034 A 
ATOM     28  C   UNL A   1      41.308  27.614  27.091  1.00  0.00     0.049 A 
ATOM     29  C   UNL A   1      44.089  29.192  31.951  1.00  0.00     0.074 A 
ATOM     30  C   UNL A   1      41.267  28.574  26.104  1.00  0.00     0.029 A 
ATOM     31  N   UNL A   1      42.592  27.671  27.576  1.00  0.00    -0.354 N 
ATOM     32  N   UNL A   1      44.455  29.849  30.881  1.00  0.00    -0.248 NA
ATOM     33  C   UNL A   1      43.625  27.828  31.702  1.00  0.00     0.031 C 
ATOM     34  C   UNL A   1      42.372  29.447  26.371  1.00  0.00     0.029 A 
ATOM     35  C   UNL A   1      43.003  28.978  27.522  1.00  0.00     0.049 A 
ATOM     36  H   UNL A   1      43.123  26.909  27.903  1.00  0.00     0.167 HD
ATOM     37  C   UNL A   1      43.969  29.099  29.806  1.00  0.00     0.074 A 
ATOM     38  C   UNL A   1      43.492  27.857  30.383  1.00  0.00     0.031 C 
ATOM     39  C   UNL A   1      43.831  29.591  28.539  1.00  0.00     0.034 A 
BRANCH  26  40
ATOM     40  C   UNL A   1      40.187  25.356  27.198  1.00  0.00     0.023 A 
ATOM     41  C   UNL A   1      38.876  25.027  26.800  1.00  0.00     0.012 A 
ATOM     42  C   UNL A   1      41.171  24.354  27.254  1.00  0.00     0.148 A 
ATOM     43  C   UNL A   1      38.532  23.712  26.504  1.00  0.00     0.002 A 
ATOM     44  C   UNL A   1      40.819  23.041  26.949  1.00  0.00     0.091 A 
ATOM     45  F   UNL A   1      42.409  24.691  27.641  1.00  0.00    -0.205 F 
ATOM     46  C   UNL A   1      39.500  22.718  26.587  1.00  0.00     0.022 A 
BRANCH  44  47
ATOM     47  S   UNL A   1      41.983  21.672  27.020  1.00  0.00     0.127 S 
ATOM     48  O   UNL A   1      42.907  22.005  25.930  1.00  0.00    -0.237 OA
ATOM     49  O   UNL A   1      42.551  21.830  28.363  1.00  0.00    -0.237 OA
ATOM     50  O   UNL A   1      41.202  20.467  26.831  1.00  0.00    -0.744 OA
ENDBRANCH  44  47
ENDBRANCH  26  40
BRANCH  27  51
ATOM     51  C   UNL A   1      43.928  29.036  34.589  1.00  0.00     0.023 A 
ATOM     52  C   UNL A   1      44.999  29.407  35.439  1.00  0.00     0.012 A 
ATOM     53  C   UNL A   1      43.113  27.967  35.010  1.00  0.00     0.148 A 
ATOM     54  C   UNL A   1      45.181  28.826  36.697  1.00  0.00     0.002 A 
ATOM     55  C   UNL A   1      43.260  27.428  36.290  1.00  0.00     0.091 A 
ATOM     56  F   UNL A   1      42.190  27.484  34.170  1.00  0.00    -0.205 F 
ATOM     57  C   UNL A   1      44.292  27.856  37.136  1.00  0.00     0.022 A 
BRANCH  55  58
ATOM     58  S   UNL A   1      42.109  26.227  36.974  1.00  0.00     0.127 S 
ATOM     59  O   UNL A   1      41.966  25.274  35.875  1.00  0.00    -0.237 OA
ATOM     60  O   UNL A   1      42.861  25.732  38.125  1.00  0.00    -0.237 OA
ATOM     61  O   UNL A   1      40.902  26.975  37.297  1.00  0.00    -0.744 OA
ENDBRANCH  55  58
ENDBRANCH  27  51
BRANCH  39  62
ATOM     62  C   UNL A   1      44.451  30.930  28.272  1.00  0.00     0.023 A 
ATOM     63  C   UNL A   1      45.723  30.956  27.669  1.00  0.00     0.012 A 
ATOM     64  C   UNL A   1      43.779  32.146  28.515  1.00  0.00     0.148 A 
ATOM     65  C   UNL A   1      46.310  32.161  27.288  1.00  0.00     0.002 A 
ATOM     66  C   UNL A   1      44.358  33.345  28.108  1.00  0.00     0.091 A 
ATOM     67  F   UNL A   1      42.574  32.113  29.103  1.00  0.00    -0.205 F 
ATOM     68  C   UNL A   1      45.623  33.353  27.496  1.00  0.00     0.022 A 
BRANCH  66  69
ATOM     69  S   UNL A   1      43.542  34.937  28.278  1.00  0.00     0.127 S 
ATOM     70  O   UNL A   1      44.673  35.846  28.466  1.00  0.00    -0.237 OA
ATOM     71  O   UNL A   1      42.868  35.070  26.985  1.00  0.00    -0.237 OA
ATOM     72  O   UNL A   1      42.654  34.825  29.427  1.00  0.00    -0.744 OA
ENDBRANCH  66  69
ENDBRANCH  39  62
ENDBRANCH  13  14
ENDBRANCH   6   8
ENDBRANCH   3   4
ENDBRANCH   2   3
ENDBRANCH   1   2
BRANCH   1  73
ATOM     73  C   UNL A   1      32.590  29.074  27.452  1.00  0.00     0.002 C 
BRANCH  73  74
ATOM     74  C   UNL A   1      31.779  28.921  26.158  1.00  0.00     0.021 C 
BRANCH  74  75
ATOM     75  C   UNL A   1      31.039  27.583  26.012  1.00  0.00     0.116 C 
BRANCH  75  76
ATOM     76  N   UNL A   1      31.515  26.641  27.003  1.00  0.00    -0.351 N 
ATOM     77  C   UNL A   1      32.215  25.507  26.688  1.00  0.00     0.278 C 
ATOM     78  H   UNL A   1      31.326  26.826  27.952  1.00  0.00     0.163 HD
ATOM     79  O   UNL A   1      31.728  24.453  27.094  1.00  0.00    -0.268 OA
BRANCH  77  80
ATOM     80  C   UNL A   1      33.550  25.636  25.907  1.00  0.00     0.275 C 
ATOM     81  C   UNL A   1      33.401  26.265  24.516  1.00  0.00     0.089 C 
ATOM     82  N   UNL A   1      34.162  24.343  25.599  1.00  0.00    -0.320 N 
ATOM     83  C   UNL A   1      33.350  25.086  23.523  1.00  0.00     0.036 C 
ATOM     84  C   UNL A   1      34.294  24.076  24.188  1.00  0.00     0.270 C 
ATOM     85  H   UNL A   1      33.969  23.732  26.393  1.00  0.00     0.349 HD
ATOM     86  C   UNL A   1      33.852  25.479  22.122  1.00  0.00     0.074 C 
ATOM     87  C   UNL A   1      31.917  24.511  23.379  1.00  0.00     0.074 C 
ATOM     88  C   UNL A   1      32.860  26.379  21.385  1.00  0.00     0.261 C 
ATOM     89  C   UNL A   1      30.991  25.428  22.575  1.00  0.00     0.261 C 
ATOM     90  N   UNL A   1      31.552  25.744  21.265  1.00  0.00    -0.346 N 
ATOM     91  H   UNL A   1      31.649  24.882  20.728  1.00  0.00     0.346 HD
ATOM     92  H   UNL A   1      30.922  26.393  20.794  1.00  0.00     0.346 HD
BRANCH  82  93
ATOM     93  C   UNL A   1      34.662  23.423  26.593  1.00  0.00     0.302 C 
BRANCH  93  94
ATOM     94  C   UNL A   1      34.668  22.001  26.106  1.00  0.00     0.038 A 
ATOM     95  C   UNL A   1      35.878  21.316  25.802  1.00  0.00     0.012 A 
ATOM     96  C   UNL A   1      33.510  21.285  25.721  1.00  0.00     0.144 A 
ATOM     97  C   UNL A   1      35.936  20.082  25.101  1.00  0.00     0.003 A 
ATOM     98  C   UNL A   1      33.575  20.014  25.008  1.00  0.00     0.135 A 
ATOM     99  N   UNL A   1      32.217  21.609  25.872  1.00  0.00    -0.049 NA
ATOM    100  C   UNL A   1      34.791  19.396  24.665  1.00  0.00     0.034 A 
ATOM    101  N   UNL A   1      32.323  19.608  24.755  1.00  0.00    -0.050 NA
ATOM    102  O   UNL A   1      31.499  20.590  25.274  1.00  0.00    -0.243 OA
ENDBRANCH  93  94
ENDBRANCH  82  93
ENDBRANCH  77  80
ENDBRANCH  75  76
ENDBRANCH  74  75
ENDBRANCH  73  74
ENDBRANCH   1  73
TORSDOF 18
ENDMDL
MODEL 3
REMARK VINA RESULT:     -12.2      2.415      8.115
REMARK SMILES O=C(NCCCCCCNC(=O)[C@@H]1CC2(CC[NH2+]CC2)C[N@H+]1Cc1cccc2nonc12)c1ccc(-c2c3nc(c(-c4cccc(S(=O)(=O)[O-])c4F)c4ccc([nH]4)c(-c4cccc(S(=O)(=O)[O-])c4F)c4nc(c(-c5cccc(S(=O)(=O)[O-])c5F)c5ccc2[nH]5)C=C4)C=C3)cc1
REMARK SMILES IDX 6 1 5 2 4 3 3 4 1 5 2 6 33 8 34 9 95 10 35 11 94 12 36 13
REMARK SMILES IDX 37 14 38 15 88 16 39 17 93 18 87 19 89 20 40 21 92 22 86 23
REMARK SMILES IDX 85 24 41 26 73 27 53 28 72 29 54 30 57 31 71 32 90 33 55 34
REMARK SMILES IDX 56 35 70 37 91 38 58 39 42 40 43 41 51 42 44 43 46 44 52 45
REMARK SMILES IDX 45 46 47 47 48 48 49 49 50 50 74 51 75 52 83 53 76 54 78 55
REMARK SMILES IDX 84 56 77 57 79 58 80 59 81 60 82 61 59 62 60 63 68 64 61 65
REMARK SMILES IDX 63 66 69 67 62 68 64 69 65 70 66 71 67 72 7 73 8 74 9 75
REMARK SMILES IDX 10 76 11 77 12 79 13 80 14 81 22 82 15 83 21 84 16 86 20 87
REMARK SMILES IDX 17 88 19 89 18 90 23 93 24 94 25 95 32 96 26 97 28 98 31 99
REMARK SMILES IDX 27 100 29 101 30 102
REMARK H PARENT 3 7 89 25 57 36 10 78 22 85 18 91 18 92
REMARK Flexibility Score: inf
ROOT
ATOM      1  C   UNL A   1      38.122  21.343  25.528  1.00  0.00     0.002 C 
ENDROOT
BRANCH   1   2
ATOM      2  C   UNL A   1      39.539  21.834  25.870  1.00  0.00     0.021 C 
BRANCH   2   3
ATOM      3  C   UNL A   1      40.081  21.345  27.222  1.00  0.00     0.116 C 
BRANCH   3   4
ATOM      4  N   UNL A   1      41.529  21.262  27.167  1.00  0.00    -0.352 N 
ATOM      5  O   UNL A   1      43.346  21.755  25.963  1.00  0.00    -0.269 OA
ATOM      6  C   UNL A   1      42.400  22.172  26.632  1.00  0.00     0.251 C 
ATOM      7  H   UNL A   1      41.932  20.456  27.563  1.00  0.00     0.163 HD
BRANCH   6   8
ATOM      8  C   UNL A   1      42.270  23.623  26.912  1.00  0.00     0.039 A 
ATOM      9  C   UNL A   1      42.621  24.516  25.892  1.00  0.00     0.014 A 
ATOM     10  C   UNL A   1      41.999  24.114  28.194  1.00  0.00     0.014 A 
ATOM     11  C   UNL A   1      42.708  25.885  26.147  1.00  0.00     0.010 A 
ATOM     12  C   UNL A   1      42.083  25.487  28.449  1.00  0.00     0.010 A 
ATOM     13  C   UNL A   1      42.443  26.381  27.430  1.00  0.00    -0.014 A 
BRANCH  13  14
ATOM     14  C   UNL A   1      42.517  27.842  27.651  1.00  0.00     0.031 A 
ATOM     15  C   UNL A   1      41.206  28.552  27.695  1.00  0.00     0.074 A 
ATOM     16  C   UNL A   1      43.580  28.419  28.256  1.00  0.00     0.049 A 
ATOM     17  N   UNL A   1      40.468  28.571  28.764  1.00  0.00    -0.248 NA
ATOM     18  C   UNL A   1      40.533  29.063  26.503  1.00  0.00     0.031 C 
ATOM     19  C   UNL A   1      44.450  27.713  29.206  1.00  0.00     0.029 A 
ATOM     20  N   UNL A   1      43.964  29.739  28.361  1.00  0.00    -0.354 N 
ATOM     21  C   UNL A   1      39.215  29.016  28.394  1.00  0.00     0.074 A 
ATOM     22  C   UNL A   1      39.309  29.340  26.986  1.00  0.00     0.031 C 
ATOM     23  C   UNL A   1      45.140  28.626  29.922  1.00  0.00     0.029 A 
ATOM     24  C   UNL A   1      44.890  29.959  29.382  1.00  0.00     0.049 A 
ATOM     25  H   UNL A   1      43.621  30.452  27.776  1.00  0.00     0.167 HD
ATOM     26  C   UNL A   1      38.171  29.075  29.263  1.00  0.00     0.034 A 
ATOM     27  C   UNL A   1      45.027  31.111  30.095  1.00  0.00     0.034 A 
ATOM     28  C   UNL A   1      38.465  28.659  30.605  1.00  0.00     0.049 A 
ATOM     29  C   UNL A   1      43.721  31.139  30.854  1.00  0.00     0.074 A 
ATOM     30  C   UNL A   1      38.320  27.521  31.368  1.00  0.00     0.029 A 
ATOM     31  N   UNL A   1      39.161  29.528  31.408  1.00  0.00    -0.354 N 
ATOM     32  N   UNL A   1      43.419  30.407  31.894  1.00  0.00    -0.248 NA
ATOM     33  C   UNL A   1      42.575  31.758  30.188  1.00  0.00     0.031 C 
ATOM     34  C   UNL A   1      39.321  27.614  32.389  1.00  0.00     0.029 A 
ATOM     35  C   UNL A   1      40.033  28.791  32.168  1.00  0.00     0.049 A 
ATOM     36  H   UNL A   1      39.052  30.507  31.435  1.00  0.00     0.167 HD
ATOM     37  C   UNL A   1      42.037  30.216  31.819  1.00  0.00     0.074 A 
ATOM     38  C   UNL A   1      41.579  31.096  30.761  1.00  0.00     0.031 C 
ATOM     39  C   UNL A   1      41.367  29.242  32.504  1.00  0.00     0.034 A 
BRANCH  26  40
ATOM     40  C   UNL A   1      36.873  29.713  28.956  1.00  0.00     0.023 A 
ATOM     41  C   UNL A   1      36.068  29.065  27.999  1.00  0.00     0.012 A 
ATOM     42  C   UNL A   1      36.516  30.992  29.415  1.00  0.00     0.148 A 
ATOM     43  C   UNL A   1      34.945  29.694  27.469  1.00  0.00     0.002 A 
ATOM     44  C   UNL A   1      35.387  31.613  28.884  1.00  0.00     0.091 A 
ATOM     45  F   UNL A   1      37.301  31.591  30.321  1.00  0.00    -0.205 F 
ATOM     46  C   UNL A   1      34.610  30.970  27.905  1.00  0.00     0.022 A 
BRANCH  44  47
ATOM     47  S   UNL A   1      34.853  33.260  29.370  1.00  0.00     0.127 S 
ATOM     48  O   UNL A   1      33.818  33.548  28.372  1.00  0.00    -0.237 OA
ATOM     49  O   UNL A   1      34.339  33.022  30.723  1.00  0.00    -0.237 OA
ATOM     50  O   UNL A   1      36.031  34.101  29.310  1.00  0.00    -0.744 OA
ENDBRANCH  44  47
ENDBRANCH  26  40
BRANCH  27  51
ATOM     51  C   UNL A   1      45.552  32.301  29.334  1.00  0.00     0.023 A 
ATOM     52  C   UNL A   1      46.656  32.996  29.886  1.00  0.00     0.012 A 
ATOM     53  C   UNL A   1      45.018  32.794  28.128  1.00  0.00     0.148 A 
ATOM     54  C   UNL A   1      47.272  34.057  29.216  1.00  0.00     0.002 A 
ATOM     55  C   UNL A   1      45.670  33.814  27.432  1.00  0.00     0.091 A 
ATOM     56  F   UNL A   1      43.884  32.264  27.654  1.00  0.00    -0.205 F 
ATOM     57  C   UNL A   1      46.797  34.446  27.973  1.00  0.00     0.022 A 
BRANCH  55  58
ATOM     58  S   UNL A   1      45.176  34.331  25.780  1.00  0.00     0.127 S 
ATOM     59  O   UNL A   1      45.077  33.054  25.075  1.00  0.00    -0.237 OA
ATOM     60  O   UNL A   1      43.898  34.985  26.054  1.00  0.00    -0.237 OA
ATOM     61  O   UNL A   1      46.235  35.212  25.308  1.00  0.00    -0.744 OA
ENDBRANCH  55  58
ENDBRANCH  27  51
BRANCH  39  62
ATOM     62  C   UNL A   1      42.148  28.505  33.550  1.00  0.00     0.023 A 
ATOM     63  C   UNL A   1      41.963  28.879  34.895  1.00  0.00     0.012 A 
ATOM     64  C   UNL A   1      42.981  27.406  33.250  1.00  0.00     0.148 A 
ATOM     65  C   UNL A   1      42.568  28.164  35.926  1.00  0.00     0.002 A 
ATOM     66  C   UNL A   1      43.561  26.679  34.286  1.00  0.00     0.091 A 
ATOM     67  F   UNL A   1      43.164  27.065  31.966  1.00  0.00    -0.205 F 
ATOM     68  C   UNL A   1      43.356  27.058  35.623  1.00  0.00     0.022 A 
BRANCH  66  69
ATOM     69  S   UNL A   1      44.553  25.205  34.016  1.00  0.00     0.127 S 
ATOM     70  O   UNL A   1      45.821  25.767  33.547  1.00  0.00    -0.237 OA
ATOM     71  O   UNL A   1      44.608  24.628  35.359  1.00  0.00    -0.237 OA
ATOM     72  O   UNL A   1      43.842  24.404  33.029  1.00  0.00    -0.744 OA
ENDBRANCH  66  69
ENDBRANCH  39  62
ENDBRANCH  13  14
ENDBRANCH   6   8
ENDBRANCH   3   4
ENDBRANCH   2   3
ENDBRANCH   1   2
BRANCH   1  73
ATOM     73  C   UNL A   1      37.306  22.299  24.661  1.00  0.00     0.002 C 
BRANCH  73  74
ATOM     74  C   UNL A   1      36.762  23.529  25.402  1.00  0.00     0.021 C 
BRANCH  74  75
ATOM     75  C   UNL A   1      35.503  24.153  24.781  1.00  0.00     0.116 C 
BRANCH  75  76
ATOM     76  N   UNL A   1      34.839  25.000  25.750  1.00  0.00    -0.351 N 
ATOM     77  C   UNL A   1      33.863  25.901  25.418  1.00  0.00     0.278 C 
ATOM     78  H   UNL A   1      35.102  24.923  26.696  1.00  0.00     0.163 HD
ATOM     79  O   UNL A   1      34.081  27.066  25.750  1.00  0.00    -0.268 OA
BRANCH  77  80
ATOM     80  C   UNL A   1      32.578  25.396  24.709  1.00  0.00     0.275 C 
ATOM     81  C   UNL A   1      31.926  26.432  23.786  1.00  0.00     0.089 C 
ATOM     82  N   UNL A   1      31.493  25.086  25.642  1.00  0.00    -0.320 N 
ATOM     83  C   UNL A   1      30.788  27.074  24.607  1.00  0.00     0.036 C 
ATOM     84  C   UNL A   1      30.310  25.890  25.457  1.00  0.00     0.270 C 
ATOM     85  H   UNL A   1      31.929  24.698  26.478  1.00  0.00     0.349 HD
ATOM     86  C   UNL A   1      29.656  27.614  23.715  1.00  0.00     0.074 C 
ATOM     87  C   UNL A   1      31.301  28.238  25.495  1.00  0.00     0.074 C 
ATOM     88  C   UNL A   1      30.068  28.877  22.960  1.00  0.00     0.261 C 
ATOM     89  C   UNL A   1      31.633  29.496  24.687  1.00  0.00     0.261 C 
ATOM     90  N   UNL A   1      30.500  29.928  23.875  1.00  0.00    -0.346 N 
ATOM     91  H   UNL A   1      29.724  30.172  24.490  1.00  0.00     0.346 HD
ATOM     92  H   UNL A   1      30.790  30.735  23.322  1.00  0.00     0.346 HD
BRANCH  82  93
ATOM     93  C   UNL A   1      31.544  24.030  26.625  1.00  0.00     0.302 C 
BRANCH  93  94
ATOM     94  C   UNL A   1      32.186  22.780  26.092  1.00  0.00     0.038 A 
ATOM     95  C   UNL A   1      33.172  22.067  26.829  1.00  0.00     0.012 A 
ATOM     96  C   UNL A   1      32.033  22.310  24.766  1.00  0.00     0.144 A 
ATOM     97  C   UNL A   1      33.991  21.046  26.279  1.00  0.00     0.003 A 
ATOM     98  C   UNL A   1      32.873  21.254  24.207  1.00  0.00     0.135 A 
ATOM     99  N   UNL A   1      31.193  22.722  23.805  1.00  0.00    -0.049 NA
ATOM    100  C   UNL A   1      33.883  20.615  24.947  1.00  0.00     0.034 A 
ATOM    101  N   UNL A   1      32.511  21.060  22.932  1.00  0.00    -0.050 NA
ATOM    102  O   UNL A   1      31.494  21.965  22.688  1.00  0.00    -0.243 OA
ENDBRANCH  93  94
ENDBRANCH  82  93
ENDBRANCH  77  80
ENDBRANCH  75  76
ENDBRANCH  74  75
ENDBRANCH  73  74
ENDBRANCH   1  73
TORSDOF 18
ENDMDL
