MODEL 1
REMARK VINA RESULT:     -11.8      0.000      0.000
REMARK SMILES Cc1[nH]cnc1C[NH+]1CCC(Oc2cccc(F)c2)(C(=O)NCCCCCCNC(=O)c2ccc(-c3c4nc(c(-c5cccc(S(=O)(=O)[O-])c5F)c5ccc([nH]5)c(-c5cccc(S(=O)(=O)[O-])c5F)c5nc(c(-c6cccc(S(=O)(=O)[O-])c6F)c6ccc3[nH]6)C=C5)C=C4)cc2)CC1
REMARK SMILES IDX 26 1 25 2 24 3 23 4 22 5 20 6 21 7 11 9 8 10 9 11 96 12
REMARK SMILES IDX 10 14 95 15 7 16 6 17 1 18 2 19 3 20 4 21 5 23 12 24 13 25
REMARK SMILES IDX 14 26 19 27 15 28 17 29 16 30 18 31 27 32 28 33 29 34 30 35
REMARK SMILES IDX 31 37 32 38 33 39 94 40 34 41 93 42 35 43 36 44 37 45 87 46
REMARK SMILES IDX 38 47 92 48 86 49 88 50 39 51 91 52 85 53 84 54 40 56 72 57
REMARK SMILES IDX 52 58 71 59 53 60 56 61 70 62 89 63 54 64 55 65 69 67 90 68
REMARK SMILES IDX 57 69 41 70 42 71 50 72 43 73 45 74 51 75 44 76 46 77 47 78
REMARK SMILES IDX 48 79 49 80 73 81 74 82 82 83 75 84 77 85 83 86 76 87 78 88
REMARK SMILES IDX 79 89 80 90 81 91 58 92 59 93 67 94 60 95 62 96 68 97 61 98
REMARK SMILES IDX 63 99 64 100 65 101 66 102
REMARK H PARENT 22 8 8 13 3 22 29 36 88 55 56 66
REMARK Flexibility Score: inf
ROOT
ATOM      1  C   UNL A   1      32.702  26.778  24.061  1.00  0.00     0.002 C 
ENDROOT
BRANCH   1   2
ATOM      2  C   UNL A   1      31.425  25.978  24.333  1.00  0.00     0.002 C 
BRANCH   2   3
ATOM      3  C   UNL A   1      31.027  24.987  23.234  1.00  0.00     0.021 C 
BRANCH   3   4
ATOM      4  C   UNL A   1      31.057  23.521  23.666  1.00  0.00     0.116 C 
BRANCH   4   5
ATOM      5  N   UNL A   1      31.139  23.409  25.110  1.00  0.00    -0.353 N 
ATOM      6  C   UNL A   1      31.911  22.608  25.902  1.00  0.00     0.264 C 
ATOM      7  O   UNL A   1      31.834  22.827  27.116  1.00  0.00    -0.270 OA
ATOM      8  H   UNL A   1      30.537  24.013  25.603  1.00  0.00     0.163 HD
BRANCH   6   9
ATOM      9  C   UNL A   1      32.843  21.511  25.302  1.00  0.00     0.197 C 
ATOM     10  N   UNL A   1      35.554  22.628  25.218  1.00  0.00    -0.330 N 
ATOM     11  C   UNL A   1      34.954  22.258  26.499  1.00  0.00     0.267 C 
ATOM     12  C   UNL A   1      34.547  23.117  24.268  1.00  0.00     0.267 C 
ATOM     13  H   UNL A   1      35.946  21.772  24.822  1.00  0.00     0.348 HD
ATOM     14  C   UNL A   1      33.962  21.119  26.283  1.00  0.00     0.120 C 
ATOM     15  C   UNL A   1      33.483  22.043  23.999  1.00  0.00     0.120 C 
BRANCH  10  16
ATOM     16  C   UNL A   1      36.696  23.555  25.362  1.00  0.00     0.321 C 
BRANCH  16  17
ATOM     17  C   UNL A   1      37.965  22.909  25.840  1.00  0.00     0.115 A 
ATOM     18  C   UNL A   1      39.124  24.714  27.360  1.00  0.00     0.066 C 
ATOM     19  C   UNL A   1      38.961  23.422  26.659  1.00  0.00     0.040 A 
ATOM     20  N   UNL A   1      39.907  22.430  26.725  1.00  0.00    -0.348 N 
ATOM     21  C   UNL A   1      39.453  21.368  26.000  1.00  0.00     0.197 A 
ATOM     22  H   UNL A   1      40.763  22.477  27.210  1.00  0.00     0.167 HD
ATOM     23  N   UNL A   1      38.274  21.611  25.483  1.00  0.00    -0.236 NA
ENDBRANCH  16  17
ENDBRANCH  10  16
BRANCH   9  24
ATOM     24  O   UNL A   1      31.874  20.457  25.052  1.00  0.00    -0.477 OA
BRANCH  24  25
ATOM     25  C   UNL A   1      32.326  19.249  24.618  1.00  0.00     0.123 A 
ATOM     26  C   UNL A   1      32.528  19.001  23.260  1.00  0.00     0.046 A 
ATOM     27  C   UNL A   1      32.744  18.322  25.569  1.00  0.00     0.085 A 
ATOM     28  C   UNL A   1      33.068  17.781  22.845  1.00  0.00     0.007 A 
ATOM     29  C   UNL A   1      33.290  17.117  25.146  1.00  0.00     0.126 A 
ATOM     30  C   UNL A   1      33.444  16.832  23.793  1.00  0.00     0.039 A 
ATOM     31  F   UNL A   1      33.685  16.216  26.058  1.00  0.00    -0.207 F 
ENDBRANCH  24  25
ENDBRANCH   9  24
ENDBRANCH   6   9
ENDBRANCH   4   5
ENDBRANCH   3   4
ENDBRANCH   2   3
ENDBRANCH   1   2
BRANCH   1  32
ATOM     32  C   UNL A   1      32.559  28.298  24.172  1.00  0.00     0.021 C 
BRANCH  32  33
ATOM     33  C   UNL A   1      33.494  28.967  25.175  1.00  0.00     0.116 C 
BRANCH  33  34
ATOM     34  N   UNL A   1      32.916  30.169  25.752  1.00  0.00    -0.352 N 
ATOM     35  C   UNL A   1      33.327  30.905  26.834  1.00  0.00     0.251 C 
ATOM     36  H   UNL A   1      32.107  30.503  25.300  1.00  0.00     0.163 HD
ATOM     37  O   UNL A   1      32.599  31.794  27.273  1.00  0.00    -0.269 OA
BRANCH  35  38
ATOM     38  C   UNL A   1      34.629  30.629  27.482  1.00  0.00     0.039 A 
ATOM     39  C   UNL A   1      35.526  31.686  27.657  1.00  0.00     0.014 A 
ATOM     40  C   UNL A   1      34.983  29.337  27.886  1.00  0.00     0.014 A 
ATOM     41  C   UNL A   1      36.755  31.457  28.281  1.00  0.00     0.010 A 
ATOM     42  C   UNL A   1      36.182  29.124  28.567  1.00  0.00     0.010 A 
ATOM     43  C   UNL A   1      37.083  30.179  28.765  1.00  0.00    -0.014 A 
BRANCH  43  44
ATOM     44  C   UNL A   1      38.355  29.951  29.499  1.00  0.00     0.031 A 
ATOM     45  C   UNL A   1      38.564  30.528  30.872  1.00  0.00     0.074 A 
ATOM     46  C   UNL A   1      39.346  29.260  28.902  1.00  0.00     0.049 A 
ATOM     47  N   UNL A   1      39.599  30.408  31.662  1.00  0.00    -0.248 NA
ATOM     48  C   UNL A   1      37.484  31.362  31.425  1.00  0.00     0.031 C 
ATOM     49  C   UNL A   1      39.293  28.721  27.541  1.00  0.00     0.029 A 
ATOM     50  N   UNL A   1      40.592  28.902  29.352  1.00  0.00    -0.354 N 
ATOM     51  C   UNL A   1      39.309  31.165  32.790  1.00  0.00     0.074 A 
ATOM     52  C   UNL A   1      38.014  31.772  32.570  1.00  0.00     0.031 C 
ATOM     53  C   UNL A   1      40.443  28.082  27.277  1.00  0.00     0.029 A 
ATOM     54  C   UNL A   1      41.325  28.183  28.436  1.00  0.00     0.049 A 
ATOM     55  H   UNL A   1      40.930  29.137  30.247  1.00  0.00     0.167 HD
ATOM     56  C   UNL A   1      40.037  31.311  33.923  1.00  0.00     0.034 A 
ATOM     57  C   UNL A   1      42.562  27.653  28.521  1.00  0.00     0.034 A 
ATOM     58  C   UNL A   1      41.299  30.664  34.157  1.00  0.00     0.049 A 
ATOM     59  C   UNL A   1      43.331  27.789  29.808  1.00  0.00     0.074 A 
ATOM     60  C   UNL A   1      42.070  30.683  35.306  1.00  0.00     0.029 A 
ATOM     61  N   UNL A   1      41.975  29.884  33.232  1.00  0.00    -0.354 N 
ATOM     62  N   UNL A   1      42.970  28.379  30.920  1.00  0.00    -0.248 NA
ATOM     63  C   UNL A   1      44.657  27.158  29.867  1.00  0.00     0.031 C 
ATOM     64  C   UNL A   1      43.221  29.929  35.069  1.00  0.00     0.029 A 
ATOM     65  C   UNL A   1      43.157  29.422  33.782  1.00  0.00     0.049 A 
ATOM     66  H   UNL A   1      41.661  29.690  32.320  1.00  0.00     0.167 HD
ATOM     67  C   UNL A   1      44.004  28.163  31.823  1.00  0.00     0.074 A 
ATOM     68  C   UNL A   1      45.005  27.377  31.129  1.00  0.00     0.031 C 
ATOM     69  C   UNL A   1      44.117  28.589  33.103  1.00  0.00     0.034 A 
BRANCH  56  70
ATOM     70  C   UNL A   1      39.457  32.142  35.038  1.00  0.00     0.023 A 
ATOM     71  C   UNL A   1      38.515  31.561  35.911  1.00  0.00     0.012 A 
ATOM     72  C   UNL A   1      39.917  33.450  35.289  1.00  0.00     0.148 A 
ATOM     73  C   UNL A   1      38.023  32.274  37.002  1.00  0.00     0.002 A 
ATOM     74  C   UNL A   1      39.453  34.139  36.403  1.00  0.00     0.091 A 
ATOM     75  F   UNL A   1      40.799  33.992  34.437  1.00  0.00    -0.205 F 
ATOM     76  C   UNL A   1      38.501  33.556  37.255  1.00  0.00     0.022 A 
BRANCH  74  77
ATOM     77  S   UNL A   1      40.068  35.764  36.863  1.00  0.00     0.127 S 
ATOM     78  O   UNL A   1      39.640  36.574  35.723  1.00  0.00    -0.237 OA
ATOM     79  O   UNL A   1      39.341  36.029  38.105  1.00  0.00    -0.237 OA
ATOM     80  O   UNL A   1      41.507  35.619  37.021  1.00  0.00    -0.744 OA
ENDBRANCH  74  77
ENDBRANCH  56  70
BRANCH  57  81
ATOM     81  C   UNL A   1      43.094  26.858  27.379  1.00  0.00     0.023 A 
ATOM     82  C   UNL A   1      43.886  27.499  26.406  1.00  0.00     0.012 A 
ATOM     83  C   UNL A   1      42.897  25.466  27.297  1.00  0.00     0.148 A 
ATOM     84  C   UNL A   1      44.461  26.770  25.364  1.00  0.00     0.002 A 
ATOM     85  C   UNL A   1      43.517  24.737  26.289  1.00  0.00     0.091 A 
ATOM     86  F   UNL A   1      42.130  24.879  28.227  1.00  0.00    -0.205 F 
ATOM     87  C   UNL A   1      44.288  25.388  25.313  1.00  0.00     0.022 A 
BRANCH  85  88
ATOM     88  S   UNL A   1      43.471  22.942  26.231  1.00  0.00     0.127 S 
ATOM     89  O   UNL A   1      44.891  22.610  26.138  1.00  0.00    -0.237 OA
ATOM     90  O   UNL A   1      42.845  22.616  27.515  1.00  0.00    -0.237 OA
ATOM     91  O   UNL A   1      42.665  22.606  25.068  1.00  0.00    -0.744 OA
ENDBRANCH  85  88
ENDBRANCH  57  81
BRANCH  69  92
ATOM     92  C   UNL A   1      45.349  28.206  33.881  1.00  0.00     0.023 A 
ATOM     93  C   UNL A   1      46.446  29.089  33.920  1.00  0.00     0.012 A 
ATOM     94  C   UNL A   1      45.352  27.055  34.694  1.00  0.00     0.148 A 
ATOM     95  C   UNL A   1      47.532  28.827  34.755  1.00  0.00     0.002 A 
ATOM     96  C   UNL A   1      46.417  26.826  35.556  1.00  0.00     0.091 A 
ATOM     97  F   UNL A   1      44.301  26.225  34.629  1.00  0.00    -0.205 F 
ATOM     98  C   UNL A   1      47.511  27.707  35.582  1.00  0.00     0.022 A 
BRANCH  96  99
ATOM     99  S   UNL A   1      46.434  25.470  36.735  1.00  0.00     0.127 S 
ATOM    100  O   UNL A   1      45.129  25.619  37.379  1.00  0.00    -0.237 OA
ATOM    101  O   UNL A   1      46.554  24.303  35.862  1.00  0.00    -0.237 OA
ATOM    102  O   UNL A   1      47.582  25.702  37.602  1.00  0.00    -0.744 OA
ENDBRANCH  96  99
ENDBRANCH  69  92
ENDBRANCH  43  44
ENDBRANCH  35  38
ENDBRANCH  33  34
ENDBRANCH  32  33
ENDBRANCH   1  32
TORSDOF 20
ENDMDL
MODEL 2
REMARK VINA RESULT:     -11.7      4.911     10.021
REMARK SMILES Cc1[nH]cnc1C[NH+]1CCC(Oc2cccc(F)c2)(C(=O)NCCCCCCNC(=O)c2ccc(-c3c4nc(c(-c5cccc(S(=O)(=O)[O-])c5F)c5ccc([nH]5)c(-c5cccc(S(=O)(=O)[O-])c5F)c5nc(c(-c6cccc(S(=O)(=O)[O-])c6F)c6ccc3[nH]6)C=C5)C=C4)cc2)CC1
REMARK SMILES IDX 26 1 25 2 24 3 23 4 22 5 20 6 21 7 11 9 8 10 9 11 96 12
REMARK SMILES IDX 10 14 95 15 7 16 6 17 1 18 2 19 3 20 4 21 5 23 12 24 13 25
REMARK SMILES IDX 14 26 19 27 15 28 17 29 16 30 18 31 27 32 28 33 29 34 30 35
REMARK SMILES IDX 31 37 32 38 33 39 94 40 34 41 93 42 35 43 36 44 37 45 87 46
REMARK SMILES IDX 38 47 92 48 86 49 88 50 39 51 91 52 85 53 84 54 40 56 72 57
REMARK SMILES IDX 52 58 71 59 53 60 56 61 70 62 89 63 54 64 55 65 69 67 90 68
REMARK SMILES IDX 57 69 41 70 42 71 50 72 43 73 45 74 51 75 44 76 46 77 47 78
REMARK SMILES IDX 48 79 49 80 73 81 74 82 82 83 75 84 77 85 83 86 76 87 78 88
REMARK SMILES IDX 79 89 80 90 81 91 58 92 59 93 67 94 60 95 62 96 68 97 61 98
REMARK SMILES IDX 63 99 64 100 65 101 66 102
REMARK H PARENT 22 8 8 13 3 22 29 36 88 55 56 66
REMARK Flexibility Score: inf
ROOT
ATOM      1  C   UNL A   1      33.616  23.554  25.238  1.00  0.00     0.002 C 
ENDROOT
BRANCH   1   2
ATOM      2  C   UNL A   1      32.108  23.297  25.199  1.00  0.00     0.002 C 
BRANCH   2   3
ATOM      3  C   UNL A   1      31.497  23.192  23.796  1.00  0.00     0.021 C 
BRANCH   3   4
ATOM      4  C   UNL A   1      31.089  24.532  23.186  1.00  0.00     0.116 C 
BRANCH   4   5
ATOM      5  N   UNL A   1      32.183  25.113  22.431  1.00  0.00    -0.353 N 
ATOM      6  C   UNL A   1      32.607  26.406  22.323  1.00  0.00     0.264 C 
ATOM      7  O   UNL A   1      33.652  26.572  21.683  1.00  0.00    -0.270 OA
ATOM      8  H   UNL A   1      32.709  24.465  21.908  1.00  0.00     0.163 HD
BRANCH   6   9
ATOM      9  C   UNL A   1      31.833  27.584  22.988  1.00  0.00     0.197 C 
ATOM     10  N   UNL A   1      33.310  28.338  25.408  1.00  0.00    -0.330 N 
ATOM     11  C   UNL A   1      33.853  28.657  24.089  1.00  0.00     0.267 C 
ATOM     12  C   UNL A   1      32.552  27.080  25.392  1.00  0.00     0.267 C 
ATOM     13  H   UNL A   1      32.649  29.080  25.638  1.00  0.00     0.348 HD
ATOM     14  C   UNL A   1      32.705  28.846  23.101  1.00  0.00     0.120 C 
ATOM     15  C   UNL A   1      31.379  27.161  24.405  1.00  0.00     0.120 C 
BRANCH  10  16
ATOM     16  C   UNL A   1      34.330  28.372  26.476  1.00  0.00     0.321 C 
BRANCH  16  17
ATOM     17  C   UNL A   1      34.521  29.720  27.110  1.00  0.00     0.115 A 
ATOM     18  C   UNL A   1      37.091  29.872  27.643  1.00  0.00     0.066 C 
ATOM     19  C   UNL A   1      35.679  30.310  27.598  1.00  0.00     0.040 A 
ATOM     20  N   UNL A   1      35.270  31.515  28.112  1.00  0.00    -0.348 N 
ATOM     21  C   UNL A   1      33.929  31.631  27.895  1.00  0.00     0.197 A 
ATOM     22  H   UNL A   1      35.844  32.178  28.561  1.00  0.00     0.167 HD
ATOM     23  N   UNL A   1      33.455  30.585  27.265  1.00  0.00    -0.236 NA
ENDBRANCH  16  17
ENDBRANCH  10  16
BRANCH   9  24
ATOM     24  O   UNL A   1      30.716  27.712  22.066  1.00  0.00    -0.477 OA
BRANCH  24  25
ATOM     25  C   UNL A   1      29.722  28.592  22.369  1.00  0.00     0.123 A 
ATOM     26  C   UNL A   1      29.809  29.934  21.998  1.00  0.00     0.046 A 
ATOM     27  C   UNL A   1      28.541  28.090  22.908  1.00  0.00     0.085 A 
ATOM     28  C   UNL A   1      28.743  30.799  22.250  1.00  0.00     0.007 A 
ATOM     29  C   UNL A   1      27.481  28.956  23.144  1.00  0.00     0.126 A 
ATOM     30  C   UNL A   1      27.575  30.309  22.833  1.00  0.00     0.039 A 
ATOM     31  F   UNL A   1      26.345  28.480  23.672  1.00  0.00    -0.207 F 
ENDBRANCH  24  25
ENDBRANCH   9  24
ENDBRANCH   6   9
ENDBRANCH   4   5
ENDBRANCH   3   4
ENDBRANCH   2   3
ENDBRANCH   1   2
BRANCH   1  32
ATOM     32  C   UNL A   1      34.440  22.513  26.001  1.00  0.00     0.021 C 
BRANCH  32  33
ATOM     33  C   UNL A   1      35.922  22.842  26.153  1.00  0.00     0.116 C 
BRANCH  33  34
ATOM     34  N   UNL A   1      36.771  21.690  25.901  1.00  0.00    -0.352 N 
ATOM     35  C   UNL A   1      38.139  21.599  25.885  1.00  0.00     0.251 C 
ATOM     36  H   UNL A   1      36.292  20.851  25.712  1.00  0.00     0.163 HD
ATOM     37  O   UNL A   1      38.673  20.569  25.475  1.00  0.00    -0.269 OA
BRANCH  35  38
ATOM     38  C   UNL A   1      38.975  22.732  26.342  1.00  0.00     0.039 A 
ATOM     39  C   UNL A   1      38.759  23.992  25.778  1.00  0.00     0.014 A 
ATOM     40  C   UNL A   1      39.986  22.557  27.292  1.00  0.00     0.014 A 
ATOM     41  C   UNL A   1      39.522  25.083  26.202  1.00  0.00     0.010 A 
ATOM     42  C   UNL A   1      40.702  23.658  27.761  1.00  0.00     0.010 A 
ATOM     43  C   UNL A   1      40.483  24.931  27.216  1.00  0.00    -0.014 A 
BRANCH  43  44
ATOM     44  C   UNL A   1      41.239  26.104  27.724  1.00  0.00     0.031 A 
ATOM     45  C   UNL A   1      42.674  26.325  27.330  1.00  0.00     0.074 A 
ATOM     46  C   UNL A   1      40.642  26.950  28.587  1.00  0.00     0.049 A 
ATOM     47  N   UNL A   1      43.474  27.304  27.661  1.00  0.00    -0.248 NA
ATOM     48  C   UNL A   1      43.301  25.307  26.470  1.00  0.00     0.031 C 
ATOM     49  C   UNL A   1      39.283  26.798  29.108  1.00  0.00     0.029 A 
ATOM     50  N   UNL A   1      41.101  28.097  29.187  1.00  0.00    -0.354 N 
ATOM     51  C   UNL A   1      44.698  27.014  27.072  1.00  0.00     0.074 A 
ATOM     52  C   UNL A   1      44.550  25.745  26.392  1.00  0.00     0.031 C 
ATOM     53  C   UNL A   1      39.009  27.823  29.930  1.00  0.00     0.029 A 
ATOM     54  C   UNL A   1      40.178  28.694  30.014  1.00  0.00     0.049 A 
ATOM     55  H   UNL A   1      42.005  28.458  29.040  1.00  0.00     0.167 HD
ATOM     56  C   UNL A   1      45.832  27.753  27.068  1.00  0.00     0.034 A 
ATOM     57  C   UNL A   1      40.256  29.822  30.749  1.00  0.00     0.034 A 
ATOM     58  C   UNL A   1      45.959  29.037  27.702  1.00  0.00     0.049 A 
ATOM     59  C   UNL A   1      41.510  30.651  30.689  1.00  0.00     0.074 A 
ATOM     60  C   UNL A   1      47.040  29.900  27.680  1.00  0.00     0.029 A 
ATOM     61  N   UNL A   1      44.977  29.643  28.471  1.00  0.00    -0.354 N 
ATOM     62  N   UNL A   1      42.604  30.435  30.000  1.00  0.00    -0.248 NA
ATOM     63  C   UNL A   1      41.533  31.893  31.474  1.00  0.00     0.031 C 
ATOM     64  C   UNL A   1      46.719  31.020  28.450  1.00  0.00     0.029 A 
ATOM     65  C   UNL A   1      45.430  30.865  28.933  1.00  0.00     0.049 A 
ATOM     66  H   UNL A   1      44.091  29.259  28.660  1.00  0.00     0.167 HD
ATOM     67  C   UNL A   1      43.430  31.527  30.238  1.00  0.00     0.074 A 
ATOM     68  C   UNL A   1      42.705  32.411  31.128  1.00  0.00     0.031 C 
ATOM     69  C   UNL A   1      44.678  31.766  29.769  1.00  0.00     0.034 A 
BRANCH  56  70
ATOM     70  C   UNL A   1      47.014  27.238  26.288  1.00  0.00     0.023 A 
ATOM     71  C   UNL A   1      47.830  26.238  26.856  1.00  0.00     0.012 A 
ATOM     72  C   UNL A   1      47.255  27.658  24.965  1.00  0.00     0.148 A 
ATOM     73  C   UNL A   1      48.879  25.680  26.129  1.00  0.00     0.002 A 
ATOM     74  C   UNL A   1      48.278  27.067  24.232  1.00  0.00     0.091 A 
ATOM     75  F   UNL A   1      46.480  28.623  24.449  1.00  0.00    -0.205 F 
ATOM     76  C   UNL A   1      49.095  26.084  24.814  1.00  0.00     0.022 A 
BRANCH  74  77
ATOM     77  S   UNL A   1      48.584  27.457  22.504  1.00  0.00     0.127 S 
ATOM     78  O   UNL A   1      47.383  28.217  22.159  1.00  0.00    -0.237 OA
ATOM     79  O   UNL A   1      49.809  28.255  22.580  1.00  0.00    -0.237 OA
ATOM     80  O   UNL A   1      48.732  26.180  21.824  1.00  0.00    -0.744 OA
ENDBRANCH  74  77
ENDBRANCH  56  70
BRANCH  57  81
ATOM     81  C   UNL A   1      39.063  30.274  31.519  1.00  0.00     0.023 A 
ATOM     82  C   UNL A   1      38.777  29.671  32.760  1.00  0.00     0.012 A 
ATOM     83  C   UNL A   1      38.267  31.348  31.078  1.00  0.00     0.148 A 
ATOM     84  C   UNL A   1      37.712  30.121  33.540  1.00  0.00     0.002 A 
ATOM     85  C   UNL A   1      37.241  31.827  31.884  1.00  0.00     0.091 A 
ATOM     86  F   UNL A   1      38.550  31.900  29.888  1.00  0.00    -0.205 F 
ATOM     87  C   UNL A   1      36.953  31.206  33.110  1.00  0.00     0.022 A 
BRANCH  85  88
ATOM     88  S   UNL A   1      36.310  33.309  31.480  1.00  0.00     0.127 S 
ATOM     89  O   UNL A   1      36.324  33.281  30.018  1.00  0.00    -0.237 OA
ATOM     90  O   UNL A   1      35.008  33.022  32.088  1.00  0.00    -0.237 OA
ATOM     91  O   UNL A   1      37.031  34.410  32.098  1.00  0.00    -0.744 OA
ENDBRANCH  85  88
ENDBRANCH  57  81
BRANCH  69  92
ATOM     92  C   UNL A   1      45.363  33.045  30.172  1.00  0.00     0.023 A 
ATOM     93  C   UNL A   1      46.200  33.056  31.305  1.00  0.00     0.012 A 
ATOM     94  C   UNL A   1      45.301  34.181  29.341  1.00  0.00     0.148 A 
ATOM     95  C   UNL A   1      46.962  34.184  31.608  1.00  0.00     0.002 A 
ATOM     96  C   UNL A   1      46.098  35.283  29.624  1.00  0.00     0.091 A 
ATOM     97  F   UNL A   1      44.487  34.149  28.276  1.00  0.00    -0.205 F 
ATOM     98  C   UNL A   1      46.924  35.289  30.760  1.00  0.00     0.022 A 
BRANCH  96  99
ATOM     99  S   UNL A   1      46.198  36.711  28.536  1.00  0.00     0.127 S 
ATOM    100  O   UNL A   1      46.328  36.077  27.225  1.00  0.00    -0.237 OA
ATOM    101  O   UNL A   1      44.914  37.369  28.772  1.00  0.00    -0.237 OA
ATOM    102  O   UNL A   1      47.361  37.472  28.974  1.00  0.00    -0.744 OA
ENDBRANCH  96  99
ENDBRANCH  69  92
ENDBRANCH  43  44
ENDBRANCH  35  38
ENDBRANCH  33  34
ENDBRANCH  32  33
ENDBRANCH   1  32
TORSDOF 20
ENDMDL
MODEL 3
REMARK VINA RESULT:     -11.3      3.175      5.620
REMARK SMILES Cc1[nH]cnc1C[NH+]1CCC(Oc2cccc(F)c2)(C(=O)NCCCCCCNC(=O)c2ccc(-c3c4nc(c(-c5cccc(S(=O)(=O)[O-])c5F)c5ccc([nH]5)c(-c5cccc(S(=O)(=O)[O-])c5F)c5nc(c(-c6cccc(S(=O)(=O)[O-])c6F)c6ccc3[nH]6)C=C5)C=C4)cc2)CC1
REMARK SMILES IDX 26 1 25 2 24 3 23 4 22 5 20 6 21 7 11 9 8 10 9 11 96 12
REMARK SMILES IDX 10 14 95 15 7 16 6 17 1 18 2 19 3 20 4 21 5 23 12 24 13 25
REMARK SMILES IDX 14 26 19 27 15 28 17 29 16 30 18 31 27 32 28 33 29 34 30 35
REMARK SMILES IDX 31 37 32 38 33 39 94 40 34 41 93 42 35 43 36 44 37 45 87 46
REMARK SMILES IDX 38 47 92 48 86 49 88 50 39 51 91 52 85 53 84 54 40 56 72 57
REMARK SMILES IDX 52 58 71 59 53 60 56 61 70 62 89 63 54 64 55 65 69 67 90 68
REMARK SMILES IDX 57 69 41 70 42 71 50 72 43 73 45 74 51 75 44 76 46 77 47 78
REMARK SMILES IDX 48 79 49 80 73 81 74 82 82 83 75 84 77 85 83 86 76 87 78 88
REMARK SMILES IDX 79 89 80 90 81 91 58 92 59 93 67 94 60 95 62 96 68 97 61 98
REMARK SMILES IDX 63 99 64 100 65 101 66 102
REMARK H PARENT 22 8 8 13 3 22 29 36 88 55 56 66
REMARK Flexibility Score: inf
ROOT
ATOM      1  C   UNL A   1      34.372  31.221  27.850  1.00  0.00     0.002 C 
ENDROOT
BRANCH   1   2
ATOM      2  C   UNL A   1      34.161  29.705  27.823  1.00  0.00     0.002 C 
BRANCH   2   3
ATOM      3  C   UNL A   1      34.437  29.029  26.475  1.00  0.00     0.021 C 
BRANCH   3   4
ATOM      4  C   UNL A   1      33.205  28.878  25.583  1.00  0.00     0.116 C 
BRANCH   4   5
ATOM      5  N   UNL A   1      32.179  28.094  26.245  1.00  0.00    -0.353 N 
ATOM      6  C   UNL A   1      31.376  27.095  25.774  1.00  0.00     0.264 C 
ATOM      7  O   UNL A   1      30.670  26.537  26.621  1.00  0.00    -0.270 OA
ATOM      8  H   UNL A   1      32.039  28.320  27.193  1.00  0.00     0.163 HD
BRANCH   6   9
ATOM      9  C   UNL A   1      31.377  26.678  24.272  1.00  0.00     0.197 C 
ATOM     10  N   UNL A   1      28.986  27.853  23.045  1.00  0.00    -0.330 N 
ATOM     11  C   UNL A   1      30.111  28.708  23.421  1.00  0.00     0.267 C 
ATOM     12  C   UNL A   1      28.837  26.717  23.963  1.00  0.00     0.267 C 
ATOM     13  H   UNL A   1      29.208  27.467  22.127  1.00  0.00     0.348 HD
ATOM     14  C   UNL A   1      31.405  27.904  23.342  1.00  0.00     0.120 C 
ATOM     15  C   UNL A   1      30.105  25.852  23.972  1.00  0.00     0.120 C 
BRANCH  10  16
ATOM     16  C   UNL A   1      27.726  28.605  22.862  1.00  0.00     0.321 C 
BRANCH  16  17
ATOM     17  C   UNL A   1      27.895  29.955  22.226  1.00  0.00     0.115 A 
ATOM     18  C   UNL A   1      27.447  31.684  24.155  1.00  0.00     0.066 C 
ATOM     19  C   UNL A   1      27.758  31.217  22.787  1.00  0.00     0.040 A 
ATOM     20  N   UNL A   1      27.971  32.088  21.748  1.00  0.00    -0.348 N 
ATOM     21  C   UNL A   1      28.256  31.353  20.635  1.00  0.00     0.197 A 
ATOM     22  H   UNL A   1      27.923  33.071  21.796  1.00  0.00     0.167 HD
ATOM     23  N   UNL A   1      28.252  30.069  20.897  1.00  0.00    -0.236 NA
ENDBRANCH  16  17
ENDBRANCH  10  16
BRANCH   9  24
ATOM     24  O   UNL A   1      32.584  25.870  24.228  1.00  0.00    -0.477 OA
BRANCH  24  25
ATOM     25  C   UNL A   1      32.490  24.586  23.784  1.00  0.00     0.123 A 
ATOM     26  C   UNL A   1      32.889  24.240  22.492  1.00  0.00     0.046 A 
ATOM     27  C   UNL A   1      32.146  23.596  24.699  1.00  0.00     0.085 A 
ATOM     28  C   UNL A   1      32.857  22.905  22.085  1.00  0.00     0.007 A 
ATOM     29  C   UNL A   1      32.129  22.269  24.288  1.00  0.00     0.126 A 
ATOM     30  C   UNL A   1      32.468  21.915  22.986  1.00  0.00     0.039 A 
ATOM     31  F   UNL A   1      31.789  21.312  25.163  1.00  0.00    -0.207 F 
ENDBRANCH  24  25
ENDBRANCH   9  24
ENDBRANCH   6   9
ENDBRANCH   4   5
ENDBRANCH   3   4
ENDBRANCH   2   3
ENDBRANCH   1   2
BRANCH   1  32
ATOM     32  C   UNL A   1      33.093  32.062  27.823  1.00  0.00     0.021 C 
BRANCH  32  33
ATOM     33  C   UNL A   1      33.262  33.485  27.298  1.00  0.00     0.116 C 
BRANCH  33  34
ATOM     34  N   UNL A   1      32.781  34.481  28.241  1.00  0.00    -0.352 N 
ATOM     35  C   UNL A   1      33.178  34.729  29.530  1.00  0.00     0.251 C 
ATOM     36  H   UNL A   1      32.062  35.062  27.904  1.00  0.00     0.163 HD
ATOM     37  O   UNL A   1      32.524  35.504  30.226  1.00  0.00    -0.269 OA
BRANCH  35  38
ATOM     38  C   UNL A   1      34.375  34.063  30.091  1.00  0.00     0.039 A 
ATOM     39  C   UNL A   1      35.630  34.396  29.575  1.00  0.00     0.014 A 
ATOM     40  C   UNL A   1      34.268  33.095  31.095  1.00  0.00     0.014 A 
ATOM     41  C   UNL A   1      36.778  33.796  30.097  1.00  0.00     0.010 A 
ATOM     42  C   UNL A   1      35.418  32.545  31.659  1.00  0.00     0.010 A 
ATOM     43  C   UNL A   1      36.685  32.883  31.162  1.00  0.00    -0.014 A 
BRANCH  43  44
ATOM     44  C   UNL A   1      37.909  32.304  31.772  1.00  0.00     0.031 A 
ATOM     45  C   UNL A   1      38.437  32.824  33.080  1.00  0.00     0.074 A 
ATOM     46  C   UNL A   1      38.577  31.334  31.115  1.00  0.00     0.049 A 
ATOM     47  N   UNL A   1      39.476  32.420  33.764  1.00  0.00    -0.248 NA
ATOM     48  C   UNL A   1      37.723  33.956  33.693  1.00  0.00     0.031 C 
ATOM     49  C   UNL A   1      38.210  30.803  29.801  1.00  0.00     0.029 A 
ATOM     50  N   UNL A   1      39.707  30.631  31.454  1.00  0.00    -0.354 N 
ATOM     51  C   UNL A   1      39.554  33.256  34.871  1.00  0.00     0.074 A 
ATOM     52  C   UNL A   1      38.479  34.217  34.751  1.00  0.00     0.031 C 
ATOM     53  C   UNL A   1      39.083  29.844  29.456  1.00  0.00     0.029 A 
ATOM     54  C   UNL A   1      40.084  29.705  30.509  1.00  0.00     0.049 A 
ATOM     55  H   UNL A   1      40.200  30.777  32.293  1.00  0.00     0.167 HD
ATOM     56  C   UNL A   1      40.419  33.205  35.911  1.00  0.00     0.034 A 
ATOM     57  C   UNL A   1      41.112  28.832  30.496  1.00  0.00     0.034 A 
ATOM     58  C   UNL A   1      41.454  32.217  36.050  1.00  0.00     0.049 A 
ATOM     59  C   UNL A   1      42.031  28.762  31.685  1.00  0.00     0.074 A 
ATOM     60  C   UNL A   1      42.325  32.032  37.109  1.00  0.00     0.029 A 
ATOM     61  N   UNL A   1      41.759  31.249  35.106  1.00  0.00    -0.354 N 
ATOM     62  N   UNL A   1      41.991  29.460  32.793  1.00  0.00    -0.248 NA
ATOM     63  C   UNL A   1      43.110  27.767  31.642  1.00  0.00     0.031 C 
ATOM     64  C   UNL A   1      43.168  30.963  36.798  1.00  0.00     0.029 A 
ATOM     65  C   UNL A   1      42.809  30.468  35.555  1.00  0.00     0.049 A 
ATOM     66  H   UNL A   1      41.298  31.135  34.244  1.00  0.00     0.167 HD
ATOM     67  C   UNL A   1      43.014  28.967  33.594  1.00  0.00     0.074 A 
ATOM     68  C   UNL A   1      43.652  27.901  32.847  1.00  0.00     0.031 C 
ATOM     69  C   UNL A   1      43.396  29.370  34.830  1.00  0.00     0.034 A 
BRANCH  56  70
ATOM     70  C   UNL A   1      40.244  34.198  37.031  1.00  0.00     0.023 A 
ATOM     71  C   UNL A   1      40.592  35.547  36.814  1.00  0.00     0.012 A 
ATOM     72  C   UNL A   1      39.642  33.826  38.249  1.00  0.00     0.148 A 
ATOM     73  C   UNL A   1      40.364  36.506  37.799  1.00  0.00     0.002 A 
ATOM     74  C   UNL A   1      39.380  34.795  39.210  1.00  0.00     0.091 A 
ATOM     75  F   UNL A   1      39.336  32.535  38.443  1.00  0.00    -0.205 F 
ATOM     76  C   UNL A   1      39.747  36.133  38.990  1.00  0.00     0.022 A 
BRANCH  74  77
ATOM     77  S   UNL A   1      38.514  34.432  40.743  1.00  0.00     0.127 S 
ATOM     78  O   UNL A   1      39.538  33.705  41.492  1.00  0.00    -0.237 OA
ATOM     79  O   UNL A   1      38.220  35.771  41.255  1.00  0.00    -0.237 OA
ATOM     80  O   UNL A   1      37.343  33.654  40.368  1.00  0.00    -0.744 OA
ENDBRANCH  74  77
ENDBRANCH  56  70
BRANCH  57  81
ATOM     81  C   UNL A   1      41.250  27.887  29.352  1.00  0.00     0.023 A 
ATOM     82  C   UNL A   1      40.577  26.650  29.398  1.00  0.00     0.012 A 
ATOM     83  C   UNL A   1      41.966  28.236  28.191  1.00  0.00     0.148 A 
ATOM     84  C   UNL A   1      40.625  25.774  28.313  1.00  0.00     0.002 A 
ATOM     85  C   UNL A   1      41.965  27.384  27.093  1.00  0.00     0.091 A 
ATOM     86  F   UNL A   1      42.609  29.414  28.174  1.00  0.00    -0.205 F 
ATOM     87  C   UNL A   1      41.307  26.145  27.157  1.00  0.00     0.022 A 
BRANCH  85  88
ATOM     88  S   UNL A   1      42.691  27.844  25.516  1.00  0.00     0.127 S 
ATOM     89  O   UNL A   1      44.080  28.101  25.889  1.00  0.00    -0.237 OA
ATOM     90  O   UNL A   1      42.480  26.630  24.723  1.00  0.00    -0.237 OA
ATOM     91  O   UNL A   1      41.935  28.999  25.056  1.00  0.00    -0.744 OA
ENDBRANCH  85  88
ENDBRANCH  57  81
BRANCH  69  92
ATOM     92  C   UNL A   1      44.542  28.656  35.496  1.00  0.00     0.023 A 
ATOM     93  C   UNL A   1      45.855  29.128  35.308  1.00  0.00     0.012 A 
ATOM     94  C   UNL A   1      44.299  27.625  36.425  1.00  0.00     0.148 A 
ATOM     95  C   UNL A   1      46.912  28.580  36.034  1.00  0.00     0.002 A 
ATOM     96  C   UNL A   1      45.350  27.116  37.177  1.00  0.00     0.091 A 
ATOM     97  F   UNL A   1      43.041  27.186  36.576  1.00  0.00    -0.205 F 
ATOM     98  C   UNL A   1      46.658  27.587  36.978  1.00  0.00     0.022 A 
BRANCH  96  99
ATOM     99  S   UNL A   1      45.108  25.912  38.490  1.00  0.00     0.127 S 
ATOM    100  O   UNL A   1      46.487  25.579  38.845  1.00  0.00    -0.237 OA
ATOM    101  O   UNL A   1      44.391  26.693  39.496  1.00  0.00    -0.237 OA
ATOM    102  O   UNL A   1      44.339  24.823  37.902  1.00  0.00    -0.744 OA
ENDBRANCH  96  99
ENDBRANCH  69  92
ENDBRANCH  43  44
ENDBRANCH  35  38
ENDBRANCH  33  34
ENDBRANCH  32  33
ENDBRANCH   1  32
TORSDOF 20
ENDMDL
