MODEL 1
REMARK VINA RESULT:     -12.4      0.000      0.000
REMARK SMILES COc1cccc([C@@H]2CC(c3cccc(C)c3)=NN2C(=O)CCC(=O)NCCCCCCNC(=O)c2ccc(-c3c4nc(c(-c5cccc(S(=O)(=O)[O-])c5F)c5ccc([nH]5)c(-c5cccc(S(=O)(=O)[O-])c5F)c5nc(c(-c6cccc(S(=O)(=O)[O-])c6F)c6ccc3[nH]6)C=C5)C=C4)cc2)c1
REMARK SMILES IDX 28 1 27 2 26 3 24 4 25 5 23 7 22 8 20 9 21 10 19 11 8 12
REMARK SMILES IDX 9 13 10 14 18 15 7 16 3 17 4 18 99 19 5 20 6 21 2 22 1 23
REMARK SMILES IDX 11 24 12 25 17 26 13 27 15 28 14 29 16 30 29 31 30 32 31 33
REMARK SMILES IDX 32 34 33 35 34 36 35 38 36 39 37 40 98 41 38 42 97 43 39 44
REMARK SMILES IDX 40 45 41 46 91 47 42 48 96 49 90 50 92 51 43 52 95 53 89 54
REMARK SMILES IDX 88 55 44 57 76 58 56 59 75 60 57 61 60 62 74 63 93 64 58 65
REMARK SMILES IDX 59 66 73 68 94 69 61 70 45 71 46 72 54 73 47 74 49 75 55 76
REMARK SMILES IDX 48 77 50 78 51 79 52 80 53 81 77 82 78 83 86 84 79 85 81 86
REMARK SMILES IDX 87 87 80 88 82 89 83 90 84 91 85 92 62 93 63 94 71 95 64 96
REMARK SMILES IDX 66 97 72 98 65 99 67 100 68 101 69 102 70 103
REMARK H PARENT 26 6 33 37 92 56 60 67
REMARK Flexibility Score: inf
ROOT
ATOM      1  C   UNL A   1      32.060  28.562  24.375  1.00  0.00     0.021 C 
ENDROOT
BRANCH   1   2
ATOM      2  C   UNL A   1      33.449  28.364  23.766  1.00  0.00     0.116 C 
BRANCH   2   3
ATOM      3  N   UNL A   1      33.555  27.491  22.606  1.00  0.00    -0.356 N 
ATOM      4  C   UNL A   1      33.649  26.140  22.521  1.00  0.00     0.220 C 
ATOM      5  O   UNL A   1      33.463  25.593  21.431  1.00  0.00    -0.275 OA
ATOM      6  H   UNL A   1      33.560  27.958  21.740  1.00  0.00     0.163 HD
BRANCH   4   7
ATOM      7  C   UNL A   1      34.075  25.331  23.723  1.00  0.00     0.110 C 
BRANCH   7   8
ATOM      8  C   UNL A   1      34.721  24.015  23.289  1.00  0.00     0.112 C 
BRANCH   8   9
ATOM      9  C   UNL A   1      34.706  23.006  24.422  1.00  0.00     0.243 C 
ATOM     10  O   UNL A   1      35.376  23.226  25.431  1.00  0.00    -0.273 OA
BRANCH   9  11
ATOM     11  N   UNL A   1      33.995  21.835  24.199  1.00  0.00    -0.225 N 
ATOM     12  C   UNL A   1      32.725  21.688  23.478  1.00  0.00     0.147 C 
ATOM     13  C   UNL A   1      32.460  20.182  23.503  1.00  0.00     0.091 C 
ATOM     14  C   UNL A   1      33.563  19.749  24.420  1.00  0.00     0.071 C 
ATOM     15  N   UNL A   1      34.360  20.679  24.833  1.00  0.00    -0.174 NA
BRANCH  12  16
ATOM     16  C   UNL A   1      31.686  22.554  24.181  1.00  0.00    -0.019 A 
ATOM     17  C   UNL A   1      30.378  24.604  24.157  1.00  0.00     0.119 A 
ATOM     18  C   UNL A   1      30.257  24.533  25.546  1.00  0.00     0.046 A 
ATOM     19  C   UNL A   1      31.077  23.605  23.475  1.00  0.00     0.052 A 
ATOM     20  C   UNL A   1      30.806  23.466  26.254  1.00  0.00     0.004 A 
ATOM     21  C   UNL A   1      31.505  22.473  25.573  1.00  0.00     0.006 A 
BRANCH  17  22
ATOM     22  O   UNL A   1      29.816  25.713  23.586  1.00  0.00    -0.497 OA
ATOM     23  C   UNL A   1      28.654  26.236  24.220  1.00  0.00     0.278 C 
ENDBRANCH  17  22
ENDBRANCH  12  16
BRANCH  14  24
ATOM     24  C   UNL A   1      33.731  18.351  24.830  1.00  0.00    -0.002 A 
ATOM     25  C   UNL A   1      34.930  17.718  24.508  1.00  0.00     0.010 A 
ATOM     26  C   UNL A   1      32.656  17.636  25.374  1.00  0.00     0.013 A 
ATOM     27  C   UNL A   1      35.080  16.363  24.782  1.00  0.00     0.001 A 
ATOM     28  C   UNL A   1      32.794  16.262  25.615  1.00  0.00    -0.050 A 
ATOM     29  C   UNL A   1      34.022  15.644  25.343  1.00  0.00     0.003 A 
ATOM     30  C   UNL A   1      31.624  15.411  26.022  1.00  0.00     0.044 C 
ENDBRANCH  14  24
ENDBRANCH   9  11
ENDBRANCH   8   9
ENDBRANCH   7   8
ENDBRANCH   4   7
ENDBRANCH   2   3
ENDBRANCH   1   2
BRANCH   1  31
ATOM     31  C   UNL A   1      31.710  27.907  25.716  1.00  0.00     0.002 C 
BRANCH  31  32
ATOM     32  C   UNL A   1      31.758  28.771  26.979  1.00  0.00     0.002 C 
BRANCH  32  33
ATOM     33  C   UNL A   1      31.611  30.266  26.720  1.00  0.00     0.021 C 
BRANCH  33  34
ATOM     34  C   UNL A   1      32.942  31.002  26.753  1.00  0.00     0.116 C 
BRANCH  34  35
ATOM     35  N   UNL A   1      32.880  32.318  27.393  1.00  0.00    -0.352 N 
ATOM     36  C   UNL A   1      33.882  32.913  28.131  1.00  0.00     0.251 C 
ATOM     37  H   UNL A   1      32.044  32.826  27.285  1.00  0.00     0.163 HD
ATOM     38  O   UNL A   1      33.738  33.969  28.736  1.00  0.00    -0.269 OA
BRANCH  36  39
ATOM     39  C   UNL A   1      35.149  32.175  28.221  1.00  0.00     0.039 A 
ATOM     40  C   UNL A   1      36.336  32.909  28.250  1.00  0.00     0.014 A 
ATOM     41  C   UNL A   1      35.110  30.819  28.551  1.00  0.00     0.014 A 
ATOM     42  C   UNL A   1      37.484  32.298  28.740  1.00  0.00     0.010 A 
ATOM     43  C   UNL A   1      36.231  30.246  29.124  1.00  0.00     0.010 A 
ATOM     44  C   UNL A   1      37.416  30.989  29.242  1.00  0.00    -0.014 A 
BRANCH  44  45
ATOM     45  C   UNL A   1      38.569  30.387  29.939  1.00  0.00     0.031 A 
ATOM     46  C   UNL A   1      38.848  30.780  31.357  1.00  0.00     0.074 A 
ATOM     47  C   UNL A   1      39.403  29.579  29.254  1.00  0.00     0.049 A 
ATOM     48  N   UNL A   1      39.831  30.415  32.133  1.00  0.00    -0.248 NA
ATOM     49  C   UNL A   1      37.918  31.744  31.973  1.00  0.00     0.031 C 
ATOM     50  C   UNL A   1      39.266  29.225  27.837  1.00  0.00     0.029 A 
ATOM     51  N   UNL A   1      40.542  28.925  29.646  1.00  0.00    -0.354 N 
ATOM     52  C   UNL A   1      39.662  31.134  33.309  1.00  0.00     0.074 A 
ATOM     53  C   UNL A   1      38.509  31.986  33.132  1.00  0.00     0.031 C 
ATOM     54  C   UNL A   1      40.273  28.408  27.485  1.00  0.00     0.029 A 
ATOM     55  C   UNL A   1      41.138  28.198  28.640  1.00  0.00     0.049 A 
ATOM     56  H   UNL A   1      40.902  28.973  30.561  1.00  0.00     0.167 HD
ATOM     57  C   UNL A   1      40.387  31.059  34.448  1.00  0.00     0.034 A 
ATOM     58  C   UNL A   1      42.252  27.440  28.662  1.00  0.00     0.034 A 
ATOM     59  C   UNL A   1      41.496  30.164  34.614  1.00  0.00     0.049 A 
ATOM     60  C   UNL A   1      42.987  27.303  29.968  1.00  0.00     0.074 A 
ATOM     61  C   UNL A   1      42.257  29.933  35.743  1.00  0.00     0.029 A 
ATOM     62  N   UNL A   1      42.002  29.348  33.611  1.00  0.00    -0.354 N 
ATOM     63  N   UNL A   1      42.720  27.864  31.124  1.00  0.00    -0.248 NA
ATOM     64  C   UNL A   1      44.147  26.403  29.991  1.00  0.00     0.031 C 
ATOM     65  C   UNL A   1      43.230  28.981  35.419  1.00  0.00     0.029 A 
ATOM     66  C   UNL A   1      43.062  28.607  34.093  1.00  0.00     0.049 A 
ATOM     67  H   UNL A   1      41.654  29.304  32.691  1.00  0.00     0.167 HD
ATOM     68  C   UNL A   1      43.654  27.362  32.019  1.00  0.00     0.074 A 
ATOM     69  C   UNL A   1      44.485  26.435  31.275  1.00  0.00     0.031 C 
ATOM     70  C   UNL A   1      43.825  27.649  33.333  1.00  0.00     0.034 A 
BRANCH  57  71
ATOM     71  C   UNL A   1      39.955  31.925  35.600  1.00  0.00     0.023 A 
ATOM     72  C   UNL A   1      40.550  33.193  35.777  1.00  0.00     0.012 A 
ATOM     73  C   UNL A   1      38.967  31.495  36.505  1.00  0.00     0.148 A 
ATOM     74  C   UNL A   1      40.204  33.996  36.863  1.00  0.00     0.002 A 
ATOM     75  C   UNL A   1      38.593  32.322  37.559  1.00  0.00     0.091 A 
ATOM     76  F   UNL A   1      38.430  30.278  36.336  1.00  0.00    -0.205 F 
ATOM     77  C   UNL A   1      39.221  33.565  37.747  1.00  0.00     0.022 A 
BRANCH  75  78
ATOM     78  S   UNL A   1      37.288  31.891  38.715  1.00  0.00     0.127 S 
ATOM     79  O   UNL A   1      37.958  32.077  40.000  1.00  0.00    -0.237 OA
ATOM     80  O   UNL A   1      36.265  32.892  38.409  1.00  0.00    -0.237 OA
ATOM     81  O   UNL A   1      36.910  30.521  38.399  1.00  0.00    -0.744 OA
ENDBRANCH  75  78
ENDBRANCH  57  71
BRANCH  58  82
ATOM     82  C   UNL A   1      42.670  26.686  27.444  1.00  0.00     0.023 A 
ATOM     83  C   UNL A   1      43.459  27.331  26.471  1.00  0.00     0.012 A 
ATOM     84  C   UNL A   1      42.338  25.329  27.261  1.00  0.00     0.148 A 
ATOM     85  C   UNL A   1      43.885  26.651  25.329  1.00  0.00     0.002 A 
ATOM     86  C   UNL A   1      42.808  24.642  26.146  1.00  0.00     0.091 A 
ATOM     87  F   UNL A   1      41.579  24.730  28.190  1.00  0.00    -0.205 F 
ATOM     88  C   UNL A   1      43.568  25.304  25.171  1.00  0.00     0.022 A 
BRANCH  86  89
ATOM     89  S   UNL A   1      42.561  22.874  25.930  1.00  0.00     0.127 S 
ATOM     90  O   UNL A   1      43.436  22.321  26.961  1.00  0.00    -0.237 OA
ATOM     91  O   UNL A   1      41.129  22.730  26.194  1.00  0.00    -0.237 OA
ATOM     92  O   UNL A   1      42.944  22.594  24.553  1.00  0.00    -0.744 OA
ENDBRANCH  86  89
ENDBRANCH  58  82
BRANCH  70  93
ATOM     93  C   UNL A   1      44.926  26.934  34.065  1.00  0.00     0.023 A 
ATOM     94  C   UNL A   1      46.216  27.497  34.102  1.00  0.00     0.012 A 
ATOM     95  C   UNL A   1      44.649  25.771  34.808  1.00  0.00     0.148 A 
ATOM     96  C   UNL A   1      47.222  26.901  34.859  1.00  0.00     0.002 A 
ATOM     97  C   UNL A   1      45.644  25.210  35.598  1.00  0.00     0.091 A 
ATOM     98  F   UNL A   1      43.418  25.245  34.738  1.00  0.00    -0.205 F 
ATOM     99  C   UNL A   1      46.932  25.768  35.618  1.00  0.00     0.022 A 
BRANCH  97 100
ATOM    100  S   UNL A   1      45.331  23.815  36.685  1.00  0.00     0.127 S 
ATOM    101  O   UNL A   1      46.686  23.454  37.102  1.00  0.00    -0.237 OA
ATOM    102  O   UNL A   1      44.509  24.418  37.735  1.00  0.00    -0.237 OA
ATOM    103  O   UNL A   1      44.641  22.821  35.875  1.00  0.00    -0.744 OA
ENDBRANCH  97 100
ENDBRANCH  70  93
ENDBRANCH  44  45
ENDBRANCH  36  39
ENDBRANCH  34  35
ENDBRANCH  33  34
ENDBRANCH  32  33
ENDBRANCH  31  32
ENDBRANCH   1  31
TORSDOF 22
ENDMDL
MODEL 2
REMARK VINA RESULT:     -12.0      1.748      2.056
REMARK SMILES COc1cccc([C@@H]2CC(c3cccc(C)c3)=NN2C(=O)CCC(=O)NCCCCCCNC(=O)c2ccc(-c3c4nc(c(-c5cccc(S(=O)(=O)[O-])c5F)c5ccc([nH]5)c(-c5cccc(S(=O)(=O)[O-])c5F)c5nc(c(-c6cccc(S(=O)(=O)[O-])c6F)c6ccc3[nH]6)C=C5)C=C4)cc2)c1
REMARK SMILES IDX 28 1 27 2 26 3 24 4 25 5 23 7 22 8 20 9 21 10 19 11 8 12
REMARK SMILES IDX 9 13 10 14 18 15 7 16 3 17 4 18 99 19 5 20 6 21 2 22 1 23
REMARK SMILES IDX 11 24 12 25 17 26 13 27 15 28 14 29 16 30 29 31 30 32 31 33
REMARK SMILES IDX 32 34 33 35 34 36 35 38 36 39 37 40 98 41 38 42 97 43 39 44
REMARK SMILES IDX 40 45 41 46 91 47 42 48 96 49 90 50 92 51 43 52 95 53 89 54
REMARK SMILES IDX 88 55 44 57 76 58 56 59 75 60 57 61 60 62 74 63 93 64 58 65
REMARK SMILES IDX 59 66 73 68 94 69 61 70 45 71 46 72 54 73 47 74 49 75 55 76
REMARK SMILES IDX 48 77 50 78 51 79 52 80 53 81 77 82 78 83 86 84 79 85 81 86
REMARK SMILES IDX 87 87 80 88 82 89 83 90 84 91 85 92 62 93 63 94 71 95 64 96
REMARK SMILES IDX 66 97 72 98 65 99 67 100 68 101 69 102 70 103
REMARK H PARENT 26 6 33 37 92 56 60 67
REMARK Flexibility Score: inf
ROOT
ATOM      1  C   UNL A   1      31.677  27.811  24.976  1.00  0.00     0.021 C 
ENDROOT
BRANCH   1   2
ATOM      2  C   UNL A   1      32.995  28.124  24.268  1.00  0.00     0.116 C 
BRANCH   2   3
ATOM      3  N   UNL A   1      33.416  27.225  23.204  1.00  0.00    -0.356 N 
ATOM      4  C   UNL A   1      33.841  25.937  23.251  1.00  0.00     0.220 C 
ATOM      5  O   UNL A   1      33.895  25.284  22.205  1.00  0.00    -0.275 OA
ATOM      6  H   UNL A   1      33.389  27.615  22.301  1.00  0.00     0.163 HD
BRANCH   4   7
ATOM      7  C   UNL A   1      34.336  25.347  24.550  1.00  0.00     0.110 C 
BRANCH   7   8
ATOM      8  C   UNL A   1      35.145  24.075  24.294  1.00  0.00     0.112 C 
BRANCH   8   9
ATOM      9  C   UNL A   1      34.780  22.992  25.293  1.00  0.00     0.243 C 
ATOM     10  O   UNL A   1      35.128  23.118  26.468  1.00  0.00    -0.273 OA
BRANCH   9  11
ATOM     11  N   UNL A   1      34.147  21.867  24.784  1.00  0.00    -0.225 N 
ATOM     12  C   UNL A   1      33.058  21.826  23.801  1.00  0.00     0.147 C 
ATOM     13  C   UNL A   1      32.814  20.333  23.584  1.00  0.00     0.091 C 
ATOM     14  C   UNL A   1      33.706  19.776  24.651  1.00  0.00     0.071 C 
ATOM     15  N   UNL A   1      34.387  20.638  25.333  1.00  0.00    -0.174 NA
BRANCH  12  16
ATOM     16  C   UNL A   1      31.884  22.613  24.373  1.00  0.00    -0.019 A 
ATOM     17  C   UNL A   1      30.384  24.512  24.133  1.00  0.00     0.119 A 
ATOM     18  C   UNL A   1      30.157  24.495  25.511  1.00  0.00     0.046 A 
ATOM     19  C   UNL A   1      31.233  23.560  23.564  1.00  0.00     0.052 A 
ATOM     20  C   UNL A   1      30.749  23.525  26.317  1.00  0.00     0.004 A 
ATOM     21  C   UNL A   1      31.597  22.579  25.749  1.00  0.00     0.006 A 
BRANCH  17  22
ATOM     22  O   UNL A   1      29.764  25.530  23.461  1.00  0.00    -0.497 OA
ATOM     23  C   UNL A   1      28.729  26.215  24.156  1.00  0.00     0.278 C 
ENDBRANCH  17  22
ENDBRANCH  12  16
BRANCH  14  24
ATOM     24  C   UNL A   1      33.803  18.336  24.911  1.00  0.00    -0.002 A 
ATOM     25  C   UNL A   1      34.902  17.653  24.393  1.00  0.00     0.010 A 
ATOM     26  C   UNL A   1      32.741  17.649  25.513  1.00  0.00     0.013 A 
ATOM     27  C   UNL A   1      34.971  16.270  24.526  1.00  0.00     0.001 A 
ATOM     28  C   UNL A   1      32.791  16.252  25.612  1.00  0.00    -0.050 A 
ATOM     29  C   UNL A   1      33.927  15.578  25.142  1.00  0.00     0.003 A 
ATOM     30  C   UNL A   1      31.608  15.451  26.078  1.00  0.00     0.044 C 
ENDBRANCH  14  24
ENDBRANCH   9  11
ENDBRANCH   8   9
ENDBRANCH   7   8
ENDBRANCH   4   7
ENDBRANCH   2   3
ENDBRANCH   1   2
BRANCH   1  31
ATOM     31  C   UNL A   1      31.634  27.709  26.505  1.00  0.00     0.002 C 
BRANCH  31  32
ATOM     32  C   UNL A   1      32.151  28.893  27.326  1.00  0.00     0.002 C 
BRANCH  32  33
ATOM     33  C   UNL A   1      31.592  30.244  26.896  1.00  0.00     0.021 C 
BRANCH  33  34
ATOM     34  C   UNL A   1      32.678  31.219  26.465  1.00  0.00     0.116 C 
BRANCH  34  35
ATOM     35  N   UNL A   1      32.606  32.523  27.127  1.00  0.00    -0.352 N 
ATOM     36  C   UNL A   1      33.582  33.090  27.920  1.00  0.00     0.251 C 
ATOM     37  H   UNL A   1      31.781  33.045  26.993  1.00  0.00     0.163 HD
ATOM     38  O   UNL A   1      33.425  34.136  28.538  1.00  0.00    -0.269 OA
BRANCH  36  39
ATOM     39  C   UNL A   1      34.833  32.333  28.050  1.00  0.00     0.039 A 
ATOM     40  C   UNL A   1      36.034  33.044  28.054  1.00  0.00     0.014 A 
ATOM     41  C   UNL A   1      34.766  30.994  28.439  1.00  0.00     0.014 A 
ATOM     42  C   UNL A   1      37.167  32.434  28.578  1.00  0.00     0.010 A 
ATOM     43  C   UNL A   1      35.873  30.425  29.044  1.00  0.00     0.010 A 
ATOM     44  C   UNL A   1      37.071  31.150  29.137  1.00  0.00    -0.014 A 
BRANCH  44  45
ATOM     45  C   UNL A   1      38.208  30.557  29.867  1.00  0.00     0.031 A 
ATOM     46  C   UNL A   1      38.471  30.989  31.277  1.00  0.00     0.074 A 
ATOM     47  C   UNL A   1      39.043  29.721  29.218  1.00  0.00     0.049 A 
ATOM     48  N   UNL A   1      39.440  30.637  32.077  1.00  0.00    -0.248 NA
ATOM     49  C   UNL A   1      37.543  31.979  31.852  1.00  0.00     0.031 C 
ATOM     50  C   UNL A   1      38.923  29.327  27.810  1.00  0.00     0.029 A 
ATOM     51  N   UNL A   1      40.170  29.068  29.645  1.00  0.00    -0.354 N 
ATOM     52  C   UNL A   1      39.263  31.391  33.229  1.00  0.00     0.074 A 
ATOM     53  C   UNL A   1      38.121  32.249  33.011  1.00  0.00     0.031 C 
ATOM     54  C   UNL A   1      39.926  28.491  27.497  1.00  0.00     0.029 A 
ATOM     55  C   UNL A   1      40.772  28.306  28.669  1.00  0.00     0.049 A 
ATOM     56  H   UNL A   1      40.518  29.139  30.563  1.00  0.00     0.167 HD
ATOM     57  C   UNL A   1      39.970  31.342  34.380  1.00  0.00     0.034 A 
ATOM     58  C   UNL A   1      41.879  27.538  28.728  1.00  0.00     0.034 A 
ATOM     59  C   UNL A   1      41.068  30.442  34.588  1.00  0.00     0.049 A 
ATOM     60  C   UNL A   1      42.594  27.433  30.048  1.00  0.00     0.074 A 
ATOM     61  C   UNL A   1      41.811  30.237  35.734  1.00  0.00     0.029 A 
ATOM     62  N   UNL A   1      41.579  29.593  33.616  1.00  0.00    -0.354 N 
ATOM     63  N   UNL A   1      42.317  28.030  31.184  1.00  0.00    -0.248 NA
ATOM     64  C   UNL A   1      43.745  26.522  30.114  1.00  0.00     0.031 C 
ATOM     65  C   UNL A   1      42.779  29.266  35.451  1.00  0.00     0.029 A 
ATOM     66  C   UNL A   1      42.626  28.855  34.135  1.00  0.00     0.049 A 
ATOM     67  H   UNL A   1      41.244  29.525  32.693  1.00  0.00     0.167 HD
ATOM     68  C   UNL A   1      43.233  27.544  32.106  1.00  0.00     0.074 A 
ATOM     69  C   UNL A   1      44.065  26.588  31.401  1.00  0.00     0.031 C 
ATOM     70  C   UNL A   1      43.389  27.868  33.414  1.00  0.00     0.034 A 
BRANCH  57  71
ATOM     71  C   UNL A   1      39.531  32.246  35.501  1.00  0.00     0.023 A 
ATOM     72  C   UNL A   1      38.634  31.757  36.475  1.00  0.00     0.012 A 
ATOM     73  C   UNL A   1      39.999  33.570  35.596  1.00  0.00     0.148 A 
ATOM     74  C   UNL A   1      38.173  32.586  37.497  1.00  0.00     0.002 A 
ATOM     75  C   UNL A   1      39.571  34.376  36.644  1.00  0.00     0.091 A 
ATOM     76  F   UNL A   1      40.831  34.024  34.648  1.00  0.00    -0.205 F 
ATOM     77  C   UNL A   1      38.647  33.891  37.586  1.00  0.00     0.022 A 
BRANCH  75  78
ATOM     78  S   UNL A   1      40.175  36.049  36.891  1.00  0.00     0.127 S 
ATOM     79  O   UNL A   1      39.858  36.670  35.607  1.00  0.00    -0.237 OA
ATOM     80  O   UNL A   1      39.354  36.510  38.011  1.00  0.00    -0.237 OA
ATOM     81  O   UNL A   1      41.594  35.922  37.191  1.00  0.00    -0.744 OA
ENDBRANCH  75  78
ENDBRANCH  57  71
BRANCH  58  82
ATOM     82  C   UNL A   1      42.306  26.745  27.539  1.00  0.00     0.023 A 
ATOM     83  C   UNL A   1      43.080  27.366  26.539  1.00  0.00     0.012 A 
ATOM     84  C   UNL A   1      41.997  25.376  27.410  1.00  0.00     0.148 A 
ATOM     85  C   UNL A   1      43.514  26.649  25.421  1.00  0.00     0.002 A 
ATOM     86  C   UNL A   1      42.475  24.655  26.321  1.00  0.00     0.091 A 
ATOM     87  F   UNL A   1      41.252  24.801  28.365  1.00  0.00    -0.205 F 
ATOM     88  C   UNL A   1      43.220  25.292  25.317  1.00  0.00     0.022 A 
BRANCH  86  89
ATOM     89  S   UNL A   1      42.259  22.876  26.174  1.00  0.00     0.127 S 
ATOM     90  O   UNL A   1      42.859  22.608  24.869  1.00  0.00    -0.237 OA
ATOM     91  O   UNL A   1      43.024  22.379  27.318  1.00  0.00    -0.237 OA
ATOM     92  O   UNL A   1      40.824  22.649  26.273  1.00  0.00    -0.744 OA
ENDBRANCH  86  89
ENDBRANCH  58  82
BRANCH  70  93
ATOM     93  C   UNL A   1      44.473  27.164  34.181  1.00  0.00     0.023 A 
ATOM     94  C   UNL A   1      44.219  25.896  34.737  1.00  0.00     0.012 A 
ATOM     95  C   UNL A   1      45.769  27.708  34.244  1.00  0.00     0.148 A 
ATOM     96  C   UNL A   1      45.241  25.184  35.362  1.00  0.00     0.002 A 
ATOM     97  C   UNL A   1      46.793  26.973  34.826  1.00  0.00     0.091 A 
ATOM     98  F   UNL A   1      45.978  28.926  33.723  1.00  0.00    -0.205 F 
ATOM     99  C   UNL A   1      46.529  25.716  35.393  1.00  0.00     0.022 A 
BRANCH  97 100
ATOM    100  S   UNL A   1      48.500  27.532  34.817  1.00  0.00     0.127 S 
ATOM    101  O   UNL A   1      48.528  28.419  35.979  1.00  0.00    -0.237 OA
ATOM    102  O   UNL A   1      49.238  26.280  34.986  1.00  0.00    -0.237 OA
ATOM    103  O   UNL A   1      48.702  28.182  33.529  1.00  0.00    -0.744 OA
ENDBRANCH  97 100
ENDBRANCH  70  93
ENDBRANCH  44  45
ENDBRANCH  36  39
ENDBRANCH  34  35
ENDBRANCH  33  34
ENDBRANCH  32  33
ENDBRANCH  31  32
ENDBRANCH   1  31
TORSDOF 22
ENDMDL
MODEL 3
REMARK VINA RESULT:     -11.6      3.156      6.165
REMARK SMILES COc1cccc([C@@H]2CC(c3cccc(C)c3)=NN2C(=O)CCC(=O)NCCCCCCNC(=O)c2ccc(-c3c4nc(c(-c5cccc(S(=O)(=O)[O-])c5F)c5ccc([nH]5)c(-c5cccc(S(=O)(=O)[O-])c5F)c5nc(c(-c6cccc(S(=O)(=O)[O-])c6F)c6ccc3[nH]6)C=C5)C=C4)cc2)c1
REMARK SMILES IDX 28 1 27 2 26 3 24 4 25 5 23 7 22 8 20 9 21 10 19 11 8 12
REMARK SMILES IDX 9 13 10 14 18 15 7 16 3 17 4 18 99 19 5 20 6 21 2 22 1 23
REMARK SMILES IDX 11 24 12 25 17 26 13 27 15 28 14 29 16 30 29 31 30 32 31 33
REMARK SMILES IDX 32 34 33 35 34 36 35 38 36 39 37 40 98 41 38 42 97 43 39 44
REMARK SMILES IDX 40 45 41 46 91 47 42 48 96 49 90 50 92 51 43 52 95 53 89 54
REMARK SMILES IDX 88 55 44 57 76 58 56 59 75 60 57 61 60 62 74 63 93 64 58 65
REMARK SMILES IDX 59 66 73 68 94 69 61 70 45 71 46 72 54 73 47 74 49 75 55 76
REMARK SMILES IDX 48 77 50 78 51 79 52 80 53 81 77 82 78 83 86 84 79 85 81 86
REMARK SMILES IDX 87 87 80 88 82 89 83 90 84 91 85 92 62 93 63 94 71 95 64 96
REMARK SMILES IDX 66 97 72 98 65 99 67 100 68 101 69 102 70 103
REMARK H PARENT 26 6 33 37 92 56 60 67
REMARK Flexibility Score: inf
ROOT
ATOM      1  C   UNL A   1      35.796  30.492  27.821  1.00  0.00     0.021 C 
ENDROOT
BRANCH   1   2
ATOM      2  C   UNL A   1      34.640  29.622  27.327  1.00  0.00     0.116 C 
BRANCH   2   3
ATOM      3  N   UNL A   1      34.544  29.384  25.894  1.00  0.00    -0.356 N 
ATOM      4  C   UNL A   1      33.869  28.434  25.199  1.00  0.00     0.220 C 
ATOM      5  O   UNL A   1      33.713  28.577  23.984  1.00  0.00    -0.275 OA
ATOM      6  H   UNL A   1      35.053  30.016  25.338  1.00  0.00     0.163 HD
BRANCH   4   7
ATOM      7  C   UNL A   1      33.405  27.173  25.889  1.00  0.00     0.110 C 
BRANCH   7   8
ATOM      8  C   UNL A   1      32.094  27.414  26.636  1.00  0.00     0.112 C 
BRANCH   8   9
ATOM      9  C   UNL A   1      30.968  26.595  26.031  1.00  0.00     0.243 C 
ATOM     10  O   UNL A   1      30.722  25.480  26.494  1.00  0.00    -0.273 OA
BRANCH   9  11
ATOM     11  N   UNL A   1      30.342  27.131  24.915  1.00  0.00    -0.225 N 
ATOM     12  C   UNL A   1      29.778  26.401  23.773  1.00  0.00     0.147 C 
ATOM     13  C   UNL A   1      29.179  27.499  22.895  1.00  0.00     0.091 C 
ATOM     14  C   UNL A   1      29.687  28.707  23.622  1.00  0.00     0.071 C 
ATOM     15  N   UNL A   1      30.368  28.481  24.697  1.00  0.00    -0.174 NA
BRANCH  12  16
ATOM     16  C   UNL A   1      30.900  25.585  23.141  1.00  0.00    -0.019 A 
ATOM     17  C   UNL A   1      32.160  23.505  23.130  1.00  0.00     0.119 A 
ATOM     18  C   UNL A   1      33.233  24.169  22.530  1.00  0.00     0.046 A 
ATOM     19  C   UNL A   1      30.990  24.210  23.419  1.00  0.00     0.052 A 
ATOM     20  C   UNL A   1      33.137  25.518  22.196  1.00  0.00     0.004 A 
ATOM     21  C   UNL A   1      31.970  26.220  22.487  1.00  0.00     0.006 A 
BRANCH  17  22
ATOM     22  O   UNL A   1      32.392  22.190  23.429  1.00  0.00    -0.497 OA
ATOM     23  C   UNL A   1      33.064  21.924  24.654  1.00  0.00     0.278 C 
ENDBRANCH  17  22
ENDBRANCH  12  16
BRANCH  14  24
ATOM     24  C   UNL A   1      29.429  30.068  23.143  1.00  0.00    -0.002 A 
ATOM     25  C   UNL A   1      29.503  31.109  24.068  1.00  0.00     0.010 A 
ATOM     26  C   UNL A   1      28.961  30.288  21.841  1.00  0.00     0.013 A 
ATOM     27  C   UNL A   1      29.157  32.397  23.674  1.00  0.00     0.001 A 
ATOM     28  C   UNL A   1      28.575  31.579  21.455  1.00  0.00    -0.050 A 
ATOM     29  C   UNL A   1      28.708  32.630  22.373  1.00  0.00     0.003 A 
ATOM     30  C   UNL A   1      27.897  31.840  20.140  1.00  0.00     0.044 C 
ENDBRANCH  14  24
ENDBRANCH   9  11
ENDBRANCH   8   9
ENDBRANCH   7   8
ENDBRANCH   4   7
ENDBRANCH   2   3
ENDBRANCH   1   2
BRANCH   1  31
ATOM     31  C   UNL A   1      35.509  31.756  28.641  1.00  0.00     0.002 C 
BRANCH  31  32
ATOM     32  C   UNL A   1      35.764  33.117  27.989  1.00  0.00     0.002 C 
BRANCH  32  33
ATOM     33  C   UNL A   1      34.871  34.237  28.511  1.00  0.00     0.021 C 
BRANCH  33  34
ATOM     34  C   UNL A   1      33.963  33.784  29.645  1.00  0.00     0.116 C 
BRANCH  34  35
ATOM     35  N   UNL A   1      33.044  34.819  30.124  1.00  0.00    -0.352 N 
ATOM     36  C   UNL A   1      33.031  35.377  31.385  1.00  0.00     0.251 C 
ATOM     37  H   UNL A   1      32.373  35.149  29.483  1.00  0.00     0.163 HD
ATOM     38  O   UNL A   1      32.170  36.162  31.766  1.00  0.00    -0.269 OA
BRANCH  36  39
ATOM     39  C   UNL A   1      34.084  34.929  32.305  1.00  0.00     0.039 A 
ATOM     40  C   UNL A   1      33.908  33.711  32.963  1.00  0.00     0.014 A 
ATOM     41  C   UNL A   1      35.318  35.581  32.275  1.00  0.00     0.014 A 
ATOM     42  C   UNL A   1      35.022  33.074  33.494  1.00  0.00     0.010 A 
ATOM     43  C   UNL A   1      36.436  34.900  32.723  1.00  0.00     0.010 A 
ATOM     44  C   UNL A   1      36.297  33.635  33.313  1.00  0.00    -0.014 A 
BRANCH  44  45
ATOM     45  C   UNL A   1      37.512  32.890  33.699  1.00  0.00     0.031 A 
ATOM     46  C   UNL A   1      38.287  33.338  34.900  1.00  0.00     0.074 A 
ATOM     47  C   UNL A   1      37.952  31.894  32.906  1.00  0.00     0.049 A 
ATOM     48  N   UNL A   1      39.403  32.863  35.381  1.00  0.00    -0.248 NA
ATOM     49  C   UNL A   1      37.757  34.499  35.637  1.00  0.00     0.031 C 
ATOM     50  C   UNL A   1      37.316  31.459  31.657  1.00  0.00     0.029 A 
ATOM     51  N   UNL A   1      39.048  31.078  33.015  1.00  0.00    -0.354 N 
ATOM     52  C   UNL A   1      39.729  33.690  36.447  1.00  0.00     0.074 A 
ATOM     53  C   UNL A   1      38.719  34.721  36.518  1.00  0.00     0.031 C 
ATOM     54  C   UNL A   1      38.024  30.449  31.128  1.00  0.00     0.029 A 
ATOM     55  C   UNL A   1      39.174  30.177  31.982  1.00  0.00     0.049 A 
ATOM     56  H   UNL A   1      39.686  31.131  33.763  1.00  0.00     0.167 HD
ATOM     57  C   UNL A   1      40.763  33.576  37.311  1.00  0.00     0.034 A 
ATOM     58  C   UNL A   1      40.112  29.234  31.763  1.00  0.00     0.034 A 
ATOM     59  C   UNL A   1      41.723  32.511  37.249  1.00  0.00     0.049 A 
ATOM     60  C   UNL A   1      41.200  29.070  32.790  1.00  0.00     0.074 A 
ATOM     61  C   UNL A   1      42.764  32.236  38.113  1.00  0.00     0.029 A 
ATOM     62  N   UNL A   1      41.752  31.541  36.256  1.00  0.00    -0.354 N 
ATOM     63  N   UNL A   1      41.405  29.760  33.888  1.00  0.00    -0.248 NA
ATOM     64  C   UNL A   1      42.161  27.980  32.578  1.00  0.00     0.031 C 
ATOM     65  C   UNL A   1      43.429  31.101  37.637  1.00  0.00     0.029 A 
ATOM     66  C   UNL A   1      42.791  30.660  36.487  1.00  0.00     0.049 A 
ATOM     67  H   UNL A   1      41.125  31.488  35.500  1.00  0.00     0.167 HD
ATOM     68  C   UNL A   1      42.493  29.168  34.514  1.00  0.00     0.074 A 
ATOM     69  C   UNL A   1      42.894  28.051  33.682  1.00  0.00     0.031 C 
ATOM     70  C   UNL A   1      43.118  29.523  35.665  1.00  0.00     0.034 A 
BRANCH  57  71
ATOM     71  C   UNL A   1      40.857  34.594  38.416  1.00  0.00     0.023 A 
ATOM     72  C   UNL A   1      41.770  35.664  38.297  1.00  0.00     0.012 A 
ATOM     73  C   UNL A   1      40.051  34.499  39.565  1.00  0.00     0.148 A 
ATOM     74  C   UNL A   1      41.913  36.595  39.325  1.00  0.00     0.002 A 
ATOM     75  C   UNL A   1      40.166  35.458  40.565  1.00  0.00     0.091 A 
ATOM     76  F   UNL A   1      39.207  33.463  39.672  1.00  0.00    -0.205 F 
ATOM     77  C   UNL A   1      41.106  36.497  40.454  1.00  0.00     0.022 A 
BRANCH  75  78
ATOM     78  S   UNL A   1      39.125  35.464  42.029  1.00  0.00     0.127 S 
ATOM     79  O   UNL A   1      39.546  34.233  42.696  1.00  0.00    -0.237 OA
ATOM     80  O   UNL A   1      39.543  36.695  42.699  1.00  0.00    -0.237 OA
ATOM     81  O   UNL A   1      37.752  35.473  41.543  1.00  0.00    -0.744 OA
ENDBRANCH  75  78
ENDBRANCH  57  71
BRANCH  58  82
ATOM     82  C   UNL A   1      40.000  28.323  30.586  1.00  0.00     0.023 A 
ATOM     83  C   UNL A   1      39.039  27.293  30.602  1.00  0.00     0.012 A 
ATOM     84  C   UNL A   1      40.797  28.495  29.437  1.00  0.00     0.148 A 
ATOM     85  C   UNL A   1      38.893  26.435  29.511  1.00  0.00     0.002 A 
ATOM     86  C   UNL A   1      40.612  27.669  28.333  1.00  0.00     0.091 A 
ATOM     87  F   UNL A   1      41.714  29.474  29.440  1.00  0.00    -0.205 F 
ATOM     88  C   UNL A   1      39.672  26.628  28.372  1.00  0.00     0.022 A 
BRANCH  86  89
ATOM     89  S   UNL A   1      41.476  27.931  26.778  1.00  0.00     0.127 S 
ATOM     90  O   UNL A   1      42.873  27.881  27.200  1.00  0.00    -0.237 OA
ATOM     91  O   UNL A   1      41.030  26.786  25.983  1.00  0.00    -0.237 OA
ATOM     92  O   UNL A   1      41.006  29.218  26.284  1.00  0.00    -0.744 OA
ENDBRANCH  86  89
ENDBRANCH  58  82
BRANCH  70  93
ATOM     93  C   UNL A   1      44.279  28.680  36.114  1.00  0.00     0.023 A 
ATOM     94  C   UNL A   1      45.587  29.038  35.734  1.00  0.00     0.012 A 
ATOM     95  C   UNL A   1      44.079  27.609  37.005  1.00  0.00     0.148 A 
ATOM     96  C   UNL A   1      46.681  28.328  36.225  1.00  0.00     0.002 A 
ATOM     97  C   UNL A   1      45.176  26.937  37.527  1.00  0.00     0.091 A 
ATOM     98  F   UNL A   1      42.822  27.277  37.334  1.00  0.00    -0.205 F 
ATOM     99  C   UNL A   1      46.476  27.289  37.131  1.00  0.00     0.022 A 
BRANCH  97 100
ATOM    100  S   UNL A   1      45.011  25.659  38.777  1.00  0.00     0.127 S 
ATOM    101  O   UNL A   1      46.407  25.417  39.140  1.00  0.00    -0.237 OA
ATOM    102  O   UNL A   1      44.220  26.332  39.808  1.00  0.00    -0.237 OA
ATOM    103  O   UNL A   1      44.332  24.546  38.127  1.00  0.00    -0.744 OA
ENDBRANCH  97 100
ENDBRANCH  70  93
ENDBRANCH  44  45
ENDBRANCH  36  39
ENDBRANCH  34  35
ENDBRANCH  33  34
ENDBRANCH  32  33
ENDBRANCH  31  32
ENDBRANCH   1  31
TORSDOF 22
ENDMDL
