MODEL 1
REMARK VINA RESULT:     -11.5      0.000      0.000
REMARK SMILES O=C(NCCCCCCNC(=O)c1cc(S(=O)(=O)Nc2cccc(Cl)c2)ccc1O)c1ccc(-c2c3nc(c(-c4cccc(S(=O)(=O)[O-])c4F)c4ccc([nH]4)c(-c4cccc(S(=O)(=O)[O-])c4F)c4nc(c(-c5cccc(S(=O)(=O)[O-])c5F)c5ccc2[nH]5)C=C4)C=C3)cc1
REMARK SMILES IDX 6 1 5 2 4 3 3 4 1 5 2 6 31 8 32 9 93 10 33 11 92 12 34 13
REMARK SMILES IDX 35 14 36 15 86 16 37 17 91 18 85 19 87 20 38 21 90 22 84 23
REMARK SMILES IDX 83 24 39 26 71 27 51 28 70 29 52 30 55 31 69 32 88 33 53 34
REMARK SMILES IDX 54 35 68 37 89 38 56 39 40 40 41 41 49 42 42 43 44 44 50 45
REMARK SMILES IDX 43 46 45 47 46 48 47 49 48 50 72 51 73 52 81 53 74 54 76 55
REMARK SMILES IDX 82 56 75 57 77 58 78 59 79 60 80 61 57 62 58 63 66 64 59 65
REMARK SMILES IDX 61 66 67 67 60 68 62 69 63 70 64 71 65 72 7 73 8 74 9 75
REMARK SMILES IDX 10 76 11 77 12 79 13 80 14 81 29 82 15 83 28 84 27 85 30 86
REMARK SMILES IDX 16 88 17 89 18 90 19 91 20 93 21 94 26 95 22 96 24 97 23 98
REMARK SMILES IDX 25 99
REMARK H PARENT 3 7 87 25 55 36 10 78 30 87 19 92
REMARK Flexibility Score: inf
ROOT
ATOM      1  C   UNL A   1      31.693  29.274  25.205  1.00  0.00     0.002 C 
ENDROOT
BRANCH   1   2
ATOM      2  C   UNL A   1      33.029  28.526  25.235  1.00  0.00     0.021 C 
BRANCH   2   3
ATOM      3  C   UNL A   1      33.932  28.847  26.423  1.00  0.00     0.116 C 
BRANCH   3   4
ATOM      4  N   UNL A   1      33.835  30.237  26.832  1.00  0.00    -0.352 N 
ATOM      5  O   UNL A   1      34.280  32.075  28.048  1.00  0.00    -0.269 OA
ATOM      6  C   UNL A   1      34.633  30.956  27.686  1.00  0.00     0.251 C 
ATOM      7  H   UNL A   1      33.085  30.738  26.437  1.00  0.00     0.163 HD
BRANCH   6   8
ATOM      8  C   UNL A   1      35.899  30.376  28.187  1.00  0.00     0.039 A 
ATOM      9  C   UNL A   1      35.941  29.669  29.393  1.00  0.00     0.014 A 
ATOM     10  C   UNL A   1      37.057  30.524  27.421  1.00  0.00     0.014 A 
ATOM     11  C   UNL A   1      37.160  29.213  29.890  1.00  0.00     0.010 A 
ATOM     12  C   UNL A   1      38.267  30.007  27.889  1.00  0.00     0.010 A 
ATOM     13  C   UNL A   1      38.334  29.373  29.139  1.00  0.00    -0.014 A 
BRANCH  13  14
ATOM     14  C   UNL A   1      39.625  28.832  29.635  1.00  0.00     0.031 A 
ATOM     15  C   UNL A   1      40.366  29.516  30.750  1.00  0.00     0.074 A 
ATOM     16  C   UNL A   1      40.158  27.753  29.032  1.00  0.00     0.049 A 
ATOM     17  N   UNL A   1      41.541  29.237  31.252  1.00  0.00    -0.248 NA
ATOM     18  C   UNL A   1      39.705  30.673  31.376  1.00  0.00     0.031 C 
ATOM     19  C   UNL A   1      39.547  27.028  27.916  1.00  0.00     0.029 A 
ATOM     20  N   UNL A   1      41.345  27.099  29.246  1.00  0.00    -0.354 N 
ATOM     21  C   UNL A   1      41.784  30.206  32.217  1.00  0.00     0.074 A 
ATOM     22  C   UNL A   1      40.633  31.084  32.230  1.00  0.00     0.031 C 
ATOM     23  C   UNL A   1      40.368  26.039  27.534  1.00  0.00     0.029 A 
ATOM     24  C   UNL A   1      41.582  26.092  28.341  1.00  0.00     0.049 A 
ATOM     25  H   UNL A   1      41.965  27.329  29.976  1.00  0.00     0.167 HD
ATOM     26  C   UNL A   1      42.862  30.344  33.025  1.00  0.00     0.034 A 
ATOM     27  C   UNL A   1      42.669  25.317  28.156  1.00  0.00     0.034 A 
ATOM     28  C   UNL A   1      43.992  29.452  33.022  1.00  0.00     0.049 A 
ATOM     29  C   UNL A   1      43.849  25.484  29.068  1.00  0.00     0.074 A 
ATOM     30  C   UNL A   1      45.101  29.465  33.849  1.00  0.00     0.029 A 
ATOM     31  N   UNL A   1      44.164  28.395  32.140  1.00  0.00    -0.354 N 
ATOM     32  N   UNL A   1      44.008  26.325  30.061  1.00  0.00    -0.248 NA
ATOM     33  C   UNL A   1      44.986  24.577  28.860  1.00  0.00     0.031 C 
ATOM     34  C   UNL A   1      45.958  28.435  33.447  1.00  0.00     0.029 A 
ATOM     35  C   UNL A   1      45.365  27.757  32.393  1.00  0.00     0.049 A 
ATOM     36  H   UNL A   1      43.526  28.138  31.436  1.00  0.00     0.167 HD
ATOM     37  C   UNL A   1      45.245  26.026  30.620  1.00  0.00     0.074 A 
ATOM     38  C   UNL A   1      45.789  24.919  29.859  1.00  0.00     0.031 C 
ATOM     39  C   UNL A   1      45.872  26.620  31.665  1.00  0.00     0.034 A 
BRANCH  26  40
ATOM     40  C   UNL A   1      42.864  31.494  34.000  1.00  0.00     0.023 A 
ATOM     41  C   UNL A   1      43.443  32.724  33.629  1.00  0.00     0.012 A 
ATOM     42  C   UNL A   1      42.256  31.373  35.265  1.00  0.00     0.148 A 
ATOM     43  C   UNL A   1      43.454  33.802  34.514  1.00  0.00     0.002 A 
ATOM     44  C   UNL A   1      42.231  32.466  36.126  1.00  0.00     0.091 A 
ATOM     45  F   UNL A   1      41.728  30.191  35.612  1.00  0.00    -0.205 F 
ATOM     46  C   UNL A   1      42.840  33.675  35.758  1.00  0.00     0.022 A 
BRANCH  44  47
ATOM     47  S   UNL A   1      41.394  32.419  37.715  1.00  0.00     0.127 S 
ATOM     48  O   UNL A   1      42.224  31.472  38.457  1.00  0.00    -0.237 OA
ATOM     49  O   UNL A   1      41.502  33.808  38.164  1.00  0.00    -0.237 OA
ATOM     50  O   UNL A   1      40.034  31.981  37.434  1.00  0.00    -0.744 OA
ENDBRANCH  44  47
ENDBRANCH  26  40
BRANCH  27  51
ATOM     51  C   UNL A   1      42.654  24.293  27.075  1.00  0.00     0.023 A 
ATOM     52  C   UNL A   1      43.357  24.537  25.880  1.00  0.00     0.012 A 
ATOM     53  C   UNL A   1      42.018  23.050  27.261  1.00  0.00     0.148 A 
ATOM     54  C   UNL A   1      43.413  23.564  24.881  1.00  0.00     0.002 A 
ATOM     55  C   UNL A   1      42.125  22.066  26.287  1.00  0.00     0.091 A 
ATOM     56  F   UNL A   1      41.351  22.844  28.405  1.00  0.00    -0.205 F 
ATOM     57  C   UNL A   1      42.810  22.326  25.089  1.00  0.00     0.022 A 
BRANCH  55  58
ATOM     58  S   UNL A   1      41.503  20.397  26.523  1.00  0.00     0.127 S 
ATOM     59  O   UNL A   1      42.031  20.067  27.845  1.00  0.00    -0.237 OA
ATOM     60  O   UNL A   1      40.057  20.608  26.472  1.00  0.00    -0.237 OA
ATOM     61  O   UNL A   1      42.038  19.615  25.418  1.00  0.00    -0.744 OA
ENDBRANCH  55  58
ENDBRANCH  27  51
BRANCH  39  62
ATOM     62  C   UNL A   1      47.201  26.060  32.097  1.00  0.00     0.023 A 
ATOM     63  C   UNL A   1      48.390  26.530  31.506  1.00  0.00     0.012 A 
ATOM     64  C   UNL A   1      47.272  25.143  33.165  1.00  0.00     0.148 A 
ATOM     65  C   UNL A   1      49.630  26.080  31.959  1.00  0.00     0.002 A 
ATOM     66  C   UNL A   1      48.511  24.737  33.642  1.00  0.00     0.091 A 
ATOM     67  F   UNL A   1      46.126  24.695  33.699  1.00  0.00    -0.205 F 
ATOM     68  C   UNL A   1      49.690  25.196  33.035  1.00  0.00     0.022 A 
BRANCH  66  69
ATOM     69  S   UNL A   1      48.688  23.681  35.085  1.00  0.00     0.127 S 
ATOM     70  O   UNL A   1      47.921  22.502  34.687  1.00  0.00    -0.237 OA
ATOM     71  O   UNL A   1      50.136  23.477  35.145  1.00  0.00    -0.237 OA
ATOM     72  O   UNL A   1      48.138  24.433  36.205  1.00  0.00    -0.744 OA
ENDBRANCH  66  69
ENDBRANCH  39  62
ENDBRANCH  13  14
ENDBRANCH   6   8
ENDBRANCH   3   4
ENDBRANCH   2   3
ENDBRANCH   1   2
BRANCH   1  73
ATOM     73  C   UNL A   1      30.838  29.066  23.952  1.00  0.00     0.002 C 
BRANCH  73  74
ATOM     74  C   UNL A   1      30.143  27.709  23.837  1.00  0.00     0.021 C 
BRANCH  74  75
ATOM     75  C   UNL A   1      30.514  26.888  22.608  1.00  0.00     0.116 C 
BRANCH  75  76
ATOM     76  N   UNL A   1      31.846  27.168  22.090  1.00  0.00    -0.352 N 
ATOM     77  C   UNL A   1      32.936  26.320  22.042  1.00  0.00     0.255 C 
ATOM     78  H   UNL A   1      31.988  28.073  21.730  1.00  0.00     0.163 HD
ATOM     79  O   UNL A   1      34.013  26.699  21.594  1.00  0.00    -0.269 OA
BRANCH  77  80
ATOM     80  C   UNL A   1      32.824  24.975  22.652  1.00  0.00     0.082 A 
ATOM     81  C   UNL A   1      32.568  24.902  24.030  1.00  0.00     0.040 A 
ATOM     82  C   UNL A   1      32.820  23.813  21.874  1.00  0.00     0.128 A 
ATOM     83  C   UNL A   1      32.129  23.693  24.578  1.00  0.00     0.088 A 
ATOM     84  C   UNL A   1      32.309  22.636  22.402  1.00  0.00     0.048 A 
ATOM     85  C   UNL A   1      31.882  22.612  23.729  1.00  0.00     0.026 A 
BRANCH  82  86
ATOM     86  O   UNL A   1      33.244  23.844  20.577  1.00  0.00    -0.507 OA
ATOM     87  H   UNL A   1      33.835  23.189  20.261  1.00  0.00     0.293 HD
ENDBRANCH  82  86
BRANCH  83  88
ATOM     88  S   UNL A   1      31.748  23.607  26.315  1.00  0.00     0.261 S 
ATOM     89  O   UNL A   1      31.606  24.967  26.801  1.00  0.00    -0.201 OA
ATOM     90  O   UNL A   1      30.666  22.659  26.465  1.00  0.00    -0.201 OA
BRANCH  88  91
ATOM     91  N   UNL A   1      33.073  22.968  27.193  1.00  0.00    -0.280 N 
ATOM     92  H   UNL A   1      33.015  22.873  28.171  1.00  0.00     0.180 HD
BRANCH  91  93
ATOM     93  C   UNL A   1      34.262  22.574  26.503  1.00  0.00     0.050 A 
ATOM     94  C   UNL A   1      34.308  21.280  25.975  1.00  0.00     0.027 A 
ATOM     95  C   UNL A   1      35.385  23.401  26.442  1.00  0.00     0.047 A 
ATOM     96  C   UNL A   1      35.489  20.792  25.416  1.00  0.00     0.004 A 
ATOM     97  C   UNL A   1      36.560  22.909  25.866  1.00  0.00     0.043 A 
ATOM     98  C   UNL A   1      36.621  21.607  25.367  1.00  0.00     0.020 A 
ATOM     99  Cl  UNL A   1      37.965  23.901  25.809  1.00  0.00    -0.084 Cl
ENDBRANCH  91  93
ENDBRANCH  88  91
ENDBRANCH  83  88
ENDBRANCH  77  80
ENDBRANCH  75  76
ENDBRANCH  74  75
ENDBRANCH  73  74
ENDBRANCH   1  73
TORSDOF 20
ENDMDL
MODEL 2
REMARK VINA RESULT:     -11.2      5.017      8.589
REMARK SMILES O=C(NCCCCCCNC(=O)c1cc(S(=O)(=O)Nc2cccc(Cl)c2)ccc1O)c1ccc(-c2c3nc(c(-c4cccc(S(=O)(=O)[O-])c4F)c4ccc([nH]4)c(-c4cccc(S(=O)(=O)[O-])c4F)c4nc(c(-c5cccc(S(=O)(=O)[O-])c5F)c5ccc2[nH]5)C=C4)C=C3)cc1
REMARK SMILES IDX 6 1 5 2 4 3 3 4 1 5 2 6 31 8 32 9 93 10 33 11 92 12 34 13
REMARK SMILES IDX 35 14 36 15 86 16 37 17 91 18 85 19 87 20 38 21 90 22 84 23
REMARK SMILES IDX 83 24 39 26 71 27 51 28 70 29 52 30 55 31 69 32 88 33 53 34
REMARK SMILES IDX 54 35 68 37 89 38 56 39 40 40 41 41 49 42 42 43 44 44 50 45
REMARK SMILES IDX 43 46 45 47 46 48 47 49 48 50 72 51 73 52 81 53 74 54 76 55
REMARK SMILES IDX 82 56 75 57 77 58 78 59 79 60 80 61 57 62 58 63 66 64 59 65
REMARK SMILES IDX 61 66 67 67 60 68 62 69 63 70 64 71 65 72 7 73 8 74 9 75
REMARK SMILES IDX 10 76 11 77 12 79 13 80 14 81 29 82 15 83 28 84 27 85 30 86
REMARK SMILES IDX 16 88 17 89 18 90 19 91 20 93 21 94 26 95 22 96 24 97 23 98
REMARK SMILES IDX 25 99
REMARK H PARENT 3 7 87 25 55 36 10 78 30 87 19 92
REMARK Flexibility Score: inf
ROOT
ATOM      1  C   UNL A   1      37.219  21.239  24.373  1.00  0.00     0.002 C 
ENDROOT
BRANCH   1   2
ATOM      2  C   UNL A   1      37.949  19.996  24.890  1.00  0.00     0.021 C 
BRANCH   2   3
ATOM      3  C   UNL A   1      38.938  20.244  26.025  1.00  0.00     0.116 C 
BRANCH   3   4
ATOM      4  N   UNL A   1      40.075  19.340  25.976  1.00  0.00    -0.352 N 
ATOM      5  O   UNL A   1      42.234  18.733  25.821  1.00  0.00    -0.269 OA
ATOM      6  C   UNL A   1      41.417  19.614  26.069  1.00  0.00     0.251 C 
ATOM      7  H   UNL A   1      39.848  18.389  25.860  1.00  0.00     0.163 HD
BRANCH   6   8
ATOM      8  C   UNL A   1      41.874  20.972  26.441  1.00  0.00     0.039 A 
ATOM      9  C   UNL A   1      42.215  21.281  27.761  1.00  0.00     0.014 A 
ATOM     10  C   UNL A   1      41.987  21.941  25.442  1.00  0.00     0.014 A 
ATOM     11  C   UNL A   1      42.552  22.589  28.104  1.00  0.00     0.010 A 
ATOM     12  C   UNL A   1      42.392  23.235  25.777  1.00  0.00     0.010 A 
ATOM     13  C   UNL A   1      42.649  23.577  27.113  1.00  0.00    -0.014 A 
BRANCH  13  14
ATOM     14  C   UNL A   1      43.072  24.956  27.465  1.00  0.00     0.031 A 
ATOM     15  C   UNL A   1      42.105  25.917  28.100  1.00  0.00     0.074 A 
ATOM     16  C   UNL A   1      44.317  25.360  27.150  1.00  0.00     0.049 A 
ATOM     17  N   UNL A   1      42.272  27.180  28.395  1.00  0.00    -0.248 NA
ATOM     18  C   UNL A   1      40.772  25.392  28.438  1.00  0.00     0.031 C 
ATOM     19  C   UNL A   1      45.330  24.528  26.499  1.00  0.00     0.029 A 
ATOM     20  N   UNL A   1      44.932  26.578  27.302  1.00  0.00    -0.354 N 
ATOM     21  C   UNL A   1      41.057  27.616  28.908  1.00  0.00     0.074 A 
ATOM     22  C   UNL A   1      40.158  26.481  28.882  1.00  0.00     0.031 C 
ATOM     23  C   UNL A   1      46.435  25.260  26.294  1.00  0.00     0.029 A 
ATOM     24  C   UNL A   1      46.190  26.624  26.752  1.00  0.00     0.049 A 
ATOM     25  H   UNL A   1      44.512  27.342  27.760  1.00  0.00     0.167 HD
ATOM     26  C   UNL A   1      40.725  28.846  29.368  1.00  0.00     0.034 A 
ATOM     27  C   UNL A   1      47.044  27.656  26.599  1.00  0.00     0.034 A 
ATOM     28  C   UNL A   1      41.631  29.962  29.412  1.00  0.00     0.049 A 
ATOM     29  C   UNL A   1      46.656  29.008  27.122  1.00  0.00     0.074 A 
ATOM     30  C   UNL A   1      41.413  31.229  29.923  1.00  0.00     0.029 A 
ATOM     31  N   UNL A   1      42.926  29.951  28.913  1.00  0.00    -0.354 N 
ATOM     32  N   UNL A   1      45.548  29.371  27.722  1.00  0.00    -0.248 NA
ATOM     33  C   UNL A   1      47.644  30.086  26.982  1.00  0.00     0.031 C 
ATOM     34  C   UNL A   1      42.564  31.993  29.707  1.00  0.00     0.029 A 
ATOM     35  C   UNL A   1      43.514  31.191  29.093  1.00  0.00     0.049 A 
ATOM     36  H   UNL A   1      43.362  29.176  28.492  1.00  0.00     0.167 HD
ATOM     37  C   UNL A   1      45.718  30.707  28.063  1.00  0.00     0.074 A 
ATOM     38  C   UNL A   1      47.042  31.087  27.610  1.00  0.00     0.031 C 
ATOM     39  C   UNL A   1      44.853  31.542  28.688  1.00  0.00     0.034 A 
BRANCH  26  40
ATOM     40  C   UNL A   1      39.321  29.045  29.883  1.00  0.00     0.023 A 
ATOM     41  C   UNL A   1      39.001  28.666  31.203  1.00  0.00     0.012 A 
ATOM     42  C   UNL A   1      38.333  29.647  29.080  1.00  0.00     0.148 A 
ATOM     43  C   UNL A   1      37.710  28.844  31.700  1.00  0.00     0.002 A 
ATOM     44  C   UNL A   1      37.059  29.862  29.597  1.00  0.00     0.091 A 
ATOM     45  F   UNL A   1      38.647  29.983  27.821  1.00  0.00    -0.205 F 
ATOM     46  C   UNL A   1      36.743  29.449  30.901  1.00  0.00     0.022 A 
BRANCH  44  47
ATOM     47  S   UNL A   1      35.774  30.706  28.669  1.00  0.00     0.127 S 
ATOM     48  O   UNL A   1      35.005  31.339  29.740  1.00  0.00    -0.237 OA
ATOM     49  O   UNL A   1      36.546  31.634  27.842  1.00  0.00    -0.237 OA
ATOM     50  O   UNL A   1      35.078  29.667  27.922  1.00  0.00    -0.744 OA
ENDBRANCH  44  47
ENDBRANCH  26  40
BRANCH  27  51
ATOM     51  C   UNL A   1      48.362  27.417  25.948  1.00  0.00     0.023 A 
ATOM     52  C   UNL A   1      49.438  26.940  26.720  1.00  0.00     0.012 A 
ATOM     53  C   UNL A   1      48.527  27.583  24.559  1.00  0.00     0.148 A 
ATOM     54  C   UNL A   1      50.662  26.645  26.119  1.00  0.00     0.002 A 
ATOM     55  C   UNL A   1      49.731  27.233  23.960  1.00  0.00     0.091 A 
ATOM     56  F   UNL A   1      47.489  28.044  23.847  1.00  0.00    -0.205 F 
ATOM     57  C   UNL A   1      50.805  26.778  24.741  1.00  0.00     0.022 A 
BRANCH  55  58
ATOM     58  S   UNL A   1      49.963  27.238  22.179  1.00  0.00     0.127 S 
ATOM     59  O   UNL A   1      51.334  26.749  22.055  1.00  0.00    -0.237 OA
ATOM     60  O   UNL A   1      48.931  26.297  21.741  1.00  0.00    -0.237 OA
ATOM     61  O   UNL A   1      49.744  28.613  21.755  1.00  0.00    -0.744 OA
ENDBRANCH  55  58
ENDBRANCH  27  51
BRANCH  39  62
ATOM     62  C   UNL A   1      45.316  32.945  28.979  1.00  0.00     0.023 A 
ATOM     63  C   UNL A   1      46.026  33.223  30.163  1.00  0.00     0.012 A 
ATOM     64  C   UNL A   1      45.134  33.965  28.023  1.00  0.00     0.148 A 
ATOM     65  C   UNL A   1      46.531  34.500  30.400  1.00  0.00     0.002 A 
ATOM     66  C   UNL A   1      45.682  35.222  28.245  1.00  0.00     0.091 A 
ATOM     67  F   UNL A   1      44.437  33.682  26.912  1.00  0.00    -0.205 F 
ATOM     68  C   UNL A   1      46.373  35.494  29.436  1.00  0.00     0.022 A 
BRANCH  66  69
ATOM     69  S   UNL A   1      45.614  36.532  27.017  1.00  0.00     0.127 S 
ATOM     70  O   UNL A   1      46.240  35.891  25.862  1.00  0.00    -0.237 OA
ATOM     71  O   UNL A   1      44.174  36.758  26.884  1.00  0.00    -0.237 OA
ATOM     72  O   UNL A   1      46.351  37.653  27.583  1.00  0.00    -0.744 OA
ENDBRANCH  66  69
ENDBRANCH  39  62
ENDBRANCH  13  14
ENDBRANCH   6   8
ENDBRANCH   3   4
ENDBRANCH   2   3
ENDBRANCH   1   2
BRANCH   1  73
ATOM     73  C   UNL A   1      35.722  21.316  24.689  1.00  0.00     0.002 C 
BRANCH  73  74
ATOM     74  C   UNL A   1      35.363  21.545  26.157  1.00  0.00     0.021 C 
BRANCH  74  75
ATOM     75  C   UNL A   1      35.048  22.988  26.533  1.00  0.00     0.116 C 
BRANCH  75  76
ATOM     76  N   UNL A   1      33.816  23.145  27.294  1.00  0.00    -0.352 N 
ATOM     77  C   UNL A   1      32.516  23.112  26.825  1.00  0.00     0.255 C 
ATOM     78  H   UNL A   1      33.921  23.292  28.261  1.00  0.00     0.163 HD
ATOM     79  O   UNL A   1      31.566  23.281  27.582  1.00  0.00    -0.269 OA
BRANCH  77  80
ATOM     80  C   UNL A   1      32.285  22.990  25.367  1.00  0.00     0.082 A 
ATOM     81  C   UNL A   1      32.477  24.133  24.577  1.00  0.00     0.040 A 
ATOM     82  C   UNL A   1      32.031  21.754  24.765  1.00  0.00     0.128 A 
ATOM     83  C   UNL A   1      32.597  23.992  23.191  1.00  0.00     0.088 A 
ATOM     84  C   UNL A   1      32.229  21.603  23.399  1.00  0.00     0.048 A 
ATOM     85  C   UNL A   1      32.600  22.710  22.637  1.00  0.00     0.026 A 
BRANCH  82  86
ATOM     86  O   UNL A   1      31.663  20.676  25.517  1.00  0.00    -0.507 OA
ATOM     87  H   UNL A   1      32.298  20.029  25.753  1.00  0.00     0.293 HD
ENDBRANCH  82  86
BRANCH  83  88
ATOM     88  S   UNL A   1      32.898  25.431  22.187  1.00  0.00     0.261 S 
ATOM     89  O   UNL A   1      33.733  26.334  22.955  1.00  0.00    -0.201 OA
ATOM     90  O   UNL A   1      33.328  24.959  20.889  1.00  0.00    -0.201 OA
BRANCH  88  91
ATOM     91  N   UNL A   1      31.445  26.299  21.926  1.00  0.00    -0.280 N 
ATOM     92  H   UNL A   1      30.853  26.056  21.178  1.00  0.00     0.180 HD
BRANCH  91  93
ATOM     93  C   UNL A   1      31.091  27.377  22.797  1.00  0.00     0.050 A 
ATOM     94  C   UNL A   1      30.351  28.434  22.257  1.00  0.00     0.027 A 
ATOM     95  C   UNL A   1      31.551  27.439  24.115  1.00  0.00     0.047 A 
ATOM     96  C   UNL A   1      30.098  29.574  23.019  1.00  0.00     0.004 A 
ATOM     97  C   UNL A   1      31.278  28.579  24.876  1.00  0.00     0.043 A 
ATOM     98  C   UNL A   1      30.568  29.650  24.330  1.00  0.00     0.020 A 
ATOM     99  Cl  UNL A   1      31.861  28.688  26.491  1.00  0.00    -0.084 Cl
ENDBRANCH  91  93
ENDBRANCH  88  91
ENDBRANCH  83  88
ENDBRANCH  77  80
ENDBRANCH  75  76
ENDBRANCH  74  75
ENDBRANCH  73  74
ENDBRANCH   1  73
TORSDOF 20
ENDMDL
MODEL 3
REMARK VINA RESULT:     -11.0      1.936      3.318
REMARK SMILES O=C(NCCCCCCNC(=O)c1cc(S(=O)(=O)Nc2cccc(Cl)c2)ccc1O)c1ccc(-c2c3nc(c(-c4cccc(S(=O)(=O)[O-])c4F)c4ccc([nH]4)c(-c4cccc(S(=O)(=O)[O-])c4F)c4nc(c(-c5cccc(S(=O)(=O)[O-])c5F)c5ccc2[nH]5)C=C4)C=C3)cc1
REMARK SMILES IDX 6 1 5 2 4 3 3 4 1 5 2 6 31 8 32 9 93 10 33 11 92 12 34 13
REMARK SMILES IDX 35 14 36 15 86 16 37 17 91 18 85 19 87 20 38 21 90 22 84 23
REMARK SMILES IDX 83 24 39 26 71 27 51 28 70 29 52 30 55 31 69 32 88 33 53 34
REMARK SMILES IDX 54 35 68 37 89 38 56 39 40 40 41 41 49 42 42 43 44 44 50 45
REMARK SMILES IDX 43 46 45 47 46 48 47 49 48 50 72 51 73 52 81 53 74 54 76 55
REMARK SMILES IDX 82 56 75 57 77 58 78 59 79 60 80 61 57 62 58 63 66 64 59 65
REMARK SMILES IDX 61 66 67 67 60 68 62 69 63 70 64 71 65 72 7 73 8 74 9 75
REMARK SMILES IDX 10 76 11 77 12 79 13 80 14 81 29 82 15 83 28 84 27 85 30 86
REMARK SMILES IDX 16 88 17 89 18 90 19 91 20 93 21 94 26 95 22 96 24 97 23 98
REMARK SMILES IDX 25 99
REMARK H PARENT 3 7 87 25 55 36 10 78 30 87 19 92
REMARK Flexibility Score: inf
ROOT
ATOM      1  C   UNL A   1      32.216  28.198  27.193  1.00  0.00     0.002 C 
ENDROOT
BRANCH   1   2
ATOM      2  C   UNL A   1      33.734  28.392  27.244  1.00  0.00     0.021 C 
BRANCH   2   3
ATOM      3  C   UNL A   1      34.272  29.563  26.427  1.00  0.00     0.116 C 
BRANCH   3   4
ATOM      4  N   UNL A   1      34.030  30.843  27.069  1.00  0.00    -0.352 N 
ATOM      5  O   UNL A   1      34.208  32.440  28.642  1.00  0.00    -0.269 OA
ATOM      6  C   UNL A   1      34.680  31.431  28.125  1.00  0.00     0.251 C 
ATOM      7  H   UNL A   1      33.289  31.368  26.688  1.00  0.00     0.163 HD
BRANCH   6   8
ATOM      8  C   UNL A   1      35.928  30.836  28.655  1.00  0.00     0.039 A 
ATOM      9  C   UNL A   1      37.174  31.185  28.125  1.00  0.00     0.014 A 
ATOM     10  C   UNL A   1      35.845  29.933  29.716  1.00  0.00     0.014 A 
ATOM     11  C   UNL A   1      38.325  30.543  28.575  1.00  0.00     0.010 A 
ATOM     12  C   UNL A   1      37.008  29.341  30.212  1.00  0.00     0.010 A 
ATOM     13  C   UNL A   1      38.253  29.618  29.627  1.00  0.00    -0.014 A 
BRANCH  13  14
ATOM     14  C   UNL A   1      39.486  28.979  30.154  1.00  0.00     0.031 A 
ATOM     15  C   UNL A   1      40.169  29.522  31.379  1.00  0.00     0.074 A 
ATOM     16  C   UNL A   1      40.024  27.943  29.483  1.00  0.00     0.049 A 
ATOM     17  N   UNL A   1      41.295  29.148  31.928  1.00  0.00    -0.248 NA
ATOM     18  C   UNL A   1      39.505  30.639  32.070  1.00  0.00     0.031 C 
ATOM     19  C   UNL A   1      39.470  27.355  28.263  1.00  0.00     0.029 A 
ATOM     20  N   UNL A   1      41.170  27.223  29.712  1.00  0.00    -0.354 N 
ATOM     21  C   UNL A   1      41.502  30.008  33.000  1.00  0.00     0.074 A 
ATOM     22  C   UNL A   1      40.383  30.927  33.022  1.00  0.00     0.031 C 
ATOM     23  C   UNL A   1      40.283  26.375  27.841  1.00  0.00     0.029 A 
ATOM     24  C   UNL A   1      41.437  26.300  28.730  1.00  0.00     0.049 A 
ATOM     25  H   UNL A   1      41.744  27.357  30.501  1.00  0.00     0.167 HD
ATOM     26  C   UNL A   1      42.523  30.023  33.888  1.00  0.00     0.034 A 
ATOM     27  C   UNL A   1      42.508  25.503  28.542  1.00  0.00     0.034 A 
ATOM     28  C   UNL A   1      43.619  29.090  33.873  1.00  0.00     0.049 A 
ATOM     29  C   UNL A   1      43.625  25.532  29.544  1.00  0.00     0.074 A 
ATOM     30  C   UNL A   1      44.667  28.978  34.770  1.00  0.00     0.029 A 
ATOM     31  N   UNL A   1      43.818  28.118  32.904  1.00  0.00    -0.354 N 
ATOM     32  N   UNL A   1      43.741  26.266  30.624  1.00  0.00    -0.248 NA
ATOM     33  C   UNL A   1      44.742  24.604  29.324  1.00  0.00     0.031 C 
ATOM     34  C   UNL A   1      45.514  27.958  34.327  1.00  0.00     0.029 A 
ATOM     35  C   UNL A   1      44.976  27.409  33.173  1.00  0.00     0.049 A 
ATOM     36  H   UNL A   1      43.223  27.956  32.137  1.00  0.00     0.167 HD
ATOM     37  C   UNL A   1      44.924  25.865  31.233  1.00  0.00     0.074 A 
ATOM     38  C   UNL A   1      45.483  24.815  30.405  1.00  0.00     0.031 C 
ATOM     39  C   UNL A   1      45.494  26.329  32.371  1.00  0.00     0.034 A 
BRANCH  26  40
ATOM     40  C   UNL A   1      42.495  31.073  34.971  1.00  0.00     0.023 A 
ATOM     41  C   UNL A   1      41.930  30.767  36.226  1.00  0.00     0.012 A 
ATOM     42  C   UNL A   1      43.064  32.344  34.763  1.00  0.00     0.148 A 
ATOM     43  C   UNL A   1      41.895  31.722  37.242  1.00  0.00     0.002 A 
ATOM     44  C   UNL A   1      43.065  33.277  35.795  1.00  0.00     0.091 A 
ATOM     45  F   UNL A   1      43.578  32.627  33.558  1.00  0.00    -0.205 F 
ATOM     46  C   UNL A   1      42.470  32.972  37.030  1.00  0.00     0.022 A 
BRANCH  44  47
ATOM     47  S   UNL A   1      43.853  34.884  35.639  1.00  0.00     0.127 S 
ATOM     48  O   UNL A   1      45.230  34.507  35.325  1.00  0.00    -0.237 OA
ATOM     49  O   UNL A   1      43.116  35.484  34.526  1.00  0.00    -0.237 OA
ATOM     50  O   UNL A   1      43.656  35.548  36.920  1.00  0.00    -0.744 OA
ENDBRANCH  44  47
ENDBRANCH  26  40
BRANCH  27  51
ATOM     51  C   UNL A   1      42.535  24.589  27.366  1.00  0.00     0.023 A 
ATOM     52  C   UNL A   1      43.157  25.011  26.176  1.00  0.00     0.012 A 
ATOM     53  C   UNL A   1      42.023  23.280  27.452  1.00  0.00     0.148 A 
ATOM     54  C   UNL A   1      43.254  24.148  25.084  1.00  0.00     0.002 A 
ATOM     55  C   UNL A   1      42.173  22.408  26.381  1.00  0.00     0.091 A 
ATOM     56  F   UNL A   1      41.431  22.904  28.594  1.00  0.00    -0.205 F 
ATOM     57  C   UNL A   1      42.776  22.844  25.191  1.00  0.00     0.022 A 
BRANCH  55  58
ATOM     58  S   UNL A   1      41.716  20.673  26.474  1.00  0.00     0.127 S 
ATOM     59  O   UNL A   1      42.390  20.124  25.300  1.00  0.00    -0.237 OA
ATOM     60  O   UNL A   1      42.296  20.280  27.759  1.00  0.00    -0.237 OA
ATOM     61  O   UNL A   1      40.261  20.645  26.436  1.00  0.00    -0.744 OA
ENDBRANCH  55  58
ENDBRANCH  27  51
BRANCH  39  62
ATOM     62  C   UNL A   1      46.770  25.676  32.835  1.00  0.00     0.023 A 
ATOM     63  C   UNL A   1      48.015  26.181  32.412  1.00  0.00     0.012 A 
ATOM     64  C   UNL A   1      46.729  24.627  33.776  1.00  0.00     0.148 A 
ATOM     65  C   UNL A   1      49.201  25.637  32.903  1.00  0.00     0.002 A 
ATOM     66  C   UNL A   1      47.914  24.123  34.296  1.00  0.00     0.091 A 
ATOM     67  F   UNL A   1      45.532  24.150  34.149  1.00  0.00    -0.205 F 
ATOM     68  C   UNL A   1      49.150  24.620  33.854  1.00  0.00     0.022 A 
BRANCH  66  69
ATOM     69  S   UNL A   1      47.944  22.884  35.597  1.00  0.00     0.127 S 
ATOM     70  O   UNL A   1      47.221  23.563  36.671  1.00  0.00    -0.237 OA
ATOM     71  O   UNL A   1      47.221  21.771  34.982  1.00  0.00    -0.237 OA
ATOM     72  O   UNL A   1      49.350  22.616  35.866  1.00  0.00    -0.744 OA
ENDBRANCH  66  69
ENDBRANCH  39  62
ENDBRANCH  13  14
ENDBRANCH   6   8
ENDBRANCH   3   4
ENDBRANCH   2   3
ENDBRANCH   1   2
BRANCH   1  73
ATOM     73  C   UNL A   1      31.732  26.820  26.732  1.00  0.00     0.002 C 
BRANCH  73  74
ATOM     74  C   UNL A   1      30.506  26.817  25.818  1.00  0.00     0.021 C 
BRANCH  74  75
ATOM     75  C   UNL A   1      30.060  25.443  25.332  1.00  0.00     0.116 C 
BRANCH  75  76
ATOM     76  N   UNL A   1      29.567  24.573  26.390  1.00  0.00    -0.352 N 
ATOM     77  C   UNL A   1      30.163  23.437  26.904  1.00  0.00     0.255 C 
ATOM     78  H   UNL A   1      28.702  24.824  26.789  1.00  0.00     0.163 HD
ATOM     79  O   UNL A   1      29.619  22.783  27.788  1.00  0.00    -0.269 OA
BRANCH  77  80
ATOM     80  C   UNL A   1      31.417  22.945  26.288  1.00  0.00     0.082 A 
ATOM     81  C   UNL A   1      31.529  23.013  24.892  1.00  0.00     0.040 A 
ATOM     82  C   UNL A   1      32.516  22.566  27.065  1.00  0.00     0.128 A 
ATOM     83  C   UNL A   1      32.789  22.879  24.302  1.00  0.00     0.088 A 
ATOM     84  C   UNL A   1      33.777  22.513  26.487  1.00  0.00     0.048 A 
ATOM     85  C   UNL A   1      33.913  22.761  25.122  1.00  0.00     0.026 A 
BRANCH  82  86
ATOM     86  O   UNL A   1      32.373  22.321  28.400  1.00  0.00    -0.507 OA
ATOM     87  H   UNL A   1      31.761  22.818  28.905  1.00  0.00     0.293 HD
ENDBRANCH  82  86
BRANCH  83  88
ATOM     88  S   UNL A   1      32.948  23.019  22.534  1.00  0.00     0.261 S 
ATOM     89  O   UNL A   1      34.318  23.403  22.247  1.00  0.00    -0.201 OA
ATOM     90  O   UNL A   1      32.389  21.815  21.962  1.00  0.00    -0.201 OA
BRANCH  88  91
ATOM     91  N   UNL A   1      32.001  24.318  21.944  1.00  0.00    -0.280 N 
ATOM     92  H   UNL A   1      31.242  24.141  21.343  1.00  0.00     0.180 HD
BRANCH  91  93
ATOM     93  C   UNL A   1      32.313  25.661  22.326  1.00  0.00     0.050 A 
ATOM     94  C   UNL A   1      33.476  25.870  23.074  1.00  0.00     0.027 A 
ATOM     95  C   UNL A   1      31.444  26.722  22.059  1.00  0.00     0.047 A 
ATOM     96  C   UNL A   1      33.758  27.134  23.593  1.00  0.00     0.004 A 
ATOM     97  C   UNL A   1      31.744  27.988  22.570  1.00  0.00     0.043 A 
ATOM     98  C   UNL A   1      32.887  28.195  23.345  1.00  0.00     0.020 A 
ATOM     99  Cl  UNL A   1      30.672  29.303  22.280  1.00  0.00    -0.084 Cl
ENDBRANCH  91  93
ENDBRANCH  88  91
ENDBRANCH  83  88
ENDBRANCH  77  80
ENDBRANCH  75  76
ENDBRANCH  74  75
ENDBRANCH  73  74
ENDBRANCH   1  73
TORSDOF 20
ENDMDL
