MODEL 1
REMARK VINA RESULT:     -11.0      0.000      0.000
REMARK SMILES COc1cc(/C=C/C(=O)NCCCCCCNC(=O)c2ccc(-c3c4nc(c(-c5cccc(S(=O)(=O)[O-])c5F)c5ccc([nH]5)c(-c5cccc(S(=O)(=O)[O-])c5F)c5nc(c(-c6cccc(S(=O)(=O)[O-])c6F)c6ccc3[nH]6)C=C5)C=C4)cc2)cc(OC)c1O
REMARK SMILES IDX 14 1 13 2 12 3 11 4 10 5 8 6 9 7 7 9 6 10 5 11 3 12 4 13
REMARK SMILES IDX 87 14 84 15 83 16 2 17 1 18 88 19 85 21 86 22 15 23 16 24
REMARK SMILES IDX 17 25 18 26 19 28 20 29 21 30 82 31 22 32 81 33 23 34 24 35
REMARK SMILES IDX 25 36 75 37 26 38 80 39 74 40 76 41 27 42 79 43 73 44 72 45
REMARK SMILES IDX 28 47 60 48 40 49 59 50 41 51 44 52 58 53 77 54 42 55 43 56
REMARK SMILES IDX 57 58 78 59 45 60 29 61 30 62 38 63 31 64 33 65 39 66 32 67
REMARK SMILES IDX 34 68 35 69 36 70 37 71 61 72 62 73 70 74 63 75 65 76 71 77
REMARK SMILES IDX 64 78 66 79 67 80 68 81 69 82 46 83 47 84 55 85 48 86 50 87
REMARK SMILES IDX 56 88 49 89 51 90 52 91 53 92 54 93
REMARK H PARENT 10 8 88 20 17 27 76 46 44 57
REMARK Flexibility Score: inf
ROOT
ATOM      1  C   UNL A   1      31.407  27.926  25.732  1.00  0.00     0.002 C 
ENDROOT
BRANCH   1   2
ATOM      2  C   UNL A   1      31.155  29.028  24.695  1.00  0.00     0.002 C 
BRANCH   2   3
ATOM      3  C   UNL A   1      30.153  28.658  23.591  1.00  0.00     0.021 C 
BRANCH   3   4
ATOM      4  C   UNL A   1      30.616  27.493  22.716  1.00  0.00     0.116 C 
BRANCH   4   5
ATOM      5  N   UNL A   1      31.917  27.785  22.140  1.00  0.00    -0.353 N 
ATOM      6  C   UNL A   1      33.125  27.191  22.305  1.00  0.00     0.243 C 
ATOM      7  O   UNL A   1      34.092  27.600  21.664  1.00  0.00    -0.270 OA
ATOM      8  H   UNL A   1      31.924  28.551  21.521  1.00  0.00     0.163 HD
BRANCH   6   9
ATOM      9  C   UNL A   1      33.290  25.999  23.167  1.00  0.00     0.072 C 
ATOM     10  C   UNL A   1      34.050  25.929  24.270  1.00  0.00     0.014 C 
BRANCH  10  11
ATOM     11  C   UNL A   1      34.198  24.712  25.080  1.00  0.00    -0.018 A 
ATOM     12  C   UNL A   1      35.541  22.877  25.964  1.00  0.00     0.165 A 
ATOM     13  C   UNL A   1      35.388  23.980  25.113  1.00  0.00     0.058 A 
ATOM     14  C   UNL A   1      34.484  22.512  26.815  1.00  0.00     0.200 A 
ATOM     15  C   UNL A   1      33.271  23.215  26.775  1.00  0.00     0.165 A 
ATOM     16  C   UNL A   1      33.146  24.311  25.908  1.00  0.00     0.058 A 
BRANCH  12  17
ATOM     17  O   UNL A   1      36.789  22.317  25.882  1.00  0.00    -0.493 OA
ATOM     18  C   UNL A   1      37.106  21.520  24.750  1.00  0.00     0.278 C 
ENDBRANCH  12  17
BRANCH  14  19
ATOM     19  O   UNL A   1      34.669  21.530  27.745  1.00  0.00    -0.502 OA
ATOM     20  H   UNL A   1      35.228  21.680  28.483  1.00  0.00     0.293 HD
ENDBRANCH  14  19
BRANCH  15  21
ATOM     21  O   UNL A   1      32.146  23.021  27.531  1.00  0.00    -0.493 OA
ATOM     22  C   UNL A   1      30.875  23.032  26.900  1.00  0.00     0.278 C 
ENDBRANCH  15  21
ENDBRANCH  10  11
ENDBRANCH   6   9
ENDBRANCH   4   5
ENDBRANCH   3   4
ENDBRANCH   2   3
ENDBRANCH   1   2
BRANCH   1  23
ATOM     23  C   UNL A   1      32.524  28.227  26.737  1.00  0.00     0.021 C 
BRANCH  23  24
ATOM     24  C   UNL A   1      33.679  29.045  26.167  1.00  0.00     0.116 C 
BRANCH  24  25
ATOM     25  N   UNL A   1      33.617  30.434  26.596  1.00  0.00    -0.352 N 
ATOM     26  C   UNL A   1      34.387  31.091  27.523  1.00  0.00     0.251 C 
ATOM     27  H   UNL A   1      32.924  30.979  26.160  1.00  0.00     0.163 HD
ATOM     28  O   UNL A   1      34.046  32.194  27.935  1.00  0.00    -0.269 OA
BRANCH  26  29
ATOM     29  C   UNL A   1      35.625  30.459  28.028  1.00  0.00     0.039 A 
ATOM     30  C   UNL A   1      36.793  30.547  27.266  1.00  0.00     0.014 A 
ATOM     31  C   UNL A   1      35.627  29.768  29.244  1.00  0.00     0.014 A 
ATOM     32  C   UNL A   1      37.976  29.985  27.750  1.00  0.00     0.010 A 
ATOM     33  C   UNL A   1      36.822  29.270  29.756  1.00  0.00     0.010 A 
ATOM     34  C   UNL A   1      38.006  29.366  29.011  1.00  0.00    -0.014 A 
BRANCH  34  35
ATOM     35  C   UNL A   1      39.269  28.822  29.573  1.00  0.00     0.031 A 
ATOM     36  C   UNL A   1      39.911  29.475  30.768  1.00  0.00     0.074 A 
ATOM     37  C   UNL A   1      39.882  27.795  28.953  1.00  0.00     0.049 A 
ATOM     38  N   UNL A   1      41.037  29.177  31.362  1.00  0.00    -0.248 NA
ATOM     39  C   UNL A   1      39.209  30.628  31.355  1.00  0.00     0.031 C 
ATOM     40  C   UNL A   1      39.399  27.129  27.742  1.00  0.00     0.029 A 
ATOM     41  N   UNL A   1      41.058  27.149  29.240  1.00  0.00    -0.354 N 
ATOM     42  C   UNL A   1      41.198  30.123  32.368  1.00  0.00     0.074 A 
ATOM     43  C   UNL A   1      40.070  31.025  32.281  1.00  0.00     0.031 C 
ATOM     44  C   UNL A   1      40.268  26.168  27.392  1.00  0.00     0.029 A 
ATOM     45  C   UNL A   1      41.383  26.168  28.333  1.00  0.00     0.049 A 
ATOM     46  H   UNL A   1      41.616  27.367  30.021  1.00  0.00     0.167 HD
ATOM     47  C   UNL A   1      42.178  30.216  33.298  1.00  0.00     0.034 A 
ATOM     48  C   UNL A   1      42.462  25.364  28.261  1.00  0.00     0.034 A 
ATOM     49  C   UNL A   1      43.276  29.293  33.404  1.00  0.00     0.049 A 
ATOM     50  C   UNL A   1      43.520  25.466  29.327  1.00  0.00     0.074 A 
ATOM     51  C   UNL A   1      44.272  29.246  34.363  1.00  0.00     0.029 A 
ATOM     52  N   UNL A   1      43.530  28.259  32.516  1.00  0.00    -0.354 N 
ATOM     53  N   UNL A   1      43.572  26.263  30.365  1.00  0.00    -0.248 NA
ATOM     54  C   UNL A   1      44.651  24.531  29.231  1.00  0.00     0.031 C 
ATOM     55  C   UNL A   1      45.142  28.200  34.040  1.00  0.00     0.029 A 
ATOM     56  C   UNL A   1      44.672  27.577  32.896  1.00  0.00     0.049 A 
ATOM     57  H   UNL A   1      42.978  28.042  31.730  1.00  0.00     0.167 HD
ATOM     58  C   UNL A   1      44.718  25.905  31.066  1.00  0.00     0.074 A 
ATOM     59  C   UNL A   1      45.320  24.803  30.343  1.00  0.00     0.031 C 
ATOM     60  C   UNL A   1      45.233  26.449  32.196  1.00  0.00     0.034 A 
BRANCH  47  61
ATOM     61  C   UNL A   1      42.080  31.329  34.310  1.00  0.00     0.023 A 
ATOM     62  C   UNL A   1      42.955  32.430  34.217  1.00  0.00     0.012 A 
ATOM     63  C   UNL A   1      41.093  31.315  35.315  1.00  0.00     0.148 A 
ATOM     64  C   UNL A   1      42.877  33.481  35.131  1.00  0.00     0.002 A 
ATOM     65  C   UNL A   1      40.990  32.387  36.194  1.00  0.00     0.091 A 
ATOM     66  F   UNL A   1      40.283  30.250  35.401  1.00  0.00    -0.205 F 
ATOM     67  C   UNL A   1      41.890  33.464  36.112  1.00  0.00     0.022 A 
BRANCH  65  68
ATOM     68  S   UNL A   1      39.702  32.498  37.441  1.00  0.00     0.127 S 
ATOM     69  O   UNL A   1      38.862  31.351  37.099  1.00  0.00    -0.237 OA
ATOM     70  O   UNL A   1      40.462  32.347  38.682  1.00  0.00    -0.237 OA
ATOM     71  O   UNL A   1      39.083  33.803  37.263  1.00  0.00    -0.744 OA
ENDBRANCH  65  68
ENDBRANCH  47  61
BRANCH  48  72
ATOM     72  C   UNL A   1      42.561  24.346  27.177  1.00  0.00     0.023 A 
ATOM     73  C   UNL A   1      43.268  24.659  26.000  1.00  0.00     0.012 A 
ATOM     74  C   UNL A   1      41.990  23.067  27.317  1.00  0.00     0.148 A 
ATOM     75  C   UNL A   1      43.379  23.726  24.968  1.00  0.00     0.002 A 
ATOM     76  C   UNL A   1      42.151  22.124  26.309  1.00  0.00     0.091 A 
ATOM     77  F   UNL A   1      41.312  22.794  28.440  1.00  0.00    -0.205 F 
ATOM     78  C   UNL A   1      42.829  22.457  25.126  1.00  0.00     0.022 A 
BRANCH  76  79
ATOM     79  S   UNL A   1      41.592  20.425  26.480  1.00  0.00     0.127 S 
ATOM     80  O   UNL A   1      42.392  19.744  25.465  1.00  0.00    -0.237 OA
ATOM     81  O   UNL A   1      41.963  20.124  27.863  1.00  0.00    -0.237 OA
ATOM     82  O   UNL A   1      40.157  20.457  26.236  1.00  0.00    -0.744 OA
ENDBRANCH  76  79
ENDBRANCH  48  72
BRANCH  60  83
ATOM     83  C   UNL A   1      46.497  25.843  32.749  1.00  0.00     0.023 A 
ATOM     84  C   UNL A   1      47.750  26.367  32.372  1.00  0.00     0.012 A 
ATOM     85  C   UNL A   1      46.439  24.802  33.696  1.00  0.00     0.148 A 
ATOM     86  C   UNL A   1      48.926  25.843  32.905  1.00  0.00     0.002 A 
ATOM     87  C   UNL A   1      47.614  24.318  34.260  1.00  0.00     0.091 A 
ATOM     88  F   UNL A   1      45.239  24.303  34.027  1.00  0.00    -0.205 F 
ATOM     89  C   UNL A   1      48.858  24.828  33.856  1.00  0.00     0.022 A 
BRANCH  87  90
ATOM     90  S   UNL A   1      47.618  23.081  35.564  1.00  0.00     0.127 S 
ATOM     91  O   UNL A   1      49.049  22.825  35.726  1.00  0.00    -0.237 OA
ATOM     92  O   UNL A   1      46.996  23.800  36.675  1.00  0.00    -0.237 OA
ATOM     93  O   UNL A   1      46.836  21.961  35.057  1.00  0.00    -0.744 OA
ENDBRANCH  87  90
ENDBRANCH  60  83
ENDBRANCH  34  35
ENDBRANCH  26  29
ENDBRANCH  24  25
ENDBRANCH  23  24
ENDBRANCH   1  23
TORSDOF 20
ENDMDL
MODEL 2
REMARK VINA RESULT:     -10.6      4.857      9.973
REMARK SMILES COc1cc(/C=C/C(=O)NCCCCCCNC(=O)c2ccc(-c3c4nc(c(-c5cccc(S(=O)(=O)[O-])c5F)c5ccc([nH]5)c(-c5cccc(S(=O)(=O)[O-])c5F)c5nc(c(-c6cccc(S(=O)(=O)[O-])c6F)c6ccc3[nH]6)C=C5)C=C4)cc2)cc(OC)c1O
REMARK SMILES IDX 14 1 13 2 12 3 11 4 10 5 8 6 9 7 7 9 6 10 5 11 3 12 4 13
REMARK SMILES IDX 87 14 84 15 83 16 2 17 1 18 88 19 85 21 86 22 15 23 16 24
REMARK SMILES IDX 17 25 18 26 19 28 20 29 21 30 82 31 22 32 81 33 23 34 24 35
REMARK SMILES IDX 25 36 75 37 26 38 80 39 74 40 76 41 27 42 79 43 73 44 72 45
REMARK SMILES IDX 28 47 60 48 40 49 59 50 41 51 44 52 58 53 77 54 42 55 43 56
REMARK SMILES IDX 57 58 78 59 45 60 29 61 30 62 38 63 31 64 33 65 39 66 32 67
REMARK SMILES IDX 34 68 35 69 36 70 37 71 61 72 62 73 70 74 63 75 65 76 71 77
REMARK SMILES IDX 64 78 66 79 67 80 68 81 69 82 46 83 47 84 55 85 48 86 50 87
REMARK SMILES IDX 56 88 49 89 51 90 52 91 53 92 54 93
REMARK H PARENT 10 8 88 20 17 27 76 46 44 57
REMARK Flexibility Score: inf
ROOT
ATOM      1  C   UNL A   1      35.082  23.785  23.771  1.00  0.00     0.002 C 
ENDROOT
BRANCH   1   2
ATOM      2  C   UNL A   1      33.938  22.800  23.499  1.00  0.00     0.002 C 
BRANCH   2   3
ATOM      3  C   UNL A   1      33.343  22.139  24.751  1.00  0.00     0.021 C 
BRANCH   3   4
ATOM      4  C   UNL A   1      33.445  23.009  26.004  1.00  0.00     0.116 C 
BRANCH   4   5
ATOM      5  N   UNL A   1      32.156  23.079  26.670  1.00  0.00    -0.353 N 
ATOM      6  C   UNL A   1      31.145  23.979  26.576  1.00  0.00     0.243 C 
ATOM      7  O   UNL A   1      30.113  23.798  27.220  1.00  0.00    -0.270 OA
ATOM      8  H   UNL A   1      31.985  22.344  27.301  1.00  0.00     0.163 HD
BRANCH   6   9
ATOM      9  C   UNL A   1      31.215  25.127  25.643  1.00  0.00     0.072 C 
ATOM     10  C   UNL A   1      30.238  25.521  24.812  1.00  0.00     0.014 C 
BRANCH  10  11
ATOM     11  C   UNL A   1      30.366  26.656  23.887  1.00  0.00    -0.018 A 
ATOM     12  C   UNL A   1      29.412  28.528  22.648  1.00  0.00     0.165 A 
ATOM     13  C   UNL A   1      29.260  27.391  23.453  1.00  0.00     0.058 A 
ATOM     14  C   UNL A   1      30.704  28.947  22.286  1.00  0.00     0.200 A 
ATOM     15  C   UNL A   1      31.825  28.206  22.686  1.00  0.00     0.165 A 
ATOM     16  C   UNL A   1      31.640  27.069  23.487  1.00  0.00     0.058 A 
BRANCH  12  17
ATOM     17  O   UNL A   1      28.217  29.134  22.360  1.00  0.00    -0.493 OA
ATOM     18  C   UNL A   1      27.088  28.833  23.166  1.00  0.00     0.278 C 
ENDBRANCH  12  17
BRANCH  14  19
ATOM     19  O   UNL A   1      30.873  30.128  21.620  1.00  0.00    -0.502 OA
ATOM     20  H   UNL A   1      31.256  30.134  20.764  1.00  0.00     0.293 HD
ENDBRANCH  14  19
BRANCH  15  21
ATOM     21  O   UNL A   1      33.149  28.463  22.449  1.00  0.00    -0.493 OA
ATOM     22  C   UNL A   1      34.008  28.739  23.544  1.00  0.00     0.278 C 
ENDBRANCH  15  21
ENDBRANCH  10  11
ENDBRANCH   6   9
ENDBRANCH   4   5
ENDBRANCH   3   4
ENDBRANCH   2   3
ENDBRANCH   1   2
BRANCH   1  23
ATOM     23  C   UNL A   1      36.439  23.135  24.063  1.00  0.00     0.021 C 
BRANCH  23  24
ATOM     24  C   UNL A   1      37.049  23.528  25.405  1.00  0.00     0.116 C 
BRANCH  24  25
ATOM     25  N   UNL A   1      38.057  22.571  25.837  1.00  0.00    -0.352 N 
ATOM     26  C   UNL A   1      39.281  22.801  26.413  1.00  0.00     0.251 C 
ATOM     27  H   UNL A   1      37.828  21.624  25.695  1.00  0.00     0.163 HD
ATOM     28  O   UNL A   1      40.102  21.893  26.495  1.00  0.00    -0.269 OA
BRANCH  26  29
ATOM     29  C   UNL A   1      39.609  24.148  26.926  1.00  0.00     0.039 A 
ATOM     30  C   UNL A   1      39.315  24.458  28.257  1.00  0.00     0.014 A 
ATOM     31  C   UNL A   1      40.189  25.107  26.091  1.00  0.00     0.014 A 
ATOM     32  C   UNL A   1      39.652  25.716  28.763  1.00  0.00     0.010 A 
ATOM     33  C   UNL A   1      40.587  26.333  26.616  1.00  0.00     0.010 A 
ATOM     34  C   UNL A   1      40.316  26.653  27.954  1.00  0.00    -0.014 A 
BRANCH  34  35
ATOM     35  C   UNL A   1      40.743  27.970  28.492  1.00  0.00     0.031 A 
ATOM     36  C   UNL A   1      42.204  28.270  28.691  1.00  0.00     0.074 A 
ATOM     37  C   UNL A   1      39.811  28.861  28.883  1.00  0.00     0.049 A 
ATOM     38  N   UNL A   1      42.764  29.338  29.198  1.00  0.00    -0.248 NA
ATOM     39  C   UNL A   1      43.160  27.224  28.293  1.00  0.00     0.031 C 
ATOM     40  C   UNL A   1      38.363  28.654  28.813  1.00  0.00     0.029 A 
ATOM     41  N   UNL A   1      39.941  30.107  29.442  1.00  0.00    -0.354 N 
ATOM     42  C   UNL A   1      44.130  29.081  29.213  1.00  0.00     0.074 A 
ATOM     43  C   UNL A   1      44.312  27.742  28.696  1.00  0.00     0.031 C 
ATOM     44  C   UNL A   1      37.740  29.735  29.307  1.00  0.00     0.029 A 
ATOM     45  C   UNL A   1      38.740  30.699  29.755  1.00  0.00     0.049 A 
ATOM     46  H   UNL A   1      40.812  30.536  29.604  1.00  0.00     0.167 HD
ATOM     47  C   UNL A   1      45.143  29.895  29.594  1.00  0.00     0.034 A 
ATOM     48  C   UNL A   1      38.473  31.881  30.345  1.00  0.00     0.034 A 
ATOM     49  C   UNL A   1      44.959  31.239  30.071  1.00  0.00     0.049 A 
ATOM     50  C   UNL A   1      39.618  32.780  30.728  1.00  0.00     0.074 A 
ATOM     51  C   UNL A   1      45.923  32.176  30.398  1.00  0.00     0.029 A 
ATOM     52  N   UNL A   1      43.728  31.837  30.298  1.00  0.00    -0.354 N 
ATOM     53  N   UNL A   1      40.906  32.583  30.584  1.00  0.00    -0.248 NA
ATOM     54  C   UNL A   1      39.271  34.079  31.321  1.00  0.00     0.031 C 
ATOM     55  C   UNL A   1      45.275  33.332  30.848  1.00  0.00     0.029 A 
ATOM     56  C   UNL A   1      43.908  33.125  30.773  1.00  0.00     0.049 A 
ATOM     57  H   UNL A   1      42.855  31.408  30.144  1.00  0.00     0.167 HD
ATOM     58  C   UNL A   1      41.522  33.745  31.035  1.00  0.00     0.074 A 
ATOM     59  C   UNL A   1      40.463  34.650  31.437  1.00  0.00     0.031 C 
ATOM     60  C   UNL A   1      42.844  34.032  31.122  1.00  0.00     0.034 A 
BRANCH  47  61
ATOM     61  C   UNL A   1      46.550  29.369  29.463  1.00  0.00     0.023 A 
ATOM     62  C   UNL A   1      47.123  28.646  30.529  1.00  0.00     0.012 A 
ATOM     63  C   UNL A   1      47.284  29.543  28.274  1.00  0.00     0.148 A 
ATOM     64  C   UNL A   1      48.417  28.136  30.430  1.00  0.00     0.002 A 
ATOM     65  C   UNL A   1      48.556  28.992  28.164  1.00  0.00     0.091 A 
ATOM     66  F   UNL A   1      46.732  30.251  27.278  1.00  0.00    -0.205 F 
ATOM     67  C   UNL A   1      49.129  28.300  29.245  1.00  0.00     0.022 A 
BRANCH  65  68
ATOM     68  S   UNL A   1      49.522  29.079  26.652  1.00  0.00     0.127 S 
ATOM     69  O   UNL A   1      48.615  28.459  25.687  1.00  0.00    -0.237 OA
ATOM     70  O   UNL A   1      49.700  30.521  26.483  1.00  0.00    -0.237 OA
ATOM     71  O   UNL A   1      50.750  28.342  26.918  1.00  0.00    -0.744 OA
ENDBRANCH  65  68
ENDBRANCH  47  61
BRANCH  48  72
ATOM     72  C   UNL A   1      37.060  32.309  30.547  1.00  0.00     0.023 A 
ATOM     73  C   UNL A   1      36.481  32.196  31.826  1.00  0.00     0.012 A 
ATOM     74  C   UNL A   1      36.302  32.855  29.494  1.00  0.00     0.148 A 
ATOM     75  C   UNL A   1      35.161  32.590  32.045  1.00  0.00     0.002 A 
ATOM     76  C   UNL A   1      35.006  33.296  29.732  1.00  0.00     0.091 A 
ATOM     77  F   UNL A   1      36.868  32.943  28.282  1.00  0.00    -0.205 F 
ATOM     78  C   UNL A   1      34.427  33.149  31.003  1.00  0.00     0.022 A 
BRANCH  76  79
ATOM     79  S   UNL A   1      34.033  34.148  28.486  1.00  0.00     0.127 S 
ATOM     80  O   UNL A   1      32.795  34.426  29.210  1.00  0.00    -0.237 OA
ATOM     81  O   UNL A   1      34.861  35.322  28.207  1.00  0.00    -0.237 OA
ATOM     82  O   UNL A   1      33.918  33.216  27.372  1.00  0.00    -0.744 OA
ENDBRANCH  76  79
ENDBRANCH  48  72
BRANCH  60  83
ATOM     83  C   UNL A   1      43.230  35.393  31.642  1.00  0.00     0.023 A 
ATOM     84  C   UNL A   1      43.300  35.619  33.031  1.00  0.00     0.012 A 
ATOM     85  C   UNL A   1      43.593  36.424  30.753  1.00  0.00     0.148 A 
ATOM     86  C   UNL A   1      43.694  36.861  33.527  1.00  0.00     0.002 A 
ATOM     87  C   UNL A   1      44.032  37.644  31.256  1.00  0.00     0.091 A 
ATOM     88  F   UNL A   1      43.501  36.196  29.435  1.00  0.00    -0.205 F 
ATOM     89  C   UNL A   1      44.070  37.868  32.641  1.00  0.00     0.022 A 
BRANCH  87  90
ATOM     90  S   UNL A   1      44.630  38.964  30.194  1.00  0.00     0.127 S 
ATOM     91  O   UNL A   1      43.383  39.476  29.626  1.00  0.00    -0.237 OA
ATOM     92  O   UNL A   1      45.279  39.861  31.150  1.00  0.00    -0.237 OA
ATOM     93  O   UNL A   1      45.538  38.335  29.244  1.00  0.00    -0.744 OA
ENDBRANCH  87  90
ENDBRANCH  60  83
ENDBRANCH  34  35
ENDBRANCH  26  29
ENDBRANCH  24  25
ENDBRANCH  23  24
ENDBRANCH   1  23
TORSDOF 20
ENDMDL
MODEL 3
REMARK VINA RESULT:     -10.4      1.588      2.309
REMARK SMILES COc1cc(/C=C/C(=O)NCCCCCCNC(=O)c2ccc(-c3c4nc(c(-c5cccc(S(=O)(=O)[O-])c5F)c5ccc([nH]5)c(-c5cccc(S(=O)(=O)[O-])c5F)c5nc(c(-c6cccc(S(=O)(=O)[O-])c6F)c6ccc3[nH]6)C=C5)C=C4)cc2)cc(OC)c1O
REMARK SMILES IDX 14 1 13 2 12 3 11 4 10 5 8 6 9 7 7 9 6 10 5 11 3 12 4 13
REMARK SMILES IDX 87 14 84 15 83 16 2 17 1 18 88 19 85 21 86 22 15 23 16 24
REMARK SMILES IDX 17 25 18 26 19 28 20 29 21 30 82 31 22 32 81 33 23 34 24 35
REMARK SMILES IDX 25 36 75 37 26 38 80 39 74 40 76 41 27 42 79 43 73 44 72 45
REMARK SMILES IDX 28 47 60 48 40 49 59 50 41 51 44 52 58 53 77 54 42 55 43 56
REMARK SMILES IDX 57 58 78 59 45 60 29 61 30 62 38 63 31 64 33 65 39 66 32 67
REMARK SMILES IDX 34 68 35 69 36 70 37 71 61 72 62 73 70 74 63 75 65 76 71 77
REMARK SMILES IDX 64 78 66 79 67 80 68 81 69 82 46 83 47 84 55 85 48 86 50 87
REMARK SMILES IDX 56 88 49 89 51 90 52 91 53 92 54 93
REMARK H PARENT 10 8 88 20 17 27 76 46 44 57
REMARK Flexibility Score: inf
ROOT
ATOM      1  C   UNL A   1      31.618  27.647  26.467  1.00  0.00     0.002 C 
ENDROOT
BRANCH   1   2
ATOM      2  C   UNL A   1      31.313  27.844  24.976  1.00  0.00     0.002 C 
BRANCH   2   3
ATOM      3  C   UNL A   1      32.195  28.881  24.268  1.00  0.00     0.021 C 
BRANCH   3   4
ATOM      4  C   UNL A   1      33.587  28.356  23.915  1.00  0.00     0.116 C 
BRANCH   4   5
ATOM      5  N   UNL A   1      33.580  27.775  22.584  1.00  0.00    -0.353 N 
ATOM      6  C   UNL A   1      33.504  26.486  22.168  1.00  0.00     0.243 C 
ATOM      7  O   UNL A   1      33.471  26.241  20.963  1.00  0.00    -0.270 OA
ATOM      8  H   UNL A   1      33.640  28.433  21.854  1.00  0.00     0.163 HD
BRANCH   6   9
ATOM      9  C   UNL A   1      33.365  25.369  23.130  1.00  0.00     0.072 C 
ATOM     10  C   UNL A   1      33.804  24.115  22.944  1.00  0.00     0.014 C 
BRANCH  10  11
ATOM     11  C   UNL A   1      33.620  23.035  23.923  1.00  0.00    -0.018 A 
ATOM     12  C   UNL A   1      32.201  21.654  25.347  1.00  0.00     0.165 A 
ATOM     13  C   UNL A   1      32.375  22.747  24.488  1.00  0.00     0.058 A 
ATOM     14  C   UNL A   1      33.296  20.819  25.629  1.00  0.00     0.200 A 
ATOM     15  C   UNL A   1      34.560  21.109  25.097  1.00  0.00     0.165 A 
ATOM     16  C   UNL A   1      34.704  22.214  24.244  1.00  0.00     0.058 A 
BRANCH  12  17
ATOM     17  O   UNL A   1      30.904  21.513  25.766  1.00  0.00    -0.493 OA
ATOM     18  C   UNL A   1      30.307  22.570  26.503  1.00  0.00     0.278 C 
ENDBRANCH  12  17
BRANCH  14  19
ATOM     19  O   UNL A   1      33.109  19.674  26.350  1.00  0.00    -0.502 OA
ATOM     20  H   UNL A   1      32.514  19.018  26.043  1.00  0.00     0.293 HD
ENDBRANCH  14  19
BRANCH  15  21
ATOM     21  O   UNL A   1      35.729  20.410  25.242  1.00  0.00    -0.493 OA
ATOM     22  C   UNL A   1      36.946  20.995  24.804  1.00  0.00     0.278 C 
ENDBRANCH  15  21
ENDBRANCH  10  11
ENDBRANCH   6   9
ENDBRANCH   4   5
ENDBRANCH   3   4
ENDBRANCH   2   3
ENDBRANCH   1   2
BRANCH   1  23
ATOM     23  C   UNL A   1      31.866  28.939  27.252  1.00  0.00     0.021 C 
BRANCH  23  24
ATOM     24  C   UNL A   1      33.337  29.239  27.522  1.00  0.00     0.116 C 
BRANCH  24  25
ATOM     25  N   UNL A   1      33.650  30.643  27.297  1.00  0.00    -0.352 N 
ATOM     26  C   UNL A   1      34.753  31.360  27.688  1.00  0.00     0.251 C 
ATOM     27  H   UNL A   1      32.973  31.150  26.794  1.00  0.00     0.163 HD
ATOM     28  O   UNL A   1      34.745  32.584  27.623  1.00  0.00    -0.269 OA
BRANCH  26  29
ATOM     29  C   UNL A   1      35.947  30.650  28.195  1.00  0.00     0.039 A 
ATOM     30  C   UNL A   1      37.172  30.834  27.549  1.00  0.00     0.014 A 
ATOM     31  C   UNL A   1      35.852  29.792  29.295  1.00  0.00     0.014 A 
ATOM     32  C   UNL A   1      38.314  30.197  28.040  1.00  0.00     0.010 A 
ATOM     33  C   UNL A   1      37.002  29.214  29.824  1.00  0.00     0.010 A 
ATOM     34  C   UNL A   1      38.243  29.404  29.197  1.00  0.00    -0.014 A 
BRANCH  34  35
ATOM     35  C   UNL A   1      39.457  28.773  29.775  1.00  0.00     0.031 A 
ATOM     36  C   UNL A   1      40.097  29.347  31.010  1.00  0.00     0.074 A 
ATOM     37  C   UNL A   1      40.033  27.735  29.135  1.00  0.00     0.049 A 
ATOM     38  N   UNL A   1      41.187  28.968  31.625  1.00  0.00    -0.248 NA
ATOM     39  C   UNL A   1      39.441  30.515  31.619  1.00  0.00     0.031 C 
ATOM     40  C   UNL A   1      39.551  27.139  27.887  1.00  0.00     0.029 A 
ATOM     41  N   UNL A   1      41.163  27.016  29.432  1.00  0.00    -0.354 N 
ATOM     42  C   UNL A   1      41.368  29.867  32.669  1.00  0.00     0.074 A 
ATOM     43  C   UNL A   1      40.294  30.832  32.583  1.00  0.00     0.031 C 
ATOM     44  C   UNL A   1      40.378  26.145  27.527  1.00  0.00     0.029 A 
ATOM     45  C   UNL A   1      41.463  26.051  28.499  1.00  0.00     0.049 A 
ATOM     46  H   UNL A   1      41.709  27.177  30.235  1.00  0.00     0.167 HD
ATOM     47  C   UNL A   1      42.323  29.874  33.628  1.00  0.00     0.034 A 
ATOM     48  C   UNL A   1      42.498  25.192  28.428  1.00  0.00     0.034 A 
ATOM     49  C   UNL A   1      43.367  28.889  33.732  1.00  0.00     0.049 A 
ATOM     50  C   UNL A   1      43.528  25.199  29.526  1.00  0.00     0.074 A 
ATOM     51  C   UNL A   1      44.329  28.755  34.716  1.00  0.00     0.029 A 
ATOM     52  N   UNL A   1      43.591  27.875  32.814  1.00  0.00    -0.354 N 
ATOM     53  N   UNL A   1      43.591  25.956  30.594  1.00  0.00    -0.248 NA
ATOM     54  C   UNL A   1      44.609  24.208  29.428  1.00  0.00     0.031 C 
ATOM     55  C   UNL A   1      45.151  27.674  34.380  1.00  0.00     0.029 A 
ATOM     56  C   UNL A   1      44.683  27.118  33.201  1.00  0.00     0.049 A 
ATOM     57  H   UNL A   1      43.052  27.715  32.005  1.00  0.00     0.167 HD
ATOM     58  C   UNL A   1      44.695  25.512  31.313  1.00  0.00     0.074 A 
ATOM     59  C   UNL A   1      45.258  24.403  30.568  1.00  0.00     0.031 C 
ATOM     60  C   UNL A   1      45.204  25.987  32.476  1.00  0.00     0.034 A 
BRANCH  47  61
ATOM     61  C   UNL A   1      42.255  30.955  34.677  1.00  0.00     0.023 A 
ATOM     62  C   UNL A   1      41.570  30.709  35.884  1.00  0.00     0.012 A 
ATOM     63  C   UNL A   1      42.908  32.189  34.494  1.00  0.00     0.148 A 
ATOM     64  C   UNL A   1      41.502  31.686  36.877  1.00  0.00     0.002 A 
ATOM     65  C   UNL A   1      42.876  33.142  35.506  1.00  0.00     0.091 A 
ATOM     66  F   UNL A   1      43.537  32.414  33.331  1.00  0.00    -0.205 F 
ATOM     67  C   UNL A   1      42.163  32.897  36.692  1.00  0.00     0.022 A 
BRANCH  65  68
ATOM     68  S   UNL A   1      43.762  34.701  35.399  1.00  0.00     0.127 S 
ATOM     69  O   UNL A   1      43.142  35.311  34.223  1.00  0.00    -0.237 OA
ATOM     70  O   UNL A   1      43.418  35.339  36.669  1.00  0.00    -0.237 OA
ATOM     71  O   UNL A   1      45.169  34.353  35.254  1.00  0.00    -0.744 OA
ENDBRANCH  65  68
ENDBRANCH  47  61
BRANCH  48  72
ATOM     72  C   UNL A   1      42.575  24.209  27.311  1.00  0.00     0.023 A 
ATOM     73  C   UNL A   1      43.263  24.557  26.132  1.00  0.00     0.012 A 
ATOM     74  C   UNL A   1      42.002  22.928  27.420  1.00  0.00     0.148 A 
ATOM     75  C   UNL A   1      43.353  23.657  25.070  1.00  0.00     0.002 A 
ATOM     76  C   UNL A   1      42.142  22.017  26.380  1.00  0.00     0.091 A 
ATOM     77  F   UNL A   1      41.341  22.622  28.546  1.00  0.00    -0.205 F 
ATOM     78  C   UNL A   1      42.802  22.385  25.197  1.00  0.00     0.022 A 
BRANCH  76  79
ATOM     79  S   UNL A   1      41.580  20.316  26.506  1.00  0.00     0.127 S 
ATOM     80  O   UNL A   1      42.240  19.873  27.732  1.00  0.00    -0.237 OA
ATOM     81  O   UNL A   1      40.130  20.484  26.612  1.00  0.00    -0.237 OA
ATOM     82  O   UNL A   1      42.021  19.664  25.280  1.00  0.00    -0.744 OA
ENDBRANCH  76  79
ENDBRANCH  48  72
BRANCH  60  83
ATOM     83  C   UNL A   1      46.416  25.293  33.042  1.00  0.00     0.023 A 
ATOM     84  C   UNL A   1      47.704  25.798  32.770  1.00  0.00     0.012 A 
ATOM     85  C   UNL A   1      46.274  24.186  33.901  1.00  0.00     0.148 A 
ATOM     86  C   UNL A   1      48.833  25.191  33.317  1.00  0.00     0.002 A 
ATOM     87  C   UNL A   1      47.401  23.617  34.484  1.00  0.00     0.091 A 
ATOM     88  F   UNL A   1      45.043  23.709  34.133  1.00  0.00    -0.205 F 
ATOM     89  C   UNL A   1      48.681  24.109  34.182  1.00  0.00     0.022 A 
BRANCH  87  90
ATOM     90  S   UNL A   1      47.296  22.285  35.685  1.00  0.00     0.127 S 
ATOM     91  O   UNL A   1      46.939  21.148  34.838  1.00  0.00    -0.237 OA
ATOM     92  O   UNL A   1      48.656  22.244  36.222  1.00  0.00    -0.237 OA
ATOM     93  O   UNL A   1      46.280  22.692  36.647  1.00  0.00    -0.744 OA
ENDBRANCH  87  90
ENDBRANCH  60  83
ENDBRANCH  34  35
ENDBRANCH  26  29
ENDBRANCH  24  25
ENDBRANCH  23  24
ENDBRANCH   1  23
TORSDOF 20
ENDMDL
