MODEL 1
REMARK VINA RESULT:     -12.4      0.000      0.000
REMARK SMILES O=C(NCCCCCCNC(=O)[C@@H](Cc1c[nH]c2ccccc12)NC(=O)c1ccc(F)cc1F)c1ccc(-c2c3nc(c(-c4cccc(S(=O)(=O)[O-])c4F)c4ccc([nH]4)c(-c4cccc(S(=O)(=O)[O-])c4F)c4nc(c(-c5cccc(S(=O)(=O)[O-])c5F)c5ccc2[nH]5)C=C4)C=C3)cc1
REMARK SMILES IDX 6 1 5 2 4 3 3 4 1 5 2 6 35 8 36 9 97 10 37 11 96 12 38 13
REMARK SMILES IDX 39 14 40 15 90 16 41 17 95 18 89 19 91 20 42 21 94 22 88 23
REMARK SMILES IDX 87 24 43 26 75 27 55 28 74 29 56 30 59 31 73 32 92 33 57 34
REMARK SMILES IDX 58 35 72 37 93 38 60 39 44 40 45 41 53 42 46 43 48 44 54 45
REMARK SMILES IDX 47 46 49 47 50 48 51 49 52 50 76 51 77 52 85 53 78 54 80 55
REMARK SMILES IDX 86 56 79 57 81 58 82 59 83 60 84 61 61 62 62 63 70 64 63 65
REMARK SMILES IDX 65 66 71 67 64 68 66 69 67 70 68 71 69 72 7 73 8 74 9 75
REMARK SMILES IDX 10 76 11 77 12 79 13 80 14 81 15 82 16 83 23 84 17 85 18 86
REMARK SMILES IDX 22 87 19 89 21 90 20 91 24 92 25 93 26 95 27 96 28 97 33 98
REMARK SMILES IDX 29 99 32 100 34 101 30 102 31 103
REMARK H PARENT 3 7 91 25 59 36 10 78 17 88 24 94
REMARK Flexibility Score: inf
ROOT
ATOM      1  C   UNL A   1      32.673  28.426  24.155  1.00  0.00     0.002 C 
ENDROOT
BRANCH   1   2
ATOM      2  C   UNL A   1      32.797  27.843  25.564  1.00  0.00     0.021 C 
BRANCH   2   3
ATOM      3  C   UNL A   1      33.938  28.410  26.404  1.00  0.00     0.116 C 
BRANCH   3   4
ATOM      4  N   UNL A   1      33.686  29.774  26.833  1.00  0.00    -0.352 N 
ATOM      5  O   UNL A   1      33.928  31.634  28.077  1.00  0.00    -0.269 OA
ATOM      6  C   UNL A   1      34.409  30.578  27.685  1.00  0.00     0.251 C 
ATOM      7  H   UNL A   1      32.875  30.187  26.458  1.00  0.00     0.163 HD
BRANCH   6   8
ATOM      8  C   UNL A   1      35.755  30.155  28.142  1.00  0.00     0.039 A 
ATOM      9  C   UNL A   1      36.876  30.336  27.329  1.00  0.00     0.014 A 
ATOM     10  C   UNL A   1      35.903  29.602  29.417  1.00  0.00     0.014 A 
ATOM     11  C   UNL A   1      38.110  29.831  27.727  1.00  0.00     0.010 A 
ATOM     12  C   UNL A   1      37.164  29.179  29.854  1.00  0.00     0.010 A 
ATOM     13  C   UNL A   1      38.275  29.264  29.003  1.00  0.00    -0.014 A 
BRANCH  13  14
ATOM     14  C   UNL A   1      39.639  28.865  29.443  1.00  0.00     0.031 A 
ATOM     15  C   UNL A   1      40.361  29.586  30.548  1.00  0.00     0.074 A 
ATOM     16  C   UNL A   1      40.221  27.810  28.835  1.00  0.00     0.049 A 
ATOM     17  N   UNL A   1      41.523  29.308  31.085  1.00  0.00    -0.248 NA
ATOM     18  C   UNL A   1      39.707  30.771  31.125  1.00  0.00     0.031 C 
ATOM     19  C   UNL A   1      39.649  27.072  27.705  1.00  0.00     0.029 A 
ATOM     20  N   UNL A   1      41.410  27.172  29.078  1.00  0.00    -0.354 N 
ATOM     21  C   UNL A   1      41.754  30.293  32.038  1.00  0.00     0.074 A 
ATOM     22  C   UNL A   1      40.615  31.186  31.999  1.00  0.00     0.031 C 
ATOM     23  C   UNL A   1      40.468  26.065  27.375  1.00  0.00     0.029 A 
ATOM     24  C   UNL A   1      41.646  26.112  28.232  1.00  0.00     0.049 A 
ATOM     25  H   UNL A   1      42.035  27.445  29.787  1.00  0.00     0.167 HD
ATOM     26  C   UNL A   1      42.807  30.428  32.881  1.00  0.00     0.034 A 
ATOM     27  C   UNL A   1      42.697  25.275  28.146  1.00  0.00     0.034 A 
ATOM     28  C   UNL A   1      43.926  29.522  32.934  1.00  0.00     0.049 A 
ATOM     29  C   UNL A   1      43.827  25.426  29.122  1.00  0.00     0.074 A 
ATOM     30  C   UNL A   1      45.018  29.551  33.785  1.00  0.00     0.029 A 
ATOM     31  N   UNL A   1      44.102  28.427  32.102  1.00  0.00    -0.354 N 
ATOM     32  N   UNL A   1      43.958  26.285  30.104  1.00  0.00    -0.248 NA
ATOM     33  C   UNL A   1      44.938  24.472  29.001  1.00  0.00     0.031 C 
ATOM     34  C   UNL A   1      45.859  28.480  33.460  1.00  0.00     0.029 A 
ATOM     35  C   UNL A   1      45.282  27.774  32.418  1.00  0.00     0.049 A 
ATOM     36  H   UNL A   1      43.480  28.154  31.390  1.00  0.00     0.167 HD
ATOM     37  C   UNL A   1      45.159  25.969  30.724  1.00  0.00     0.074 A 
ATOM     38  C   UNL A   1      45.693  24.811  30.036  1.00  0.00     0.031 C 
ATOM     39  C   UNL A   1      45.781  26.599  31.752  1.00  0.00     0.034 A 
BRANCH  26  40
ATOM     40  C   UNL A   1      42.782  31.568  33.868  1.00  0.00     0.023 A 
ATOM     41  C   UNL A   1      43.222  32.843  33.457  1.00  0.00     0.012 A 
ATOM     42  C   UNL A   1      42.236  31.409  35.157  1.00  0.00     0.148 A 
ATOM     43  C   UNL A   1      43.138  33.936  34.320  1.00  0.00     0.002 A 
ATOM     44  C   UNL A   1      42.121  32.511  35.998  1.00  0.00     0.091 A 
ATOM     45  F   UNL A   1      41.835  30.186  35.535  1.00  0.00    -0.205 F 
ATOM     46  C   UNL A   1      42.578  33.773  35.584  1.00  0.00     0.022 A 
BRANCH  44  47
ATOM     47  S   UNL A   1      41.347  32.425  37.618  1.00  0.00     0.127 S 
ATOM     48  O   UNL A   1      40.010  31.937  37.280  1.00  0.00    -0.237 OA
ATOM     49  O   UNL A   1      42.193  31.452  38.311  1.00  0.00    -0.237 OA
ATOM     50  O   UNL A   1      41.400  33.774  38.161  1.00  0.00    -0.744 OA
ENDBRANCH  44  47
ENDBRANCH  26  40
BRANCH  27  51
ATOM     51  C   UNL A   1      42.700  24.196  27.118  1.00  0.00     0.023 A 
ATOM     52  C   UNL A   1      43.358  24.403  25.891  1.00  0.00     0.012 A 
ATOM     53  C   UNL A   1      42.089  22.952  27.368  1.00  0.00     0.148 A 
ATOM     54  C   UNL A   1      43.381  23.400  24.920  1.00  0.00     0.002 A 
ATOM     55  C   UNL A   1      42.173  21.937  26.425  1.00  0.00     0.091 A 
ATOM     56  F   UNL A   1      41.448  22.779  28.533  1.00  0.00    -0.205 F 
ATOM     57  C   UNL A   1      42.802  22.164  25.191  1.00  0.00     0.022 A 
BRANCH  55  58
ATOM     58  S   UNL A   1      41.589  20.275  26.776  1.00  0.00     0.127 S 
ATOM     59  O   UNL A   1      42.476  19.867  27.859  1.00  0.00    -0.237 OA
ATOM     60  O   UNL A   1      40.200  20.512  27.173  1.00  0.00    -0.237 OA
ATOM     61  O   UNL A   1      41.729  19.550  25.520  1.00  0.00    -0.744 OA
ENDBRANCH  55  58
ENDBRANCH  27  51
BRANCH  39  62
ATOM     62  C   UNL A   1      47.105  26.038  32.196  1.00  0.00     0.023 A 
ATOM     63  C   UNL A   1      48.287  26.452  31.546  1.00  0.00     0.012 A 
ATOM     64  C   UNL A   1      47.188  25.133  33.270  1.00  0.00     0.148 A 
ATOM     65  C   UNL A   1      49.524  25.941  31.932  1.00  0.00     0.002 A 
ATOM     66  C   UNL A   1      48.431  24.662  33.679  1.00  0.00     0.091 A 
ATOM     67  F   UNL A   1      46.053  24.732  33.861  1.00  0.00    -0.205 F 
ATOM     68  C   UNL A   1      49.598  25.055  33.003  1.00  0.00     0.022 A 
BRANCH  66  69
ATOM     69  S   UNL A   1      48.622  23.584  35.103  1.00  0.00     0.127 S 
ATOM     70  O   UNL A   1      48.318  22.275  34.528  1.00  0.00    -0.237 OA
ATOM     71  O   UNL A   1      50.027  23.781  35.460  1.00  0.00    -0.237 OA
ATOM     72  O   UNL A   1      47.675  24.071  36.098  1.00  0.00    -0.744 OA
ENDBRANCH  66  69
ENDBRANCH  39  62
ENDBRANCH  13  14
ENDBRANCH   6   8
ENDBRANCH   3   4
ENDBRANCH   2   3
ENDBRANCH   1   2
BRANCH   1  73
ATOM     73  C   UNL A   1      31.498  27.908  23.321  1.00  0.00     0.002 C 
BRANCH  73  74
ATOM     74  C   UNL A   1      30.269  27.476  24.120  1.00  0.00     0.021 C 
BRANCH  74  75
ATOM     75  C   UNL A   1      29.932  25.987  24.074  1.00  0.00     0.116 C 
BRANCH  75  76
ATOM     76  N   UNL A   1      30.210  25.382  25.361  1.00  0.00    -0.354 N 
ATOM     77  C   UNL A   1      30.915  24.267  25.687  1.00  0.00     0.242 C 
ATOM     78  H   UNL A   1      29.822  25.859  26.130  1.00  0.00     0.163 HD
ATOM     79  O   UNL A   1      30.630  23.735  26.768  1.00  0.00    -0.273 OA
BRANCH  77  80
ATOM     80  C   UNL A   1      31.972  23.599  24.774  1.00  0.00     0.176 C 
BRANCH  80  81
ATOM     81  C   UNL A   1      31.685  22.133  24.404  1.00  0.00     0.072 C 
BRANCH  81  82
ATOM     82  C   UNL A   1      32.723  21.104  24.739  1.00  0.00    -0.020 A 
ATOM     83  C   UNL A   1      33.672  21.170  25.743  1.00  0.00     0.087 A 
ATOM     84  C   UNL A   1      32.873  19.815  24.125  1.00  0.00     0.003 A 
ATOM     85  N   UNL A   1      34.418  20.021  25.718  1.00  0.00    -0.361 N 
ATOM     86  C   UNL A   1      33.969  19.188  24.721  1.00  0.00     0.046 A 
ATOM     87  C   UNL A   1      32.199  19.138  23.087  1.00  0.00     0.010 A 
ATOM     88  H   UNL A   1      35.166  19.820  26.326  1.00  0.00     0.166 HD
ATOM     89  C   UNL A   1      34.451  17.942  24.302  1.00  0.00     0.026 A 
ATOM     90  C   UNL A   1      32.672  17.895  22.649  1.00  0.00     0.001 A 
ATOM     91  C   UNL A   1      33.790  17.313  23.243  1.00  0.00     0.002 A 
ENDBRANCH  81  82
ENDBRANCH  80  81
BRANCH  80  92
ATOM     92  N   UNL A   1      32.459  24.412  23.654  1.00  0.00    -0.340 N 
ATOM     93  C   UNL A   1      33.741  24.691  23.252  1.00  0.00     0.254 C 
ATOM     94  H   UNL A   1      31.754  24.821  23.102  1.00  0.00     0.164 HD
ATOM     95  O   UNL A   1      33.930  25.514  22.360  1.00  0.00    -0.269 OA
BRANCH  93  96
ATOM     96  C   UNL A   1      34.899  23.990  23.843  1.00  0.00     0.075 A 
ATOM     97  C   UNL A   1      35.583  22.993  23.133  1.00  0.00     0.020 A 
ATOM     98  C   UNL A   1      35.370  24.385  25.098  1.00  0.00     0.138 A 
ATOM     99  C   UNL A   1      36.683  22.356  23.713  1.00  0.00     0.040 A 
ATOM    100  C   UNL A   1      36.480  23.768  25.670  1.00  0.00     0.079 A 
ATOM    101  F   UNL A   1      34.754  25.352  25.794  1.00  0.00    -0.206 F 
ATOM    102  C   UNL A   1      37.119  22.750  24.975  1.00  0.00     0.126 A 
ATOM    103  F   UNL A   1      38.178  22.141  25.525  1.00  0.00    -0.207 F 
ENDBRANCH  93  96
ENDBRANCH  80  92
ENDBRANCH  77  80
ENDBRANCH  75  76
ENDBRANCH  74  75
ENDBRANCH  73  74
ENDBRANCH   1  73
TORSDOF 20
ENDMDL
MODEL 2
REMARK VINA RESULT:     -12.4      1.764      2.280
REMARK SMILES O=C(NCCCCCCNC(=O)[C@@H](Cc1c[nH]c2ccccc12)NC(=O)c1ccc(F)cc1F)c1ccc(-c2c3nc(c(-c4cccc(S(=O)(=O)[O-])c4F)c4ccc([nH]4)c(-c4cccc(S(=O)(=O)[O-])c4F)c4nc(c(-c5cccc(S(=O)(=O)[O-])c5F)c5ccc2[nH]5)C=C4)C=C3)cc1
REMARK SMILES IDX 6 1 5 2 4 3 3 4 1 5 2 6 35 8 36 9 97 10 37 11 96 12 38 13
REMARK SMILES IDX 39 14 40 15 90 16 41 17 95 18 89 19 91 20 42 21 94 22 88 23
REMARK SMILES IDX 87 24 43 26 75 27 55 28 74 29 56 30 59 31 73 32 92 33 57 34
REMARK SMILES IDX 58 35 72 37 93 38 60 39 44 40 45 41 53 42 46 43 48 44 54 45
REMARK SMILES IDX 47 46 49 47 50 48 51 49 52 50 76 51 77 52 85 53 78 54 80 55
REMARK SMILES IDX 86 56 79 57 81 58 82 59 83 60 84 61 61 62 62 63 70 64 63 65
REMARK SMILES IDX 65 66 71 67 64 68 66 69 67 70 68 71 69 72 7 73 8 74 9 75
REMARK SMILES IDX 10 76 11 77 12 79 13 80 14 81 15 82 16 83 23 84 17 85 18 86
REMARK SMILES IDX 22 87 19 89 21 90 20 91 24 92 25 93 26 95 27 96 28 97 33 98
REMARK SMILES IDX 29 99 32 100 34 101 30 102 31 103
REMARK H PARENT 3 7 91 25 59 36 10 78 17 88 24 94
REMARK Flexibility Score: inf
ROOT
ATOM      1  C   UNL A   1      32.195  28.531  23.401  1.00  0.00     0.002 C 
ENDROOT
BRANCH   1   2
ATOM      2  C   UNL A   1      32.392  28.355  24.908  1.00  0.00     0.021 C 
BRANCH   2   3
ATOM      3  C   UNL A   1      33.493  29.213  25.524  1.00  0.00     0.116 C 
BRANCH   3   4
ATOM      4  N   UNL A   1      32.994  30.481  26.024  1.00  0.00    -0.352 N 
ATOM      5  O   UNL A   1      32.756  32.191  27.468  1.00  0.00    -0.269 OA
ATOM      6  C   UNL A   1      33.432  31.247  27.081  1.00  0.00     0.251 C 
ATOM      7  H   UNL A   1      32.224  30.850  25.533  1.00  0.00     0.163 HD
BRANCH   6   8
ATOM      8  C   UNL A   1      34.708  30.914  27.760  1.00  0.00     0.039 A 
ATOM      9  C   UNL A   1      34.892  29.671  28.369  1.00  0.00     0.014 A 
ATOM     10  C   UNL A   1      35.749  31.848  27.757  1.00  0.00     0.014 A 
ATOM     11  C   UNL A   1      36.051  29.420  29.097  1.00  0.00     0.010 A 
ATOM     12  C   UNL A   1      36.951  31.557  28.412  1.00  0.00     0.010 A 
ATOM     13  C   UNL A   1      37.104  30.351  29.112  1.00  0.00    -0.014 A 
BRANCH  13  14
ATOM     14  C   UNL A   1      38.380  29.986  29.784  1.00  0.00     0.031 A 
ATOM     15  C   UNL A   1      38.739  30.511  31.147  1.00  0.00     0.074 A 
ATOM     16  C   UNL A   1      39.217  29.141  29.146  1.00  0.00     0.049 A 
ATOM     17  N   UNL A   1      39.783  30.225  31.885  1.00  0.00    -0.248 NA
ATOM     18  C   UNL A   1      37.823  31.483  31.763  1.00  0.00     0.031 C 
ATOM     19  C   UNL A   1      39.009  28.618  27.793  1.00  0.00     0.029 A 
ATOM     20  N   UNL A   1      40.399  28.571  29.543  1.00  0.00    -0.354 N 
ATOM     21  C   UNL A   1      39.666  30.998  33.035  1.00  0.00     0.074 A 
ATOM     22  C   UNL A   1      38.454  31.777  32.893  1.00  0.00     0.031 C 
ATOM     23  C   UNL A   1      40.008  27.781  27.485  1.00  0.00     0.029 A 
ATOM     24  C   UNL A   1      40.954  27.743  28.594  1.00  0.00     0.049 A 
ATOM     25  H   UNL A   1      40.811  28.738  30.420  1.00  0.00     0.167 HD
ATOM     26  C   UNL A   1      40.482  31.038  34.118  1.00  0.00     0.034 A 
ATOM     27  C   UNL A   1      42.101  27.038  28.607  1.00  0.00     0.034 A 
ATOM     28  C   UNL A   1      41.674  30.242  34.266  1.00  0.00     0.049 A 
ATOM     29  C   UNL A   1      42.960  27.072  29.838  1.00  0.00     0.074 A 
ATOM     30  C   UNL A   1      42.539  30.182  35.345  1.00  0.00     0.029 A 
ATOM     31  N   UNL A   1      42.172  29.372  33.309  1.00  0.00    -0.354 N 
ATOM     32  N   UNL A   1      42.757  27.707  30.966  1.00  0.00    -0.248 NA
ATOM     33  C   UNL A   1      44.188  26.267  29.810  1.00  0.00     0.031 C 
ATOM     34  C   UNL A   1      43.567  29.283  35.035  1.00  0.00     0.029 A 
ATOM     35  C   UNL A   1      43.332  28.770  33.771  1.00  0.00     0.049 A 
ATOM     36  H   UNL A   1      41.763  29.206  32.429  1.00  0.00     0.167 HD
ATOM     37  C   UNL A   1      43.825  27.370  31.787  1.00  0.00     0.074 A 
ATOM     38  C   UNL A   1      44.647  26.438  31.041  1.00  0.00     0.031 C 
ATOM     39  C   UNL A   1      44.117  27.814  33.035  1.00  0.00     0.034 A 
BRANCH  26  40
ATOM     40  C   UNL A   1      40.089  31.932  35.267  1.00  0.00     0.023 A 
ATOM     41  C   UNL A   1      40.578  33.254  35.309  1.00  0.00     0.012 A 
ATOM     42  C   UNL A   1      39.166  31.507  36.243  1.00  0.00     0.148 A 
ATOM     43  C   UNL A   1      40.171  34.131  36.314  1.00  0.00     0.002 A 
ATOM     44  C   UNL A   1      38.737  32.398  37.220  1.00  0.00     0.091 A 
ATOM     45  F   UNL A   1      38.722  30.242  36.195  1.00  0.00    -0.205 F 
ATOM     46  C   UNL A   1      39.244  33.707  37.262  1.00  0.00     0.022 A 
BRANCH  44  47
ATOM     47  S   UNL A   1      37.489  31.977  38.444  1.00  0.00     0.127 S 
ATOM     48  O   UNL A   1      36.436  32.944  38.135  1.00  0.00    -0.237 OA
ATOM     49  O   UNL A   1      37.169  30.593  38.093  1.00  0.00    -0.237 OA
ATOM     50  O   UNL A   1      38.127  32.144  39.743  1.00  0.00    -0.744 OA
ENDBRANCH  44  47
ENDBRANCH  26  40
BRANCH  27  51
ATOM     51  C   UNL A   1      42.474  26.211  27.425  1.00  0.00     0.023 A 
ATOM     52  C   UNL A   1      43.269  26.767  26.406  1.00  0.00     0.012 A 
ATOM     53  C   UNL A   1      42.077  24.863  27.327  1.00  0.00     0.148 A 
ATOM     54  C   UNL A   1      43.637  26.005  25.296  1.00  0.00     0.002 A 
ATOM     55  C   UNL A   1      42.501  24.092  26.253  1.00  0.00     0.091 A 
ATOM     56  F   UNL A   1      41.301  24.355  28.296  1.00  0.00    -0.205 F 
ATOM     57  C   UNL A   1      43.266  24.665  25.226  1.00  0.00     0.022 A 
BRANCH  55  58
ATOM     58  S   UNL A   1      42.193  22.323  26.184  1.00  0.00     0.127 S 
ATOM     59  O   UNL A   1      42.930  21.937  24.986  1.00  0.00    -0.237 OA
ATOM     60  O   UNL A   1      42.776  21.858  27.444  1.00  0.00    -0.237 OA
ATOM     61  O   UNL A   1      40.744  22.193  26.121  1.00  0.00    -0.744 OA
ENDBRANCH  55  58
ENDBRANCH  27  51
BRANCH  39  62
ATOM     62  C   UNL A   1      45.375  27.288  33.670  1.00  0.00     0.023 A 
ATOM     63  C   UNL A   1      46.576  28.015  33.538  1.00  0.00     0.012 A 
ATOM     64  C   UNL A   1      45.367  26.099  34.423  1.00  0.00     0.148 A 
ATOM     65  C   UNL A   1      47.757  27.544  34.109  1.00  0.00     0.002 A 
ATOM     66  C   UNL A   1      46.539  25.659  35.028  1.00  0.00     0.091 A 
ATOM     67  F   UNL A   1      44.221  25.408  34.520  1.00  0.00    -0.205 F 
ATOM     68  C   UNL A   1      47.737  26.374  34.861  1.00  0.00     0.022 A 
BRANCH  66  69
ATOM     69  S   UNL A   1      46.582  24.206  36.083  1.00  0.00     0.127 S 
ATOM     70  O   UNL A   1      46.465  23.125  35.107  1.00  0.00    -0.237 OA
ATOM     71  O   UNL A   1      47.896  24.316  36.717  1.00  0.00    -0.237 OA
ATOM     72  O   UNL A   1      45.459  24.352  37.001  1.00  0.00    -0.744 OA
ENDBRANCH  66  69
ENDBRANCH  39  62
ENDBRANCH  13  14
ENDBRANCH   6   8
ENDBRANCH   3   4
ENDBRANCH   2   3
ENDBRANCH   1   2
BRANCH   1  73
ATOM     73  C   UNL A   1      30.884  27.981  22.831  1.00  0.00     0.002 C 
BRANCH  73  74
ATOM     74  C   UNL A   1      29.845  27.563  23.871  1.00  0.00     0.021 C 
BRANCH  74  75
ATOM     75  C   UNL A   1      29.561  26.065  23.966  1.00  0.00     0.116 C 
BRANCH  75  76
ATOM     76  N   UNL A   1      29.875  25.590  25.298  1.00  0.00    -0.354 N 
ATOM     77  C   UNL A   1      30.665  24.568  25.717  1.00  0.00     0.242 C 
ATOM     78  H   UNL A   1      29.441  26.094  26.025  1.00  0.00     0.163 HD
ATOM     79  O   UNL A   1      30.414  24.103  26.836  1.00  0.00    -0.273 OA
BRANCH  77  80
ATOM     80  C   UNL A   1      31.783  23.917  24.865  1.00  0.00     0.176 C 
BRANCH  80  81
ATOM     81  C   UNL A   1      31.482  22.490  24.371  1.00  0.00     0.072 C 
BRANCH  81  82
ATOM     82  C   UNL A   1      32.374  21.379  24.840  1.00  0.00    -0.020 A 
ATOM     83  C   UNL A   1      33.110  21.335  26.010  1.00  0.00     0.087 A 
ATOM     84  C   UNL A   1      32.566  20.111  24.194  1.00  0.00     0.003 A 
ATOM     85  N   UNL A   1      33.778  20.140  26.063  1.00  0.00    -0.361 N 
ATOM     86  C   UNL A   1      33.485  19.386  24.952  1.00  0.00     0.046 A 
ATOM     87  C   UNL A   1      32.070  19.530  23.008  1.00  0.00     0.010 A 
ATOM     88  H   UNL A   1      34.380  19.862  26.791  1.00  0.00     0.166 HD
ATOM     89  C   UNL A   1      33.968  18.130  24.562  1.00  0.00     0.026 A 
ATOM     90  C   UNL A   1      32.547  18.278  22.599  1.00  0.00     0.001 A 
ATOM     91  C   UNL A   1      33.491  17.596  23.361  1.00  0.00     0.002 A 
ENDBRANCH  81  82
ENDBRANCH  80  81
BRANCH  80  92
ATOM     92  N   UNL A   1      32.403  24.779  23.854  1.00  0.00    -0.340 N 
ATOM     93  C   UNL A   1      33.727  24.992  23.562  1.00  0.00     0.254 C 
ATOM     94  H   UNL A   1      31.770  25.285  23.295  1.00  0.00     0.164 HD
ATOM     95  O   UNL A   1      34.036  25.869  22.759  1.00  0.00    -0.269 OA
BRANCH  93  96
ATOM     96  C   UNL A   1      34.789  24.159  24.163  1.00  0.00     0.075 A 
ATOM     97  C   UNL A   1      35.289  24.435  25.444  1.00  0.00     0.020 A 
ATOM     98  C   UNL A   1      35.243  23.031  23.476  1.00  0.00     0.138 A 
ATOM     99  C   UNL A   1      36.285  23.621  25.991  1.00  0.00     0.040 A 
ATOM    100  C   UNL A   1      36.218  22.204  24.029  1.00  0.00     0.079 A 
ATOM    101  F   UNL A   1      34.768  22.724  22.260  1.00  0.00    -0.206 F 
ATOM    102  C   UNL A   1      36.739  22.515  25.277  1.00  0.00     0.126 A 
ATOM    103  F   UNL A   1      37.689  21.735  25.809  1.00  0.00    -0.207 F 
ENDBRANCH  93  96
ENDBRANCH  80  92
ENDBRANCH  77  80
ENDBRANCH  75  76
ENDBRANCH  74  75
ENDBRANCH  73  74
ENDBRANCH   1  73
TORSDOF 20
ENDMDL
MODEL 3
REMARK VINA RESULT:     -12.2      1.020      7.340
REMARK SMILES O=C(NCCCCCCNC(=O)[C@@H](Cc1c[nH]c2ccccc12)NC(=O)c1ccc(F)cc1F)c1ccc(-c2c3nc(c(-c4cccc(S(=O)(=O)[O-])c4F)c4ccc([nH]4)c(-c4cccc(S(=O)(=O)[O-])c4F)c4nc(c(-c5cccc(S(=O)(=O)[O-])c5F)c5ccc2[nH]5)C=C4)C=C3)cc1
REMARK SMILES IDX 6 1 5 2 4 3 3 4 1 5 2 6 35 8 36 9 97 10 37 11 96 12 38 13
REMARK SMILES IDX 39 14 40 15 90 16 41 17 95 18 89 19 91 20 42 21 94 22 88 23
REMARK SMILES IDX 87 24 43 26 75 27 55 28 74 29 56 30 59 31 73 32 92 33 57 34
REMARK SMILES IDX 58 35 72 37 93 38 60 39 44 40 45 41 53 42 46 43 48 44 54 45
REMARK SMILES IDX 47 46 49 47 50 48 51 49 52 50 76 51 77 52 85 53 78 54 80 55
REMARK SMILES IDX 86 56 79 57 81 58 82 59 83 60 84 61 61 62 62 63 70 64 63 65
REMARK SMILES IDX 65 66 71 67 64 68 66 69 67 70 68 71 69 72 7 73 8 74 9 75
REMARK SMILES IDX 10 76 11 77 12 79 13 80 14 81 15 82 16 83 23 84 17 85 18 86
REMARK SMILES IDX 22 87 19 89 21 90 20 91 24 92 25 93 26 95 27 96 28 97 33 98
REMARK SMILES IDX 29 99 32 100 34 101 30 102 31 103
REMARK H PARENT 3 7 91 25 59 36 10 78 17 88 24 94
REMARK Flexibility Score: inf
ROOT
ATOM      1  C   UNL A   1      32.832  28.163  23.979  1.00  0.00     0.002 C 
ENDROOT
BRANCH   1   2
ATOM      2  C   UNL A   1      32.752  28.174  25.507  1.00  0.00     0.021 C 
BRANCH   2   3
ATOM      3  C   UNL A   1      33.994  28.701  26.219  1.00  0.00     0.116 C 
BRANCH   3   4
ATOM      4  N   UNL A   1      33.831  30.069  26.679  1.00  0.00    -0.352 N 
ATOM      5  O   UNL A   1      34.149  31.862  28.001  1.00  0.00    -0.269 OA
ATOM      6  C   UNL A   1      34.563  30.782  27.601  1.00  0.00     0.251 C 
ATOM      7  H   UNL A   1      33.083  30.561  26.271  1.00  0.00     0.163 HD
BRANCH   6   8
ATOM      8  C   UNL A   1      35.838  30.231  28.124  1.00  0.00     0.039 A 
ATOM      9  C   UNL A   1      35.879  29.561  29.348  1.00  0.00     0.014 A 
ATOM     10  C   UNL A   1      37.002  30.358  27.360  1.00  0.00     0.014 A 
ATOM     11  C   UNL A   1      37.102  29.152  29.873  1.00  0.00     0.010 A 
ATOM     12  C   UNL A   1      38.217  29.863  27.849  1.00  0.00     0.010 A 
ATOM     13  C   UNL A   1      38.283  29.279  29.123  1.00  0.00    -0.014 A 
BRANCH  13  14
ATOM     14  C   UNL A   1      39.545  28.702  29.662  1.00  0.00     0.031 A 
ATOM     15  C   UNL A   1      40.233  27.538  29.002  1.00  0.00     0.074 A 
ATOM     16  C   UNL A   1      40.083  29.267  30.763  1.00  0.00     0.049 A 
ATOM     17  N   UNL A   1      41.372  26.975  29.319  1.00  0.00    -0.248 NA
ATOM     18  C   UNL A   1      39.563  26.920  27.848  1.00  0.00     0.031 C 
ATOM     19  C   UNL A   1      39.473  30.357  31.531  1.00  0.00     0.029 A 
ATOM     20  N   UNL A   1      41.256  29.012  31.426  1.00  0.00    -0.354 N 
ATOM     21  C   UNL A   1      41.544  25.924  28.426  1.00  0.00     0.074 A 
ATOM     22  C   UNL A   1      40.383  25.917  27.561  1.00  0.00     0.031 C 
ATOM     23  C   UNL A   1      40.289  30.699  32.536  1.00  0.00     0.029 A 
ATOM     24  C   UNL A   1      41.455  29.824  32.519  1.00  0.00     0.049 A 
ATOM     25  H   UNL A   1      41.893  28.316  31.149  1.00  0.00     0.167 HD
ATOM     26  C   UNL A   1      42.582  25.057  28.325  1.00  0.00     0.034 A 
ATOM     27  C   UNL A   1      42.458  29.858  33.417  1.00  0.00     0.034 A 
ATOM     28  C   UNL A   1      43.747  25.083  29.173  1.00  0.00     0.049 A 
ATOM     29  C   UNL A   1      43.612  28.913  33.250  1.00  0.00     0.074 A 
ATOM     30  C   UNL A   1      44.870  24.275  29.117  1.00  0.00     0.029 A 
ATOM     31  N   UNL A   1      43.940  25.957  30.231  1.00  0.00    -0.354 N 
ATOM     32  N   UNL A   1      43.814  28.016  32.316  1.00  0.00    -0.248 NA
ATOM     33  C   UNL A   1      44.692  29.006  34.242  1.00  0.00     0.031 C 
ATOM     34  C   UNL A   1      45.736  24.654  30.149  1.00  0.00     0.029 A 
ATOM     35  C   UNL A   1      45.161  25.709  30.837  1.00  0.00     0.049 A 
ATOM     36  H   UNL A   1      43.302  26.652  30.513  1.00  0.00     0.167 HD
ATOM     37  C   UNL A   1      45.048  27.446  32.600  1.00  0.00     0.074 A 
ATOM     38  C   UNL A   1      45.567  28.133  33.766  1.00  0.00     0.031 C 
ATOM     39  C   UNL A   1      45.683  26.426  31.970  1.00  0.00     0.034 A 
BRANCH  26  40
ATOM     40  C   UNL A   1      42.544  24.034  27.217  1.00  0.00     0.023 A 
ATOM     41  C   UNL A   1      43.150  24.337  25.981  1.00  0.00     0.012 A 
ATOM     42  C   UNL A   1      42.005  22.749  27.426  1.00  0.00     0.148 A 
ATOM     43  C   UNL A   1      43.202  23.385  24.963  1.00  0.00     0.002 A 
ATOM     44  C   UNL A   1      42.095  21.793  26.420  1.00  0.00     0.091 A 
ATOM     45  F   UNL A   1      41.421  22.485  28.604  1.00  0.00    -0.205 F 
ATOM     46  C   UNL A   1      42.685  22.111  25.185  1.00  0.00     0.022 A 
BRANCH  44  47
ATOM     47  S   UNL A   1      41.527  20.101  26.629  1.00  0.00     0.127 S 
ATOM     48  O   UNL A   1      41.970  19.485  25.379  1.00  0.00    -0.237 OA
ATOM     49  O   UNL A   1      42.269  19.672  27.816  1.00  0.00    -0.237 OA
ATOM     50  O   UNL A   1      40.084  20.179  26.809  1.00  0.00    -0.744 OA
ENDBRANCH  44  47
ENDBRANCH  26  40
BRANCH  27  51
ATOM     51  C   UNL A   1      42.424  30.852  34.526  1.00  0.00     0.023 A 
ATOM     52  C   UNL A   1      41.912  30.479  35.783  1.00  0.00     0.012 A 
ATOM     53  C   UNL A   1      42.936  32.153  34.351  1.00  0.00     0.148 A 
ATOM     54  C   UNL A   1      41.883  31.394  36.837  1.00  0.00     0.002 A 
ATOM     55  C   UNL A   1      42.963  33.036  35.423  1.00  0.00     0.091 A 
ATOM     56  F   UNL A   1      43.400  32.499  33.142  1.00  0.00    -0.205 F 
ATOM     57  C   UNL A   1      42.421  32.666  36.662  1.00  0.00     0.022 A 
BRANCH  55  58
ATOM     58  S   UNL A   1      43.786  34.629  35.308  1.00  0.00     0.127 S 
ATOM     59  O   UNL A   1      43.299  35.305  36.505  1.00  0.00    -0.237 OA
ATOM     60  O   UNL A   1      45.199  34.252  35.344  1.00  0.00    -0.237 OA
ATOM     61  O   UNL A   1      43.356  35.187  34.032  1.00  0.00    -0.744 OA
ENDBRANCH  55  58
ENDBRANCH  27  51
BRANCH  39  62
ATOM     62  C   UNL A   1      47.013  25.999  32.531  1.00  0.00     0.023 A 
ATOM     63  C   UNL A   1      48.191  26.633  32.084  1.00  0.00     0.012 A 
ATOM     64  C   UNL A   1      47.098  25.000  33.519  1.00  0.00     0.148 A 
ATOM     65  C   UNL A   1      49.435  26.248  32.580  1.00  0.00     0.002 A 
ATOM     66  C   UNL A   1      48.338  24.654  34.042  1.00  0.00     0.091 A 
ATOM     67  F   UNL A   1      45.970  24.392  33.915  1.00  0.00    -0.205 F 
ATOM     68  C   UNL A   1      49.508  25.268  33.565  1.00  0.00     0.022 A 
BRANCH  66  69
ATOM     69  S   UNL A   1      48.513  23.460  35.373  1.00  0.00     0.127 S 
ATOM     70  O   UNL A   1      49.964  23.419  35.548  1.00  0.00    -0.237 OA
ATOM     71  O   UNL A   1      47.785  24.101  36.468  1.00  0.00    -0.237 OA
ATOM     72  O   UNL A   1      47.902  22.231  34.884  1.00  0.00    -0.744 OA
ENDBRANCH  66  69
ENDBRANCH  39  62
ENDBRANCH  13  14
ENDBRANCH   6   8
ENDBRANCH   3   4
ENDBRANCH   2   3
ENDBRANCH   1   2
BRANCH   1  73
ATOM     73  C   UNL A   1      31.533  27.812  23.246  1.00  0.00     0.002 C 
BRANCH  73  74
ATOM     74  C   UNL A   1      30.388  27.333  24.139  1.00  0.00     0.021 C 
BRANCH  74  75
ATOM     75  C   UNL A   1      30.010  25.860  24.005  1.00  0.00     0.116 C 
BRANCH  75  76
ATOM     76  N   UNL A   1      30.218  25.184  25.269  1.00  0.00    -0.354 N 
ATOM     77  C   UNL A   1      30.888  24.041  25.568  1.00  0.00     0.242 C 
ATOM     78  H   UNL A   1      29.803  25.628  26.044  1.00  0.00     0.163 HD
ATOM     79  O   UNL A   1      30.544  23.459  26.606  1.00  0.00    -0.273 OA
BRANCH  77  80
ATOM     80  C   UNL A   1      31.975  23.400  24.671  1.00  0.00     0.176 C 
BRANCH  80  81
ATOM     81  C   UNL A   1      31.742  21.920  24.316  1.00  0.00     0.072 C 
BRANCH  81  82
ATOM     82  C   UNL A   1      32.827  20.937  24.643  1.00  0.00    -0.020 A 
ATOM     83  C   UNL A   1      33.816  21.072  25.601  1.00  0.00     0.087 A 
ATOM     84  C   UNL A   1      32.991  19.629  24.073  1.00  0.00     0.003 A 
ATOM     85  N   UNL A   1      34.596  19.945  25.586  1.00  0.00    -0.361 N 
ATOM     86  C   UNL A   1      34.131  19.060  24.644  1.00  0.00     0.046 A 
ATOM     87  C   UNL A   1      32.294  18.892  23.093  1.00  0.00     0.010 A 
ATOM     88  H   UNL A   1      35.376  19.791  26.167  1.00  0.00     0.166 HD
ATOM     89  C   UNL A   1      34.634  17.814  24.250  1.00  0.00     0.026 A 
ATOM     90  C   UNL A   1      32.786  17.648  22.683  1.00  0.00     0.001 A 
ATOM     91  C   UNL A   1      33.947  17.124  23.247  1.00  0.00     0.002 A 
ENDBRANCH  81  82
ENDBRANCH  80  81
BRANCH  80  92
ATOM     92  N   UNL A   1      32.441  24.216  23.545  1.00  0.00    -0.340 N 
ATOM     93  C   UNL A   1      33.713  24.573  23.175  1.00  0.00     0.254 C 
ATOM     94  H   UNL A   1      31.728  24.562  22.961  1.00  0.00     0.164 HD
ATOM     95  O   UNL A   1      33.874  25.385  22.268  1.00  0.00    -0.269 OA
BRANCH  93  96
ATOM     96  C   UNL A   1      34.897  23.969  23.819  1.00  0.00     0.075 A 
ATOM     97  C   UNL A   1      35.662  22.994  23.162  1.00  0.00     0.020 A 
ATOM     98  C   UNL A   1      35.307  24.435  25.071  1.00  0.00     0.138 A 
ATOM     99  C   UNL A   1      36.784  22.449  23.792  1.00  0.00     0.040 A 
ATOM    100  C   UNL A   1      36.438  23.911  25.692  1.00  0.00     0.079 A 
ATOM    101  F   UNL A   1      34.612  25.383  25.717  1.00  0.00    -0.206 F 
ATOM    102  C   UNL A   1      37.159  22.913  25.050  1.00  0.00     0.126 A 
ATOM    103  F   UNL A   1      38.239  22.392  25.647  1.00  0.00    -0.207 F 
ENDBRANCH  93  96
ENDBRANCH  80  92
ENDBRANCH  77  80
ENDBRANCH  75  76
ENDBRANCH  74  75
ENDBRANCH  73  74
ENDBRANCH   1  73
TORSDOF 20
ENDMDL
