MODEL 1
REMARK VINA RESULT:     -11.5      0.000      0.000
REMARK SMILES CC[C@@](C)([NH3+])C(=O)Nc1cc(C(=O)NCCCCCCNC(=O)c2ccc(-c3c4nc(c(-c5cccc(S(=O)(=O)[O-])c5F)c5ccc([nH]5)c(-c5cccc(S(=O)(=O)[O-])c5F)c5nc(c(-c6cccc(S(=O)(=O)[O-])c6F)c6ccc3[nH]6)C=C5)C=C4)cc2)cc(C(F)(F)F)c1
REMARK SMILES IDX 17 1 16 2 15 3 14 4 12 5 13 6 11 8 9 9 10 10 93 11 88 12
REMARK SMILES IDX 87 13 8 14 6 15 7 16 3 18 4 19 2 20 1 21 5 22 89 26 90 27
REMARK SMILES IDX 91 28 92 29 18 30 19 31 20 32 21 33 22 34 23 36 24 37 25 38
REMARK SMILES IDX 86 39 26 40 85 41 27 42 28 43 29 44 79 45 30 46 84 47 78 48
REMARK SMILES IDX 80 49 31 50 83 51 77 52 76 53 32 55 64 56 44 57 63 58 45 59
REMARK SMILES IDX 48 60 62 61 81 62 46 63 47 64 61 66 82 67 49 68 33 69 34 70
REMARK SMILES IDX 42 71 35 72 37 73 43 74 36 75 38 76 39 77 40 78 41 79 65 80
REMARK SMILES IDX 66 81 74 82 67 83 69 84 75 85 68 86 70 87 71 88 72 89 73 90
REMARK SMILES IDX 50 91 51 92 59 93 52 94 54 95 60 96 53 97 55 98 56 99 57 100
REMARK SMILES IDX 58 101
REMARK H PARENT 14 7 8 17 5 23 5 24 5 25 21 35 80 54 48 65
REMARK Flexibility Score: inf
ROOT
ATOM      1  C   UNL A   1      35.308  21.496  26.005  1.00  0.00     0.002 C 
ENDROOT
BRANCH   1   2
ATOM      2  C   UNL A   1      34.038  21.173  26.777  1.00  0.00     0.021 C 
BRANCH   2   3
ATOM      3  C   UNL A   1      33.626  22.178  27.837  1.00  0.00     0.116 C 
BRANCH   3   4
ATOM      4  N   UNL A   1      32.204  22.496  27.886  1.00  0.00    -0.352 N 
ATOM      5  C   UNL A   1      31.423  23.266  27.045  1.00  0.00     0.251 C 
ATOM      6  O   UNL A   1      30.223  23.393  27.281  1.00  0.00    -0.269 OA
ATOM      7  H   UNL A   1      31.720  22.096  28.644  1.00  0.00     0.163 HD
BRANCH   5   8
ATOM      8  C   UNL A   1      32.022  24.011  25.902  1.00  0.00     0.042 A 
ATOM      9  C   UNL A   1      33.130  25.957  25.030  1.00  0.00     0.042 A 
ATOM     10  C   UNL A   1      32.448  25.335  26.074  1.00  0.00     0.040 A 
ATOM     11  C   UNL A   1      33.647  25.178  24.004  1.00  0.00     0.039 A 
ATOM     12  C   UNL A   1      33.128  23.914  23.759  1.00  0.00     0.058 A 
ATOM     13  C   UNL A   1      32.187  23.412  24.653  1.00  0.00     0.027 A 
BRANCH   9  14
ATOM     14  N   UNL A   1      33.274  27.347  24.997  1.00  0.00    -0.321 N 
ATOM     15  C   UNL A   1      32.616  28.265  24.197  1.00  0.00     0.285 C 
ATOM     16  O   UNL A   1      33.076  29.414  24.196  1.00  0.00    -0.267 OA
ATOM     17  H   UNL A   1      33.930  27.723  25.627  1.00  0.00     0.170 HD
BRANCH  15  18
ATOM     18  C   UNL A   1      31.247  27.927  23.446  1.00  0.00     0.171 C 
ATOM     19  C   UNL A   1      30.335  27.052  24.326  1.00  0.00     0.090 C 
BRANCH  18  20
ATOM     20  C   UNL A   1      30.500  29.234  23.050  1.00  0.00     0.075 C 
ATOM     21  C   UNL A   1      29.122  29.059  22.427  1.00  0.00     0.011 C 
ENDBRANCH  18  20
BRANCH  18  22
ATOM     22  N   UNL A   1      31.503  27.248  22.151  1.00  0.00    -0.345 N 
ATOM     23  H   UNL A   1      30.626  26.885  21.778  1.00  0.00     0.345 HD
ATOM     24  H   UNL A   1      32.156  26.478  22.294  1.00  0.00     0.345 HD
ATOM     25  H   UNL A   1      31.903  27.915  21.492  1.00  0.00     0.345 HD
ENDBRANCH  18  22
ENDBRANCH  15  18
ENDBRANCH   9  14
BRANCH  12  26
ATOM     26  C   UNL A   1      33.580  23.080  22.591  1.00  0.00     0.416 C 
ATOM     27  F   UNL A   1      34.936  22.981  22.540  1.00  0.00    -0.166 F 
ATOM     28  F   UNL A   1      33.107  21.808  22.659  1.00  0.00    -0.166 F 
ATOM     29  F   UNL A   1      33.184  23.569  21.387  1.00  0.00    -0.166 F 
ENDBRANCH  12  26
ENDBRANCH   5   8
ENDBRANCH   3   4
ENDBRANCH   2   3
ENDBRANCH   1   2
BRANCH   1  30
ATOM     30  C   UNL A   1      35.616  20.589  24.811  1.00  0.00     0.002 C 
BRANCH  30  31
ATOM     31  C   UNL A   1      36.856  19.697  24.935  1.00  0.00     0.021 C 
BRANCH  31  32
ATOM     32  C   UNL A   1      38.148  20.403  25.332  1.00  0.00     0.116 C 
BRANCH  32  33
ATOM     33  N   UNL A   1      39.211  19.472  25.667  1.00  0.00    -0.352 N 
ATOM     34  C   UNL A   1      40.480  19.721  26.121  1.00  0.00     0.251 C 
ATOM     35  H   UNL A   1      38.987  18.520  25.550  1.00  0.00     0.163 HD
ATOM     36  O   UNL A   1      41.296  18.800  26.188  1.00  0.00    -0.269 OA
BRANCH  34  37
ATOM     37  C   UNL A   1      40.881  21.091  26.512  1.00  0.00     0.039 A 
ATOM     38  C   UNL A   1      41.702  21.257  27.630  1.00  0.00     0.014 A 
ATOM     39  C   UNL A   1      40.445  22.206  25.792  1.00  0.00     0.014 A 
ATOM     40  C   UNL A   1      42.133  22.537  27.990  1.00  0.00     0.010 A 
ATOM     41  C   UNL A   1      40.935  23.473  26.108  1.00  0.00     0.010 A 
ATOM     42  C   UNL A   1      41.783  23.652  27.212  1.00  0.00    -0.014 A 
BRANCH  42  43
ATOM     43  C   UNL A   1      42.315  25.005  27.527  1.00  0.00     0.031 A 
ATOM     44  C   UNL A   1      41.436  26.044  28.171  1.00  0.00     0.074 A 
ATOM     45  C   UNL A   1      43.572  25.324  27.157  1.00  0.00     0.049 A 
ATOM     46  N   UNL A   1      41.717  27.285  28.473  1.00  0.00    -0.248 NA
ATOM     47  C   UNL A   1      40.057  25.646  28.501  1.00  0.00     0.031 C 
ATOM     48  C   UNL A   1      44.499  24.433  26.452  1.00  0.00     0.029 A 
ATOM     49  N   UNL A   1      44.279  26.494  27.291  1.00  0.00    -0.354 N 
ATOM     50  C   UNL A   1      40.545  27.828  28.988  1.00  0.00     0.074 A 
ATOM     51  C   UNL A   1      39.542  26.786  28.940  1.00  0.00     0.031 C 
ATOM     52  C   UNL A   1      45.646  25.088  26.214  1.00  0.00     0.029 A 
ATOM     53  C   UNL A   1      45.529  26.453  26.715  1.00  0.00     0.049 A 
ATOM     54  H   UNL A   1      43.926  27.287  27.756  1.00  0.00     0.167 HD
ATOM     55  C   UNL A   1      40.330  29.071  29.479  1.00  0.00     0.034 A 
ATOM     56  C   UNL A   1      46.468  27.412  26.588  1.00  0.00     0.034 A 
ATOM     57  C   UNL A   1      41.340  30.091  29.565  1.00  0.00     0.049 A 
ATOM     58  C   UNL A   1      46.212  28.773  27.177  1.00  0.00     0.074 A 
ATOM     59  C   UNL A   1      41.243  31.347  30.139  1.00  0.00     0.029 A 
ATOM     60  N   UNL A   1      42.622  29.985  29.051  1.00  0.00    -0.354 N 
ATOM     61  N   UNL A   1      45.155  29.207  27.817  1.00  0.00    -0.248 NA
ATOM     62  C   UNL A   1      47.292  29.763  27.060  1.00  0.00     0.031 C 
ATOM     63  C   UNL A   1      42.455  32.014  29.938  1.00  0.00     0.029 A 
ATOM     64  C   UNL A   1      43.320  31.158  29.278  1.00  0.00     0.049 A 
ATOM     65  H   UNL A   1      42.983  29.192  28.594  1.00  0.00     0.167 HD
ATOM     66  C   UNL A   1      45.456  30.507  28.210  1.00  0.00     0.074 A 
ATOM     67  C   UNL A   1      46.804  30.779  27.758  1.00  0.00     0.031 C 
ATOM     68  C   UNL A   1      44.680  31.401  28.872  1.00  0.00     0.034 A 
BRANCH  55  69
ATOM     69  C   UNL A   1      38.957  29.402  30.004  1.00  0.00     0.023 A 
ATOM     70  C   UNL A   1      38.603  29.031  31.317  1.00  0.00     0.012 A 
ATOM     71  C   UNL A   1      38.059  30.169  29.235  1.00  0.00     0.148 A 
ATOM     72  C   UNL A   1      37.367  29.399  31.848  1.00  0.00     0.002 A 
ATOM     73  C   UNL A   1      36.850  30.571  29.788  1.00  0.00     0.091 A 
ATOM     74  F   UNL A   1      38.410  30.496  27.983  1.00  0.00    -0.205 F 
ATOM     75  C   UNL A   1      36.498  30.179  31.091  1.00  0.00     0.022 A 
BRANCH  73  76
ATOM     76  S   UNL A   1      35.698  31.648  28.928  1.00  0.00     0.127 S 
ATOM     77  O   UNL A   1      34.707  31.912  29.971  1.00  0.00    -0.237 OA
ATOM     78  O   UNL A   1      36.544  32.791  28.587  1.00  0.00    -0.237 OA
ATOM     79  O   UNL A   1      35.207  30.887  27.787  1.00  0.00    -0.744 OA
ENDBRANCH  73  76
ENDBRANCH  55  69
BRANCH  56  80
ATOM     80  C   UNL A   1      47.757  27.113  25.898  1.00  0.00     0.023 A 
ATOM     81  C   UNL A   1      48.834  26.576  26.631  1.00  0.00     0.012 A 
ATOM     82  C   UNL A   1      47.922  27.364  24.522  1.00  0.00     0.148 A 
ATOM     83  C   UNL A   1      50.065  26.341  26.017  1.00  0.00     0.002 A 
ATOM     84  C   UNL A   1      49.131  27.068  23.903  1.00  0.00     0.091 A 
ATOM     85  F   UNL A   1      46.891  27.887  23.844  1.00  0.00    -0.205 F 
ATOM     86  C   UNL A   1      50.211  26.578  24.653  1.00  0.00     0.022 A 
BRANCH  84  87
ATOM     87  S   UNL A   1      49.360  27.215  22.128  1.00  0.00     0.127 S 
ATOM     88  O   UNL A   1      48.539  26.116  21.628  1.00  0.00    -0.237 OA
ATOM     89  O   UNL A   1      48.830  28.553  21.864  1.00  0.00    -0.237 OA
ATOM     90  O   UNL A   1      50.795  27.088  21.907  1.00  0.00    -0.744 OA
ENDBRANCH  84  87
ENDBRANCH  56  80
BRANCH  68  91
ATOM     91  C   UNL A   1      45.278  32.745  29.194  1.00  0.00     0.023 A 
ATOM     92  C   UNL A   1      46.110  32.897  30.320  1.00  0.00     0.012 A 
ATOM     93  C   UNL A   1      45.068  33.843  28.337  1.00  0.00     0.148 A 
ATOM     94  C   UNL A   1      46.695  34.130  30.609  1.00  0.00     0.002 A 
ATOM     95  C   UNL A   1      45.697  35.054  28.600  1.00  0.00     0.091 A 
ATOM     96  F   UNL A   1      44.260  33.684  27.278  1.00  0.00    -0.205 F 
ATOM     97  C   UNL A   1      46.498  35.203  29.743  1.00  0.00     0.022 A 
BRANCH  95  98
ATOM     98  S   UNL A   1      45.584  36.461  27.489  1.00  0.00     0.127 S 
ATOM     99  O   UNL A   1      45.763  37.582  28.410  1.00  0.00    -0.237 OA
ATOM    100  O   UNL A   1      46.710  36.230  26.583  1.00  0.00    -0.237 OA
ATOM    101  O   UNL A   1      44.273  36.373  26.859  1.00  0.00    -0.744 OA
ENDBRANCH  95  98
ENDBRANCH  68  91
ENDBRANCH  42  43
ENDBRANCH  34  37
ENDBRANCH  32  33
ENDBRANCH  31  32
ENDBRANCH  30  31
ENDBRANCH   1  30
TORSDOF 21
ENDMDL
MODEL 2
REMARK VINA RESULT:     -11.3      5.270      8.368
REMARK SMILES CC[C@@](C)([NH3+])C(=O)Nc1cc(C(=O)NCCCCCCNC(=O)c2ccc(-c3c4nc(c(-c5cccc(S(=O)(=O)[O-])c5F)c5ccc([nH]5)c(-c5cccc(S(=O)(=O)[O-])c5F)c5nc(c(-c6cccc(S(=O)(=O)[O-])c6F)c6ccc3[nH]6)C=C5)C=C4)cc2)cc(C(F)(F)F)c1
REMARK SMILES IDX 17 1 16 2 15 3 14 4 12 5 13 6 11 8 9 9 10 10 93 11 88 12
REMARK SMILES IDX 87 13 8 14 6 15 7 16 3 18 4 19 2 20 1 21 5 22 89 26 90 27
REMARK SMILES IDX 91 28 92 29 18 30 19 31 20 32 21 33 22 34 23 36 24 37 25 38
REMARK SMILES IDX 86 39 26 40 85 41 27 42 28 43 29 44 79 45 30 46 84 47 78 48
REMARK SMILES IDX 80 49 31 50 83 51 77 52 76 53 32 55 64 56 44 57 63 58 45 59
REMARK SMILES IDX 48 60 62 61 81 62 46 63 47 64 61 66 82 67 49 68 33 69 34 70
REMARK SMILES IDX 42 71 35 72 37 73 43 74 36 75 38 76 39 77 40 78 41 79 65 80
REMARK SMILES IDX 66 81 74 82 67 83 69 84 75 85 68 86 70 87 71 88 72 89 73 90
REMARK SMILES IDX 50 91 51 92 59 93 52 94 54 95 60 96 53 97 55 98 56 99 57 100
REMARK SMILES IDX 58 101
REMARK H PARENT 14 7 8 17 5 23 5 24 5 25 21 35 80 54 48 65
REMARK Flexibility Score: inf
ROOT
ATOM      1  C   UNL A   1      30.646  27.208  25.279  1.00  0.00     0.002 C 
ENDROOT
BRANCH   1   2
ATOM      2  C   UNL A   1      30.828  27.717  23.857  1.00  0.00     0.021 C 
BRANCH   2   3
ATOM      3  C   UNL A   1      30.446  26.752  22.748  1.00  0.00     0.116 C 
BRANCH   3   4
ATOM      4  N   UNL A   1      31.498  26.452  21.784  1.00  0.00    -0.352 N 
ATOM      5  C   UNL A   1      32.632  25.670  21.901  1.00  0.00     0.251 C 
ATOM      6  O   UNL A   1      33.388  25.553  20.939  1.00  0.00    -0.269 OA
ATOM      7  H   UNL A   1      31.381  26.877  20.904  1.00  0.00     0.163 HD
BRANCH   5   8
ATOM      8  C   UNL A   1      32.998  25.030  23.195  1.00  0.00     0.042 A 
ATOM      9  C   UNL A   1      34.481  24.823  25.075  1.00  0.00     0.042 A 
ATOM     10  C   UNL A   1      34.227  25.326  23.801  1.00  0.00     0.040 A 
ATOM     11  C   UNL A   1      33.423  24.334  25.830  1.00  0.00     0.039 A 
ATOM     12  C   UNL A   1      32.254  23.920  25.206  1.00  0.00     0.058 A 
ATOM     13  C   UNL A   1      32.132  24.145  23.837  1.00  0.00     0.027 A 
BRANCH   9  14
ATOM     14  N   UNL A   1      35.782  24.785  25.584  1.00  0.00    -0.321 N 
ATOM     15  C   UNL A   1      36.546  23.682  25.922  1.00  0.00     0.285 C 
ATOM     16  O   UNL A   1      37.582  23.912  26.559  1.00  0.00    -0.267 OA
ATOM     17  H   UNL A   1      36.213  25.660  25.719  1.00  0.00     0.170 HD
BRANCH  15  18
ATOM     18  C   UNL A   1      36.219  22.212  25.388  1.00  0.00     0.171 C 
ATOM     19  C   UNL A   1      35.124  21.545  26.240  1.00  0.00     0.090 C 
BRANCH  18  20
ATOM     20  C   UNL A   1      35.774  22.255  23.898  1.00  0.00     0.075 C 
ATOM     21  C   UNL A   1      36.786  22.818  22.909  1.00  0.00     0.011 C 
ENDBRANCH  18  20
BRANCH  18  22
ATOM     22  N   UNL A   1      37.439  21.365  25.379  1.00  0.00    -0.345 N 
ATOM     23  H   UNL A   1      38.172  21.832  24.846  1.00  0.00     0.345 HD
ATOM     24  H   UNL A   1      37.225  20.466  24.950  1.00  0.00     0.345 HD
ATOM     25  H   UNL A   1      37.756  21.218  26.337  1.00  0.00     0.345 HD
ENDBRANCH  18  22
ENDBRANCH  15  18
ENDBRANCH   9  14
BRANCH  12  26
ATOM     26  C   UNL A   1      31.126  23.281  25.970  1.00  0.00     0.416 C 
ATOM     27  F   UNL A   1      29.955  23.949  25.787  1.00  0.00    -0.166 F 
ATOM     28  F   UNL A   1      30.902  22.001  25.571  1.00  0.00    -0.166 F 
ATOM     29  F   UNL A   1      31.336  23.231  27.310  1.00  0.00    -0.166 F 
ENDBRANCH  12  26
ENDBRANCH   5   8
ENDBRANCH   3   4
ENDBRANCH   2   3
ENDBRANCH   1   2
BRANCH   1  30
ATOM     30  C   UNL A   1      31.745  27.590  26.274  1.00  0.00     0.002 C 
BRANCH  30  31
ATOM     31  C   UNL A   1      31.762  29.047  26.745  1.00  0.00     0.021 C 
BRANCH  31  32
ATOM     32  C   UNL A   1      32.732  29.972  26.017  1.00  0.00     0.116 C 
BRANCH  32  33
ATOM     33  N   UNL A   1      32.569  31.363  26.401  1.00  0.00    -0.352 N 
ATOM     34  C   UNL A   1      33.287  32.111  27.299  1.00  0.00     0.251 C 
ATOM     35  H   UNL A   1      31.835  31.840  25.951  1.00  0.00     0.163 HD
ATOM     36  O   UNL A   1      32.887  33.233  27.615  1.00  0.00    -0.269 OA
BRANCH  34  37
ATOM     37  C   UNL A   1      34.524  31.572  27.904  1.00  0.00     0.039 A 
ATOM     38  C   UNL A   1      35.626  32.420  28.049  1.00  0.00     0.014 A 
ATOM     39  C   UNL A   1      34.608  30.240  28.317  1.00  0.00     0.014 A 
ATOM     40  C   UNL A   1      36.790  31.947  28.661  1.00  0.00     0.010 A 
ATOM     41  C   UNL A   1      35.742  29.792  28.994  1.00  0.00     0.010 A 
ATOM     42  C   UNL A   1      36.846  30.640  29.171  1.00  0.00    -0.014 A 
BRANCH  42  43
ATOM     43  C   UNL A   1      38.041  30.157  29.912  1.00  0.00     0.031 A 
ATOM     44  C   UNL A   1      38.347  30.669  31.294  1.00  0.00     0.074 A 
ATOM     45  C   UNL A   1      38.900  29.312  29.303  1.00  0.00     0.049 A 
ATOM     46  N   UNL A   1      39.367  30.395  32.066  1.00  0.00    -0.248 NA
ATOM     47  C   UNL A   1      37.396  31.630  31.880  1.00  0.00     0.031 C 
ATOM     48  C   UNL A   1      38.762  28.805  27.935  1.00  0.00     0.029 A 
ATOM     49  N   UNL A   1      40.077  28.756  29.743  1.00  0.00    -0.354 N 
ATOM     50  C   UNL A   1      39.204  31.175  33.205  1.00  0.00     0.074 A 
ATOM     51  C   UNL A   1      37.998  31.950  33.017  1.00  0.00     0.031 C 
ATOM     52  C   UNL A   1      39.810  28.018  27.647  1.00  0.00     0.029 A 
ATOM     53  C   UNL A   1      40.714  27.990  28.792  1.00  0.00     0.049 A 
ATOM     54  H   UNL A   1      40.431  28.892  30.651  1.00  0.00     0.167 HD
ATOM     55  C   UNL A   1      39.976  31.223  34.317  1.00  0.00     0.034 A 
ATOM     56  C   UNL A   1      41.901  27.352  28.831  1.00  0.00     0.034 A 
ATOM     57  C   UNL A   1      41.152  30.420  34.520  1.00  0.00     0.049 A 
ATOM     58  C   UNL A   1      42.716  27.396  30.095  1.00  0.00     0.074 A 
ATOM     59  C   UNL A   1      41.940  30.326  35.654  1.00  0.00     0.029 A 
ATOM     60  N   UNL A   1      41.719  29.588  33.569  1.00  0.00    -0.354 N 
ATOM     61  N   UNL A   1      42.452  28.004  31.225  1.00  0.00    -0.248 NA
ATOM     62  C   UNL A   1      43.975  26.637  30.102  1.00  0.00     0.031 C 
ATOM     63  C   UNL A   1      43.006  29.467  35.375  1.00  0.00     0.029 A 
ATOM     64  C   UNL A   1      42.857  28.992  34.083  1.00  0.00     0.049 A 
ATOM     65  H   UNL A   1      41.364  29.442  32.663  1.00  0.00     0.167 HD
ATOM     66  C   UNL A   1      43.491  27.670  32.088  1.00  0.00     0.074 A 
ATOM     67  C   UNL A   1      44.374  26.787  31.357  1.00  0.00     0.031 C 
ATOM     68  C   UNL A   1      43.702  28.072  33.366  1.00  0.00     0.034 A 
BRANCH  55  69
ATOM     69  C   UNL A   1      39.561  32.148  35.431  1.00  0.00     0.023 A 
ATOM     70  C   UNL A   1      38.780  31.654  36.496  1.00  0.00     0.012 A 
ATOM     71  C   UNL A   1      40.031  33.477  35.476  1.00  0.00     0.148 A 
ATOM     72  C   UNL A   1      38.455  32.474  37.576  1.00  0.00     0.002 A 
ATOM     73  C   UNL A   1      39.741  34.272  36.577  1.00  0.00     0.091 A 
ATOM     74  F   UNL A   1      40.757  33.931  34.445  1.00  0.00    -0.205 F 
ATOM     75  C   UNL A   1      38.945  33.776  37.624  1.00  0.00     0.022 A 
BRANCH  73  76
ATOM     76  S   UNL A   1      40.395  35.933  36.775  1.00  0.00     0.127 S 
ATOM     77  O   UNL A   1      41.835  35.696  36.680  1.00  0.00    -0.237 OA
ATOM     78  O   UNL A   1      39.814  36.630  35.627  1.00  0.00    -0.237 OA
ATOM     79  O   UNL A   1      39.929  36.399  38.074  1.00  0.00    -0.744 OA
ENDBRANCH  73  76
ENDBRANCH  55  69
BRANCH  56  80
ATOM     80  C   UNL A   1      42.381  26.587  27.644  1.00  0.00     0.023 A 
ATOM     81  C   UNL A   1      43.145  27.238  26.655  1.00  0.00     0.012 A 
ATOM     82  C   UNL A   1      42.079  25.220  27.487  1.00  0.00     0.148 A 
ATOM     83  C   UNL A   1      43.557  26.554  25.510  1.00  0.00     0.002 A 
ATOM     84  C   UNL A   1      42.545  24.529  26.375  1.00  0.00     0.091 A 
ATOM     85  F   UNL A   1      41.339  24.621  28.432  1.00  0.00    -0.205 F 
ATOM     86  C   UNL A   1      43.266  25.199  25.375  1.00  0.00     0.022 A 
BRANCH  84  87
ATOM     87  S   UNL A   1      42.332  22.756  26.190  1.00  0.00     0.127 S 
ATOM     88  O   UNL A   1      42.962  22.512  24.895  1.00  0.00    -0.237 OA
ATOM     89  O   UNL A   1      43.068  22.240  27.344  1.00  0.00    -0.237 OA
ATOM     90  O   UNL A   1      40.894  22.527  26.249  1.00  0.00    -0.744 OA
ENDBRANCH  84  87
ENDBRANCH  56  80
BRANCH  68  91
ATOM     91  C   UNL A   1      44.910  27.528  34.082  1.00  0.00     0.023 A 
ATOM     92  C   UNL A   1      46.140  28.212  34.013  1.00  0.00     0.012 A 
ATOM     93  C   UNL A   1      44.806  26.373  34.881  1.00  0.00     0.148 A 
ATOM     94  C   UNL A   1      47.256  27.735  34.699  1.00  0.00     0.002 A 
ATOM     95  C   UNL A   1      45.908  25.933  35.606  1.00  0.00     0.091 A 
ATOM     96  F   UNL A   1      43.631  25.726  34.922  1.00  0.00    -0.205 F 
ATOM     97  C   UNL A   1      47.137  26.604  35.504  1.00  0.00     0.022 A 
BRANCH  95  98
ATOM     98  S   UNL A   1      45.822  24.547  36.744  1.00  0.00     0.127 S 
ATOM     99  O   UNL A   1      45.537  23.435  35.838  1.00  0.00    -0.237 OA
ATOM    100  O   UNL A   1      47.168  24.536  37.318  1.00  0.00    -0.237 OA
ATOM    101  O   UNL A   1      44.763  24.867  37.692  1.00  0.00    -0.744 OA
ENDBRANCH  95  98
ENDBRANCH  68  91
ENDBRANCH  42  43
ENDBRANCH  34  37
ENDBRANCH  32  33
ENDBRANCH  31  32
ENDBRANCH  30  31
ENDBRANCH   1  30
TORSDOF 21
ENDMDL
MODEL 3
REMARK VINA RESULT:     -11.2      4.738      8.028
REMARK SMILES CC[C@@](C)([NH3+])C(=O)Nc1cc(C(=O)NCCCCCCNC(=O)c2ccc(-c3c4nc(c(-c5cccc(S(=O)(=O)[O-])c5F)c5ccc([nH]5)c(-c5cccc(S(=O)(=O)[O-])c5F)c5nc(c(-c6cccc(S(=O)(=O)[O-])c6F)c6ccc3[nH]6)C=C5)C=C4)cc2)cc(C(F)(F)F)c1
REMARK SMILES IDX 17 1 16 2 15 3 14 4 12 5 13 6 11 8 9 9 10 10 93 11 88 12
REMARK SMILES IDX 87 13 8 14 6 15 7 16 3 18 4 19 2 20 1 21 5 22 89 26 90 27
REMARK SMILES IDX 91 28 92 29 18 30 19 31 20 32 21 33 22 34 23 36 24 37 25 38
REMARK SMILES IDX 86 39 26 40 85 41 27 42 28 43 29 44 79 45 30 46 84 47 78 48
REMARK SMILES IDX 80 49 31 50 83 51 77 52 76 53 32 55 64 56 44 57 63 58 45 59
REMARK SMILES IDX 48 60 62 61 81 62 46 63 47 64 61 66 82 67 49 68 33 69 34 70
REMARK SMILES IDX 42 71 35 72 37 73 43 74 36 75 38 76 39 77 40 78 41 79 65 80
REMARK SMILES IDX 66 81 74 82 67 83 69 84 75 85 68 86 70 87 71 88 72 89 73 90
REMARK SMILES IDX 50 91 51 92 59 93 52 94 54 95 60 96 53 97 55 98 56 99 57 100
REMARK SMILES IDX 58 101
REMARK H PARENT 14 7 8 17 5 23 5 24 5 25 21 35 80 54 48 65
REMARK Flexibility Score: inf
ROOT
ATOM      1  C   UNL A   1      30.931  29.209  24.128  1.00  0.00     0.002 C 
ENDROOT
BRANCH   1   2
ATOM      2  C   UNL A   1      31.841  28.579  23.085  1.00  0.00     0.021 C 
BRANCH   2   3
ATOM      3  C   UNL A   1      31.165  27.685  22.060  1.00  0.00     0.116 C 
BRANCH   3   4
ATOM      4  N   UNL A   1      32.044  26.764  21.350  1.00  0.00    -0.352 N 
ATOM      5  C   UNL A   1      32.625  25.577  21.755  1.00  0.00     0.251 C 
ATOM      6  O   UNL A   1      33.338  24.954  20.972  1.00  0.00    -0.269 OA
ATOM      7  H   UNL A   1      32.260  27.033  20.427  1.00  0.00     0.163 HD
BRANCH   5   8
ATOM      8  C   UNL A   1      32.467  25.078  23.150  1.00  0.00     0.042 A 
ATOM      9  C   UNL A   1      33.423  24.207  25.175  1.00  0.00     0.042 A 
ATOM     10  C   UNL A   1      33.566  24.535  23.829  1.00  0.00     0.040 A 
ATOM     11  C   UNL A   1      32.338  24.711  25.880  1.00  0.00     0.039 A 
ATOM     12  C   UNL A   1      31.200  25.127  25.204  1.00  0.00     0.058 A 
ATOM     13  C   UNL A   1      31.242  25.152  23.812  1.00  0.00     0.027 A 
BRANCH   9  14
ATOM     14  N   UNL A   1      34.340  23.363  25.808  1.00  0.00    -0.321 N 
ATOM     15  C   UNL A   1      34.217  22.016  26.098  1.00  0.00     0.285 C 
ATOM     16  O   UNL A   1      35.070  21.543  26.860  1.00  0.00    -0.267 OA
ATOM     17  H   UNL A   1      35.186  23.783  26.084  1.00  0.00     0.170 HD
BRANCH  15  18
ATOM     18  C   UNL A   1      33.151  21.073  25.372  1.00  0.00     0.171 C 
ATOM     19  C   UNL A   1      31.712  21.526  25.679  1.00  0.00     0.090 C 
BRANCH  18  20
ATOM     20  C   UNL A   1      33.383  21.062  23.833  1.00  0.00     0.075 C 
ATOM     21  C   UNL A   1      32.137  21.140  22.963  1.00  0.00     0.011 C 
ENDBRANCH  18  20
BRANCH  18  22
ATOM     22  N   UNL A   1      33.331  19.656  25.776  1.00  0.00    -0.345 N 
ATOM     23  H   UNL A   1      33.580  19.613  26.764  1.00  0.00     0.345 HD
ATOM     24  H   UNL A   1      34.074  19.235  25.220  1.00  0.00     0.345 HD
ATOM     25  H   UNL A   1      32.461  19.145  25.622  1.00  0.00     0.345 HD
ENDBRANCH  18  22
ENDBRANCH  15  18
ENDBRANCH   9  14
BRANCH  12  26
ATOM     26  C   UNL A   1      29.960  25.575  25.930  1.00  0.00     0.416 C 
ATOM     27  F   UNL A   1      29.383  24.551  26.614  1.00  0.00    -0.166 F 
ATOM     28  F   UNL A   1      30.228  26.543  26.846  1.00  0.00    -0.166 F 
ATOM     29  F   UNL A   1      29.002  26.081  25.112  1.00  0.00    -0.166 F 
ENDBRANCH  12  26
ENDBRANCH   5   8
ENDBRANCH   3   4
ENDBRANCH   2   3
ENDBRANCH   1   2
BRANCH   1  30
ATOM     30  C   UNL A   1      31.462  29.218  25.564  1.00  0.00     0.002 C 
BRANCH  30  31
ATOM     31  C   UNL A   1      32.724  28.393  25.829  1.00  0.00     0.021 C 
BRANCH  31  32
ATOM     32  C   UNL A   1      34.020  29.184  25.971  1.00  0.00     0.116 C 
BRANCH  32  33
ATOM     33  N   UNL A   1      33.832  30.436  26.683  1.00  0.00    -0.352 N 
ATOM     34  C   UNL A   1      34.541  30.959  27.734  1.00  0.00     0.251 C 
ATOM     35  H   UNL A   1      33.084  30.992  26.365  1.00  0.00     0.163 HD
ATOM     36  O   UNL A   1      34.121  31.961  28.314  1.00  0.00    -0.269 OA
BRANCH  34  37
ATOM     37  C   UNL A   1      35.794  30.316  28.186  1.00  0.00     0.039 A 
ATOM     38  C   UNL A   1      36.939  30.444  27.395  1.00  0.00     0.014 A 
ATOM     39  C   UNL A   1      35.844  29.582  29.375  1.00  0.00     0.014 A 
ATOM     40  C   UNL A   1      38.146  29.886  27.825  1.00  0.00     0.010 A 
ATOM     41  C   UNL A   1      37.064  29.090  29.837  1.00  0.00     0.010 A 
ATOM     42  C   UNL A   1      38.228  29.235  29.067  1.00  0.00    -0.014 A 
BRANCH  42  43
ATOM     43  C   UNL A   1      39.526  28.724  29.580  1.00  0.00     0.031 A 
ATOM     44  C   UNL A   1      40.236  29.427  30.707  1.00  0.00     0.074 A 
ATOM     45  C   UNL A   1      40.108  27.668  28.975  1.00  0.00     0.049 A 
ATOM     46  N   UNL A   1      41.394  29.151  31.249  1.00  0.00    -0.248 NA
ATOM     47  C   UNL A   1      39.571  30.606  31.288  1.00  0.00     0.031 C 
ATOM     48  C   UNL A   1      39.563  26.949  27.820  1.00  0.00     0.029 A 
ATOM     49  N   UNL A   1      41.302  27.034  29.223  1.00  0.00    -0.354 N 
ATOM     50  C   UNL A   1      41.615  30.138  32.202  1.00  0.00     0.074 A 
ATOM     51  C   UNL A   1      40.481  31.034  32.152  1.00  0.00     0.031 C 
ATOM     52  C   UNL A   1      40.418  25.978  27.460  1.00  0.00     0.029 A 
ATOM     53  C   UNL A   1      41.587  26.026  28.331  1.00  0.00     0.049 A 
ATOM     54  H   UNL A   1      41.896  27.279  29.969  1.00  0.00     0.167 HD
ATOM     55  C   UNL A   1      42.656  30.273  33.057  1.00  0.00     0.034 A 
ATOM     56  C   UNL A   1      42.676  25.239  28.215  1.00  0.00     0.034 A 
ATOM     57  C   UNL A   1      43.763  29.357  33.134  1.00  0.00     0.049 A 
ATOM     58  C   UNL A   1      43.799  25.391  29.205  1.00  0.00     0.074 A 
ATOM     59  C   UNL A   1      44.812  29.355  34.037  1.00  0.00     0.029 A 
ATOM     60  N   UNL A   1      43.974  28.294  32.273  1.00  0.00    -0.354 N 
ATOM     61  N   UNL A   1      43.903  26.224  30.211  1.00  0.00    -0.248 NA
ATOM     62  C   UNL A   1      44.937  24.470  29.068  1.00  0.00     0.031 C 
ATOM     63  C   UNL A   1      45.679  28.314  33.696  1.00  0.00     0.029 A 
ATOM     64  C   UNL A   1      45.147  27.640  32.609  1.00  0.00     0.049 A 
ATOM     65  H   UNL A   1      43.379  28.041  31.531  1.00  0.00     0.167 HD
ATOM     66  C   UNL A   1      45.098  25.903  30.847  1.00  0.00     0.074 A 
ATOM     67  C   UNL A   1      45.668  24.783  30.127  1.00  0.00     0.031 C 
ATOM     68  C   UNL A   1      45.679  26.493  31.920  1.00  0.00     0.034 A 
BRANCH  55  69
ATOM     69  C   UNL A   1      42.642  31.434  34.017  1.00  0.00     0.023 A 
ATOM     70  C   UNL A   1      43.336  32.617  33.694  1.00  0.00     0.012 A 
ATOM     71  C   UNL A   1      41.858  31.389  35.188  1.00  0.00     0.148 A 
ATOM     72  C   UNL A   1      43.268  33.730  34.531  1.00  0.00     0.002 A 
ATOM     73  C   UNL A   1      41.758  32.517  35.993  1.00  0.00     0.091 A 
ATOM     74  F   UNL A   1      41.220  30.248  35.485  1.00  0.00    -0.205 F 
ATOM     75  C   UNL A   1      42.470  33.685  35.671  1.00  0.00     0.022 A 
BRANCH  73  76
ATOM     76  S   UNL A   1      40.691  32.591  37.435  1.00  0.00     0.127 S 
ATOM     77  O   UNL A   1      41.580  32.095  38.485  1.00  0.00    -0.237 OA
ATOM     78  O   UNL A   1      40.387  34.020  37.518  1.00  0.00    -0.237 OA
ATOM     79  O   UNL A   1      39.548  31.739  37.137  1.00  0.00    -0.744 OA
ENDBRANCH  73  76
ENDBRANCH  55  69
BRANCH  56  80
ATOM     80  C   UNL A   1      42.747  24.211  27.137  1.00  0.00     0.023 A 
ATOM     81  C   UNL A   1      43.433  24.500  25.940  1.00  0.00     0.012 A 
ATOM     82  C   UNL A   1      42.135  22.952  27.288  1.00  0.00     0.148 A 
ATOM     83  C   UNL A   1      43.465  23.572  24.897  1.00  0.00     0.002 A 
ATOM     84  C   UNL A   1      42.224  22.009  26.271  1.00  0.00     0.091 A 
ATOM     85  F   UNL A   1      41.476  22.700  28.428  1.00  0.00    -0.205 F 
ATOM     86  C   UNL A   1      42.870  22.325  25.066  1.00  0.00     0.022 A 
BRANCH  84  87
ATOM     87  S   UNL A   1      41.603  20.335  26.458  1.00  0.00     0.127 S 
ATOM     88  O   UNL A   1      42.121  19.969  27.774  1.00  0.00    -0.237 OA
ATOM     89  O   UNL A   1      40.156  20.539  26.399  1.00  0.00    -0.237 OA
ATOM     90  O   UNL A   1      42.147  19.588  25.331  1.00  0.00    -0.744 OA
ENDBRANCH  84  87
ENDBRANCH  56  80
BRANCH  68  91
ATOM     91  C   UNL A   1      46.978  25.917  32.420  1.00  0.00     0.023 A 
ATOM     92  C   UNL A   1      46.984  25.036  33.519  1.00  0.00     0.012 A 
ATOM     93  C   UNL A   1      48.187  26.197  31.753  1.00  0.00     0.148 A 
ATOM     94  C   UNL A   1      48.177  24.471  33.970  1.00  0.00     0.002 A 
ATOM     95  C   UNL A   1      49.364  25.588  32.172  1.00  0.00     0.091 A 
ATOM     96  F   UNL A   1      48.164  27.051  30.718  1.00  0.00    -0.205 F 
ATOM     97  C   UNL A   1      49.363  24.737  33.289  1.00  0.00     0.022 A 
BRANCH  95  98
ATOM     98  S   UNL A   1      50.919  25.793  31.299  1.00  0.00     0.127 S 
ATOM     99  O   UNL A   1      51.109  27.241  31.365  1.00  0.00    -0.237 OA
ATOM    100  O   UNL A   1      51.843  25.018  32.128  1.00  0.00    -0.237 OA
ATOM    101  O   UNL A   1      50.707  25.251  29.963  1.00  0.00    -0.744 OA
ENDBRANCH  95  98
ENDBRANCH  68  91
ENDBRANCH  42  43
ENDBRANCH  34  37
ENDBRANCH  32  33
ENDBRANCH  31  32
ENDBRANCH  30  31
ENDBRANCH   1  30
TORSDOF 21
ENDMDL
