MODEL 1
REMARK VINA RESULT:     -11.3      0.000      0.000
REMARK SMILES CC(C)(Nc1ccc(Cl)cc1)C(=O)NCCCCCCNC(=O)c1ccc(-c2c3nc(c(-c4cccc(S(=O)(=O)[O-])c4F)c4ccc([nH]4)c(-c4cccc(S(=O)(=O)[O-])c4F)c4nc(c(-c5cccc(S(=O)(=O)[O-])c5F)c5ccc2[nH]5)C=C4)C=C3)cc1
REMARK SMILES IDX 18 1 17 2 16 3 15 4 14 5 12 6 13 7 2 9 1 10 3 11 4 12 5 14
REMARK SMILES IDX 6 15 11 16 7 17 10 18 8 19 9 20 19 21 20 22 21 23 22 24
REMARK SMILES IDX 23 26 24 27 25 28 86 29 26 30 85 31 27 32 28 33 29 34 79 35
REMARK SMILES IDX 30 36 84 37 78 38 80 39 31 40 83 41 77 42 76 43 32 45 64 46
REMARK SMILES IDX 44 47 63 48 45 49 48 50 62 51 81 52 46 53 47 54 61 56 82 57
REMARK SMILES IDX 49 58 33 59 34 60 42 61 35 62 37 63 43 64 36 65 38 66 39 67
REMARK SMILES IDX 40 68 41 69 65 70 66 71 74 72 67 73 69 74 75 75 68 76 70 77
REMARK SMILES IDX 71 78 72 79 73 80 50 81 51 82 59 83 52 84 54 85 60 86 53 87
REMARK SMILES IDX 55 88 56 89 57 90 58 91
REMARK H PARENT 14 8 4 13 21 25 80 44 48 55
REMARK Flexibility Score: inf
ROOT
ATOM      1  C   UNL A   1      35.976  21.763  24.436  1.00  0.00     0.002 C 
ENDROOT
BRANCH   1   2
ATOM      2  C   UNL A   1      36.357  23.241  24.543  1.00  0.00     0.002 C 
BRANCH   2   3
ATOM      3  C   UNL A   1      35.579  24.027  25.600  1.00  0.00     0.021 C 
BRANCH   3   4
ATOM      4  C   UNL A   1      34.368  24.803  25.087  1.00  0.00     0.116 C 
BRANCH   4   5
ATOM      5  N   UNL A   1      34.424  25.118  23.670  1.00  0.00    -0.354 N 
ATOM      6  C   UNL A   1      33.456  25.491  22.783  1.00  0.00     0.245 C 
ATOM      7  O   UNL A   1      33.828  25.663  21.615  1.00  0.00    -0.272 OA
ATOM      8  H   UNL A   1      35.325  25.049  23.277  1.00  0.00     0.163 HD
BRANCH   6   9
ATOM      9  C   UNL A   1      31.975  25.709  23.199  1.00  0.00     0.111 C 
ATOM     10  C   UNL A   1      31.285  26.690  22.229  1.00  0.00     0.045 C 
ATOM     11  C   UNL A   1      31.957  26.390  24.586  1.00  0.00     0.045 C 
BRANCH   9  12
ATOM     12  N   UNL A   1      31.140  24.487  23.246  1.00  0.00    -0.372 N 
ATOM     13  H   UNL A   1      30.206  24.610  22.962  1.00  0.00     0.161 HD
BRANCH  12  14
ATOM     14  C   UNL A   1      31.470  23.198  23.628  1.00  0.00     0.035 A 
ATOM     15  C   UNL A   1      31.945  22.199  22.771  1.00  0.00     0.027 A 
ATOM     16  C   UNL A   1      31.439  22.889  24.999  1.00  0.00     0.027 A 
ATOM     17  C   UNL A   1      32.490  21.004  23.266  1.00  0.00     0.022 A 
ATOM     18  C   UNL A   1      31.931  21.678  25.500  1.00  0.00     0.022 A 
ATOM     19  C   UNL A   1      32.491  20.753  24.631  1.00  0.00     0.041 A 
ATOM     20  Cl  UNL A   1      33.205  19.313  25.241  1.00  0.00    -0.084 Cl
ENDBRANCH  12  14
ENDBRANCH   9  12
ENDBRANCH   6   9
ENDBRANCH   4   5
ENDBRANCH   3   4
ENDBRANCH   2   3
ENDBRANCH   1   2
BRANCH   1  21
ATOM     21  C   UNL A   1      37.044  20.787  24.934  1.00  0.00     0.021 C 
BRANCH  21  22
ATOM     22  C   UNL A   1      38.353  21.440  25.367  1.00  0.00     0.116 C 
BRANCH  22  23
ATOM     23  N   UNL A   1      39.236  20.500  26.042  1.00  0.00    -0.352 N 
ATOM     24  C   UNL A   1      40.338  20.771  26.817  1.00  0.00     0.251 C 
ATOM     25  H   UNL A   1      39.016  19.547  25.927  1.00  0.00     0.163 HD
ATOM     26  O   UNL A   1      41.106  19.873  27.151  1.00  0.00    -0.269 OA
BRANCH  24  27
ATOM     27  C   UNL A   1      40.597  22.167  27.225  1.00  0.00     0.039 A 
ATOM     28  C   UNL A   1      41.584  22.425  28.177  1.00  0.00     0.014 A 
ATOM     29  C   UNL A   1      39.898  23.215  26.622  1.00  0.00     0.014 A 
ATOM     30  C   UNL A   1      41.923  23.748  28.473  1.00  0.00     0.010 A 
ATOM     31  C   UNL A   1      40.286  24.529  26.866  1.00  0.00     0.010 A 
ATOM     32  C   UNL A   1      41.306  24.810  27.789  1.00  0.00    -0.014 A 
BRANCH  32  33
ATOM     33  C   UNL A   1      41.738  26.217  27.992  1.00  0.00     0.031 A 
ATOM     34  C   UNL A   1      43.128  26.646  27.614  1.00  0.00     0.074 A 
ATOM     35  C   UNL A   1      40.908  27.082  28.609  1.00  0.00     0.049 A 
ATOM     36  N   UNL A   1      43.707  27.807  27.788  1.00  0.00    -0.248 NA
ATOM     37  C   UNL A   1      43.990  25.634  26.983  1.00  0.00     0.031 C 
ATOM     38  C   UNL A   1      39.561  26.766  29.091  1.00  0.00     0.029 A 
ATOM     39  N   UNL A   1      41.087  28.396  28.969  1.00  0.00    -0.354 N 
ATOM     40  C   UNL A   1      45.007  27.657  27.321  1.00  0.00     0.074 A 
ATOM     41  C   UNL A   1      45.142  26.284  26.883  1.00  0.00     0.031 C 
ATOM     42  C   UNL A   1      39.038  27.851  29.683  1.00  0.00     0.029 A 
ATOM     43  C   UNL A   1      40.022  28.929  29.657  1.00  0.00     0.049 A 
ATOM     44  H   UNL A   1      41.901  28.907  28.753  1.00  0.00     0.167 HD
ATOM     45  C   UNL A   1      45.991  28.583  27.239  1.00  0.00     0.034 A 
ATOM     46  C   UNL A   1      39.862  30.142  30.224  1.00  0.00     0.034 A 
ATOM     47  C   UNL A   1      45.843  29.954  27.645  1.00  0.00     0.049 A 
ATOM     48  C   UNL A   1      40.966  31.157  30.106  1.00  0.00     0.074 A 
ATOM     49  C   UNL A   1      46.749  30.991  27.517  1.00  0.00     0.029 A 
ATOM     50  N   UNL A   1      44.723  30.478  28.273  1.00  0.00    -0.354 N 
ATOM     51  N   UNL A   1      42.129  31.044  29.513  1.00  0.00    -0.248 NA
ATOM     52  C   UNL A   1      40.726  32.475  30.711  1.00  0.00     0.031 C 
ATOM     53  C   UNL A   1      46.193  32.134  28.100  1.00  0.00     0.029 A 
ATOM     54  C   UNL A   1      44.925  31.818  28.560  1.00  0.00     0.049 A 
ATOM     55  H   UNL A   1      43.906  29.973  28.485  1.00  0.00     0.167 HD
ATOM     56  C   UNL A   1      42.746  32.283  29.643  1.00  0.00     0.074 A 
ATOM     57  C   UNL A   1      41.818  33.138  30.354  1.00  0.00     0.031 C 
ATOM     58  C   UNL A   1      43.975  32.672  29.227  1.00  0.00     0.034 A 
BRANCH  45  59
ATOM     59  C   UNL A   1      47.310  28.155  26.650  1.00  0.00     0.023 A 
ATOM     60  C   UNL A   1      48.393  27.861  27.503  1.00  0.00     0.012 A 
ATOM     61  C   UNL A   1      47.459  27.979  25.260  1.00  0.00     0.148 A 
ATOM     62  C   UNL A   1      49.613  27.433  26.982  1.00  0.00     0.002 A 
ATOM     63  C   UNL A   1      48.663  27.507  24.751  1.00  0.00     0.091 A 
ATOM     64  F   UNL A   1      46.425  28.281  24.463  1.00  0.00    -0.205 F 
ATOM     65  C   UNL A   1      49.744  27.246  25.609  1.00  0.00     0.022 A 
BRANCH  63  66
ATOM     66  S   UNL A   1      48.909  27.156  23.006  1.00  0.00     0.127 S 
ATOM     67  O   UNL A   1      48.189  25.891  22.857  1.00  0.00    -0.237 OA
ATOM     68  O   UNL A   1      48.263  28.304  22.369  1.00  0.00    -0.237 OA
ATOM     69  O   UNL A   1      50.349  27.082  22.810  1.00  0.00    -0.744 OA
ENDBRANCH  63  66
ENDBRANCH  45  59
BRANCH  46  70
ATOM     70  C   UNL A   1      38.584  30.478  30.916  1.00  0.00     0.023 A 
ATOM     71  C   UNL A   1      38.391  30.069  32.250  1.00  0.00     0.012 A 
ATOM     72  C   UNL A   1      37.575  31.218  30.272  1.00  0.00     0.148 A 
ATOM     73  C   UNL A   1      37.202  30.364  32.918  1.00  0.00     0.002 A 
ATOM     74  C   UNL A   1      36.417  31.558  30.962  1.00  0.00     0.091 A 
ATOM     75  F   UNL A   1      37.772  31.588  28.998  1.00  0.00    -0.205 F 
ATOM     76  C   UNL A   1      36.220  31.116  32.280  1.00  0.00     0.022 A 
BRANCH  74  77
ATOM     77  S   UNL A   1      35.160  32.635  30.264  1.00  0.00     0.127 S 
ATOM     78  O   UNL A   1      34.203  32.731  31.363  1.00  0.00    -0.237 OA
ATOM     79  O   UNL A   1      35.922  33.856  30.000  1.00  0.00    -0.237 OA
ATOM     80  O   UNL A   1      34.680  31.957  29.067  1.00  0.00    -0.744 OA
ENDBRANCH  74  77
ENDBRANCH  46  70
BRANCH  58  81
ATOM     81  C   UNL A   1      44.391  34.095  29.498  1.00  0.00     0.023 A 
ATOM     82  C   UNL A   1      44.914  34.445  30.758  1.00  0.00     0.012 A 
ATOM     83  C   UNL A   1      44.342  35.065  28.475  1.00  0.00     0.148 A 
ATOM     84  C   UNL A   1      45.358  35.744  31.005  1.00  0.00     0.002 A 
ATOM     85  C   UNL A   1      44.832  36.343  28.713  1.00  0.00     0.091 A 
ATOM     86  F   UNL A   1      43.826  34.714  27.288  1.00  0.00    -0.205 F 
ATOM     87  C   UNL A   1      45.329  36.688  29.980  1.00  0.00     0.022 A 
BRANCH  85  88
ATOM     88  S   UNL A   1      44.925  37.597  27.431  1.00  0.00     0.127 S 
ATOM     89  O   UNL A   1      43.534  37.676  26.990  1.00  0.00    -0.237 OA
ATOM     90  O   UNL A   1      45.398  38.764  28.177  1.00  0.00    -0.237 OA
ATOM     91  O   UNL A   1      45.865  37.092  26.438  1.00  0.00    -0.744 OA
ENDBRANCH  85  88
ENDBRANCH  58  81
ENDBRANCH  32  33
ENDBRANCH  24  27
ENDBRANCH  22  23
ENDBRANCH  21  22
ENDBRANCH   1  21
TORSDOF 18
ENDMDL
MODEL 2
REMARK VINA RESULT:     -11.3      5.414      8.687
REMARK SMILES CC(C)(Nc1ccc(Cl)cc1)C(=O)NCCCCCCNC(=O)c1ccc(-c2c3nc(c(-c4cccc(S(=O)(=O)[O-])c4F)c4ccc([nH]4)c(-c4cccc(S(=O)(=O)[O-])c4F)c4nc(c(-c5cccc(S(=O)(=O)[O-])c5F)c5ccc2[nH]5)C=C4)C=C3)cc1
REMARK SMILES IDX 18 1 17 2 16 3 15 4 14 5 12 6 13 7 2 9 1 10 3 11 4 12 5 14
REMARK SMILES IDX 6 15 11 16 7 17 10 18 8 19 9 20 19 21 20 22 21 23 22 24
REMARK SMILES IDX 23 26 24 27 25 28 86 29 26 30 85 31 27 32 28 33 29 34 79 35
REMARK SMILES IDX 30 36 84 37 78 38 80 39 31 40 83 41 77 42 76 43 32 45 64 46
REMARK SMILES IDX 44 47 63 48 45 49 48 50 62 51 81 52 46 53 47 54 61 56 82 57
REMARK SMILES IDX 49 58 33 59 34 60 42 61 35 62 37 63 43 64 36 65 38 66 39 67
REMARK SMILES IDX 40 68 41 69 65 70 66 71 74 72 67 73 69 74 75 75 68 76 70 77
REMARK SMILES IDX 71 78 72 79 73 80 50 81 51 82 59 83 52 84 54 85 60 86 53 87
REMARK SMILES IDX 55 88 56 89 57 90 58 91
REMARK H PARENT 14 8 4 13 21 25 80 44 48 55
REMARK Flexibility Score: inf
ROOT
ATOM      1  C   UNL A   1      31.243  30.597  25.890  1.00  0.00     0.002 C 
ENDROOT
BRANCH   1   2
ATOM      2  C   UNL A   1      32.313  29.683  26.489  1.00  0.00     0.002 C 
BRANCH   2   3
ATOM      3  C   UNL A   1      31.766  28.452  27.218  1.00  0.00     0.021 C 
BRANCH   3   4
ATOM      4  C   UNL A   1      32.082  27.107  26.568  1.00  0.00     0.116 C 
BRANCH   4   5
ATOM      5  N   UNL A   1      31.372  26.869  25.323  1.00  0.00    -0.354 N 
ATOM      6  C   UNL A   1      31.815  26.671  24.047  1.00  0.00     0.245 C 
ATOM      7  O   UNL A   1      30.939  26.521  23.186  1.00  0.00    -0.272 OA
ATOM      8  H   UNL A   1      30.391  26.848  25.417  1.00  0.00     0.163 HD
BRANCH   6   9
ATOM      9  C   UNL A   1      33.325  26.616  23.683  1.00  0.00     0.111 C 
ATOM     10  C   UNL A   1      33.907  28.042  23.599  1.00  0.00     0.045 C 
ATOM     11  C   UNL A   1      33.459  26.011  22.268  1.00  0.00     0.045 C 
BRANCH   9  12
ATOM     12  N   UNL A   1      34.178  25.853  24.622  1.00  0.00    -0.372 N 
ATOM     13  H   UNL A   1      34.781  26.401  25.174  1.00  0.00     0.161 HD
BRANCH  12  14
ATOM     14  C   UNL A   1      34.261  24.489  24.842  1.00  0.00     0.035 A 
ATOM     15  C   UNL A   1      33.288  23.714  25.482  1.00  0.00     0.027 A 
ATOM     16  C   UNL A   1      35.350  23.796  24.283  1.00  0.00     0.027 A 
ATOM     17  C   UNL A   1      33.325  22.312  25.450  1.00  0.00     0.022 A 
ATOM     18  C   UNL A   1      35.425  22.398  24.291  1.00  0.00     0.022 A 
ATOM     19  C   UNL A   1      34.389  21.659  24.843  1.00  0.00     0.041 A 
ATOM     20  Cl  UNL A   1      34.409  19.942  24.757  1.00  0.00    -0.084 Cl
ENDBRANCH  12  14
ENDBRANCH   9  12
ENDBRANCH   6   9
ENDBRANCH   4   5
ENDBRANCH   3   4
ENDBRANCH   2   3
ENDBRANCH   1   2
BRANCH   1  21
ATOM     21  C   UNL A   1      31.212  32.014  26.468  1.00  0.00     0.021 C 
BRANCH  21  22
ATOM     22  C   UNL A   1      32.574  32.568  26.872  1.00  0.00     0.116 C 
BRANCH  22  23
ATOM     23  N   UNL A   1      32.465  33.869  27.516  1.00  0.00    -0.352 N 
ATOM     24  C   UNL A   1      33.220  34.375  28.547  1.00  0.00     0.251 C 
ATOM     25  H   UNL A   1      31.760  34.461  27.169  1.00  0.00     0.163 HD
ATOM     26  O   UNL A   1      32.882  35.404  29.125  1.00  0.00    -0.269 OA
BRANCH  24  27
ATOM     27  C   UNL A   1      34.437  33.649  28.964  1.00  0.00     0.039 A 
ATOM     28  C   UNL A   1      35.684  34.247  28.777  1.00  0.00     0.014 A 
ATOM     29  C   UNL A   1      34.332  32.403  29.587  1.00  0.00     0.014 A 
ATOM     30  C   UNL A   1      36.827  33.624  29.285  1.00  0.00     0.010 A 
ATOM     31  C   UNL A   1      35.462  31.820  30.153  1.00  0.00     0.010 A 
ATOM     32  C   UNL A   1      36.720  32.426  30.013  1.00  0.00    -0.014 A 
BRANCH  32  33
ATOM     33  C   UNL A   1      37.902  31.812  30.672  1.00  0.00     0.031 A 
ATOM     34  C   UNL A   1      38.697  30.749  29.967  1.00  0.00     0.074 A 
ATOM     35  C   UNL A   1      38.196  32.143  31.946  1.00  0.00     0.049 A 
ATOM     36  N   UNL A   1      39.707  30.046  30.411  1.00  0.00    -0.248 NA
ATOM     37  C   UNL A   1      38.290  30.412  28.593  1.00  0.00     0.031 C 
ATOM     38  C   UNL A   1      37.454  33.105  32.763  1.00  0.00     0.029 A 
ATOM     39  N   UNL A   1      39.176  31.679  32.789  1.00  0.00    -0.354 N 
ATOM     40  C   UNL A   1      40.034  29.163  29.390  1.00  0.00     0.074 A 
ATOM     41  C   UNL A   1      39.097  29.398  28.312  1.00  0.00     0.031 C 
ATOM     42  C   UNL A   1      38.003  33.161  33.987  1.00  0.00     0.029 A 
ATOM     43  C   UNL A   1      39.111  32.212  34.056  1.00  0.00     0.049 A 
ATOM     44  H   UNL A   1      39.862  31.029  32.513  1.00  0.00     0.167 HD
ATOM     45  C   UNL A   1      41.040  28.257  29.341  1.00  0.00     0.034 A 
ATOM     46  C   UNL A   1      39.845  31.952  35.157  1.00  0.00     0.034 A 
ATOM     47  C   UNL A   1      41.990  28.050  30.399  1.00  0.00     0.049 A 
ATOM     48  C   UNL A   1      40.965  30.952  35.071  1.00  0.00     0.074 A 
ATOM     49  C   UNL A   1      43.099  27.223  30.409  1.00  0.00     0.029 A 
ATOM     50  N   UNL A   1      41.936  28.660  31.643  1.00  0.00    -0.354 N 
ATOM     51  N   UNL A   1      41.361  30.245  34.040  1.00  0.00    -0.248 NA
ATOM     52  C   UNL A   1      41.756  30.732  36.290  1.00  0.00     0.031 C 
ATOM     53  C   UNL A   1      43.695  27.306  31.672  1.00  0.00     0.029 A 
ATOM     54  C   UNL A   1      42.978  28.211  32.436  1.00  0.00     0.049 A 
ATOM     55  H   UNL A   1      41.257  29.316  31.922  1.00  0.00     0.167 HD
ATOM     56  C   UNL A   1      42.466  29.522  34.475  1.00  0.00     0.074 A 
ATOM     57  C   UNL A   1      42.689  29.893  35.857  1.00  0.00     0.031 C 
ATOM     58  C   UNL A   1      43.218  28.622  33.796  1.00  0.00     0.034 A 
BRANCH  45  59
ATOM     59  C   UNL A   1      41.192  27.446  28.080  1.00  0.00     0.023 A 
ATOM     60  C   UNL A   1      41.750  28.041  26.930  1.00  0.00     0.012 A 
ATOM     61  C   UNL A   1      40.847  26.080  28.051  1.00  0.00     0.148 A 
ATOM     62  C   UNL A   1      41.929  27.302  25.762  1.00  0.00     0.002 A 
ATOM     63  C   UNL A   1      41.071  25.337  26.899  1.00  0.00     0.091 A 
ATOM     64  F   UNL A   1      40.301  25.536  29.148  1.00  0.00    -0.205 F 
ATOM     65  C   UNL A   1      41.600  25.950  25.750  1.00  0.00     0.022 A 
BRANCH  63  66
ATOM     66  S   UNL A   1      40.758  23.571  26.805  1.00  0.00     0.127 S 
ATOM     67  O   UNL A   1      41.669  23.167  25.735  1.00  0.00    -0.237 OA
ATOM     68  O   UNL A   1      41.149  23.120  28.141  1.00  0.00    -0.237 OA
ATOM     69  O   UNL A   1      39.341  23.430  26.506  1.00  0.00    -0.744 OA
ENDBRANCH  63  66
ENDBRANCH  45  59
BRANCH  46  70
ATOM     70  C   UNL A   1      39.571  32.687  36.425  1.00  0.00     0.023 A 
ATOM     71  C   UNL A   1      40.259  33.886  36.694  1.00  0.00     0.012 A 
ATOM     72  C   UNL A   1      38.618  32.221  37.350  1.00  0.00     0.148 A 
ATOM     73  C   UNL A   1      40.028  34.589  37.876  1.00  0.00     0.002 A 
ATOM     74  C   UNL A   1      38.350  32.956  38.499  1.00  0.00     0.091 A 
ATOM     75  F   UNL A   1      37.981  31.071  37.082  1.00  0.00    -0.205 F 
ATOM     76  C   UNL A   1      39.066  34.131  38.773  1.00  0.00     0.022 A 
BRANCH  74  77
ATOM     77  S   UNL A   1      37.037  32.513  39.642  1.00  0.00     0.127 S 
ATOM     78  O   UNL A   1      37.429  31.164  40.042  1.00  0.00    -0.237 OA
ATOM     79  O   UNL A   1      37.185  33.532  40.681  1.00  0.00    -0.237 OA
ATOM     80  O   UNL A   1      35.799  32.610  38.879  1.00  0.00    -0.744 OA
ENDBRANCH  74  77
ENDBRANCH  46  70
BRANCH  58  81
ATOM     81  C   UNL A   1      44.377  27.987  34.520  1.00  0.00     0.023 A 
ATOM     82  C   UNL A   1      45.636  28.618  34.519  1.00  0.00     0.012 A 
ATOM     83  C   UNL A   1      44.195  26.808  35.273  1.00  0.00     0.148 A 
ATOM     84  C   UNL A   1      46.703  28.073  35.233  1.00  0.00     0.002 A 
ATOM     85  C   UNL A   1      45.248  26.298  36.021  1.00  0.00     0.091 A 
ATOM     86  F   UNL A   1      42.992  26.215  35.247  1.00  0.00    -0.205 F 
ATOM     87  C   UNL A   1      46.506  26.922  35.993  1.00  0.00     0.022 A 
BRANCH  85  88
ATOM     88  S   UNL A   1      45.066  24.878  37.105  1.00  0.00     0.127 S 
ATOM     89  O   UNL A   1      46.413  24.752  37.660  1.00  0.00    -0.237 OA
ATOM     90  O   UNL A   1      44.055  25.344  38.055  1.00  0.00    -0.237 OA
ATOM     91  O   UNL A   1      44.637  23.774  36.257  1.00  0.00    -0.744 OA
ENDBRANCH  85  88
ENDBRANCH  58  81
ENDBRANCH  32  33
ENDBRANCH  24  27
ENDBRANCH  22  23
ENDBRANCH  21  22
ENDBRANCH   1  21
TORSDOF 18
ENDMDL
MODEL 3
REMARK VINA RESULT:     -11.3      1.639      7.883
REMARK SMILES CC(C)(Nc1ccc(Cl)cc1)C(=O)NCCCCCCNC(=O)c1ccc(-c2c3nc(c(-c4cccc(S(=O)(=O)[O-])c4F)c4ccc([nH]4)c(-c4cccc(S(=O)(=O)[O-])c4F)c4nc(c(-c5cccc(S(=O)(=O)[O-])c5F)c5ccc2[nH]5)C=C4)C=C3)cc1
REMARK SMILES IDX 18 1 17 2 16 3 15 4 14 5 12 6 13 7 2 9 1 10 3 11 4 12 5 14
REMARK SMILES IDX 6 15 11 16 7 17 10 18 8 19 9 20 19 21 20 22 21 23 22 24
REMARK SMILES IDX 23 26 24 27 25 28 86 29 26 30 85 31 27 32 28 33 29 34 79 35
REMARK SMILES IDX 30 36 84 37 78 38 80 39 31 40 83 41 77 42 76 43 32 45 64 46
REMARK SMILES IDX 44 47 63 48 45 49 48 50 62 51 81 52 46 53 47 54 61 56 82 57
REMARK SMILES IDX 49 58 33 59 34 60 42 61 35 62 37 63 43 64 36 65 38 66 39 67
REMARK SMILES IDX 40 68 41 69 65 70 66 71 74 72 67 73 69 74 75 75 68 76 70 77
REMARK SMILES IDX 71 78 72 79 73 80 50 81 51 82 59 83 52 84 54 85 60 86 53 87
REMARK SMILES IDX 55 88 56 89 57 90 58 91
REMARK H PARENT 14 8 4 13 21 25 80 44 48 55
REMARK Flexibility Score: inf
ROOT
ATOM      1  C   UNL A   1      37.297  21.871  24.557  1.00  0.00     0.002 C 
ENDROOT
BRANCH   1   2
ATOM      2  C   UNL A   1      36.685  22.656  25.719  1.00  0.00     0.002 C 
BRANCH   2   3
ATOM      3  C   UNL A   1      35.751  23.794  25.300  1.00  0.00     0.021 C 
BRANCH   3   4
ATOM      4  C   UNL A   1      34.435  23.885  26.069  1.00  0.00     0.116 C 
BRANCH   4   5
ATOM      5  N   UNL A   1      33.538  24.921  25.587  1.00  0.00    -0.354 N 
ATOM      6  C   UNL A   1      32.398  24.860  24.838  1.00  0.00     0.245 C 
ATOM      7  O   UNL A   1      31.870  25.946  24.566  1.00  0.00    -0.272 OA
ATOM      8  H   UNL A   1      33.800  25.834  25.847  1.00  0.00     0.163 HD
BRANCH   6   9
ATOM      9  C   UNL A   1      31.778  23.517  24.362  1.00  0.00     0.111 C 
ATOM     10  C   UNL A   1      30.638  23.781  23.356  1.00  0.00     0.045 C 
ATOM     11  C   UNL A   1      31.126  22.827  25.581  1.00  0.00     0.045 C 
BRANCH   9  12
ATOM     12  N   UNL A   1      32.719  22.575  23.714  1.00  0.00    -0.372 N 
ATOM     13  H   UNL A   1      33.411  22.998  23.155  1.00  0.00     0.161 HD
BRANCH  12  14
ATOM     14  C   UNL A   1      32.776  21.194  23.770  1.00  0.00     0.035 A 
ATOM     15  C   UNL A   1      32.074  20.322  22.931  1.00  0.00     0.027 A 
ATOM     16  C   UNL A   1      33.697  20.608  24.658  1.00  0.00     0.027 A 
ATOM     17  C   UNL A   1      32.370  18.950  22.882  1.00  0.00     0.022 A 
ATOM     18  C   UNL A   1      33.962  19.233  24.655  1.00  0.00     0.022 A 
ATOM     19  C   UNL A   1      33.322  18.414  23.737  1.00  0.00     0.041 A 
ATOM     20  Cl  UNL A   1      33.721  16.744  23.641  1.00  0.00    -0.084 Cl
ENDBRANCH  12  14
ENDBRANCH   9  12
ENDBRANCH   6   9
ENDBRANCH   4   5
ENDBRANCH   3   4
ENDBRANCH   2   3
ENDBRANCH   1   2
BRANCH   1  21
ATOM     21  C   UNL A   1      37.962  20.551  24.954  1.00  0.00     0.021 C 
BRANCH  21  22
ATOM     22  C   UNL A   1      38.994  20.668  26.072  1.00  0.00     0.116 C 
BRANCH  22  23
ATOM     23  N   UNL A   1      39.944  19.566  26.056  1.00  0.00    -0.352 N 
ATOM     24  C   UNL A   1      41.317  19.624  26.101  1.00  0.00     0.251 C 
ATOM     25  H   UNL A   1      39.555  18.664  26.004  1.00  0.00     0.163 HD
ATOM     26  O   UNL A   1      41.995  18.626  25.871  1.00  0.00    -0.269 OA
BRANCH  24  27
ATOM     27  C   UNL A   1      41.966  20.914  26.410  1.00  0.00     0.039 A 
ATOM     28  C   UNL A   1      42.193  21.827  25.379  1.00  0.00     0.014 A 
ATOM     29  C   UNL A   1      42.297  21.235  27.729  1.00  0.00     0.014 A 
ATOM     30  C   UNL A   1      42.688  23.098  25.682  1.00  0.00     0.010 A 
ATOM     31  C   UNL A   1      42.722  22.524  28.036  1.00  0.00     0.010 A 
ATOM     32  C   UNL A   1      42.917  23.471  27.018  1.00  0.00    -0.014 A 
BRANCH  32  33
ATOM     33  C   UNL A   1      43.320  24.855  27.378  1.00  0.00     0.031 A 
ATOM     34  C   UNL A   1      42.326  25.798  27.995  1.00  0.00     0.074 A 
ATOM     35  C   UNL A   1      44.554  25.290  27.055  1.00  0.00     0.049 A 
ATOM     36  N   UNL A   1      42.472  27.061  28.304  1.00  0.00    -0.248 NA
ATOM     37  C   UNL A   1      40.986  25.262  28.281  1.00  0.00     0.031 C 
ATOM     38  C   UNL A   1      45.584  24.493  26.385  1.00  0.00     0.029 A 
ATOM     39  N   UNL A   1      45.141  26.522  27.214  1.00  0.00    -0.354 N 
ATOM     40  C   UNL A   1      41.238  27.480  28.786  1.00  0.00     0.074 A 
ATOM     41  C   UNL A   1      40.345  26.344  28.703  1.00  0.00     0.031 C 
ATOM     42  C   UNL A   1      46.673  25.254  26.190  1.00  0.00     0.029 A 
ATOM     43  C   UNL A   1      46.409  26.601  26.685  1.00  0.00     0.049 A 
ATOM     44  H   UNL A   1      44.697  27.276  27.665  1.00  0.00     0.167 HD
ATOM     45  C   UNL A   1      40.886  28.691  29.279  1.00  0.00     0.034 A 
ATOM     46  C   UNL A   1      47.256  27.646  26.589  1.00  0.00     0.034 A 
ATOM     47  C   UNL A   1      41.785  29.808  29.391  1.00  0.00     0.049 A 
ATOM     48  C   UNL A   1      46.845  28.977  27.156  1.00  0.00     0.074 A 
ATOM     49  C   UNL A   1      41.550  31.046  29.960  1.00  0.00     0.029 A 
ATOM     50  N   UNL A   1      43.085  29.830  28.909  1.00  0.00    -0.354 N 
ATOM     51  N   UNL A   1      45.729  29.306  27.759  1.00  0.00    -0.248 NA
ATOM     52  C   UNL A   1      47.820  30.073  27.057  1.00  0.00     0.031 C 
ATOM     53  C   UNL A   1      42.696  31.830  29.791  1.00  0.00     0.029 A 
ATOM     54  C   UNL A   1      43.657  31.068  29.148  1.00  0.00     0.049 A 
ATOM     55  H   UNL A   1      43.535  29.076  28.464  1.00  0.00     0.167 HD
ATOM     56  C   UNL A   1      45.878  30.636  28.139  1.00  0.00     0.074 A 
ATOM     57  C   UNL A   1      47.202  31.044  27.717  1.00  0.00     0.031 C 
ATOM     58  C   UNL A   1      44.993  31.448  28.765  1.00  0.00     0.034 A 
BRANCH  45  59
ATOM     59  C   UNL A   1      39.474  28.863  29.775  1.00  0.00     0.023 A 
ATOM     60  C   UNL A   1      39.146  28.483  31.093  1.00  0.00     0.012 A 
ATOM     61  C   UNL A   1      38.489  29.461  28.965  1.00  0.00     0.148 A 
ATOM     62  C   UNL A   1      37.853  28.662  31.584  1.00  0.00     0.002 A 
ATOM     63  C   UNL A   1      37.215  29.678  29.475  1.00  0.00     0.091 A 
ATOM     64  F   UNL A   1      38.813  29.798  27.708  1.00  0.00    -0.205 F 
ATOM     65  C   UNL A   1      36.893  29.268  30.780  1.00  0.00     0.022 A 
BRANCH  63  66
ATOM     66  S   UNL A   1      35.929  30.525  28.550  1.00  0.00     0.127 S 
ATOM     67  O   UNL A   1      35.264  29.407  27.881  1.00  0.00    -0.237 OA
ATOM     68  O   UNL A   1      35.145  31.149  29.616  1.00  0.00    -0.237 OA
ATOM     69  O   UNL A   1      36.615  31.460  27.671  1.00  0.00    -0.744 OA
ENDBRANCH  63  66
ENDBRANCH  45  59
BRANCH  46  70
ATOM     70  C   UNL A   1      48.599  27.461  25.967  1.00  0.00     0.023 A 
ATOM     71  C   UNL A   1      49.692  27.091  26.775  1.00  0.00     0.012 A 
ATOM     72  C   UNL A   1      48.793  27.622  24.582  1.00  0.00     0.148 A 
ATOM     73  C   UNL A   1      50.960  26.918  26.220  1.00  0.00     0.002 A 
ATOM     74  C   UNL A   1      50.046  27.392  24.027  1.00  0.00     0.091 A 
ATOM     75  F   UNL A   1      47.743  27.986  23.831  1.00  0.00    -0.205 F 
ATOM     76  C   UNL A   1      51.136  27.058  24.846  1.00  0.00     0.022 A 
BRANCH  74  77
ATOM     77  S   UNL A   1      50.334  27.420  22.254  1.00  0.00     0.127 S 
ATOM     78  O   UNL A   1      49.304  26.504  21.768  1.00  0.00    -0.237 OA
ATOM     79  O   UNL A   1      50.107  28.829  21.933  1.00  0.00    -0.237 OA
ATOM     80  O   UNL A   1      51.710  26.977  22.070  1.00  0.00    -0.744 OA
ENDBRANCH  74  77
ENDBRANCH  46  70
BRANCH  58  81
ATOM     81  C   UNL A   1      45.427  32.860  29.066  1.00  0.00     0.023 A 
ATOM     82  C   UNL A   1      46.233  33.121  30.191  1.00  0.00     0.012 A 
ATOM     83  C   UNL A   1      45.106  33.913  28.185  1.00  0.00     0.148 A 
ATOM     84  C   UNL A   1      46.691  34.413  30.450  1.00  0.00     0.002 A 
ATOM     85  C   UNL A   1      45.607  35.187  28.422  1.00  0.00     0.091 A 
ATOM     86  F   UNL A   1      44.325  33.645  27.129  1.00  0.00    -0.205 F 
ATOM     87  C   UNL A   1      46.389  35.441  29.560  1.00  0.00     0.022 A 
BRANCH  85  88
ATOM     88  S   UNL A   1      45.354  36.553  27.284  1.00  0.00     0.127 S 
ATOM     89  O   UNL A   1      45.581  37.708  28.151  1.00  0.00    -0.237 OA
ATOM     90  O   UNL A   1      46.400  36.322  26.288  1.00  0.00    -0.237 OA
ATOM     91  O   UNL A   1      43.994  36.412  26.780  1.00  0.00    -0.744 OA
ENDBRANCH  85  88
ENDBRANCH  58  81
ENDBRANCH  32  33
ENDBRANCH  24  27
ENDBRANCH  22  23
ENDBRANCH  21  22
ENDBRANCH   1  21
TORSDOF 18
ENDMDL
