MODEL 1
REMARK VINA RESULT:     -11.9      0.000      0.000
REMARK SMILES Cc1cc(C)c(NC(=O)C2(C)CCCC2)c(C(=O)NCCCCCCNC(=O)c2ccc(-c3c4nc(c(-c5cccc(S(=O)(=O)[O-])c5F)c5ccc([nH]5)c(-c5cccc(S(=O)(=O)[O-])c5F)c5nc(c(-c6cccc(S(=O)(=O)[O-])c6F)c6ccc3[nH]6)C=C5)C=C4)cc2)c1
REMARK SMILES IDX 23 1 22 2 21 3 20 4 19 5 17 6 18 7 16 9 1 10 2 11 3 12 92 13
REMARK SMILES IDX 4 14 5 15 6 16 7 17 8 18 9 20 10 21 11 22 12 23 15 24 13 25
REMARK SMILES IDX 14 26 24 27 25 28 26 29 27 30 28 32 29 33 30 34 91 35 31 36
REMARK SMILES IDX 90 37 32 38 33 39 34 40 84 41 35 42 89 43 83 44 85 45 36 46
REMARK SMILES IDX 88 47 82 48 81 49 37 51 69 52 49 53 68 54 50 55 53 56 67 57
REMARK SMILES IDX 86 58 51 59 52 60 66 62 87 63 54 64 38 65 39 66 47 67 40 68
REMARK SMILES IDX 42 69 48 70 41 71 43 72 44 73 45 74 46 75 70 76 71 77 79 78
REMARK SMILES IDX 72 79 74 80 80 81 73 82 75 83 76 84 77 85 78 86 55 87 56 88
REMARK SMILES IDX 64 89 57 90 59 91 65 92 58 93 60 94 61 95 62 96 63 97
REMARK H PARENT 19 8 7 19 26 31 85 50 53 61
REMARK Flexibility Score: inf
ROOT
ATOM      1  C   UNL A   1      31.315  31.255  25.827  1.00  0.00     0.002 C 
ENDROOT
BRANCH   1   2
ATOM      2  C   UNL A   1      31.885  29.834  25.933  1.00  0.00     0.002 C 
BRANCH   2   3
ATOM      3  C   UNL A   1      31.686  29.151  27.295  1.00  0.00     0.021 C 
BRANCH   3   4
ATOM      4  C   UNL A   1      32.310  27.754  27.372  1.00  0.00     0.116 C 
BRANCH   4   5
ATOM      5  N   UNL A   1      31.384  26.730  26.923  1.00  0.00    -0.352 N 
ATOM      6  C   UNL A   1      31.281  25.898  25.837  1.00  0.00     0.253 C 
ATOM      7  O   UNL A   1      30.280  25.171  25.850  1.00  0.00    -0.269 OA
ATOM      8  H   UNL A   1      30.644  26.599  27.558  1.00  0.00     0.163 HD
BRANCH   6   9
ATOM      9  C   UNL A   1      32.218  25.830  24.653  1.00  0.00     0.063 A 
ATOM     10  C   UNL A   1      33.904  28.167  22.132  1.00  0.00     0.044 C 
ATOM     11  C   UNL A   1      33.425  26.916  22.812  1.00  0.00    -0.050 A 
ATOM     12  C   UNL A   1      33.715  25.668  22.275  1.00  0.00     0.009 A 
ATOM     13  C   UNL A   1      32.614  26.980  23.950  1.00  0.00     0.019 A 
ATOM     14  C   UNL A   1      33.242  24.496  22.888  1.00  0.00    -0.026 A 
ATOM     15  C   UNL A   1      33.022  23.317  21.968  1.00  0.00     0.046 C 
ATOM     16  C   UNL A   1      32.656  24.556  24.167  1.00  0.00     0.056 A 
BRANCH  16  17
ATOM     17  N   UNL A   1      32.322  23.382  24.880  1.00  0.00    -0.325 N 
ATOM     18  C   UNL A   1      32.999  22.314  25.396  1.00  0.00     0.230 C 
ATOM     19  H   UNL A   1      31.355  23.318  25.047  1.00  0.00     0.169 HD
ATOM     20  O   UNL A   1      32.372  21.243  25.401  1.00  0.00    -0.274 OA
BRANCH  18  21
ATOM     21  C   UNL A   1      34.340  22.426  26.200  1.00  0.00     0.047 C 
ATOM     22  C   UNL A   1      34.027  22.176  27.682  1.00  0.00     0.022 C 
ATOM     23  C   UNL A   1      35.318  21.328  25.693  1.00  0.00     0.016 C 
ATOM     24  C   UNL A   1      35.244  23.656  26.039  1.00  0.00     0.016 C 
ATOM     25  C   UNL A   1      35.943  21.943  24.448  1.00  0.00     0.001 C 
ATOM     26  C   UNL A   1      36.103  23.418  24.792  1.00  0.00     0.001 C 
ENDBRANCH  18  21
ENDBRANCH  16  17
ENDBRANCH   6   9
ENDBRANCH   4   5
ENDBRANCH   3   4
ENDBRANCH   2   3
ENDBRANCH   1   2
BRANCH   1  27
ATOM     27  C   UNL A   1      31.435  32.103  27.097  1.00  0.00     0.021 C 
BRANCH  27  28
ATOM     28  C   UNL A   1      32.788  32.789  27.268  1.00  0.00     0.116 C 
BRANCH  28  29
ATOM     29  N   UNL A   1      32.632  34.188  27.644  1.00  0.00    -0.352 N 
ATOM     30  C   UNL A   1      33.202  34.872  28.685  1.00  0.00     0.251 C 
ATOM     31  H   UNL A   1      32.031  34.715  27.069  1.00  0.00     0.163 HD
ATOM     32  O   UNL A   1      32.762  35.976  29.008  1.00  0.00    -0.269 OA
BRANCH  30  33
ATOM     33  C   UNL A   1      34.344  34.288  29.416  1.00  0.00     0.039 A 
ATOM     34  C   UNL A   1      34.109  33.573  30.594  1.00  0.00     0.014 A 
ATOM     35  C   UNL A   1      35.650  34.470  28.951  1.00  0.00     0.014 A 
ATOM     36  C   UNL A   1      35.183  33.003  31.283  1.00  0.00     0.010 A 
ATOM     37  C   UNL A   1      36.710  33.845  29.601  1.00  0.00     0.010 A 
ATOM     38  C   UNL A   1      36.489  33.118  30.780  1.00  0.00    -0.014 A 
BRANCH  38  39
ATOM     39  C   UNL A   1      37.640  32.485  31.472  1.00  0.00     0.031 A 
ATOM     40  C   UNL A   1      38.379  31.347  30.822  1.00  0.00     0.074 A 
ATOM     41  C   UNL A   1      37.958  32.873  32.721  1.00  0.00     0.049 A 
ATOM     42  N   UNL A   1      39.367  30.631  31.291  1.00  0.00    -0.248 NA
ATOM     43  C   UNL A   1      37.929  30.939  29.480  1.00  0.00     0.031 C 
ATOM     44  C   UNL A   1      37.262  33.908  33.487  1.00  0.00     0.029 A 
ATOM     45  N   UNL A   1      38.930  32.421  33.578  1.00  0.00    -0.354 N 
ATOM     46  C   UNL A   1      39.631  29.668  30.325  1.00  0.00     0.074 A 
ATOM     47  C   UNL A   1      38.678  29.869  29.257  1.00  0.00     0.031 C 
ATOM     48  C   UNL A   1      37.831  34.014  34.700  1.00  0.00     0.029 A 
ATOM     49  C   UNL A   1      38.913  33.040  34.806  1.00  0.00     0.049 A 
ATOM     50  H   UNL A   1      39.579  31.720  33.338  1.00  0.00     0.167 HD
ATOM     51  C   UNL A   1      40.600  28.722  30.312  1.00  0.00     0.034 A 
ATOM     52  C   UNL A   1      39.680  32.844  35.896  1.00  0.00     0.034 A 
ATOM     53  C   UNL A   1      41.578  28.559  31.355  1.00  0.00     0.049 A 
ATOM     54  C   UNL A   1      40.784  31.823  35.837  1.00  0.00     0.074 A 
ATOM     55  C   UNL A   1      42.661  27.699  31.392  1.00  0.00     0.029 A 
ATOM     56  N   UNL A   1      41.589  29.270  32.545  1.00  0.00    -0.354 N 
ATOM     57  N   UNL A   1      41.125  31.034  34.846  1.00  0.00    -0.248 NA
ATOM     58  C   UNL A   1      41.631  31.691  37.029  1.00  0.00     0.031 C 
ATOM     59  C   UNL A   1      43.316  27.876  32.616  1.00  0.00     0.029 A 
ATOM     60  C   UNL A   1      42.653  28.861  33.331  1.00  0.00     0.049 A 
ATOM     61  H   UNL A   1      40.936  29.962  32.796  1.00  0.00     0.167 HD
ATOM     62  C   UNL A   1      42.246  30.337  35.281  1.00  0.00     0.074 A 
ATOM     63  C   UNL A   1      42.537  30.812  36.620  1.00  0.00     0.031 C 
ATOM     64  C   UNL A   1      42.959  29.379  34.640  1.00  0.00     0.034 A 
BRANCH  51  65
ATOM     65  C   UNL A   1      40.684  27.825  29.104  1.00  0.00     0.023 A 
ATOM     66  C   UNL A   1      39.833  26.703  29.012  1.00  0.00     0.012 A 
ATOM     67  C   UNL A   1      41.565  28.111  28.044  1.00  0.00     0.148 A 
ATOM     68  C   UNL A   1      39.887  25.858  27.904  1.00  0.00     0.002 A 
ATOM     69  C   UNL A   1      41.582  27.288  26.922  1.00  0.00     0.091 A 
ATOM     70  F   UNL A   1      42.383  29.167  28.156  1.00  0.00    -0.205 F 
ATOM     71  C   UNL A   1      40.754  26.156  26.857  1.00  0.00     0.022 A 
BRANCH  69  72
ATOM     72  S   UNL A   1      42.608  27.634  25.489  1.00  0.00     0.127 S 
ATOM     73  O   UNL A   1      42.334  26.472  24.642  1.00  0.00    -0.237 OA
ATOM     74  O   UNL A   1      42.037  28.891  24.997  1.00  0.00    -0.237 OA
ATOM     75  O   UNL A   1      43.968  27.743  25.987  1.00  0.00    -0.744 OA
ENDBRANCH  69  72
ENDBRANCH  51  65
BRANCH  52  76
ATOM     76  C   UNL A   1      39.480  33.693  37.103  1.00  0.00     0.023 A 
ATOM     77  C   UNL A   1      39.897  35.037  37.076  1.00  0.00     0.012 A 
ATOM     78  C   UNL A   1      38.839  33.195  38.255  1.00  0.00     0.148 A 
ATOM     79  C   UNL A   1      39.703  35.865  38.181  1.00  0.00     0.002 A 
ATOM     80  C   UNL A   1      38.599  34.040  39.333  1.00  0.00     0.091 A 
ATOM     81  F   UNL A   1      38.458  31.909  38.264  1.00  0.00    -0.205 F 
ATOM     82  C   UNL A   1      39.045  35.370  39.305  1.00  0.00     0.022 A 
BRANCH  80  83
ATOM     83  S   UNL A   1      37.643  33.526  40.764  1.00  0.00     0.127 S 
ATOM     84  O   UNL A   1      37.733  34.704  41.623  1.00  0.00    -0.237 OA
ATOM     85  O   UNL A   1      36.322  33.292  40.175  1.00  0.00    -0.237 OA
ATOM     86  O   UNL A   1      38.296  32.326  41.264  1.00  0.00    -0.744 OA
ENDBRANCH  80  83
ENDBRANCH  52  76
BRANCH  64  87
ATOM     87  C   UNL A   1      44.145  28.792  35.360  1.00  0.00     0.023 A 
ATOM     88  C   UNL A   1      45.421  29.362  35.184  1.00  0.00     0.012 A 
ATOM     89  C   UNL A   1      43.981  27.726  36.268  1.00  0.00     0.148 A 
ATOM     90  C   UNL A   1      46.522  28.862  35.879  1.00  0.00     0.002 A 
ATOM     91  C   UNL A   1      45.073  27.265  36.993  1.00  0.00     0.091 A 
ATOM     92  F   UNL A   1      42.762  27.185  36.406  1.00  0.00    -0.205 F 
ATOM     93  C   UNL A   1      46.346  27.824  36.791  1.00  0.00     0.022 A 
BRANCH  91  94
ATOM     94  S   UNL A   1      44.923  25.997  38.257  1.00  0.00     0.127 S 
ATOM     95  O   UNL A   1      43.891  26.563  39.123  1.00  0.00    -0.237 OA
ATOM     96  O   UNL A   1      44.496  24.832  37.480  1.00  0.00    -0.237 OA
ATOM     97  O   UNL A   1      46.245  25.872  38.855  1.00  0.00    -0.744 OA
ENDBRANCH  91  94
ENDBRANCH  64  87
ENDBRANCH  38  39
ENDBRANCH  30  33
ENDBRANCH  28  29
ENDBRANCH  27  28
ENDBRANCH   1  27
TORSDOF 18
ENDMDL
MODEL 2
REMARK VINA RESULT:     -11.3      6.303     11.540
REMARK SMILES Cc1cc(C)c(NC(=O)C2(C)CCCC2)c(C(=O)NCCCCCCNC(=O)c2ccc(-c3c4nc(c(-c5cccc(S(=O)(=O)[O-])c5F)c5ccc([nH]5)c(-c5cccc(S(=O)(=O)[O-])c5F)c5nc(c(-c6cccc(S(=O)(=O)[O-])c6F)c6ccc3[nH]6)C=C5)C=C4)cc2)c1
REMARK SMILES IDX 23 1 22 2 21 3 20 4 19 5 17 6 18 7 16 9 1 10 2 11 3 12 92 13
REMARK SMILES IDX 4 14 5 15 6 16 7 17 8 18 9 20 10 21 11 22 12 23 15 24 13 25
REMARK SMILES IDX 14 26 24 27 25 28 26 29 27 30 28 32 29 33 30 34 91 35 31 36
REMARK SMILES IDX 90 37 32 38 33 39 34 40 84 41 35 42 89 43 83 44 85 45 36 46
REMARK SMILES IDX 88 47 82 48 81 49 37 51 69 52 49 53 68 54 50 55 53 56 67 57
REMARK SMILES IDX 86 58 51 59 52 60 66 62 87 63 54 64 38 65 39 66 47 67 40 68
REMARK SMILES IDX 42 69 48 70 41 71 43 72 44 73 45 74 46 75 70 76 71 77 79 78
REMARK SMILES IDX 72 79 74 80 80 81 73 82 75 83 76 84 77 85 78 86 55 87 56 88
REMARK SMILES IDX 64 89 57 90 59 91 65 92 58 93 60 94 61 95 62 96 63 97
REMARK H PARENT 19 8 7 19 26 31 85 50 53 61
REMARK Flexibility Score: inf
ROOT
ATOM      1  C   UNL A   1      36.744  20.342  24.637  1.00  0.00     0.002 C 
ENDROOT
BRANCH   1   2
ATOM      2  C   UNL A   1      36.987  21.838  24.879  1.00  0.00     0.002 C 
BRANCH   2   3
ATOM      3  C   UNL A   1      36.405  22.775  23.808  1.00  0.00     0.021 C 
BRANCH   3   4
ATOM      4  C   UNL A   1      35.128  23.492  24.256  1.00  0.00     0.116 C 
BRANCH   4   5
ATOM      5  N   UNL A   1      34.343  23.945  23.121  1.00  0.00    -0.352 N 
ATOM      6  C   UNL A   1      33.072  24.421  22.925  1.00  0.00     0.253 C 
ATOM      7  O   UNL A   1      32.804  24.676  21.744  1.00  0.00    -0.269 OA
ATOM      8  H   UNL A   1      34.853  23.899  22.280  1.00  0.00     0.163 HD
BRANCH   6   9
ATOM      9  C   UNL A   1      32.000  24.609  23.974  1.00  0.00     0.063 A 
ATOM     10  C   UNL A   1      30.400  22.697  26.879  1.00  0.00     0.044 C 
ATOM     11  C   UNL A   1      30.653  23.748  25.836  1.00  0.00    -0.050 A 
ATOM     12  C   UNL A   1      29.809  24.845  25.723  1.00  0.00     0.009 A 
ATOM     13  C   UNL A   1      31.690  23.607  24.908  1.00  0.00     0.019 A 
ATOM     14  C   UNL A   1      30.021  25.814  24.729  1.00  0.00    -0.026 A 
ATOM     15  C   UNL A   1      28.789  26.550  24.257  1.00  0.00     0.046 C 
ATOM     16  C   UNL A   1      31.210  25.803  23.976  1.00  0.00     0.056 A 
BRANCH  16  17
ATOM     17  N   UNL A   1      31.529  26.855  23.087  1.00  0.00    -0.325 N 
ATOM     18  C   UNL A   1      32.035  28.118  23.193  1.00  0.00     0.230 C 
ATOM     19  H   UNL A   1      31.337  26.615  22.152  1.00  0.00     0.169 HD
ATOM     20  O   UNL A   1      31.621  28.927  22.348  1.00  0.00    -0.274 OA
BRANCH  18  21
ATOM     21  C   UNL A   1      33.258  28.504  24.094  1.00  0.00     0.047 C 
ATOM     22  C   UNL A   1      34.403  28.951  23.175  1.00  0.00     0.022 C 
ATOM     23  C   UNL A   1      32.847  29.692  25.011  1.00  0.00     0.016 C 
ATOM     24  C   UNL A   1      33.774  27.533  25.165  1.00  0.00     0.016 C 
ATOM     25  C   UNL A   1      32.125  29.023  26.173  1.00  0.00     0.001 C 
ATOM     26  C   UNL A   1      32.896  27.731  26.406  1.00  0.00     0.001 C 
ENDBRANCH  18  21
ENDBRANCH  16  17
ENDBRANCH   6   9
ENDBRANCH   4   5
ENDBRANCH   3   4
ENDBRANCH   2   3
ENDBRANCH   1   2
BRANCH   1  27
ATOM     27  C   UNL A   1      37.914  19.423  25.000  1.00  0.00     0.021 C 
BRANCH  27  28
ATOM     28  C   UNL A   1      39.000  20.089  25.839  1.00  0.00     0.116 C 
BRANCH  28  29
ATOM     29  N   UNL A   1      40.145  19.208  26.025  1.00  0.00    -0.352 N 
ATOM     30  C   UNL A   1      41.468  19.530  26.176  1.00  0.00     0.251 C 
ATOM     31  H   UNL A   1      39.939  18.245  26.044  1.00  0.00     0.163 HD
ATOM     32  O   UNL A   1      42.329  18.657  26.063  1.00  0.00    -0.269 OA
BRANCH  30  33
ATOM     33  C   UNL A   1      41.860  20.921  26.479  1.00  0.00     0.039 A 
ATOM     34  C   UNL A   1      42.178  21.271  27.795  1.00  0.00     0.014 A 
ATOM     35  C   UNL A   1      41.885  21.886  25.468  1.00  0.00     0.014 A 
ATOM     36  C   UNL A   1      42.565  22.581  28.087  1.00  0.00     0.010 A 
ATOM     37  C   UNL A   1      42.336  23.172  25.749  1.00  0.00     0.010 A 
ATOM     38  C   UNL A   1      42.667  23.536  27.063  1.00  0.00    -0.014 A 
BRANCH  38  39
ATOM     39  C   UNL A   1      43.116  24.923  27.342  1.00  0.00     0.031 A 
ATOM     40  C   UNL A   1      42.163  25.919  27.944  1.00  0.00     0.074 A 
ATOM     41  C   UNL A   1      44.350  25.309  26.967  1.00  0.00     0.049 A 
ATOM     42  N   UNL A   1      42.351  27.186  28.205  1.00  0.00    -0.248 NA
ATOM     43  C   UNL A   1      40.810  25.436  28.268  1.00  0.00     0.031 C 
ATOM     44  C   UNL A   1      45.335  24.457  26.298  1.00  0.00     0.029 A 
ATOM     45  N   UNL A   1      44.976  26.526  27.067  1.00  0.00    -0.354 N 
ATOM     46  C   UNL A   1      41.136  27.660  28.686  1.00  0.00     0.074 A 
ATOM     47  C   UNL A   1      40.207  26.552  28.649  1.00  0.00     0.031 C 
ATOM     48  C   UNL A   1      46.442  25.176  26.050  1.00  0.00     0.029 A 
ATOM     49  C   UNL A   1      46.237  26.543  26.519  1.00  0.00     0.049 A 
ATOM     50  H   UNL A   1      44.563  27.313  27.491  1.00  0.00     0.167 HD
ATOM     51  C   UNL A   1      40.829  28.896  29.146  1.00  0.00     0.034 A 
ATOM     52  C   UNL A   1      47.128  27.548  26.404  1.00  0.00     0.034 A 
ATOM     53  C   UNL A   1      41.772  29.980  29.228  1.00  0.00     0.049 A 
ATOM     54  C   UNL A   1      46.782  28.898  26.972  1.00  0.00     0.074 A 
ATOM     55  C   UNL A   1      41.589  31.239  29.770  1.00  0.00     0.029 A 
ATOM     56  N   UNL A   1      43.072  29.933  28.750  1.00  0.00    -0.354 N 
ATOM     57  N   UNL A   1      45.683  29.281  27.576  1.00  0.00    -0.248 NA
ATOM     58  C   UNL A   1      47.811  29.942  26.876  1.00  0.00     0.031 C 
ATOM     59  C   UNL A   1      42.776  31.961  29.603  1.00  0.00     0.029 A 
ATOM     60  C   UNL A   1      43.703  31.145  28.974  1.00  0.00     0.049 A 
ATOM     61  H   UNL A   1      43.486  29.154  28.314  1.00  0.00     0.167 HD
ATOM     62  C   UNL A   1      45.900  30.598  27.962  1.00  0.00     0.074 A 
ATOM     63  C   UNL A   1      47.244  30.941  27.541  1.00  0.00     0.031 C 
ATOM     64  C   UNL A   1      45.058  31.453  28.594  1.00  0.00     0.034 A 
BRANCH  51  65
ATOM     65  C   UNL A   1      39.428  29.124  29.651  1.00  0.00     0.023 A 
ATOM     66  C   UNL A   1      39.104  28.781  30.981  1.00  0.00     0.012 A 
ATOM     67  C   UNL A   1      38.445  29.715  28.833  1.00  0.00     0.148 A 
ATOM     68  C   UNL A   1      37.817  28.984  31.475  1.00  0.00     0.002 A 
ATOM     69  C   UNL A   1      37.175  29.955  29.347  1.00  0.00     0.091 A 
ATOM     70  F   UNL A   1      38.761  30.014  27.565  1.00  0.00    -0.205 F 
ATOM     71  C   UNL A   1      36.856  29.579  30.662  1.00  0.00     0.022 A 
BRANCH  69  72
ATOM     72  S   UNL A   1      35.895  30.788  28.401  1.00  0.00     0.127 S 
ATOM     73  O   UNL A   1      36.582  32.014  27.993  1.00  0.00    -0.237 OA
ATOM     74  O   UNL A   1      35.648  29.839  27.312  1.00  0.00    -0.237 OA
ATOM     75  O   UNL A   1      34.777  30.966  29.312  1.00  0.00    -0.744 OA
ENDBRANCH  69  72
ENDBRANCH  51  65
BRANCH  52  76
ATOM     76  C   UNL A   1      48.463  27.286  25.797  1.00  0.00     0.023 A 
ATOM     77  C   UNL A   1      49.495  26.767  26.602  1.00  0.00     0.012 A 
ATOM     78  C   UNL A   1      48.703  27.500  24.426  1.00  0.00     0.148 A 
ATOM     79  C   UNL A   1      50.749  26.489  26.061  1.00  0.00     0.002 A 
ATOM     80  C   UNL A   1      49.938  27.170  23.880  1.00  0.00     0.091 A 
ATOM     81  F   UNL A   1      47.710  28.004  23.679  1.00  0.00    -0.205 F 
ATOM     82  C   UNL A   1      50.968  26.680  24.698  1.00  0.00     0.022 A 
BRANCH  80  83
ATOM     83  S   UNL A   1      50.265  27.256  22.115  1.00  0.00     0.127 S 
ATOM     84  O   UNL A   1      49.265  26.334  21.580  1.00  0.00    -0.237 OA
ATOM     85  O   UNL A   1      50.014  28.671  21.831  1.00  0.00    -0.237 OA
ATOM     86  O   UNL A   1      51.652  26.850  21.951  1.00  0.00    -0.744 OA
ENDBRANCH  80  83
ENDBRANCH  52  76
BRANCH  64  87
ATOM     87  C   UNL A   1      45.567  32.838  28.896  1.00  0.00     0.023 A 
ATOM     88  C   UNL A   1      46.364  33.056  30.037  1.00  0.00     0.012 A 
ATOM     89  C   UNL A   1      45.319  33.906  28.010  1.00  0.00     0.148 A 
ATOM     90  C   UNL A   1      46.884  34.322  30.307  1.00  0.00     0.002 A 
ATOM     91  C   UNL A   1      45.879  35.153  28.260  1.00  0.00     0.091 A 
ATOM     92  F   UNL A   1      44.541  33.683  26.940  1.00  0.00    -0.205 F 
ATOM     93  C   UNL A   1      46.652  35.365  29.414  1.00  0.00     0.022 A 
BRANCH  91  94
ATOM     94  S   UNL A   1      45.714  36.528  27.116  1.00  0.00     0.127 S 
ATOM     95  O   UNL A   1      46.345  37.614  27.863  1.00  0.00    -0.237 OA
ATOM     96  O   UNL A   1      46.475  36.063  25.956  1.00  0.00    -0.237 OA
ATOM     97  O   UNL A   1      44.284  36.679  26.879  1.00  0.00    -0.744 OA
ENDBRANCH  91  94
ENDBRANCH  64  87
ENDBRANCH  38  39
ENDBRANCH  30  33
ENDBRANCH  28  29
ENDBRANCH  27  28
ENDBRANCH   1  27
TORSDOF 18
ENDMDL
MODEL 3
REMARK VINA RESULT:     -11.3      6.113     10.168
REMARK SMILES Cc1cc(C)c(NC(=O)C2(C)CCCC2)c(C(=O)NCCCCCCNC(=O)c2ccc(-c3c4nc(c(-c5cccc(S(=O)(=O)[O-])c5F)c5ccc([nH]5)c(-c5cccc(S(=O)(=O)[O-])c5F)c5nc(c(-c6cccc(S(=O)(=O)[O-])c6F)c6ccc3[nH]6)C=C5)C=C4)cc2)c1
REMARK SMILES IDX 23 1 22 2 21 3 20 4 19 5 17 6 18 7 16 9 1 10 2 11 3 12 92 13
REMARK SMILES IDX 4 14 5 15 6 16 7 17 8 18 9 20 10 21 11 22 12 23 15 24 13 25
REMARK SMILES IDX 14 26 24 27 25 28 26 29 27 30 28 32 29 33 30 34 91 35 31 36
REMARK SMILES IDX 90 37 32 38 33 39 34 40 84 41 35 42 89 43 83 44 85 45 36 46
REMARK SMILES IDX 88 47 82 48 81 49 37 51 69 52 49 53 68 54 50 55 53 56 67 57
REMARK SMILES IDX 86 58 51 59 52 60 66 62 87 63 54 64 38 65 39 66 47 67 40 68
REMARK SMILES IDX 42 69 48 70 41 71 43 72 44 73 45 74 46 75 70 76 71 77 79 78
REMARK SMILES IDX 72 79 74 80 80 81 73 82 75 83 76 84 77 85 78 86 55 87 56 88
REMARK SMILES IDX 64 89 57 90 59 91 65 92 58 93 60 94 61 95 62 96 63 97
REMARK H PARENT 19 8 7 19 26 31 85 50 53 61
REMARK Flexibility Score: inf
ROOT
ATOM      1  C   UNL A   1      40.820  22.066  27.799  1.00  0.00     0.002 C 
ENDROOT
BRANCH   1   2
ATOM      2  C   UNL A   1      40.312  22.848  26.580  1.00  0.00     0.002 C 
BRANCH   2   3
ATOM      3  C   UNL A   1      38.998  23.614  26.798  1.00  0.00     0.021 C 
BRANCH   3   4
ATOM      4  C   UNL A   1      37.856  23.129  25.899  1.00  0.00     0.116 C 
BRANCH   4   5
ATOM      5  N   UNL A   1      36.597  23.067  26.621  1.00  0.00    -0.352 N 
ATOM      6  C   UNL A   1      35.289  23.381  26.356  1.00  0.00     0.253 C 
ATOM      7  O   UNL A   1      34.518  23.181  27.303  1.00  0.00    -0.269 OA
ATOM      8  H   UNL A   1      36.713  22.708  27.531  1.00  0.00     0.163 HD
BRANCH   6   9
ATOM      9  C   UNL A   1      34.738  23.972  25.078  1.00  0.00     0.063 A 
ATOM     10  C   UNL A   1      33.488  27.325  23.720  1.00  0.00     0.044 C 
ATOM     11  C   UNL A   1      33.793  25.858  23.824  1.00  0.00    -0.050 A 
ATOM     12  C   UNL A   1      33.436  24.991  22.801  1.00  0.00     0.009 A 
ATOM     13  C   UNL A   1      34.368  25.323  24.982  1.00  0.00     0.019 A 
ATOM     14  C   UNL A   1      33.689  23.613  22.908  1.00  0.00    -0.026 A 
ATOM     15  C   UNL A   1      32.747  22.712  22.143  1.00  0.00     0.046 C 
ATOM     16  C   UNL A   1      34.499  23.124  23.949  1.00  0.00     0.056 A 
BRANCH  16  17
ATOM     17  N   UNL A   1      34.909  21.771  23.991  1.00  0.00    -0.325 N 
ATOM     18  C   UNL A   1      34.542  20.649  24.677  1.00  0.00     0.230 C 
ATOM     19  H   UNL A   1      35.648  21.593  23.366  1.00  0.00     0.169 HD
ATOM     20  O   UNL A   1      35.460  19.848  24.910  1.00  0.00    -0.274 OA
BRANCH  18  21
ATOM     21  C   UNL A   1      33.057  20.211  24.919  1.00  0.00     0.047 C 
ATOM     22  C   UNL A   1      32.320  21.379  25.589  1.00  0.00     0.022 C 
ATOM     23  C   UNL A   1      32.395  19.913  23.543  1.00  0.00     0.016 C 
ATOM     24  C   UNL A   1      32.741  18.891  25.636  1.00  0.00     0.016 C 
ATOM     25  C   UNL A   1      32.828  18.487  23.230  1.00  0.00     0.001 C 
ATOM     26  C   UNL A   1      32.814  17.782  24.580  1.00  0.00     0.001 C 
ENDBRANCH  18  21
ENDBRANCH  16  17
ENDBRANCH   6   9
ENDBRANCH   4   5
ENDBRANCH   3   4
ENDBRANCH   2   3
ENDBRANCH   1   2
BRANCH   1  27
ATOM     27  C   UNL A   1      41.192  20.605  27.529  1.00  0.00     0.021 C 
BRANCH  27  28
ATOM     28  C   UNL A   1      41.129  20.201  26.059  1.00  0.00     0.116 C 
BRANCH  28  29
ATOM     29  N   UNL A   1      42.366  19.565  25.628  1.00  0.00    -0.352 N 
ATOM     30  C   UNL A   1      43.566  20.141  25.302  1.00  0.00     0.251 C 
ATOM     31  H   UNL A   1      42.336  18.583  25.561  1.00  0.00     0.163 HD
ATOM     32  O   UNL A   1      44.424  19.482  24.713  1.00  0.00    -0.269 OA
BRANCH  30  33
ATOM     33  C   UNL A   1      43.832  21.548  25.661  1.00  0.00     0.039 A 
ATOM     34  C   UNL A   1      43.537  22.557  24.738  1.00  0.00     0.014 A 
ATOM     35  C   UNL A   1      44.397  21.870  26.898  1.00  0.00     0.014 A 
ATOM     36  C   UNL A   1      43.770  23.892  25.076  1.00  0.00     0.010 A 
ATOM     37  C   UNL A   1      44.565  23.203  27.257  1.00  0.00     0.010 A 
ATOM     38  C   UNL A   1      44.267  24.227  26.346  1.00  0.00    -0.014 A 
BRANCH  38  39
ATOM     39  C   UNL A   1      44.483  25.641  26.742  1.00  0.00     0.031 A 
ATOM     40  C   UNL A   1      45.857  26.246  26.662  1.00  0.00     0.074 A 
ATOM     41  C   UNL A   1      43.462  26.347  27.263  1.00  0.00     0.049 A 
ATOM     42  N   UNL A   1      46.254  27.440  27.017  1.00  0.00    -0.248 NA
ATOM     43  C   UNL A   1      46.935  25.388  26.140  1.00  0.00     0.031 C 
ATOM     44  C   UNL A   1      42.103  25.842  27.469  1.00  0.00     0.029 A 
ATOM     45  N   UNL A   1      43.415  27.633  27.741  1.00  0.00    -0.354 N 
ATOM     46  C   UNL A   1      47.627  27.464  26.800  1.00  0.00     0.074 A 
ATOM     47  C   UNL A   1      48.001  26.155  26.314  1.00  0.00     0.031 C 
ATOM     48  C   UNL A   1      41.356  26.807  28.029  1.00  0.00     0.029 A 
ATOM     49  C   UNL A   1      42.186  27.989  28.244  1.00  0.00     0.049 A 
ATOM     50  H   UNL A   1      44.187  28.243  27.725  1.00  0.00     0.167 HD
ATOM     51  C   UNL A   1      48.493  28.493  26.961  1.00  0.00     0.034 A 
ATOM     52  C   UNL A   1      41.773  29.137  28.817  1.00  0.00     0.034 A 
ATOM     53  C   UNL A   1      48.107  29.809  27.396  1.00  0.00     0.049 A 
ATOM     54  C   UNL A   1      42.742  30.282  28.935  1.00  0.00     0.074 A 
ATOM     55  C   UNL A   1      48.888  30.946  27.496  1.00  0.00     0.029 A 
ATOM     56  N   UNL A   1      46.831  30.161  27.808  1.00  0.00    -0.354 N 
ATOM     57  N   UNL A   1      44.000  30.338  28.568  1.00  0.00    -0.248 NA
ATOM     58  C   UNL A   1      42.227  31.531  29.510  1.00  0.00     0.031 C 
ATOM     59  C   UNL A   1      48.087  31.983  27.987  1.00  0.00     0.029 A 
ATOM     60  C   UNL A   1      46.803  31.496  28.174  1.00  0.00     0.049 A 
ATOM     61  H   UNL A   1      46.059  29.552  27.838  1.00  0.00     0.167 HD
ATOM     62  C   UNL A   1      44.417  31.637  28.835  1.00  0.00     0.074 A 
ATOM     63  C   UNL A   1      43.271  32.340  29.377  1.00  0.00     0.031 C 
ATOM     64  C   UNL A   1      45.641  32.194  28.664  1.00  0.00     0.034 A 
BRANCH  51  65
ATOM     65  C   UNL A   1      49.938  28.249  26.609  1.00  0.00     0.023 A 
ATOM     66  C   UNL A   1      50.345  28.321  25.259  1.00  0.00     0.012 A 
ATOM     67  C   UNL A   1      50.899  27.995  27.606  1.00  0.00     0.148 A 
ATOM     68  C   UNL A   1      51.676  28.103  24.905  1.00  0.00     0.002 A 
ATOM     69  C   UNL A   1      52.233  27.822  27.248  1.00  0.00     0.091 A 
ATOM     70  F   UNL A   1      50.493  27.907  28.880  1.00  0.00    -0.205 F 
ATOM     71  C   UNL A   1      52.619  27.864  25.899  1.00  0.00     0.022 A 
BRANCH  69  72
ATOM     72  S   UNL A   1      53.532  27.586  28.465  1.00  0.00     0.127 S 
ATOM     73  O   UNL A   1      53.087  26.366  29.140  1.00  0.00    -0.237 OA
ATOM     74  O   UNL A   1      54.719  27.415  27.622  1.00  0.00    -0.237 OA
ATOM     75  O   UNL A   1      53.540  28.789  29.281  1.00  0.00    -0.744 OA
ENDBRANCH  69  72
ENDBRANCH  51  65
BRANCH  52  76
ATOM     76  C   UNL A   1      40.354  29.281  29.244  1.00  0.00     0.023 A 
ATOM     77  C   UNL A   1      39.365  29.527  28.273  1.00  0.00     0.012 A 
ATOM     78  C   UNL A   1      39.971  29.129  30.591  1.00  0.00     0.148 A 
ATOM     79  C   UNL A   1      38.024  29.645  28.636  1.00  0.00     0.002 A 
ATOM     80  C   UNL A   1      38.627  29.193  30.940  1.00  0.00     0.091 A 
ATOM     81  F   UNL A   1      40.930  28.905  31.502  1.00  0.00    -0.205 F 
ATOM     82  C   UNL A   1      37.653  29.468  29.967  1.00  0.00     0.022 A 
BRANCH  80  83
ATOM     83  S   UNL A   1      38.047  28.845  32.604  1.00  0.00     0.127 S 
ATOM     84  O   UNL A   1      38.919  29.697  33.410  1.00  0.00    -0.237 OA
ATOM     85  O   UNL A   1      36.651  29.282  32.534  1.00  0.00    -0.237 OA
ATOM     86  O   UNL A   1      38.217  27.411  32.788  1.00  0.00    -0.744 OA
ENDBRANCH  80  83
ENDBRANCH  52  76
BRANCH  64  87
ATOM     87  C   UNL A   1      45.808  33.643  29.040  1.00  0.00     0.023 A 
ATOM     88  C   UNL A   1      46.308  33.981  30.313  1.00  0.00     0.012 A 
ATOM     89  C   UNL A   1      45.543  34.665  28.106  1.00  0.00     0.148 A 
ATOM     90  C   UNL A   1      46.514  35.315  30.661  1.00  0.00     0.002 A 
ATOM     91  C   UNL A   1      45.797  35.988  28.443  1.00  0.00     0.091 A 
ATOM     92  F   UNL A   1      45.049  34.323  26.906  1.00  0.00    -0.205 F 
ATOM     93  C   UNL A   1      46.271  36.317  29.724  1.00  0.00     0.022 A 
BRANCH  91  94
ATOM     94  S   UNL A   1      45.603  37.334  27.268  1.00  0.00     0.127 S 
ATOM     95  O   UNL A   1      46.061  38.480  28.050  1.00  0.00    -0.237 OA
ATOM     96  O   UNL A   1      46.504  36.935  26.186  1.00  0.00    -0.237 OA
ATOM     97  O   UNL A   1      44.192  37.345  26.904  1.00  0.00    -0.744 OA
ENDBRANCH  91  94
ENDBRANCH  64  87
ENDBRANCH  38  39
ENDBRANCH  30  33
ENDBRANCH  28  29
ENDBRANCH  27  28
ENDBRANCH   1  27
TORSDOF 18
ENDMDL
