MODEL 1
REMARK VINA RESULT:     -11.3      0.000      0.000
REMARK SMILES CC1(C)C[C@](CC(=O)NCCCCCCNC(=O)c2ccc(-c3c4nc(c(-c5cccc(S(=O)(=O)[O-])c5F)c5ccc([nH]5)c(-c5cccc(S(=O)(=O)[O-])c5F)c5nc(c(-c6cccc(S(=O)(=O)[O-])c6F)c6ccc3[nH]6)C=C5)C=C4)cc2)([NH+]2CCCC2)C(C)(C)O1
REMARK SMILES IDX 13 1 12 2 11 3 10 4 9 5 7 6 8 7 6 9 5 10 1 11 2 12 3 13 4 14
REMARK SMILES IDX 90 15 87 16 88 17 89 18 82 19 83 20 86 21 84 23 85 24 14 25
REMARK SMILES IDX 15 26 16 27 17 28 18 30 19 31 20 32 81 33 21 34 80 35 22 36
REMARK SMILES IDX 23 37 24 38 74 39 25 40 79 41 73 42 75 43 26 44 78 45 72 46
REMARK SMILES IDX 71 47 27 49 59 50 39 51 58 52 40 53 43 54 57 55 76 56 41 57
REMARK SMILES IDX 42 58 56 60 77 61 44 62 28 63 29 64 37 65 30 66 32 67 38 68
REMARK SMILES IDX 31 69 33 70 34 71 35 72 36 73 60 74 61 75 69 76 62 77 64 78
REMARK SMILES IDX 70 79 63 80 65 81 66 82 67 83 68 84 45 85 46 86 54 87 47 88
REMARK SMILES IDX 49 89 55 90 48 91 50 92 51 93 52 94 53 95
REMARK H PARENT 9 8 82 22 16 29 75 48 43 59
REMARK Flexibility Score: inf
ROOT
ATOM      1  C   UNL A   1      32.640  28.757  22.745  1.00  0.00     0.002 C 
ENDROOT
BRANCH   1   2
ATOM      2  C   UNL A   1      33.424  27.443  22.660  1.00  0.00     0.002 C 
BRANCH   2   3
ATOM      3  C   UNL A   1      32.784  26.338  21.827  1.00  0.00     0.021 C 
BRANCH   3   4
ATOM      4  C   UNL A   1      31.985  25.289  22.597  1.00  0.00     0.116 C 
BRANCH   4   5
ATOM      5  N   UNL A   1      32.269  23.941  22.164  1.00  0.00    -0.356 N 
ATOM      6  C   UNL A   1      32.327  22.755  22.816  1.00  0.00     0.226 C 
ATOM      7  O   UNL A   1      32.341  21.757  22.080  1.00  0.00    -0.275 OA
ATOM      8  H   UNL A   1      32.458  23.869  21.200  1.00  0.00     0.163 HD
BRANCH   6   9
ATOM      9  C   UNL A   1      32.323  22.559  24.338  1.00  0.00     0.171 C 
BRANCH   9  10
ATOM     10  C   UNL A   1      33.508  22.937  25.323  1.00  0.00     0.138 C 
ATOM     11  C   UNL A   1      36.799  21.713  24.154  1.00  0.00     0.042 C 
ATOM     12  C   UNL A   1      36.014  22.652  25.089  1.00  0.00     0.070 C 
ATOM     13  C   UNL A   1      37.030  23.692  25.577  1.00  0.00     0.042 C 
ATOM     14  C   UNL A   1      34.760  23.219  24.403  1.00  0.00     0.107 C 
ATOM     15  O   UNL A   1      35.552  21.926  26.233  1.00  0.00    -0.363 OA
ATOM     16  C   UNL A   1      34.114  21.706  26.147  1.00  0.00     0.118 C 
ATOM     17  C   UNL A   1      34.010  20.306  25.489  1.00  0.00     0.049 C 
ATOM     18  C   UNL A   1      33.642  21.633  27.603  1.00  0.00     0.049 C 
BRANCH  10  19
ATOM     19  N   UNL A   1      33.245  24.226  26.043  1.00  0.00    -0.327 N 
ATOM     20  C   UNL A   1      33.949  25.453  25.692  1.00  0.00     0.263 C 
ATOM     21  C   UNL A   1      31.900  24.576  26.481  1.00  0.00     0.263 C 
ATOM     22  H   UNL A   1      33.743  23.807  26.830  1.00  0.00     0.348 HD
ATOM     23  C   UNL A   1      33.228  26.563  26.435  1.00  0.00     0.067 C 
ATOM     24  C   UNL A   1      31.797  26.096  26.448  1.00  0.00     0.067 C 
ENDBRANCH  10  19
ENDBRANCH   9  10
ENDBRANCH   6   9
ENDBRANCH   4   5
ENDBRANCH   3   4
ENDBRANCH   2   3
ENDBRANCH   1   2
BRANCH   1  25
ATOM     25  C   UNL A   1      32.009  29.106  24.098  1.00  0.00     0.021 C 
BRANCH  25  26
ATOM     26  C   UNL A   1      32.959  29.579  25.199  1.00  0.00     0.116 C 
BRANCH  26  27
ATOM     27  N   UNL A   1      32.576  30.860  25.761  1.00  0.00    -0.352 N 
ATOM     28  C   UNL A   1      33.038  31.532  26.863  1.00  0.00     0.251 C 
ATOM     29  H   UNL A   1      31.862  31.326  25.268  1.00  0.00     0.163 HD
ATOM     30  O   UNL A   1      32.434  32.530  27.249  1.00  0.00    -0.269 OA
BRANCH  28  31
ATOM     31  C   UNL A   1      34.237  31.072  27.600  1.00  0.00     0.039 A 
ATOM     32  C   UNL A   1      35.276  31.985  27.808  1.00  0.00     0.014 A 
ATOM     33  C   UNL A   1      34.381  29.749  28.025  1.00  0.00     0.014 A 
ATOM     34  C   UNL A   1      36.436  31.584  28.476  1.00  0.00     0.010 A 
ATOM     35  C   UNL A   1      35.512  29.367  28.748  1.00  0.00     0.010 A 
ATOM     36  C   UNL A   1      36.558  30.276  28.972  1.00  0.00    -0.014 A 
BRANCH  36  37
ATOM     37  C   UNL A   1      37.766  29.861  29.732  1.00  0.00     0.031 A 
ATOM     38  C   UNL A   1      38.016  30.380  31.123  1.00  0.00     0.074 A 
ATOM     39  C   UNL A   1      38.680  29.065  29.139  1.00  0.00     0.049 A 
ATOM     40  N   UNL A   1      39.021  30.134  31.924  1.00  0.00    -0.248 NA
ATOM     41  C   UNL A   1      37.024  31.313  31.682  1.00  0.00     0.031 C 
ATOM     42  C   UNL A   1      38.601  28.569  27.763  1.00  0.00     0.029 A 
ATOM     43  N   UNL A   1      39.869  28.561  29.604  1.00  0.00    -0.354 N 
ATOM     44  C   UNL A   1      38.807  30.911  33.058  1.00  0.00     0.074 A 
ATOM     45  C   UNL A   1      37.584  31.650  32.836  1.00  0.00     0.031 C 
ATOM     46  C   UNL A   1      39.696  27.840  27.494  1.00  0.00     0.029 A 
ATOM     47  C   UNL A   1      40.565  27.832  28.667  1.00  0.00     0.049 A 
ATOM     48  H   UNL A   1      40.194  28.707  30.522  1.00  0.00     0.167 HD
ATOM     49  C   UNL A   1      39.548  30.983  34.188  1.00  0.00     0.034 A 
ATOM     50  C   UNL A   1      41.769  27.232  28.738  1.00  0.00     0.034 A 
ATOM     51  C   UNL A   1      40.731  30.200  34.431  1.00  0.00     0.049 A 
ATOM     52  C   UNL A   1      42.531  27.269  30.037  1.00  0.00     0.074 A 
ATOM     53  C   UNL A   1      41.477  30.111  35.594  1.00  0.00     0.029 A 
ATOM     54  N   UNL A   1      41.346  29.383  33.498  1.00  0.00    -0.354 N 
ATOM     55  N   UNL A   1      42.206  27.848  31.166  1.00  0.00    -0.248 NA
ATOM     56  C   UNL A   1      43.804  26.533  30.085  1.00  0.00     0.031 C 
ATOM     57  C   UNL A   1      42.559  29.259  35.355  1.00  0.00     0.029 A 
ATOM     58  C   UNL A   1      42.471  28.798  34.052  1.00  0.00     0.049 A 
ATOM     59  H   UNL A   1      41.029  29.239  32.577  1.00  0.00     0.167 HD
ATOM     60  C   UNL A   1      43.213  27.520  32.067  1.00  0.00     0.074 A 
ATOM     61  C   UNL A   1      44.146  26.670  31.359  1.00  0.00     0.031 C 
ATOM     62  C   UNL A   1      43.361  27.904  33.359  1.00  0.00     0.034 A 
BRANCH  49  63
ATOM     63  C   UNL A   1      39.081  31.898  35.289  1.00  0.00     0.023 A 
ATOM     64  C   UNL A   1      38.157  31.427  36.242  1.00  0.00     0.012 A 
ATOM     65  C   UNL A   1      39.635  33.186  35.440  1.00  0.00     0.148 A 
ATOM     66  C   UNL A   1      37.775  32.228  37.318  1.00  0.00     0.002 A 
ATOM     67  C   UNL A   1      39.280  33.963  36.536  1.00  0.00     0.091 A 
ATOM     68  F   UNL A   1      40.498  33.622  34.512  1.00  0.00    -0.205 F 
ATOM     69  C   UNL A   1      38.345  33.489  37.471  1.00  0.00     0.022 A 
BRANCH  67  70
ATOM     70  S   UNL A   1      40.017  35.568  36.870  1.00  0.00     0.127 S 
ATOM     71  O   UNL A   1      39.383  35.924  38.139  1.00  0.00    -0.237 OA
ATOM     72  O   UNL A   1      41.439  35.239  36.969  1.00  0.00    -0.237 OA
ATOM     73  O   UNL A   1      39.665  36.416  35.740  1.00  0.00    -0.744 OA
ENDBRANCH  67  70
ENDBRANCH  49  63
BRANCH  50  74
ATOM     74  C   UNL A   1      42.308  26.494  27.560  1.00  0.00     0.023 A 
ATOM     75  C   UNL A   1      43.122  27.168  26.630  1.00  0.00     0.012 A 
ATOM     76  C   UNL A   1      42.031  25.127  27.365  1.00  0.00     0.148 A 
ATOM     77  C   UNL A   1      43.618  26.505  25.505  1.00  0.00     0.002 A 
ATOM     78  C   UNL A   1      42.575  24.458  26.276  1.00  0.00     0.091 A 
ATOM     79  F   UNL A   1      41.241  24.504  28.252  1.00  0.00    -0.205 F 
ATOM     80  C   UNL A   1      43.353  25.149  25.334  1.00  0.00     0.022 A 
BRANCH  78  81
ATOM     81  S   UNL A   1      42.396  22.683  26.061  1.00  0.00     0.127 S 
ATOM     82  O   UNL A   1      43.020  22.473  24.759  1.00  0.00    -0.237 OA
ATOM     83  O   UNL A   1      43.151  22.158  27.199  1.00  0.00    -0.237 OA
ATOM     84  O   UNL A   1      40.962  22.430  26.133  1.00  0.00    -0.744 OA
ENDBRANCH  78  81
ENDBRANCH  50  74
BRANCH  62  85
ATOM     85  C   UNL A   1      44.556  27.384  34.113  1.00  0.00     0.023 A 
ATOM     86  C   UNL A   1      45.774  28.089  34.065  1.00  0.00     0.012 A 
ATOM     87  C   UNL A   1      44.448  26.243  34.934  1.00  0.00     0.148 A 
ATOM     88  C   UNL A   1      46.876  27.649  34.798  1.00  0.00     0.002 A 
ATOM     89  C   UNL A   1      45.535  25.840  35.698  1.00  0.00     0.091 A 
ATOM     90  F   UNL A   1      43.285  25.576  34.951  1.00  0.00    -0.205 F 
ATOM     91  C   UNL A   1      46.754  26.533  35.623  1.00  0.00     0.022 A 
BRANCH  89  92
ATOM     92  S   UNL A   1      45.436  24.474  36.862  1.00  0.00     0.127 S 
ATOM     93  O   UNL A   1      44.251  24.830  37.639  1.00  0.00    -0.237 OA
ATOM     94  O   UNL A   1      45.263  23.322  35.977  1.00  0.00    -0.237 OA
ATOM     95  O   UNL A   1      46.694  24.484  37.597  1.00  0.00    -0.744 OA
ENDBRANCH  89  92
ENDBRANCH  62  85
ENDBRANCH  36  37
ENDBRANCH  28  31
ENDBRANCH  26  27
ENDBRANCH  25  26
ENDBRANCH   1  25
TORSDOF 18
ENDMDL
MODEL 2
REMARK VINA RESULT:     -11.1      2.176      3.113
REMARK SMILES CC1(C)C[C@](CC(=O)NCCCCCCNC(=O)c2ccc(-c3c4nc(c(-c5cccc(S(=O)(=O)[O-])c5F)c5ccc([nH]5)c(-c5cccc(S(=O)(=O)[O-])c5F)c5nc(c(-c6cccc(S(=O)(=O)[O-])c6F)c6ccc3[nH]6)C=C5)C=C4)cc2)([NH+]2CCCC2)C(C)(C)O1
REMARK SMILES IDX 13 1 12 2 11 3 10 4 9 5 7 6 8 7 6 9 5 10 1 11 2 12 3 13 4 14
REMARK SMILES IDX 90 15 87 16 88 17 89 18 82 19 83 20 86 21 84 23 85 24 14 25
REMARK SMILES IDX 15 26 16 27 17 28 18 30 19 31 20 32 81 33 21 34 80 35 22 36
REMARK SMILES IDX 23 37 24 38 74 39 25 40 79 41 73 42 75 43 26 44 78 45 72 46
REMARK SMILES IDX 71 47 27 49 59 50 39 51 58 52 40 53 43 54 57 55 76 56 41 57
REMARK SMILES IDX 42 58 56 60 77 61 44 62 28 63 29 64 37 65 30 66 32 67 38 68
REMARK SMILES IDX 31 69 33 70 34 71 35 72 36 73 60 74 61 75 69 76 62 77 64 78
REMARK SMILES IDX 70 79 63 80 65 81 66 82 67 83 68 84 45 85 46 86 54 87 47 88
REMARK SMILES IDX 49 89 55 90 48 91 50 92 51 93 52 94 53 95
REMARK H PARENT 9 8 82 22 16 29 75 48 43 59
REMARK Flexibility Score: inf
ROOT
ATOM      1  C   UNL A   1      32.228  29.662  25.124  1.00  0.00     0.002 C 
ENDROOT
BRANCH   1   2
ATOM      2  C   UNL A   1      30.994  29.328  24.281  1.00  0.00     0.002 C 
BRANCH   2   3
ATOM      3  C   UNL A   1      31.267  28.814  22.872  1.00  0.00     0.021 C 
BRANCH   3   4
ATOM      4  C   UNL A   1      32.733  28.752  22.449  1.00  0.00     0.116 C 
BRANCH   4   5
ATOM      5  N   UNL A   1      33.053  27.550  21.715  1.00  0.00    -0.356 N 
ATOM      6  C   UNL A   1      33.409  26.301  22.100  1.00  0.00     0.226 C 
ATOM      7  O   UNL A   1      33.353  25.446  21.204  1.00  0.00    -0.275 OA
ATOM      8  H   UNL A   1      33.003  27.661  20.738  1.00  0.00     0.163 HD
BRANCH   6   9
ATOM      9  C   UNL A   1      33.806  25.871  23.518  1.00  0.00     0.171 C 
BRANCH   9  10
ATOM     10  C   UNL A   1      33.211  24.632  24.312  1.00  0.00     0.138 C 
ATOM     11  C   UNL A   1      35.720  22.947  26.446  1.00  0.00     0.042 C 
ATOM     12  C   UNL A   1      34.234  23.162  26.102  1.00  0.00     0.070 C 
ATOM     13  C   UNL A   1      33.450  22.637  27.311  1.00  0.00     0.042 C 
ATOM     14  C   UNL A   1      33.947  24.621  25.709  1.00  0.00     0.107 C 
ATOM     15  O   UNL A   1      33.875  22.363  24.970  1.00  0.00    -0.363 OA
ATOM     16  C   UNL A   1      33.703  23.202  23.791  1.00  0.00     0.118 C 
ATOM     17  C   UNL A   1      35.097  23.147  23.113  1.00  0.00     0.049 C 
ATOM     18  C   UNL A   1      32.676  22.460  22.929  1.00  0.00     0.049 C 
BRANCH  10  19
ATOM     19  N   UNL A   1      31.757  24.822  24.631  1.00  0.00    -0.327 N 
ATOM     20  C   UNL A   1      31.325  25.477  25.859  1.00  0.00     0.263 C 
ATOM     21  C   UNL A   1      30.796  25.133  23.580  1.00  0.00     0.263 C 
ATOM     22  H   UNL A   1      31.736  23.816  24.801  1.00  0.00     0.348 HD
ATOM     23  C   UNL A   1      29.836  25.717  25.689  1.00  0.00     0.067 C 
ATOM     24  C   UNL A   1      29.694  25.974  24.212  1.00  0.00     0.067 C 
ENDBRANCH  10  19
ENDBRANCH   9  10
ENDBRANCH   6   9
ENDBRANCH   4   5
ENDBRANCH   3   4
ENDBRANCH   2   3
ENDBRANCH   1   2
BRANCH   1  25
ATOM     25  C   UNL A   1      32.439  28.849  26.406  1.00  0.00     0.021 C 
BRANCH  25  26
ATOM     26  C   UNL A   1      33.646  29.223  27.267  1.00  0.00     0.116 C 
BRANCH  26  27
ATOM     27  N   UNL A   1      33.641  30.618  27.667  1.00  0.00    -0.352 N 
ATOM     28  C   UNL A   1      34.512  31.332  28.449  1.00  0.00     0.251 C 
ATOM     29  H   UNL A   1      32.882  31.141  27.319  1.00  0.00     0.163 HD
ATOM     30  O   UNL A   1      34.204  32.469  28.798  1.00  0.00    -0.269 OA
BRANCH  28  31
ATOM     31  C   UNL A   1      35.802  30.756  28.889  1.00  0.00     0.039 A 
ATOM     32  C   UNL A   1      36.970  31.180  28.246  1.00  0.00     0.014 A 
ATOM     33  C   UNL A   1      35.873  29.762  29.870  1.00  0.00     0.014 A 
ATOM     34  C   UNL A   1      38.206  30.642  28.613  1.00  0.00     0.010 A 
ATOM     35  C   UNL A   1      37.115  29.273  30.280  1.00  0.00     0.010 A 
ATOM     36  C   UNL A   1      38.294  29.698  29.649  1.00  0.00    -0.014 A 
BRANCH  36  37
ATOM     37  C   UNL A   1      39.612  29.164  30.081  1.00  0.00     0.031 A 
ATOM     38  C   UNL A   1      40.377  29.818  31.201  1.00  0.00     0.074 A 
ATOM     39  C   UNL A   1      40.156  28.125  29.415  1.00  0.00     0.049 A 
ATOM     40  N   UNL A   1      41.544  29.495  31.698  1.00  0.00    -0.248 NA
ATOM     41  C   UNL A   1      39.769  31.001  31.831  1.00  0.00     0.031 C 
ATOM     42  C   UNL A   1      39.559  27.461  28.254  1.00  0.00     0.029 A 
ATOM     43  N   UNL A   1      41.348  27.466  29.596  1.00  0.00    -0.354 N 
ATOM     44  C   UNL A   1      41.829  30.454  32.664  1.00  0.00     0.074 A 
ATOM     45  C   UNL A   1      40.719  31.383  32.673  1.00  0.00     0.031 C 
ATOM     46  C   UNL A   1      40.389  26.497  27.823  1.00  0.00     0.029 A 
ATOM     47  C   UNL A   1      41.584  26.485  28.660  1.00  0.00     0.049 A 
ATOM     48  H   UNL A   1      41.973  27.675  30.326  1.00  0.00     0.167 HD
ATOM     49  C   UNL A   1      42.902  30.540  33.484  1.00  0.00     0.034 A 
ATOM     50  C   UNL A   1      42.646  25.673  28.488  1.00  0.00     0.034 A 
ATOM     51  C   UNL A   1      43.974  29.581  33.515  1.00  0.00     0.049 A 
ATOM     52  C   UNL A   1      43.789  25.745  29.465  1.00  0.00     0.074 A 
ATOM     53  C   UNL A   1      45.040  29.514  34.396  1.00  0.00     0.029 A 
ATOM     54  N   UNL A   1      44.124  28.531  32.624  1.00  0.00    -0.354 N 
ATOM     55  N   UNL A   1      43.940  26.535  30.500  1.00  0.00    -0.248 NA
ATOM     56  C   UNL A   1      44.888  24.785  29.278  1.00  0.00     0.031 C 
ATOM     57  C   UNL A   1      45.849  28.437  34.021  1.00  0.00     0.029 A 
ATOM     58  C   UNL A   1      45.273  27.819  32.923  1.00  0.00     0.049 A 
ATOM     59  H   UNL A   1      43.505  28.322  31.888  1.00  0.00     0.167 HD
ATOM     60  C   UNL A   1      45.130  26.146  31.106  1.00  0.00     0.074 A 
ATOM     61  C   UNL A   1      45.646  25.033  30.338  1.00  0.00     0.031 C 
ATOM     62  C   UNL A   1      45.748  26.675  32.190  1.00  0.00     0.034 A 
BRANCH  49  63
ATOM     63  C   UNL A   1      42.959  31.680  34.466  1.00  0.00     0.023 A 
ATOM     64  C   UNL A   1      43.557  32.898  34.087  1.00  0.00     0.012 A 
ATOM     65  C   UNL A   1      42.327  31.582  35.723  1.00  0.00     0.148 A 
ATOM     66  C   UNL A   1      43.546  33.994  34.949  1.00  0.00     0.002 A 
ATOM     67  C   UNL A   1      42.284  32.691  36.560  1.00  0.00     0.091 A 
ATOM     68  F   UNL A   1      41.780  30.409  36.071  1.00  0.00    -0.205 F 
ATOM     69  C   UNL A   1      42.900  33.894  36.177  1.00  0.00     0.022 A 
BRANCH  67  70
ATOM     70  S   UNL A   1      41.408  32.692  38.128  1.00  0.00     0.127 S 
ATOM     71  O   UNL A   1      40.066  32.283  37.716  1.00  0.00    -0.237 OA
ATOM     72  O   UNL A   1      42.144  31.685  38.892  1.00  0.00    -0.237 OA
ATOM     73  O   UNL A   1      41.513  34.048  38.648  1.00  0.00    -0.744 OA
ENDBRANCH  67  70
ENDBRANCH  49  63
BRANCH  50  74
ATOM     74  C   UNL A   1      42.655  24.681  27.376  1.00  0.00     0.023 A 
ATOM     75  C   UNL A   1      43.282  25.006  26.158  1.00  0.00     0.012 A 
ATOM     76  C   UNL A   1      42.062  23.412  27.524  1.00  0.00     0.148 A 
ATOM     77  C   UNL A   1      43.282  24.103  25.093  1.00  0.00     0.002 A 
ATOM     78  C   UNL A   1      42.117  22.495  26.481  1.00  0.00     0.091 A 
ATOM     79  F   UNL A   1      41.456  23.124  28.685  1.00  0.00    -0.205 F 
ATOM     80  C   UNL A   1      42.709  22.845  25.258  1.00  0.00     0.022 A 
BRANCH  78  81
ATOM     81  S   UNL A   1      41.526  20.808  26.664  1.00  0.00     0.127 S 
ATOM     82  O   UNL A   1      42.181  20.393  27.901  1.00  0.00    -0.237 OA
ATOM     83  O   UNL A   1      40.079  20.998  26.766  1.00  0.00    -0.237 OA
ATOM     84  O   UNL A   1      41.950  20.118  25.451  1.00  0.00    -0.744 OA
ENDBRANCH  78  81
ENDBRANCH  50  74
BRANCH  62  85
ATOM     85  C   UNL A   1      47.037  26.042  32.642  1.00  0.00     0.023 A 
ATOM     86  C   UNL A   1      48.267  26.575  32.212  1.00  0.00     0.012 A 
ATOM     87  C   UNL A   1      47.029  24.970  33.558  1.00  0.00     0.148 A 
ATOM     88  C   UNL A   1      49.470  26.032  32.661  1.00  0.00     0.002 A 
ATOM     89  C   UNL A   1      48.231  24.467  34.039  1.00  0.00     0.091 A 
ATOM     90  F   UNL A   1      45.847  24.465  33.941  1.00  0.00    -0.205 F 
ATOM     91  C   UNL A   1      49.453  24.988  33.583  1.00  0.00     0.022 A 
BRANCH  89  92
ATOM     92  S   UNL A   1      48.302  23.190  35.301  1.00  0.00     0.127 S 
ATOM     93  O   UNL A   1      47.711  22.049  34.604  1.00  0.00    -0.237 OA
ATOM     94  O   UNL A   1      49.739  23.076  35.550  1.00  0.00    -0.237 OA
ATOM     95  O   UNL A   1      47.534  23.701  36.429  1.00  0.00    -0.744 OA
ENDBRANCH  89  92
ENDBRANCH  62  85
ENDBRANCH  36  37
ENDBRANCH  28  31
ENDBRANCH  26  27
ENDBRANCH  25  26
ENDBRANCH   1  25
TORSDOF 18
ENDMDL
MODEL 3
REMARK VINA RESULT:     -11.0      1.641      2.384
REMARK SMILES CC1(C)C[C@](CC(=O)NCCCCCCNC(=O)c2ccc(-c3c4nc(c(-c5cccc(S(=O)(=O)[O-])c5F)c5ccc([nH]5)c(-c5cccc(S(=O)(=O)[O-])c5F)c5nc(c(-c6cccc(S(=O)(=O)[O-])c6F)c6ccc3[nH]6)C=C5)C=C4)cc2)([NH+]2CCCC2)C(C)(C)O1
REMARK SMILES IDX 13 1 12 2 11 3 10 4 9 5 7 6 8 7 6 9 5 10 1 11 2 12 3 13 4 14
REMARK SMILES IDX 90 15 87 16 88 17 89 18 82 19 83 20 86 21 84 23 85 24 14 25
REMARK SMILES IDX 15 26 16 27 17 28 18 30 19 31 20 32 81 33 21 34 80 35 22 36
REMARK SMILES IDX 23 37 24 38 74 39 25 40 79 41 73 42 75 43 26 44 78 45 72 46
REMARK SMILES IDX 71 47 27 49 59 50 39 51 58 52 40 53 43 54 57 55 76 56 41 57
REMARK SMILES IDX 42 58 56 60 77 61 44 62 28 63 29 64 37 65 30 66 32 67 38 68
REMARK SMILES IDX 31 69 33 70 34 71 35 72 36 73 60 74 61 75 69 76 62 77 64 78
REMARK SMILES IDX 70 79 63 80 65 81 66 82 67 83 68 84 45 85 46 86 54 87 47 88
REMARK SMILES IDX 49 89 55 90 48 91 50 92 51 93 52 94 53 95
REMARK H PARENT 9 8 82 22 16 29 75 48 43 59
REMARK Flexibility Score: inf
ROOT
ATOM      1  C   UNL A   1      31.484  29.845  25.423  1.00  0.00     0.002 C 
ENDROOT
BRANCH   1   2
ATOM      2  C   UNL A   1      30.551  29.697  24.217  1.00  0.00     0.002 C 
BRANCH   2   3
ATOM      3  C   UNL A   1      31.100  28.892  23.044  1.00  0.00     0.021 C 
BRANCH   3   4
ATOM      4  C   UNL A   1      32.621  28.825  22.924  1.00  0.00     0.116 C 
BRANCH   4   5
ATOM      5  N   UNL A   1      33.069  27.726  22.102  1.00  0.00    -0.356 N 
ATOM      6  C   UNL A   1      33.496  26.473  22.389  1.00  0.00     0.226 C 
ATOM      7  O   UNL A   1      33.554  25.708  21.415  1.00  0.00    -0.275 OA
ATOM      8  H   UNL A   1      33.063  27.928  21.138  1.00  0.00     0.163 HD
BRANCH   6   9
ATOM      9  C   UNL A   1      33.849  25.935  23.782  1.00  0.00     0.171 C 
BRANCH   9  10
ATOM     10  C   UNL A   1      33.211  24.654  24.468  1.00  0.00     0.138 C 
ATOM     11  C   UNL A   1      35.631  22.779  26.546  1.00  0.00     0.042 C 
ATOM     12  C   UNL A   1      34.160  23.044  26.177  1.00  0.00     0.070 C 
ATOM     13  C   UNL A   1      33.333  22.447  27.323  1.00  0.00     0.042 C 
ATOM     14  C   UNL A   1      33.907  24.531  25.881  1.00  0.00     0.107 C 
ATOM     15  O   UNL A   1      33.822  22.332  24.981  1.00  0.00    -0.363 OA
ATOM     16  C   UNL A   1      33.697  23.256  23.861  1.00  0.00     0.118 C 
ATOM     17  C   UNL A   1      35.109  23.225  23.219  1.00  0.00     0.049 C 
ATOM     18  C   UNL A   1      32.684  22.594  22.920  1.00  0.00     0.049 C 
BRANCH  10  19
ATOM     19  N   UNL A   1      31.752  24.845  24.759  1.00  0.00    -0.327 N 
ATOM     20  C   UNL A   1      31.295  25.431  26.013  1.00  0.00     0.263 C 
ATOM     21  C   UNL A   1      30.824  25.233  23.704  1.00  0.00     0.263 C 
ATOM     22  H   UNL A   1      31.713  23.831  24.868  1.00  0.00     0.348 HD
ATOM     23  C   UNL A   1      29.815  25.704  25.819  1.00  0.00     0.067 C 
ATOM     24  C   UNL A   1      29.717  26.051  24.357  1.00  0.00     0.067 C 
ENDBRANCH  10  19
ENDBRANCH   9  10
ENDBRANCH   6   9
ENDBRANCH   4   5
ENDBRANCH   3   4
ENDBRANCH   2   3
ENDBRANCH   1   2
BRANCH   1  25
ATOM     25  C   UNL A   1      31.497  31.203  26.134  1.00  0.00     0.021 C 
BRANCH  25  26
ATOM     26  C   UNL A   1      32.684  31.485  27.056  1.00  0.00     0.116 C 
BRANCH  26  27
ATOM     27  N   UNL A   1      32.940  32.903  27.225  1.00  0.00    -0.352 N 
ATOM     28  C   UNL A   1      33.898  33.563  27.950  1.00  0.00     0.251 C 
ATOM     29  H   UNL A   1      32.319  33.492  26.737  1.00  0.00     0.163 HD
ATOM     30  O   UNL A   1      33.809  34.781  28.085  1.00  0.00    -0.269 OA
BRANCH  28  31
ATOM     31  C   UNL A   1      35.025  32.838  28.578  1.00  0.00     0.039 A 
ATOM     32  C   UNL A   1      36.326  33.277  28.312  1.00  0.00     0.014 A 
ATOM     33  C   UNL A   1      34.825  31.699  29.364  1.00  0.00     0.014 A 
ATOM     34  C   UNL A   1      37.419  32.605  28.865  1.00  0.00     0.010 A 
ATOM     35  C   UNL A   1      35.914  31.067  29.967  1.00  0.00     0.010 A 
ATOM     36  C   UNL A   1      37.224  31.505  29.716  1.00  0.00    -0.014 A 
BRANCH  36  37
ATOM     37  C   UNL A   1      38.380  30.820  30.351  1.00  0.00     0.031 A 
ATOM     38  C   UNL A   1      38.826  31.193  31.740  1.00  0.00     0.074 A 
ATOM     39  C   UNL A   1      39.077  29.905  29.645  1.00  0.00     0.049 A 
ATOM     40  N   UNL A   1      39.820  30.710  32.441  1.00  0.00    -0.248 NA
ATOM     41  C   UNL A   1      38.077  32.260  32.424  1.00  0.00     0.031 C 
ATOM     42  C   UNL A   1      38.803  29.522  28.259  1.00  0.00     0.029 A 
ATOM     43  N   UNL A   1      40.176  29.156  29.985  1.00  0.00    -0.354 N 
ATOM     44  C   UNL A   1      39.844  31.439  33.625  1.00  0.00     0.074 A 
ATOM     45  C   UNL A   1      38.775  32.410  33.542  1.00  0.00     0.031 C 
ATOM     46  C   UNL A   1      39.713  28.617  27.864  1.00  0.00     0.029 A 
ATOM     47  C   UNL A   1      40.646  28.369  28.959  1.00  0.00     0.049 A 
ATOM     48  H   UNL A   1      40.588  29.179  30.878  1.00  0.00     0.167 HD
ATOM     49  C   UNL A   1      40.665  31.297  34.692  1.00  0.00     0.034 A 
ATOM     50  C   UNL A   1      41.714  27.548  28.900  1.00  0.00     0.034 A 
ATOM     51  C   UNL A   1      41.687  30.291  34.797  1.00  0.00     0.049 A 
ATOM     52  C   UNL A   1      42.560  27.357  30.131  1.00  0.00     0.074 A 
ATOM     53  C   UNL A   1      42.484  29.988  35.889  1.00  0.00     0.029 A 
ATOM     54  N   UNL A   1      42.063  29.433  33.777  1.00  0.00    -0.354 N 
ATOM     55  N   UNL A   1      42.436  27.914  31.310  1.00  0.00    -0.248 NA
ATOM     56  C   UNL A   1      43.666  26.391  30.037  1.00  0.00     0.031 C 
ATOM     57  C   UNL A   1      43.360  28.963  35.518  1.00  0.00     0.029 A 
ATOM     58  C   UNL A   1      43.090  28.610  34.206  1.00  0.00     0.049 A 
ATOM     59  H   UNL A   1      41.658  29.411  32.880  1.00  0.00     0.167 HD
ATOM     60  C   UNL A   1      43.424  27.344  32.107  1.00  0.00     0.074 A 
ATOM     61  C   UNL A   1      44.120  26.379  31.283  1.00  0.00     0.031 C 
ATOM     62  C   UNL A   1      43.737  27.610  33.399  1.00  0.00     0.034 A 
BRANCH  49  63
ATOM     63  C   UNL A   1      40.465  32.213  35.871  1.00  0.00     0.023 A 
ATOM     64  C   UNL A   1      41.277  33.356  36.011  1.00  0.00     0.012 A 
ATOM     65  C   UNL A   1      39.407  32.002  36.778  1.00  0.00     0.148 A 
ATOM     66  C   UNL A   1      41.056  34.263  37.046  1.00  0.00     0.002 A 
ATOM     67  C   UNL A   1      39.166  32.931  37.783  1.00  0.00     0.091 A 
ATOM     68  F   UNL A   1      38.657  30.899  36.638  1.00  0.00    -0.205 F 
ATOM     69  C   UNL A   1      39.994  34.057  37.923  1.00  0.00     0.022 A 
BRANCH  67  70
ATOM     70  S   UNL A   1      37.776  32.802  38.914  1.00  0.00     0.127 S 
ATOM     71  O   UNL A   1      37.996  33.957  39.784  1.00  0.00    -0.237 OA
ATOM     72  O   UNL A   1      36.632  32.928  38.011  1.00  0.00    -0.237 OA
ATOM     73  O   UNL A   1      37.902  31.504  39.562  1.00  0.00    -0.744 OA
ENDBRANCH  67  70
ENDBRANCH  49  63
BRANCH  50  74
ATOM     74  C   UNL A   1      42.011  26.798  27.647  1.00  0.00     0.023 A 
ATOM     75  C   UNL A   1      42.547  27.481  26.538  1.00  0.00     0.012 A 
ATOM     76  C   UNL A   1      41.782  25.412  27.553  1.00  0.00     0.148 A 
ATOM     77  C   UNL A   1      42.811  26.806  25.345  1.00  0.00     0.002 A 
ATOM     78  C   UNL A   1      42.102  24.734  26.383  1.00  0.00     0.091 A 
ATOM     79  F   UNL A   1      41.257  24.780  28.612  1.00  0.00    -0.205 F 
ATOM     80  C   UNL A   1      42.599  25.431  25.271  1.00  0.00     0.022 A 
BRANCH  78  81
ATOM     81  S   UNL A   1      41.988  22.945  26.256  1.00  0.00     0.127 S 
ATOM     82  O   UNL A   1      42.761  22.513  27.416  1.00  0.00    -0.237 OA
ATOM     83  O   UNL A   1      40.546  22.721  26.356  1.00  0.00    -0.237 OA
ATOM     84  O   UNL A   1      42.551  22.615  24.952  1.00  0.00    -0.744 OA
ENDBRANCH  78  81
ENDBRANCH  50  74
BRANCH  62  85
ATOM     85  C   UNL A   1      44.860  26.826  34.024  1.00  0.00     0.023 A 
ATOM     86  C   UNL A   1      46.172  27.335  33.991  1.00  0.00     0.012 A 
ATOM     87  C   UNL A   1      44.600  25.626  34.716  1.00  0.00     0.148 A 
ATOM     88  C   UNL A   1      47.215  26.646  34.609  1.00  0.00     0.002 A 
ATOM     89  C   UNL A   1      45.635  24.971  35.371  1.00  0.00     0.091 A 
ATOM     90  F   UNL A   1      43.346  25.148  34.721  1.00  0.00    -0.205 F 
ATOM     91  C   UNL A   1      46.945  25.472  35.309  1.00  0.00     0.022 A 
BRANCH  89  92
ATOM     92  S   UNL A   1      45.361  23.507  36.378  1.00  0.00     0.127 S 
ATOM     93  O   UNL A   1      44.956  24.095  37.653  1.00  0.00    -0.237 OA
ATOM     94  O   UNL A   1      44.290  22.825  35.652  1.00  0.00    -0.237 OA
ATOM     95  O   UNL A   1      46.629  22.790  36.393  1.00  0.00    -0.744 OA
ENDBRANCH  89  92
ENDBRANCH  62  85
ENDBRANCH  36  37
ENDBRANCH  28  31
ENDBRANCH  26  27
ENDBRANCH  25  26
ENDBRANCH   1  25
TORSDOF 18
ENDMDL
