MODEL 1
REMARK VINA RESULT:     -11.9      0.000      0.000
REMARK SMILES O=C(NCCCCCCNC(=O)C1(Cc2ccncc2)Cc2ccccc2C1)c1ccc(-c2c3nc(c(-c4cccc(S(=O)(=O)[O-])c4F)c4ccc([nH]4)c(-c4cccc(S(=O)(=O)[O-])c4F)c4nc(c(-c5cccc(S(=O)(=O)[O-])c5F)c5ccc2[nH]5)C=C4)C=C3)cc1
REMARK SMILES IDX 6 1 5 2 4 3 3 4 1 5 2 6 29 8 30 9 91 10 31 11 90 12 32 13
REMARK SMILES IDX 33 14 34 15 84 16 35 17 89 18 83 19 85 20 36 21 88 22 82 23
REMARK SMILES IDX 81 24 37 26 69 27 49 28 68 29 50 30 53 31 67 32 86 33 51 34
REMARK SMILES IDX 52 35 66 37 87 38 54 39 38 40 39 41 47 42 40 43 42 44 48 45
REMARK SMILES IDX 41 46 43 47 44 48 45 49 46 50 70 51 71 52 79 53 72 54 74 55
REMARK SMILES IDX 80 56 73 57 75 58 76 59 77 60 78 61 55 62 56 63 64 64 57 65
REMARK SMILES IDX 59 66 65 67 58 68 60 69 61 70 62 71 63 72 7 73 8 74 9 75
REMARK SMILES IDX 10 76 11 77 12 79 13 80 21 81 28 82 22 83 27 84 23 85 26 86
REMARK SMILES IDX 24 87 25 88 14 89 15 90 16 91 20 92 17 93 19 94 18 95
REMARK H PARENT 3 7 85 25 53 36 10 78
REMARK Flexibility Score: inf
ROOT
ATOM      1  C   UNL A   1      31.594  29.314  25.597  1.00  0.00     0.002 C 
ENDROOT
BRANCH   1   2
ATOM      2  C   UNL A   1      32.701  28.348  26.024  1.00  0.00     0.021 C 
BRANCH   2   3
ATOM      3  C   UNL A   1      34.019  29.003  26.407  1.00  0.00     0.116 C 
BRANCH   3   4
ATOM      4  N   UNL A   1      33.845  30.359  26.889  1.00  0.00    -0.352 N 
ATOM      5  O   UNL A   1      34.236  32.135  28.215  1.00  0.00    -0.269 OA
ATOM      6  C   UNL A   1      34.619  31.055  27.788  1.00  0.00     0.251 C 
ATOM      7  H   UNL A   1      33.071  30.847  26.525  1.00  0.00     0.163 HD
BRANCH   6   8
ATOM      8  C   UNL A   1      35.903  30.473  28.245  1.00  0.00     0.039 A 
ATOM      9  C   UNL A   1      37.083  30.701  27.530  1.00  0.00     0.014 A 
ATOM     10  C   UNL A   1      35.926  29.708  29.414  1.00  0.00     0.014 A 
ATOM     11  C   UNL A   1      38.262  30.078  27.922  1.00  0.00     0.010 A 
ATOM     12  C   UNL A   1      37.130  29.150  29.853  1.00  0.00     0.010 A 
ATOM     13  C   UNL A   1      38.306  29.324  29.105  1.00  0.00    -0.014 A 
BRANCH  13  14
ATOM     14  C   UNL A   1      39.617  28.846  29.609  1.00  0.00     0.031 A 
ATOM     15  C   UNL A   1      40.334  29.542  30.731  1.00  0.00     0.074 A 
ATOM     16  C   UNL A   1      40.167  27.771  29.009  1.00  0.00     0.049 A 
ATOM     17  N   UNL A   1      41.481  29.235  31.280  1.00  0.00    -0.248 NA
ATOM     18  C   UNL A   1      39.694  30.735  31.306  1.00  0.00     0.031 C 
ATOM     19  C   UNL A   1      39.583  27.055  27.871  1.00  0.00     0.029 A 
ATOM     20  N   UNL A   1      41.335  27.099  29.256  1.00  0.00    -0.354 N 
ATOM     21  C   UNL A   1      41.723  30.215  32.236  1.00  0.00     0.074 A 
ATOM     22  C   UNL A   1      40.599  31.127  32.195  1.00  0.00     0.031 C 
ATOM     23  C   UNL A   1      40.386  26.038  27.528  1.00  0.00     0.029 A 
ATOM     24  C   UNL A   1      41.566  26.062  28.383  1.00  0.00     0.049 A 
ATOM     25  H   UNL A   1      41.951  27.336  29.988  1.00  0.00     0.167 HD
ATOM     26  C   UNL A   1      42.782  30.331  33.073  1.00  0.00     0.034 A 
ATOM     27  C   UNL A   1      42.622  25.235  28.261  1.00  0.00     0.034 A 
ATOM     28  C   UNL A   1      43.875  29.395  33.127  1.00  0.00     0.049 A 
ATOM     29  C   UNL A   1      43.764  25.380  29.223  1.00  0.00     0.074 A 
ATOM     30  C   UNL A   1      44.947  29.378  34.003  1.00  0.00     0.029 A 
ATOM     31  N   UNL A   1      44.049  28.324  32.264  1.00  0.00    -0.354 N 
ATOM     32  N   UNL A   1      43.895  26.214  30.227  1.00  0.00    -0.248 NA
ATOM     33  C   UNL A   1      44.892  24.454  29.056  1.00  0.00     0.031 C 
ATOM     34  C   UNL A   1      45.783  28.314  33.652  1.00  0.00     0.029 A 
ATOM     35  C   UNL A   1      45.221  27.653  32.573  1.00  0.00     0.049 A 
ATOM     36  H   UNL A   1      43.431  28.078  31.538  1.00  0.00     0.167 HD
ATOM     37  C   UNL A   1      45.110  25.903  30.822  1.00  0.00     0.074 A 
ATOM     38  C   UNL A   1      45.658  24.778  30.089  1.00  0.00     0.031 C 
ATOM     39  C   UNL A   1      45.729  26.508  31.864  1.00  0.00     0.034 A 
BRANCH  26  40
ATOM     40  C   UNL A   1      42.811  31.490  34.035  1.00  0.00     0.023 A 
ATOM     41  C   UNL A   1      43.349  32.724  33.620  1.00  0.00     0.012 A 
ATOM     42  C   UNL A   1      42.199  31.391  35.300  1.00  0.00     0.148 A 
ATOM     43  C   UNL A   1      43.288  33.841  34.455  1.00  0.00     0.002 A 
ATOM     44  C   UNL A   1      42.108  32.518  36.111  1.00  0.00     0.091 A 
ATOM     45  F   UNL A   1      41.706  30.204  35.681  1.00  0.00    -0.205 F 
ATOM     46  C   UNL A   1      42.657  33.741  35.693  1.00  0.00     0.022 A 
BRANCH  44  47
ATOM     47  S   UNL A   1      41.248  32.516  37.689  1.00  0.00     0.127 S 
ATOM     48  O   UNL A   1      41.270  33.936  38.038  1.00  0.00    -0.237 OA
ATOM     49  O   UNL A   1      39.931  32.000  37.320  1.00  0.00    -0.237 OA
ATOM     50  O   UNL A   1      42.019  31.648  38.569  1.00  0.00    -0.744 OA
ENDBRANCH  44  47
ENDBRANCH  26  40
BRANCH  27  51
ATOM     51  C   UNL A   1      42.630  24.188  27.202  1.00  0.00     0.023 A 
ATOM     52  C   UNL A   1      43.291  24.436  25.984  1.00  0.00     0.012 A 
ATOM     53  C   UNL A   1      42.013  22.939  27.407  1.00  0.00     0.148 A 
ATOM     54  C   UNL A   1      43.308  23.470  24.977  1.00  0.00     0.002 A 
ATOM     55  C   UNL A   1      42.088  21.959  26.425  1.00  0.00     0.091 A 
ATOM     56  F   UNL A   1      41.371  22.727  28.565  1.00  0.00    -0.205 F 
ATOM     57  C   UNL A   1      42.718  22.228  25.201  1.00  0.00     0.022 A 
BRANCH  55  58
ATOM     58  S   UNL A   1      41.484  20.291  26.704  1.00  0.00     0.127 S 
ATOM     59  O   UNL A   1      40.053  20.516  26.884  1.00  0.00    -0.237 OA
ATOM     60  O   UNL A   1      41.850  19.617  25.458  1.00  0.00    -0.237 OA
ATOM     61  O   UNL A   1      42.210  19.812  27.873  1.00  0.00    -0.744 OA
ENDBRANCH  55  58
ENDBRANCH  27  51
BRANCH  39  62
ATOM     62  C   UNL A   1      47.064  25.955  32.285  1.00  0.00     0.023 A 
ATOM     63  C   UNL A   1      48.237  26.407  31.648  1.00  0.00     0.012 A 
ATOM     64  C   UNL A   1      47.162  25.034  33.345  1.00  0.00     0.148 A 
ATOM     65  C   UNL A   1      49.485  25.922  32.035  1.00  0.00     0.002 A 
ATOM     66  C   UNL A   1      48.413  24.592  33.758  1.00  0.00     0.091 A 
ATOM     67  F   UNL A   1      46.032  24.602  33.925  1.00  0.00    -0.205 F 
ATOM     68  C   UNL A   1      49.574  25.025  33.096  1.00  0.00     0.022 A 
BRANCH  66  69
ATOM     69  S   UNL A   1      48.629  23.508  35.174  1.00  0.00     0.127 S 
ATOM     70  O   UNL A   1      47.944  22.295  34.728  1.00  0.00    -0.237 OA
ATOM     71  O   UNL A   1      50.085  23.390  35.256  1.00  0.00    -0.237 OA
ATOM     72  O   UNL A   1      48.014  24.195  36.302  1.00  0.00    -0.744 OA
ENDBRANCH  66  69
ENDBRANCH  39  62
ENDBRANCH  13  14
ENDBRANCH   6   8
ENDBRANCH   3   4
ENDBRANCH   2   3
ENDBRANCH   1   2
BRANCH   1  73
ATOM     73  C   UNL A   1      30.968  29.059  24.220  1.00  0.00     0.002 C 
BRANCH  73  74
ATOM     74  C   UNL A   1      31.856  28.344  23.197  1.00  0.00     0.021 C 
BRANCH  74  75
ATOM     75  C   UNL A   1      31.116  27.399  22.260  1.00  0.00     0.116 C 
BRANCH  75  76
ATOM     76  N   UNL A   1      31.986  26.757  21.295  1.00  0.00    -0.356 N 
ATOM     77  C   UNL A   1      32.655  25.573  21.336  1.00  0.00     0.227 C 
ATOM     78  H   UNL A   1      32.116  27.267  20.463  1.00  0.00     0.163 HD
ATOM     79  O   UNL A   1      33.107  25.171  20.257  1.00  0.00    -0.274 OA
BRANCH  77  80
ATOM     80  C   UNL A   1      32.801  24.724  22.610  1.00  0.00     0.061 C 
ATOM     81  C   UNL A   1      33.827  23.573  22.277  1.00  0.00     0.053 C 
ATOM     82  C   UNL A   1      33.477  25.473  23.790  1.00  0.00     0.053 C 
ATOM     83  C   UNL A   1      34.527  23.349  23.582  1.00  0.00    -0.044 A 
ATOM     84  C   UNL A   1      34.345  24.439  24.428  1.00  0.00    -0.044 A 
ATOM     85  C   UNL A   1      35.320  22.280  23.962  1.00  0.00     0.004 A 
ATOM     86  C   UNL A   1      34.957  24.500  25.669  1.00  0.00     0.004 A 
ATOM     87  C   UNL A   1      35.926  22.319  25.220  1.00  0.00     0.000 A 
ATOM     88  C   UNL A   1      35.750  23.425  26.066  1.00  0.00     0.000 A 
BRANCH  80  89
ATOM     89  C   UNL A   1      31.448  24.038  22.971  1.00  0.00     0.053 C 
BRANCH  89  90
ATOM     90  C   UNL A   1      30.988  24.066  24.408  1.00  0.00    -0.044 A 
ATOM     91  C   UNL A   1      31.177  22.958  25.241  1.00  0.00     0.024 A 
ATOM     92  C   UNL A   1      30.382  25.204  24.950  1.00  0.00     0.024 A 
ATOM     93  C   UNL A   1      30.710  23.015  26.546  1.00  0.00     0.111 A 
ATOM     94  C   UNL A   1      29.949  25.166  26.267  1.00  0.00     0.111 A 
ATOM     95  N   UNL A   1      30.084  24.090  27.070  1.00  0.00    -0.265 NA
ENDBRANCH  89  90
ENDBRANCH  80  89
ENDBRANCH  77  80
ENDBRANCH  75  76
ENDBRANCH  74  75
ENDBRANCH  73  74
ENDBRANCH   1  73
TORSDOF 18
ENDMDL
MODEL 2
REMARK VINA RESULT:     -11.6      4.406      9.447
REMARK SMILES O=C(NCCCCCCNC(=O)C1(Cc2ccncc2)Cc2ccccc2C1)c1ccc(-c2c3nc(c(-c4cccc(S(=O)(=O)[O-])c4F)c4ccc([nH]4)c(-c4cccc(S(=O)(=O)[O-])c4F)c4nc(c(-c5cccc(S(=O)(=O)[O-])c5F)c5ccc2[nH]5)C=C4)C=C3)cc1
REMARK SMILES IDX 6 1 5 2 4 3 3 4 1 5 2 6 29 8 30 9 91 10 31 11 90 12 32 13
REMARK SMILES IDX 33 14 34 15 84 16 35 17 89 18 83 19 85 20 36 21 88 22 82 23
REMARK SMILES IDX 81 24 37 26 69 27 49 28 68 29 50 30 53 31 67 32 86 33 51 34
REMARK SMILES IDX 52 35 66 37 87 38 54 39 38 40 39 41 47 42 40 43 42 44 48 45
REMARK SMILES IDX 41 46 43 47 44 48 45 49 46 50 70 51 71 52 79 53 72 54 74 55
REMARK SMILES IDX 80 56 73 57 75 58 76 59 77 60 78 61 55 62 56 63 64 64 57 65
REMARK SMILES IDX 59 66 65 67 58 68 60 69 61 70 62 71 63 72 7 73 8 74 9 75
REMARK SMILES IDX 10 76 11 77 12 79 13 80 21 81 28 82 22 83 27 84 23 85 26 86
REMARK SMILES IDX 24 87 25 88 14 89 15 90 16 91 20 92 17 93 19 94 18 95
REMARK H PARENT 3 7 85 25 53 36 10 78
REMARK Flexibility Score: inf
ROOT
ATOM      1  C   UNL A   1      35.532  21.385  25.220  1.00  0.00     0.002 C 
ENDROOT
BRANCH   1   2
ATOM      2  C   UNL A   1      35.851  22.848  24.907  1.00  0.00     0.021 C 
BRANCH   2   3
ATOM      3  C   UNL A   1      36.980  23.454  25.726  1.00  0.00     0.116 C 
BRANCH   3   4
ATOM      4  N   UNL A   1      38.010  22.486  26.053  1.00  0.00    -0.352 N 
ATOM      5  O   UNL A   1      40.078  21.794  26.605  1.00  0.00    -0.269 OA
ATOM      6  C   UNL A   1      39.274  22.714  26.543  1.00  0.00     0.251 C 
ATOM      7  H   UNL A   1      37.772  21.542  25.903  1.00  0.00     0.163 HD
BRANCH   6   8
ATOM      8  C   UNL A   1      39.653  24.080  26.972  1.00  0.00     0.039 A 
ATOM      9  C   UNL A   1      39.504  24.476  28.304  1.00  0.00     0.014 A 
ATOM     10  C   UNL A   1      40.182  24.967  26.030  1.00  0.00     0.014 A 
ATOM     11  C   UNL A   1      39.782  25.786  28.674  1.00  0.00     0.010 A 
ATOM     12  C   UNL A   1      40.540  26.260  26.422  1.00  0.00     0.010 A 
ATOM     13  C   UNL A   1      40.334  26.683  27.744  1.00  0.00    -0.014 A 
BRANCH  13  14
ATOM     14  C   UNL A   1      40.814  28.006  28.215  1.00  0.00     0.031 A 
ATOM     15  C   UNL A   1      42.274  28.356  28.233  1.00  0.00     0.074 A 
ATOM     16  C   UNL A   1      39.894  28.889  28.653  1.00  0.00     0.049 A 
ATOM     17  N   UNL A   1      42.840  29.474  28.610  1.00  0.00    -0.248 NA
ATOM     18  C   UNL A   1      43.223  27.326  27.782  1.00  0.00     0.031 C 
ATOM     19  C   UNL A   1      38.453  28.629  28.733  1.00  0.00     0.029 A 
ATOM     20  N   UNL A   1      40.023  30.170  29.123  1.00  0.00    -0.354 N 
ATOM     21  C   UNL A   1      44.209  29.273  28.483  1.00  0.00     0.074 A 
ATOM     22  C   UNL A   1      44.391  27.924  27.989  1.00  0.00     0.031 C 
ATOM     23  C   UNL A   1      37.832  29.718  29.208  1.00  0.00     0.029 A 
ATOM     24  C   UNL A   1      38.832  30.731  29.518  1.00  0.00     0.049 A 
ATOM     25  H   UNL A   1      40.887  30.642  29.174  1.00  0.00     0.167 HD
ATOM     26  C   UNL A   1      45.216  30.140  28.746  1.00  0.00     0.034 A 
ATOM     27  C   UNL A   1      38.570  31.921  30.092  1.00  0.00     0.034 A 
ATOM     28  C   UNL A   1      45.019  31.492  29.203  1.00  0.00     0.049 A 
ATOM     29  C   UNL A   1      39.710  32.864  30.345  1.00  0.00     0.074 A 
ATOM     30  C   UNL A   1      45.971  32.475  29.409  1.00  0.00     0.029 A 
ATOM     31  N   UNL A   1      43.794  32.047  29.540  1.00  0.00    -0.354 N 
ATOM     32  N   UNL A   1      40.981  32.714  30.063  1.00  0.00    -0.248 NA
ATOM     33  C   UNL A   1      39.377  34.152  30.969  1.00  0.00     0.031 C 
ATOM     34  C   UNL A   1      45.325  33.615  29.898  1.00  0.00     0.029 A 
ATOM     35  C   UNL A   1      43.968  33.350  29.974  1.00  0.00     0.049 A 
ATOM     36  H   UNL A   1      42.928  31.582  29.481  1.00  0.00     0.167 HD
ATOM     37  C   UNL A   1      41.599  33.893  30.459  1.00  0.00     0.074 A 
ATOM     38  C   UNL A   1      40.554  34.762  30.964  1.00  0.00     0.031 C 
ATOM     39  C   UNL A   1      42.913  34.218  30.430  1.00  0.00     0.034 A 
BRANCH  26  40
ATOM     40  C   UNL A   1      46.633  29.685  28.518  1.00  0.00     0.023 A 
ATOM     41  C   UNL A   1      47.265  29.968  27.291  1.00  0.00     0.012 A 
ATOM     42  C   UNL A   1      47.375  29.089  29.557  1.00  0.00     0.148 A 
ATOM     43  C   UNL A   1      48.611  29.653  27.097  1.00  0.00     0.002 A 
ATOM     44  C   UNL A   1      48.726  28.813  29.369  1.00  0.00     0.091 A 
ATOM     45  F   UNL A   1      46.751  28.814  30.711  1.00  0.00    -0.205 F 
ATOM     46  C   UNL A   1      49.343  29.089  28.139  1.00  0.00     0.022 A 
BRANCH  44  47
ATOM     47  S   UNL A   1      49.777  28.158  30.672  1.00  0.00     0.127 S 
ATOM     48  O   UNL A   1      49.632  29.181  31.708  1.00  0.00    -0.237 OA
ATOM     49  O   UNL A   1      49.128  26.884  30.978  1.00  0.00    -0.237 OA
ATOM     50  O   UNL A   1      51.110  28.042  30.096  1.00  0.00    -0.744 OA
ENDBRANCH  44  47
ENDBRANCH  26  40
BRANCH  27  51
ATOM     51  C   UNL A   1      37.170  32.287  30.443  1.00  0.00     0.023 A 
ATOM     52  C   UNL A   1      36.699  32.065  31.750  1.00  0.00     0.012 A 
ATOM     53  C   UNL A   1      36.313  32.882  29.496  1.00  0.00     0.148 A 
ATOM     54  C   UNL A   1      35.389  32.397  32.099  1.00  0.00     0.002 A 
ATOM     55  C   UNL A   1      35.032  33.267  29.867  1.00  0.00     0.091 A 
ATOM     56  F   UNL A   1      36.771  33.068  28.249  1.00  0.00    -0.205 F 
ATOM     57  C   UNL A   1      34.560  33.010  31.162  1.00  0.00     0.022 A 
BRANCH  55  58
ATOM     58  S   UNL A   1      33.965  34.195  28.760  1.00  0.00     0.127 S 
ATOM     59  O   UNL A   1      33.647  33.197  27.743  1.00  0.00    -0.237 OA
ATOM     60  O   UNL A   1      32.850  34.559  29.636  1.00  0.00    -0.237 OA
ATOM     61  O   UNL A   1      34.766  35.329  28.318  1.00  0.00    -0.744 OA
ENDBRANCH  55  58
ENDBRANCH  27  51
BRANCH  39  62
ATOM     62  C   UNL A   1      43.296  35.580  30.945  1.00  0.00     0.023 A 
ATOM     63  C   UNL A   1      43.621  35.742  32.307  1.00  0.00     0.012 A 
ATOM     64  C   UNL A   1      43.387  36.682  30.075  1.00  0.00     0.148 A 
ATOM     65  C   UNL A   1      43.996  36.989  32.802  1.00  0.00     0.002 A 
ATOM     66  C   UNL A   1      43.809  37.912  30.565  1.00  0.00     0.091 A 
ATOM     67  F   UNL A   1      43.055  36.510  28.787  1.00  0.00    -0.205 F 
ATOM     68  C   UNL A   1      44.101  38.071  31.930  1.00  0.00     0.022 A 
BRANCH  66  69
ATOM     69  S   UNL A   1      44.061  39.335  29.499  1.00  0.00     0.127 S 
ATOM     70  O   UNL A   1      42.713  39.562  28.981  1.00  0.00    -0.237 OA
ATOM     71  O   UNL A   1      44.530  40.350  30.442  1.00  0.00    -0.237 OA
ATOM     72  O   UNL A   1      45.050  38.926  28.511  1.00  0.00    -0.744 OA
ENDBRANCH  66  69
ENDBRANCH  39  62
ENDBRANCH  13  14
ENDBRANCH   6   8
ENDBRANCH   3   4
ENDBRANCH   2   3
ENDBRANCH   1   2
BRANCH   1  73
ATOM     73  C   UNL A   1      34.234  20.832  24.618  1.00  0.00     0.002 C 
BRANCH  73  74
ATOM     74  C   UNL A   1      33.073  20.624  25.595  1.00  0.00     0.021 C 
BRANCH  74  75
ATOM     75  C   UNL A   1      31.766  21.288  25.182  1.00  0.00     0.116 C 
BRANCH  75  76
ATOM     76  N   UNL A   1      31.047  21.875  26.296  1.00  0.00    -0.356 N 
ATOM     77  C   UNL A   1      30.670  23.158  26.545  1.00  0.00     0.227 C 
ATOM     78  H   UNL A   1      30.787  21.232  26.994  1.00  0.00     0.163 HD
ATOM     79  O   UNL A   1      29.841  23.309  27.451  1.00  0.00    -0.274 OA
BRANCH  77  80
ATOM     80  C   UNL A   1      31.167  24.362  25.730  1.00  0.00     0.061 C 
ATOM     81  C   UNL A   1      30.555  25.653  26.402  1.00  0.00     0.053 C 
ATOM     82  C   UNL A   1      32.697  24.601  25.830  1.00  0.00     0.053 C 
ATOM     83  C   UNL A   1      31.613  26.689  26.182  1.00  0.00    -0.044 A 
ATOM     84  C   UNL A   1      32.831  26.088  25.880  1.00  0.00    -0.044 A 
ATOM     85  C   UNL A   1      31.511  28.064  26.303  1.00  0.00     0.004 A 
ATOM     86  C   UNL A   1      33.983  26.837  25.704  1.00  0.00     0.004 A 
ATOM     87  C   UNL A   1      32.660  28.834  26.107  1.00  0.00     0.000 A 
ATOM     88  C   UNL A   1      33.890  28.224  25.815  1.00  0.00     0.000 A 
BRANCH  80  89
ATOM     89  C   UNL A   1      30.617  24.304  24.272  1.00  0.00     0.053 C 
BRANCH  89  90
ATOM     90  C   UNL A   1      31.568  24.575  23.133  1.00  0.00    -0.044 A 
ATOM     91  C   UNL A   1      31.570  25.813  22.482  1.00  0.00     0.024 A 
ATOM     92  C   UNL A   1      32.484  23.606  22.711  1.00  0.00     0.024 A 
ATOM     93  C   UNL A   1      32.439  26.008  21.418  1.00  0.00     0.111 A 
ATOM     94  C   UNL A   1      33.314  23.895  21.638  1.00  0.00     0.111 A 
ATOM     95  N   UNL A   1      33.298  25.068  20.972  1.00  0.00    -0.265 NA
ENDBRANCH  89  90
ENDBRANCH  80  89
ENDBRANCH  77  80
ENDBRANCH  75  76
ENDBRANCH  74  75
ENDBRANCH  73  74
ENDBRANCH   1  73
TORSDOF 18
ENDMDL
MODEL 3
REMARK VINA RESULT:     -11.5      5.054      8.353
REMARK SMILES O=C(NCCCCCCNC(=O)C1(Cc2ccncc2)Cc2ccccc2C1)c1ccc(-c2c3nc(c(-c4cccc(S(=O)(=O)[O-])c4F)c4ccc([nH]4)c(-c4cccc(S(=O)(=O)[O-])c4F)c4nc(c(-c5cccc(S(=O)(=O)[O-])c5F)c5ccc2[nH]5)C=C4)C=C3)cc1
REMARK SMILES IDX 6 1 5 2 4 3 3 4 1 5 2 6 29 8 30 9 91 10 31 11 90 12 32 13
REMARK SMILES IDX 33 14 34 15 84 16 35 17 89 18 83 19 85 20 36 21 88 22 82 23
REMARK SMILES IDX 81 24 37 26 69 27 49 28 68 29 50 30 53 31 67 32 86 33 51 34
REMARK SMILES IDX 52 35 66 37 87 38 54 39 38 40 39 41 47 42 40 43 42 44 48 45
REMARK SMILES IDX 41 46 43 47 44 48 45 49 46 50 70 51 71 52 79 53 72 54 74 55
REMARK SMILES IDX 80 56 73 57 75 58 76 59 77 60 78 61 55 62 56 63 64 64 57 65
REMARK SMILES IDX 59 66 65 67 58 68 60 69 61 70 62 71 63 72 7 73 8 74 9 75
REMARK SMILES IDX 10 76 11 77 12 79 13 80 21 81 28 82 22 83 27 84 23 85 26 86
REMARK SMILES IDX 24 87 25 88 14 89 15 90 16 91 20 92 17 93 19 94 18 95
REMARK H PARENT 3 7 85 25 53 36 10 78
REMARK Flexibility Score: inf
ROOT
ATOM      1  C   UNL A   1      36.188  20.719  24.982  1.00  0.00     0.002 C 
ENDROOT
BRANCH   1   2
ATOM      2  C   UNL A   1      37.368  19.745  25.024  1.00  0.00     0.021 C 
BRANCH   2   3
ATOM      3  C   UNL A   1      38.725  20.384  25.273  1.00  0.00     0.116 C 
BRANCH   3   4
ATOM      4  N   UNL A   1      39.667  19.465  25.883  1.00  0.00    -0.352 N 
ATOM      5  O   UNL A   1      41.607  18.845  26.839  1.00  0.00    -0.269 OA
ATOM      6  C   UNL A   1      40.847  19.751  26.529  1.00  0.00     0.251 C 
ATOM      7  H   UNL A   1      39.430  18.511  25.828  1.00  0.00     0.163 HD
BRANCH   6   8
ATOM      8  C   UNL A   1      41.191  21.162  26.823  1.00  0.00     0.039 A 
ATOM      9  C   UNL A   1      41.665  21.532  28.085  1.00  0.00     0.014 A 
ATOM     10  C   UNL A   1      41.056  22.120  25.815  1.00  0.00     0.014 A 
ATOM     11  C   UNL A   1      41.900  22.871  28.373  1.00  0.00     0.010 A 
ATOM     12  C   UNL A   1      41.373  23.455  26.081  1.00  0.00     0.010 A 
ATOM     13  C   UNL A   1      41.789  23.842  27.364  1.00  0.00    -0.014 A 
BRANCH  13  14
ATOM     14  C   UNL A   1      42.247  25.227  27.642  1.00  0.00     0.031 A 
ATOM     15  C   UNL A   1      41.348  26.241  28.288  1.00  0.00     0.074 A 
ATOM     16  C   UNL A   1      43.499  25.561  27.271  1.00  0.00     0.049 A 
ATOM     17  N   UNL A   1      41.611  27.485  28.598  1.00  0.00    -0.248 NA
ATOM     18  C   UNL A   1      39.979  25.818  28.623  1.00  0.00     0.031 C 
ATOM     19  C   UNL A   1      44.437  24.668  26.583  1.00  0.00     0.029 A 
ATOM     20  N   UNL A   1      44.199  26.732  27.406  1.00  0.00    -0.354 N 
ATOM     21  C   UNL A   1      40.436  28.006  29.125  1.00  0.00     0.074 A 
ATOM     22  C   UNL A   1      39.455  26.942  29.098  1.00  0.00     0.031 C 
ATOM     23  C   UNL A   1      45.590  25.317  26.368  1.00  0.00     0.029 A 
ATOM     24  C   UNL A   1      45.456  26.685  26.852  1.00  0.00     0.049 A 
ATOM     25  H   UNL A   1      43.835  27.530  27.854  1.00  0.00     0.167 HD
ATOM     26  C   UNL A   1      40.206  29.256  29.595  1.00  0.00     0.034 A 
ATOM     27  C   UNL A   1      46.394  27.643  26.722  1.00  0.00     0.034 A 
ATOM     28  C   UNL A   1      41.203  30.295  29.650  1.00  0.00     0.049 A 
ATOM     29  C   UNL A   1      46.110  29.008  27.278  1.00  0.00     0.074 A 
ATOM     30  C   UNL A   1      41.090  31.563  30.193  1.00  0.00     0.029 A 
ATOM     31  N   UNL A   1      42.484  30.196  29.130  1.00  0.00    -0.354 N 
ATOM     32  N   UNL A   1      45.049  29.431  27.921  1.00  0.00    -0.248 NA
ATOM     33  C   UNL A   1      47.163  30.020  27.117  1.00  0.00     0.031 C 
ATOM     34  C   UNL A   1      42.294  32.240  29.977  1.00  0.00     0.029 A 
ATOM     35  C   UNL A   1      43.165  31.386  29.320  1.00  0.00     0.049 A 
ATOM     36  H   UNL A   1      42.854  29.397  28.690  1.00  0.00     0.167 HD
ATOM     37  C   UNL A   1      45.312  30.752  28.257  1.00  0.00     0.074 A 
ATOM     38  C   UNL A   1      46.648  31.047  27.779  1.00  0.00     0.031 C 
ATOM     39  C   UNL A   1      44.511  31.649  28.881  1.00  0.00     0.034 A 
BRANCH  26  40
ATOM     40  C   UNL A   1      38.835  29.580  30.129  1.00  0.00     0.023 A 
ATOM     41  C   UNL A   1      38.528  29.294  31.474  1.00  0.00     0.012 A 
ATOM     42  C   UNL A   1      37.900  30.276  29.338  1.00  0.00     0.148 A 
ATOM     43  C   UNL A   1      37.304  29.684  32.020  1.00  0.00     0.002 A 
ATOM     44  C   UNL A   1      36.698  30.695  29.901  1.00  0.00     0.091 A 
ATOM     45  F   UNL A   1      38.206  30.526  28.057  1.00  0.00    -0.205 F 
ATOM     46  C   UNL A   1      36.397  30.394  31.239  1.00  0.00     0.022 A 
BRANCH  44  47
ATOM     47  S   UNL A   1      35.495  31.683  29.003  1.00  0.00     0.127 S 
ATOM     48  O   UNL A   1      34.872  30.678  28.143  1.00  0.00    -0.237 OA
ATOM     49  O   UNL A   1      34.639  32.178  30.081  1.00  0.00    -0.237 OA
ATOM     50  O   UNL A   1      36.255  32.712  28.306  1.00  0.00    -0.744 OA
ENDBRANCH  44  47
ENDBRANCH  26  40
BRANCH  27  51
ATOM     51  C   UNL A   1      47.689  27.332  26.055  1.00  0.00     0.023 A 
ATOM     52  C   UNL A   1      48.750  26.801  26.812  1.00  0.00     0.012 A 
ATOM     53  C   UNL A   1      47.863  27.532  24.672  1.00  0.00     0.148 A 
ATOM     54  C   UNL A   1      49.973  26.506  26.207  1.00  0.00     0.002 A 
ATOM     55  C   UNL A   1      49.062  27.178  24.066  1.00  0.00     0.091 A 
ATOM     56  F   UNL A   1      46.849  28.059  23.971  1.00  0.00    -0.205 F 
ATOM     57  C   UNL A   1      50.126  26.682  24.834  1.00  0.00     0.022 A 
BRANCH  55  58
ATOM     58  S   UNL A   1      49.275  27.235  22.284  1.00  0.00     0.127 S 
ATOM     59  O   UNL A   1      50.719  27.074  22.149  1.00  0.00    -0.237 OA
ATOM     60  O   UNL A   1      48.483  26.087  21.841  1.00  0.00    -0.237 OA
ATOM     61  O   UNL A   1      48.731  28.524  21.875  1.00  0.00    -0.744 OA
ENDBRANCH  55  58
ENDBRANCH  27  51
BRANCH  39  62
ATOM     62  C   UNL A   1      45.065  33.031  29.099  1.00  0.00     0.023 A 
ATOM     63  C   UNL A   1      45.792  33.312  30.273  1.00  0.00     0.012 A 
ATOM     64  C   UNL A   1      44.914  34.032  28.121  1.00  0.00     0.148 A 
ATOM     65  C   UNL A   1      46.330  34.579  30.487  1.00  0.00     0.002 A 
ATOM     66  C   UNL A   1      45.495  35.279  28.319  1.00  0.00     0.091 A 
ATOM     67  F   UNL A   1      44.202  33.751  27.020  1.00  0.00    -0.205 F 
ATOM     68  C   UNL A   1      46.191  35.559  29.506  1.00  0.00     0.022 A 
BRANCH  66  69
ATOM     69  S   UNL A   1      45.445  36.570  27.071  1.00  0.00     0.127 S 
ATOM     70  O   UNL A   1      46.107  35.919  25.941  1.00  0.00    -0.237 OA
ATOM     71  O   UNL A   1      44.008  36.779  26.897  1.00  0.00    -0.237 OA
ATOM     72  O   UNL A   1      46.155  37.707  27.642  1.00  0.00    -0.744 OA
ENDBRANCH  66  69
ENDBRANCH  39  62
ENDBRANCH  13  14
ENDBRANCH   6   8
ENDBRANCH   3   4
ENDBRANCH   2   3
ENDBRANCH   1   2
BRANCH   1  73
ATOM     73  C   UNL A   1      34.793  20.088  24.901  1.00  0.00     0.002 C 
BRANCH  73  74
ATOM     74  C   UNL A   1      33.722  20.699  25.810  1.00  0.00     0.021 C 
BRANCH  74  75
ATOM     75  C   UNL A   1      32.430  21.086  25.103  1.00  0.00     0.116 C 
BRANCH  75  76
ATOM     76  N   UNL A   1      31.374  21.475  26.017  1.00  0.00    -0.356 N 
ATOM     77  C   UNL A   1      30.723  22.657  26.188  1.00  0.00     0.227 C 
ATOM     78  H   UNL A   1      31.076  20.757  26.621  1.00  0.00     0.163 HD
ATOM     79  O   UNL A   1      29.690  22.611  26.866  1.00  0.00    -0.274 OA
BRANCH  77  80
ATOM     80  C   UNL A   1      31.173  23.975  25.537  1.00  0.00     0.061 C 
ATOM     81  C   UNL A   1      30.495  25.143  26.353  1.00  0.00     0.053 C 
ATOM     82  C   UNL A   1      32.690  24.268  25.693  1.00  0.00     0.053 C 
ATOM     83  C   UNL A   1      31.506  26.245  26.282  1.00  0.00    -0.044 A 
ATOM     84  C   UNL A   1      32.754  25.741  25.930  1.00  0.00    -0.044 A 
ATOM     85  C   UNL A   1      31.339  27.588  26.571  1.00  0.00     0.004 A 
ATOM     86  C   UNL A   1      33.872  26.557  25.869  1.00  0.00     0.004 A 
ATOM     87  C   UNL A   1      32.453  28.426  26.493  1.00  0.00     0.000 A 
ATOM     88  C   UNL A   1      33.714  27.913  26.150  1.00  0.00     0.000 A 
BRANCH  80  89
ATOM     89  C   UNL A   1      30.645  24.074  24.074  1.00  0.00     0.053 C 
BRANCH  89  90
ATOM     90  C   UNL A   1      31.580  24.580  23.003  1.00  0.00    -0.044 A 
ATOM     91  C   UNL A   1      31.557  25.923  22.610  1.00  0.00     0.024 A 
ATOM     92  C   UNL A   1      32.505  23.728  22.392  1.00  0.00     0.024 A 
ATOM     93  C   UNL A   1      32.413  26.338  21.599  1.00  0.00     0.111 A 
ATOM     94  C   UNL A   1      33.320  24.236  21.391  1.00  0.00     0.111 A 
ATOM     95  N   UNL A   1      33.281  25.518  20.970  1.00  0.00    -0.265 NA
ENDBRANCH  89  90
ENDBRANCH  80  89
ENDBRANCH  77  80
ENDBRANCH  75  76
ENDBRANCH  74  75
ENDBRANCH  73  74
ENDBRANCH   1  73
TORSDOF 18
ENDMDL
