MODEL 1
REMARK VINA RESULT:     -10.0      0.000      0.000
REMARK SMILES CCc1ccc(OCC(=O)Nc2cc(C)c(O)c(C(=O)NCCCCCCNC(=O)c3ccc(-c4c5nc(c(-c6cccc(S(=O)(=O)[O-])c6F)c6ccc([nH]6)c(-c6cccc(S(=O)(=O)[O-])c6F)c6nc(c(-c7cccc(S(=O)(=O)[O-])c7F)c7ccc4[nH]7)C=C6)C=C5)cc3)c2)cc1
REMARK SMILES IDX 23 1 22 2 21 3 19 4 20 5 18 7 12 8 13 9 94 10 14 11 15 12
REMARK SMILES IDX 16 13 11 14 9 15 10 16 8 18 7 19 6 20 3 21 4 22 96 23 5 24
REMARK SMILES IDX 95 25 2 26 1 27 17 28 24 30 25 31 26 32 27 33 28 34 29 35
REMARK SMILES IDX 30 37 31 38 32 39 93 40 33 41 92 42 34 43 35 44 36 45 86 46
REMARK SMILES IDX 37 47 91 48 85 49 87 50 38 51 90 52 84 53 83 54 39 56 71 57
REMARK SMILES IDX 51 58 70 59 52 60 55 61 69 62 88 63 53 64 54 65 68 67 89 68
REMARK SMILES IDX 56 69 40 70 41 71 49 72 42 73 44 74 50 75 43 76 45 77 46 78
REMARK SMILES IDX 47 79 48 80 72 81 73 82 81 83 74 84 76 85 82 86 75 87 77 88
REMARK SMILES IDX 78 89 79 90 80 91 57 92 58 93 66 94 59 95 61 96 67 97 60 98
REMARK SMILES IDX 62 99 63 100 64 101 65 102
REMARK H PARENT 21 6 11 17 17 29 28 36 87 55 55 66
REMARK Flexibility Score: inf
ROOT
ATOM      1  C   UNL A   1      39.206  29.350  28.700  1.00  0.00     0.021 C 
ENDROOT
BRANCH   1   2
ATOM      2  C   UNL A   1      37.810  29.602  28.116  1.00  0.00     0.116 C 
BRANCH   2   3
ATOM      3  N   UNL A   1      37.135  30.764  28.644  1.00  0.00    -0.352 N 
ATOM      4  C   UNL A   1      35.827  31.171  28.539  1.00  0.00     0.255 C 
ATOM      5  O   UNL A   1      35.549  32.262  29.054  1.00  0.00    -0.269 OA
ATOM      6  H   UNL A   1      37.711  31.367  29.168  1.00  0.00     0.163 HD
BRANCH   4   7
ATOM      7  C   UNL A   1      34.740  30.456  27.784  1.00  0.00     0.083 A 
ATOM      8  C   UNL A   1      33.723  28.527  26.674  1.00  0.00     0.042 A 
ATOM      9  C   UNL A   1      32.633  29.343  26.322  1.00  0.00     0.033 A 
ATOM     10  C   UNL A   1      34.752  29.076  27.452  1.00  0.00     0.043 A 
ATOM     11  C   UNL A   1      32.547  30.686  26.700  1.00  0.00    -0.006 A 
ATOM     12  C   UNL A   1      31.306  31.456  26.342  1.00  0.00     0.048 C 
ATOM     13  C   UNL A   1      33.610  31.235  27.419  1.00  0.00     0.131 A 
BRANCH   8  14
ATOM     14  N   UNL A   1      33.660  27.238  26.113  1.00  0.00    -0.323 N 
ATOM     15  C   UNL A   1      33.505  26.662  24.893  1.00  0.00     0.262 C 
ATOM     16  O   UNL A   1      33.357  25.432  24.899  1.00  0.00    -0.271 OA
ATOM     17  H   UNL A   1      33.756  26.552  26.811  1.00  0.00     0.170 HD
BRANCH  15  18
ATOM     18  C   UNL A   1      33.605  27.407  23.572  1.00  0.00     0.329 C 
BRANCH  18  19
ATOM     19  O   UNL A   1      32.610  27.214  22.596  1.00  0.00    -0.484 OA
BRANCH  19  20
ATOM     20  C   UNL A   1      31.338  27.625  22.848  1.00  0.00     0.120 A 
ATOM     21  C   UNL A   1      28.857  28.958  23.167  1.00  0.00    -0.048 A 
ATOM     22  C   UNL A   1      30.004  29.660  22.838  1.00  0.00     0.007 A 
ATOM     23  C   UNL A   1      28.970  27.567  23.343  1.00  0.00     0.007 A 
ATOM     24  C   UNL A   1      31.189  28.981  22.634  1.00  0.00     0.047 A 
ATOM     25  C   UNL A   1      30.215  26.901  23.206  1.00  0.00     0.047 A 
BRANCH  21  26
ATOM     26  C   UNL A   1      27.576  29.753  23.156  1.00  0.00     0.032 C 
ATOM     27  C   UNL A   1      27.685  31.242  23.389  1.00  0.00     0.009 C 
ENDBRANCH  21  26
ENDBRANCH  19  20
ENDBRANCH  18  19
ENDBRANCH  15  18
ENDBRANCH   8  14
BRANCH  13  28
ATOM     28  O   UNL A   1      33.493  32.568  27.742  1.00  0.00    -0.507 OA
ATOM     29  H   UNL A   1      32.820  33.088  27.349  1.00  0.00     0.293 HD
ENDBRANCH  13  28
ENDBRANCH   4   7
ENDBRANCH   2   3
ENDBRANCH   1   2
BRANCH   1  30
ATOM     30  C   UNL A   1      39.775  27.919  28.888  1.00  0.00     0.002 C 
BRANCH  30  31
ATOM     31  C   UNL A   1      39.350  26.708  28.041  1.00  0.00     0.002 C 
BRANCH  31  32
ATOM     32  C   UNL A   1      40.109  25.369  28.134  1.00  0.00     0.021 C 
BRANCH  32  33
ATOM     33  C   UNL A   1      41.630  25.349  27.923  1.00  0.00     0.116 C 
BRANCH  33  34
ATOM     34  N   UNL A   1      42.046  25.605  26.556  1.00  0.00    -0.352 N 
ATOM     35  C   UNL A   1      42.598  26.726  25.979  1.00  0.00     0.251 C 
ATOM     36  H   UNL A   1      41.909  24.850  25.938  1.00  0.00     0.163 HD
ATOM     37  O   UNL A   1      42.831  26.708  24.770  1.00  0.00    -0.269 OA
BRANCH  35  38
ATOM     38  C   UNL A   1      42.893  27.966  26.749  1.00  0.00     0.039 A 
ATOM     39  C   UNL A   1      42.223  29.139  26.384  1.00  0.00     0.014 A 
ATOM     40  C   UNL A   1      43.855  28.025  27.761  1.00  0.00     0.014 A 
ATOM     41  C   UNL A   1      42.464  30.340  27.064  1.00  0.00     0.010 A 
ATOM     42  C   UNL A   1      44.065  29.217  28.474  1.00  0.00     0.010 A 
ATOM     43  C   UNL A   1      43.365  30.387  28.141  1.00  0.00    -0.014 A 
BRANCH  43  44
ATOM     44  C   UNL A   1      43.510  31.635  28.950  1.00  0.00     0.031 A 
ATOM     45  C   UNL A   1      42.650  31.899  30.161  1.00  0.00     0.074 A 
ATOM     46  C   UNL A   1      44.404  32.570  28.564  1.00  0.00     0.049 A 
ATOM     47  N   UNL A   1      42.661  32.930  30.970  1.00  0.00    -0.248 NA
ATOM     48  C   UNL A   1      41.644  30.883  30.503  1.00  0.00     0.031 C 
ATOM     49  C   UNL A   1      45.258  32.476  27.378  1.00  0.00     0.029 A 
ATOM     50  N   UNL A   1      44.732  33.788  29.110  1.00  0.00    -0.354 N 
ATOM     51  C   UNL A   1      41.654  32.701  31.901  1.00  0.00     0.074 A 
ATOM     52  C   UNL A   1      41.037  31.442  31.543  1.00  0.00     0.031 C 
ATOM     53  C   UNL A   1      46.009  33.583  27.286  1.00  0.00     0.029 A 
ATOM     54  C   UNL A   1      45.671  34.484  28.385  1.00  0.00     0.049 A 
ATOM     55  H   UNL A   1      44.332  34.131  29.943  1.00  0.00     0.167 HD
ATOM     56  C   UNL A   1      41.289  33.457  32.968  1.00  0.00     0.034 A 
ATOM     57  C   UNL A   1      46.196  35.714  28.566  1.00  0.00     0.034 A 
ATOM     58  C   UNL A   1      41.914  34.702  33.339  1.00  0.00     0.049 A 
ATOM     59  C   UNL A   1      45.778  36.526  29.763  1.00  0.00     0.074 A 
ATOM     60  C   UNL A   1      41.660  35.494  34.446  1.00  0.00     0.029 A 
ATOM     61  N   UNL A   1      42.901  35.346  32.611  1.00  0.00    -0.354 N 
ATOM     62  N   UNL A   1      44.936  36.215  30.718  1.00  0.00    -0.248 NA
ATOM     63  C   UNL A   1      46.408  37.844  29.925  1.00  0.00     0.031 C 
ATOM     64  C   UNL A   1      42.466  36.635  34.367  1.00  0.00     0.029 A 
ATOM     65  C   UNL A   1      43.253  36.534  33.234  1.00  0.00     0.049 A 
ATOM     66  H   UNL A   1      43.295  35.010  31.774  1.00  0.00     0.167 HD
ATOM     67  C   UNL A   1      44.961  37.282  31.610  1.00  0.00     0.074 A 
ATOM     68  C   UNL A   1      45.921  38.236  31.094  1.00  0.00     0.031 C 
ATOM     69  C   UNL A   1      44.241  37.461  32.744  1.00  0.00     0.034 A 
BRANCH  56  70
ATOM     70  C   UNL A   1      40.180  32.943  33.853  1.00  0.00     0.023 A 
ATOM     71  C   UNL A   1      40.481  32.037  34.891  1.00  0.00     0.012 A 
ATOM     72  C   UNL A   1      38.861  33.425  33.721  1.00  0.00     0.148 A 
ATOM     73  C   UNL A   1      39.486  31.594  35.761  1.00  0.00     0.002 A 
ATOM     74  C   UNL A   1      37.883  33.013  34.619  1.00  0.00     0.091 A 
ATOM     75  F   UNL A   1      38.589  34.278  32.723  1.00  0.00    -0.205 F 
ATOM     76  C   UNL A   1      38.190  32.089  35.631  1.00  0.00     0.022 A 
BRANCH  74  77
ATOM     77  S   UNL A   1      36.203  33.649  34.592  1.00  0.00     0.127 S 
ATOM     78  O   UNL A   1      35.876  33.679  36.016  1.00  0.00    -0.237 OA
ATOM     79  O   UNL A   1      36.381  34.964  33.979  1.00  0.00    -0.237 OA
ATOM     80  O   UNL A   1      35.428  32.706  33.794  1.00  0.00    -0.744 OA
ENDBRANCH  74  77
ENDBRANCH  56  70
BRANCH  57  81
ATOM     81  C   UNL A   1      47.209  36.242  27.608  1.00  0.00     0.023 A 
ATOM     82  C   UNL A   1      46.797  37.052  26.531  1.00  0.00     0.012 A 
ATOM     83  C   UNL A   1      48.579  35.955  27.765  1.00  0.00     0.148 A 
ATOM     84  C   UNL A   1      47.725  37.532  25.607  1.00  0.00     0.002 A 
ATOM     85  C   UNL A   1      49.505  36.487  26.876  1.00  0.00     0.091 A 
ATOM     86  F   UNL A   1      48.951  35.171  28.786  1.00  0.00    -0.205 F 
ATOM     87  C   UNL A   1      49.079  37.261  25.785  1.00  0.00     0.022 A 
BRANCH  85  88
ATOM     88  S   UNL A   1      51.277  36.300  27.105  1.00  0.00     0.127 S 
ATOM     89  O   UNL A   1      51.474  36.897  28.423  1.00  0.00    -0.237 OA
ATOM     90  O   UNL A   1      51.436  34.846  27.056  1.00  0.00    -0.237 OA
ATOM     91  O   UNL A   1      51.894  37.007  25.990  1.00  0.00    -0.744 OA
ENDBRANCH  85  88
ENDBRANCH  57  81
BRANCH  69  92
ATOM     92  C   UNL A   1      44.483  38.721  33.536  1.00  0.00     0.023 A 
ATOM     93  C   UNL A   1      45.465  38.741  34.548  1.00  0.00     0.012 A 
ATOM     94  C   UNL A   1      43.778  39.905  33.239  1.00  0.00     0.148 A 
ATOM     95  C   UNL A   1      45.714  39.906  35.274  1.00  0.00     0.002 A 
ATOM     96  C   UNL A   1      44.067  41.075  33.931  1.00  0.00     0.091 A 
ATOM     97  F   UNL A   1      42.835  39.864  32.286  1.00  0.00    -0.205 F 
ATOM     98  C   UNL A   1      45.024  41.074  34.959  1.00  0.00     0.022 A 
BRANCH  96  99
ATOM     99  S   UNL A   1      43.299  42.650  33.532  1.00  0.00     0.127 S 
ATOM    100  O   UNL A   1      42.010  42.533  34.211  1.00  0.00    -0.237 OA
ATOM    101  O   UNL A   1      44.224  43.607  34.139  1.00  0.00    -0.237 OA
ATOM    102  O   UNL A   1      43.234  42.710  32.079  1.00  0.00    -0.744 OA
ENDBRANCH  96  99
ENDBRANCH  69  92
ENDBRANCH  43  44
ENDBRANCH  35  38
ENDBRANCH  33  34
ENDBRANCH  32  33
ENDBRANCH  31  32
ENDBRANCH  30  31
ENDBRANCH   1  30
TORSDOF 22
ENDMDL
MODEL 2
REMARK VINA RESULT:      -9.8      1.158      7.546
REMARK SMILES CCc1ccc(OCC(=O)Nc2cc(C)c(O)c(C(=O)NCCCCCCNC(=O)c3ccc(-c4c5nc(c(-c6cccc(S(=O)(=O)[O-])c6F)c6ccc([nH]6)c(-c6cccc(S(=O)(=O)[O-])c6F)c6nc(c(-c7cccc(S(=O)(=O)[O-])c7F)c7ccc4[nH]7)C=C6)C=C5)cc3)c2)cc1
REMARK SMILES IDX 23 1 22 2 21 3 19 4 20 5 18 7 12 8 13 9 94 10 14 11 15 12
REMARK SMILES IDX 16 13 11 14 9 15 10 16 8 18 7 19 6 20 3 21 4 22 96 23 5 24
REMARK SMILES IDX 95 25 2 26 1 27 17 28 24 30 25 31 26 32 27 33 28 34 29 35
REMARK SMILES IDX 30 37 31 38 32 39 93 40 33 41 92 42 34 43 35 44 36 45 86 46
REMARK SMILES IDX 37 47 91 48 85 49 87 50 38 51 90 52 84 53 83 54 39 56 71 57
REMARK SMILES IDX 51 58 70 59 52 60 55 61 69 62 88 63 53 64 54 65 68 67 89 68
REMARK SMILES IDX 56 69 40 70 41 71 49 72 42 73 44 74 50 75 43 76 45 77 46 78
REMARK SMILES IDX 47 79 48 80 72 81 73 82 81 83 74 84 76 85 82 86 75 87 77 88
REMARK SMILES IDX 78 89 79 90 80 91 57 92 58 93 66 94 59 95 61 96 67 97 60 98
REMARK SMILES IDX 62 99 63 100 64 101 65 102
REMARK H PARENT 21 6 11 17 17 29 28 36 87 55 55 66
REMARK Flexibility Score: inf
ROOT
ATOM      1  C   UNL A   1      38.542  28.615  29.069  1.00  0.00     0.021 C 
ENDROOT
BRANCH   1   2
ATOM      2  C   UNL A   1      37.667  29.399  28.081  1.00  0.00     0.116 C 
BRANCH   2   3
ATOM      3  N   UNL A   1      37.056  30.587  28.627  1.00  0.00    -0.352 N 
ATOM      4  C   UNL A   1      35.764  31.048  28.560  1.00  0.00     0.255 C 
ATOM      5  O   UNL A   1      35.545  32.148  29.081  1.00  0.00    -0.269 OA
ATOM      6  H   UNL A   1      37.672  31.166  29.133  1.00  0.00     0.163 HD
BRANCH   4   7
ATOM      7  C   UNL A   1      34.626  30.377  27.837  1.00  0.00     0.083 A 
ATOM      8  C   UNL A   1      33.479  28.479  26.804  1.00  0.00     0.042 A 
ATOM      9  C   UNL A   1      32.440  29.351  26.429  1.00  0.00     0.033 A 
ATOM     10  C   UNL A   1      34.547  28.988  27.556  1.00  0.00     0.043 A 
ATOM     11  C   UNL A   1      32.444  30.709  26.758  1.00  0.00    -0.006 A 
ATOM     12  C   UNL A   1      31.253  31.545  26.379  1.00  0.00     0.048 C 
ATOM     13  C   UNL A   1      33.546  31.214  27.450  1.00  0.00     0.131 A 
BRANCH   8  14
ATOM     14  N   UNL A   1      33.328  27.178  26.291  1.00  0.00    -0.323 N 
ATOM     15  C   UNL A   1      33.193  26.564  25.088  1.00  0.00     0.262 C 
ATOM     16  O   UNL A   1      32.930  25.354  25.132  1.00  0.00    -0.271 OA
ATOM     17  H   UNL A   1      33.317  26.517  27.020  1.00  0.00     0.170 HD
BRANCH  15  18
ATOM     18  C   UNL A   1      33.442  27.236  23.747  1.00  0.00     0.329 C 
BRANCH  18  19
ATOM     19  O   UNL A   1      32.487  27.102  22.722  1.00  0.00    -0.484 OA
BRANCH  19  20
ATOM     20  C   UNL A   1      31.234  27.596  22.907  1.00  0.00     0.120 A 
ATOM     21  C   UNL A   1      28.827  29.084  23.081  1.00  0.00    -0.048 A 
ATOM     22  C   UNL A   1      30.027  29.706  22.779  1.00  0.00     0.007 A 
ATOM     23  C   UNL A   1      28.848  27.696  23.305  1.00  0.00     0.007 A 
ATOM     24  C   UNL A   1      31.176  28.951  22.645  1.00  0.00     0.047 A 
ATOM     25  C   UNL A   1      30.055  26.952  23.240  1.00  0.00     0.047 A 
BRANCH  21  26
ATOM     26  C   UNL A   1      27.599  29.953  22.991  1.00  0.00     0.032 C 
ATOM     27  C   UNL A   1      27.700  31.353  23.550  1.00  0.00     0.009 C 
ENDBRANCH  21  26
ENDBRANCH  19  20
ENDBRANCH  18  19
ENDBRANCH  15  18
ENDBRANCH   8  14
BRANCH  13  28
ATOM     28  O   UNL A   1      33.519  32.562  27.725  1.00  0.00    -0.507 OA
ATOM     29  H   UNL A   1      33.410  33.180  27.029  1.00  0.00     0.293 HD
ENDBRANCH  13  28
ENDBRANCH   4   7
ENDBRANCH   2   3
ENDBRANCH   1   2
BRANCH   1  30
ATOM     30  C   UNL A   1      39.023  27.169  28.776  1.00  0.00     0.002 C 
BRANCH  30  31
ATOM     31  C   UNL A   1      39.666  26.730  27.450  1.00  0.00     0.002 C 
BRANCH  31  32
ATOM     32  C   UNL A   1      39.716  25.243  27.046  1.00  0.00     0.021 C 
BRANCH  32  33
ATOM     33  C   UNL A   1      41.013  24.448  27.260  1.00  0.00     0.116 C 
BRANCH  33  34
ATOM     34  N   UNL A   1      41.931  24.493  26.137  1.00  0.00    -0.352 N 
ATOM     35  C   UNL A   1      42.768  25.494  25.698  1.00  0.00     0.251 C 
ATOM     36  H   UNL A   1      41.960  23.668  25.598  1.00  0.00     0.163 HD
ATOM     37  O   UNL A   1      43.431  25.299  24.679  1.00  0.00    -0.269 OA
BRANCH  35  38
ATOM     38  C   UNL A   1      42.877  26.810  26.385  1.00  0.00     0.039 A 
ATOM     39  C   UNL A   1      43.521  26.850  27.627  1.00  0.00     0.014 A 
ATOM     40  C   UNL A   1      42.304  27.983  25.883  1.00  0.00     0.014 A 
ATOM     41  C   UNL A   1      43.647  28.057  28.327  1.00  0.00     0.010 A 
ATOM     42  C   UNL A   1      42.469  29.201  26.563  1.00  0.00     0.010 A 
ATOM     43  C   UNL A   1      43.151  29.256  27.788  1.00  0.00    -0.014 A 
BRANCH  43  44
ATOM     44  C   UNL A   1      43.415  30.557  28.472  1.00  0.00     0.031 A 
ATOM     45  C   UNL A   1      44.570  31.443  28.075  1.00  0.00     0.074 A 
ATOM     46  C   UNL A   1      42.626  30.932  29.501  1.00  0.00     0.049 A 
ATOM     47  N   UNL A   1      44.926  32.604  28.567  1.00  0.00    -0.248 NA
ATOM     48  C   UNL A   1      45.443  30.960  26.995  1.00  0.00     0.031 C 
ATOM     49  C   UNL A   1      41.511  30.146  30.033  1.00  0.00     0.029 A 
ATOM     50  N   UNL A   1      42.647  32.053  30.296  1.00  0.00    -0.354 N 
ATOM     51  C   UNL A   1      46.072  32.982  27.878  1.00  0.00     0.074 A 
ATOM     52  C   UNL A   1      46.365  31.914  26.945  1.00  0.00     0.031 C 
ATOM     53  C   UNL A   1      40.956  30.805  31.062  1.00  0.00     0.029 A 
ATOM     54  C   UNL A   1      41.692  32.046  31.288  1.00  0.00     0.049 A 
ATOM     55  H   UNL A   1      43.285  32.793  30.168  1.00  0.00     0.167 HD
ATOM     56  C   UNL A   1      46.801  34.121  27.992  1.00  0.00     0.034 A 
ATOM     57  C   UNL A   1      41.441  32.925  32.279  1.00  0.00     0.034 A 
ATOM     58  C   UNL A   1      46.502  35.194  28.906  1.00  0.00     0.049 A 
ATOM     59  C   UNL A   1      42.262  34.183  32.377  1.00  0.00     0.074 A 
ATOM     60  C   UNL A   1      47.142  36.416  29.036  1.00  0.00     0.029 A 
ATOM     61  N   UNL A   1      45.493  35.174  29.855  1.00  0.00    -0.354 N 
ATOM     62  N   UNL A   1      43.242  34.591  31.609  1.00  0.00    -0.248 NA
ATOM     63  C   UNL A   1      41.919  35.119  33.458  1.00  0.00     0.031 C 
ATOM     64  C   UNL A   1      46.543  37.118  30.088  1.00  0.00     0.029 A 
ATOM     65  C   UNL A   1      45.504  36.353  30.587  1.00  0.00     0.049 A 
ATOM     66  H   UNL A   1      44.860  34.433  29.991  1.00  0.00     0.167 HD
ATOM     67  C   UNL A   1      43.609  35.842  32.091  1.00  0.00     0.074 A 
ATOM     68  C   UNL A   1      42.729  36.137  33.203  1.00  0.00     0.031 C 
ATOM     69  C   UNL A   1      44.598  36.664  31.662  1.00  0.00     0.034 A 
BRANCH  56  70
ATOM     70  C   UNL A   1      47.987  34.297  27.075  1.00  0.00     0.023 A 
ATOM     71  C   UNL A   1      47.824  34.978  25.851  1.00  0.00     0.012 A 
ATOM     72  C   UNL A   1      49.276  33.876  27.461  1.00  0.00     0.148 A 
ATOM     73  C   UNL A   1      48.914  35.207  25.012  1.00  0.00     0.002 A 
ATOM     74  C   UNL A   1      50.365  34.147  26.641  1.00  0.00     0.091 A 
ATOM     75  F   UNL A   1      49.413  33.221  28.623  1.00  0.00    -0.205 F 
ATOM     76  C   UNL A   1      50.185  34.802  25.412  1.00  0.00     0.022 A 
BRANCH  74  77
ATOM     77  S   UNL A   1      52.056  33.740  27.098  1.00  0.00     0.127 S 
ATOM     78  O   UNL A   1      52.005  32.281  27.143  1.00  0.00    -0.237 OA
ATOM     79  O   UNL A   1      52.818  34.290  25.978  1.00  0.00    -0.237 OA
ATOM     80  O   UNL A   1      52.295  34.396  28.378  1.00  0.00    -0.744 OA
ENDBRANCH  74  77
ENDBRANCH  56  70
BRANCH  57  81
ATOM     81  C   UNL A   1      40.332  32.667  33.242  1.00  0.00     0.023 A 
ATOM     82  C   UNL A   1      40.582  31.919  34.410  1.00  0.00     0.012 A 
ATOM     83  C   UNL A   1      39.036  33.168  33.013  1.00  0.00     0.148 A 
ATOM     84  C   UNL A   1      39.553  31.641  35.310  1.00  0.00     0.002 A 
ATOM     85  C   UNL A   1      38.030  32.939  33.944  1.00  0.00     0.091 A 
ATOM     86  F   UNL A   1      38.814  33.864  31.890  1.00  0.00    -0.205 F 
ATOM     87  C   UNL A   1      38.280  32.160  35.084  1.00  0.00     0.022 A 
BRANCH  85  88
ATOM     88  S   UNL A   1      36.400  33.680  33.800  1.00  0.00     0.127 S 
ATOM     89  O   UNL A   1      36.726  35.093  33.627  1.00  0.00    -0.237 OA
ATOM     90  O   UNL A   1      35.870  33.018  32.607  1.00  0.00    -0.237 OA
ATOM     91  O   UNL A   1      35.702  33.337  35.033  1.00  0.00    -0.744 OA
ENDBRANCH  85  88
ENDBRANCH  57  81
BRANCH  69  92
ATOM     92  C   UNL A   1      44.767  37.986  32.369  1.00  0.00     0.023 A 
ATOM     93  C   UNL A   1      45.713  38.115  33.405  1.00  0.00     0.012 A 
ATOM     94  C   UNL A   1      44.029  39.118  31.966  1.00  0.00     0.148 A 
ATOM     95  C   UNL A   1      45.895  39.337  34.053  1.00  0.00     0.002 A 
ATOM     96  C   UNL A   1      44.252  40.344  32.580  1.00  0.00     0.091 A 
ATOM     97  F   UNL A   1      43.120  38.973  30.990  1.00  0.00    -0.205 F 
ATOM     98  C   UNL A   1      45.173  40.453  33.634  1.00  0.00     0.022 A 
BRANCH  96  99
ATOM     99  S   UNL A   1      43.440  41.855  32.046  1.00  0.00     0.127 S 
ATOM    100  O   UNL A   1      43.816  41.912  30.634  1.00  0.00    -0.237 OA
ATOM    101  O   UNL A   1      42.030  41.552  32.289  1.00  0.00    -0.237 OA
ATOM    102  O   UNL A   1      43.983  42.920  32.877  1.00  0.00    -0.744 OA
ENDBRANCH  96  99
ENDBRANCH  69  92
ENDBRANCH  43  44
ENDBRANCH  35  38
ENDBRANCH  33  34
ENDBRANCH  32  33
ENDBRANCH  31  32
ENDBRANCH  30  31
ENDBRANCH   1  30
TORSDOF 22
ENDMDL
MODEL 3
REMARK VINA RESULT:      -9.7      1.830      2.864
REMARK SMILES CCc1ccc(OCC(=O)Nc2cc(C)c(O)c(C(=O)NCCCCCCNC(=O)c3ccc(-c4c5nc(c(-c6cccc(S(=O)(=O)[O-])c6F)c6ccc([nH]6)c(-c6cccc(S(=O)(=O)[O-])c6F)c6nc(c(-c7cccc(S(=O)(=O)[O-])c7F)c7ccc4[nH]7)C=C6)C=C5)cc3)c2)cc1
REMARK SMILES IDX 23 1 22 2 21 3 19 4 20 5 18 7 12 8 13 9 94 10 14 11 15 12
REMARK SMILES IDX 16 13 11 14 9 15 10 16 8 18 7 19 6 20 3 21 4 22 96 23 5 24
REMARK SMILES IDX 95 25 2 26 1 27 17 28 24 30 25 31 26 32 27 33 28 34 29 35
REMARK SMILES IDX 30 37 31 38 32 39 93 40 33 41 92 42 34 43 35 44 36 45 86 46
REMARK SMILES IDX 37 47 91 48 85 49 87 50 38 51 90 52 84 53 83 54 39 56 71 57
REMARK SMILES IDX 51 58 70 59 52 60 55 61 69 62 88 63 53 64 54 65 68 67 89 68
REMARK SMILES IDX 56 69 40 70 41 71 49 72 42 73 44 74 50 75 43 76 45 77 46 78
REMARK SMILES IDX 47 79 48 80 72 81 73 82 81 83 74 84 76 85 82 86 75 87 77 88
REMARK SMILES IDX 78 89 79 90 80 91 57 92 58 93 66 94 59 95 61 96 67 97 60 98
REMARK SMILES IDX 62 99 63 100 64 101 65 102
REMARK H PARENT 21 6 11 17 17 29 28 36 87 55 55 66
REMARK Flexibility Score: inf
ROOT
ATOM      1  C   UNL A   1      39.820  28.820  27.450  1.00  0.00     0.021 C 
ENDROOT
BRANCH   1   2
ATOM      2  C   UNL A   1      38.589  29.680  27.766  1.00  0.00     0.116 C 
BRANCH   2   3
ATOM      3  N   UNL A   1      37.940  29.370  29.018  1.00  0.00    -0.352 N 
ATOM      4  C   UNL A   1      36.641  29.547  29.427  1.00  0.00     0.255 C 
ATOM      5  O   UNL A   1      36.387  29.237  30.597  1.00  0.00    -0.269 OA
ATOM      6  H   UNL A   1      38.530  28.962  29.692  1.00  0.00     0.163 HD
BRANCH   4   7
ATOM      7  C   UNL A   1      35.537  30.164  28.611  1.00  0.00     0.083 A 
ATOM      8  C   UNL A   1      33.869  30.198  26.821  1.00  0.00     0.042 A 
ATOM      9  C   UNL A   1      33.554  31.521  27.182  1.00  0.00     0.033 A 
ATOM     10  C   UNL A   1      34.826  29.504  27.574  1.00  0.00     0.043 A 
ATOM     11  C   UNL A   1      34.175  32.176  28.249  1.00  0.00    -0.006 A 
ATOM     12  C   UNL A   1      33.716  33.563  28.607  1.00  0.00     0.048 C 
ATOM     13  C   UNL A   1      35.172  31.494  28.947  1.00  0.00     0.131 A 
BRANCH   8  14
ATOM     14  N   UNL A   1      33.201  29.762  25.662  1.00  0.00    -0.323 N 
ATOM     15  C   UNL A   1      32.370  28.759  25.279  1.00  0.00     0.262 C 
ATOM     16  O   UNL A   1      32.143  28.689  24.063  1.00  0.00    -0.271 OA
ATOM     17  H   UNL A   1      33.393  30.361  24.906  1.00  0.00     0.170 HD
BRANCH  15  18
ATOM     18  C   UNL A   1      31.653  27.823  26.238  1.00  0.00     0.329 C 
BRANCH  18  19
ATOM     19  O   UNL A   1      32.357  26.743  26.801  1.00  0.00    -0.484 OA
BRANCH  19  20
ATOM     20  C   UNL A   1      32.742  25.709  26.006  1.00  0.00     0.120 A 
ATOM     21  C   UNL A   1      33.088  23.318  24.523  1.00  0.00    -0.048 A 
ATOM     22  C   UNL A   1      32.116  23.412  25.504  1.00  0.00     0.007 A 
ATOM     23  C   UNL A   1      33.898  24.445  24.296  1.00  0.00     0.007 A 
ATOM     24  C   UNL A   1      31.930  24.605  26.174  1.00  0.00     0.047 A 
ATOM     25  C   UNL A   1      33.742  25.635  25.052  1.00  0.00     0.047 A 
BRANCH  21  26
ATOM     26  C   UNL A   1      33.070  22.054  23.702  1.00  0.00     0.032 C 
ATOM     27  C   UNL A   1      32.644  20.783  24.399  1.00  0.00     0.009 C 
ENDBRANCH  21  26
ENDBRANCH  19  20
ENDBRANCH  18  19
ENDBRANCH  15  18
ENDBRANCH   8  14
BRANCH  13  28
ATOM     28  O   UNL A   1      35.775  32.191  29.970  1.00  0.00    -0.507 OA
ATOM     29  H   UNL A   1      35.960  33.104  29.869  1.00  0.00     0.293 HD
ENDBRANCH  13  28
ENDBRANCH   4   7
ENDBRANCH   2   3
ENDBRANCH   1   2
BRANCH   1  30
ATOM     30  C   UNL A   1      40.053  27.437  28.115  1.00  0.00     0.002 C 
BRANCH  30  31
ATOM     31  C   UNL A   1      40.045  26.104  27.351  1.00  0.00     0.002 C 
BRANCH  31  32
ATOM     32  C   UNL A   1      40.729  24.851  27.933  1.00  0.00     0.021 C 
BRANCH  32  33
ATOM     33  C   UNL A   1      42.261  24.743  27.897  1.00  0.00     0.116 C 
BRANCH  33  34
ATOM     34  N   UNL A   1      42.851  25.061  26.610  1.00  0.00    -0.352 N 
ATOM     35  C   UNL A   1      43.461  26.210  26.158  1.00  0.00     0.251 C 
ATOM     36  H   UNL A   1      42.806  24.333  25.947  1.00  0.00     0.163 HD
ATOM     37  O   UNL A   1      43.852  26.246  24.991  1.00  0.00    -0.269 OA
BRANCH  35  38
ATOM     38  C   UNL A   1      43.637  27.417  27.012  1.00  0.00     0.039 A 
ATOM     39  C   UNL A   1      43.258  28.656  26.482  1.00  0.00     0.014 A 
ATOM     40  C   UNL A   1      44.228  27.376  28.278  1.00  0.00     0.014 A 
ATOM     41  C   UNL A   1      43.407  29.829  27.234  1.00  0.00     0.010 A 
ATOM     42  C   UNL A   1      44.337  28.545  29.050  1.00  0.00     0.010 A 
ATOM     43  C   UNL A   1      43.919  29.785  28.542  1.00  0.00    -0.014 A 
BRANCH  43  44
ATOM     44  C   UNL A   1      43.942  31.017  29.385  1.00  0.00     0.031 A 
ATOM     45  C   UNL A   1      42.783  31.392  30.275  1.00  0.00     0.074 A 
ATOM     46  C   UNL A   1      45.009  31.841  29.318  1.00  0.00     0.049 A 
ATOM     47  N   UNL A   1      42.655  32.424  31.072  1.00  0.00    -0.248 NA
ATOM     48  C   UNL A   1      41.614  30.500  30.262  1.00  0.00     0.031 C 
ATOM     49  C   UNL A   1      46.175  31.637  28.455  1.00  0.00     0.029 A 
ATOM     50  N   UNL A   1      45.284  33.021  29.968  1.00  0.00    -0.354 N 
ATOM     51  C   UNL A   1      41.389  32.322  31.637  1.00  0.00     0.074 A 
ATOM     52  C   UNL A   1      40.779  31.136  31.075  1.00  0.00     0.031 C 
ATOM     53  C   UNL A   1      47.035  32.651  28.627  1.00  0.00     0.029 A 
ATOM     54  C   UNL A   1      46.474  33.598  29.587  1.00  0.00     0.049 A 
ATOM     55  H   UNL A   1      44.686  33.416  30.643  1.00  0.00     0.167 HD
ATOM     56  C   UNL A   1      40.797  33.127  32.556  1.00  0.00     0.034 A 
ATOM     57  C   UNL A   1      47.049  34.762  29.952  1.00  0.00     0.034 A 
ATOM     58  C   UNL A   1      41.409  34.297  33.132  1.00  0.00     0.049 A 
ATOM     59  C   UNL A   1      46.372  35.630  30.979  1.00  0.00     0.074 A 
ATOM     60  C   UNL A   1      40.912  35.127  34.124  1.00  0.00     0.029 A 
ATOM     61  N   UNL A   1      42.639  34.818  32.763  1.00  0.00    -0.354 N 
ATOM     62  N   UNL A   1      45.246  35.429  31.617  1.00  0.00    -0.248 NA
ATOM     63  C   UNL A   1      47.063  36.871  31.361  1.00  0.00     0.031 C 
ATOM     64  C   UNL A   1      41.824  36.168  34.327  1.00  0.00     0.029 A 
ATOM     65  C   UNL A   1      42.908  35.966  33.492  1.00  0.00     0.049 A 
ATOM     66  H   UNL A   1      43.234  34.429  32.082  1.00  0.00     0.167 HD
ATOM     67  C   UNL A   1      45.110  36.496  32.498  1.00  0.00     0.074 A 
ATOM     68  C   UNL A   1      46.282  37.329  32.330  1.00  0.00     0.031 C 
ATOM     69  C   UNL A   1      44.097  36.768  33.356  1.00  0.00     0.034 A 
BRANCH  56  70
ATOM     70  C   UNL A   1      39.417  32.752  33.040  1.00  0.00     0.023 A 
ATOM     71  C   UNL A   1      39.262  31.665  33.924  1.00  0.00     0.012 A 
ATOM     72  C   UNL A   1      38.290  33.528  32.698  1.00  0.00     0.148 A 
ATOM     73  C   UNL A   1      38.006  31.335  34.433  1.00  0.00     0.002 A 
ATOM     74  C   UNL A   1      37.050  33.220  33.245  1.00  0.00     0.091 A 
ATOM     75  F   UNL A   1      38.453  34.552  31.848  1.00  0.00    -0.205 F 
ATOM     76  C   UNL A   1      36.903  32.118  34.102  1.00  0.00     0.022 A 
BRANCH  74  77
ATOM     77  S   UNL A   1      35.580  34.211  32.948  1.00  0.00     0.127 S 
ATOM     78  O   UNL A   1      35.868  35.409  33.734  1.00  0.00    -0.237 OA
ATOM     79  O   UNL A   1      35.626  34.406  31.501  1.00  0.00    -0.237 OA
ATOM     80  O   UNL A   1      34.454  33.413  33.419  1.00  0.00    -0.744 OA
ENDBRANCH  74  77
ENDBRANCH  56  70
BRANCH  57  81
ATOM     81  C   UNL A   1      48.363  35.161  29.370  1.00  0.00     0.023 A 
ATOM     82  C   UNL A   1      49.557  34.724  29.977  1.00  0.00     0.012 A 
ATOM     83  C   UNL A   1      48.434  35.962  28.214  1.00  0.00     0.148 A 
ATOM     84  C   UNL A   1      50.797  35.110  29.466  1.00  0.00     0.002 A 
ATOM     85  C   UNL A   1      49.671  36.292  27.674  1.00  0.00     0.091 A 
ATOM     86  F   UNL A   1      47.288  36.380  27.659  1.00  0.00    -0.205 F 
ATOM     87  C   UNL A   1      50.855  35.884  28.309  1.00  0.00     0.022 A 
BRANCH  85  88
ATOM     88  S   UNL A   1      49.839  37.169  26.116  1.00  0.00     0.127 S 
ATOM     89  O   UNL A   1      49.243  36.226  25.174  1.00  0.00    -0.237 OA
ATOM     90  O   UNL A   1      49.050  38.377  26.363  1.00  0.00    -0.237 OA
ATOM     91  O   UNL A   1      51.266  37.411  25.952  1.00  0.00    -0.744 OA
ENDBRANCH  85  88
ENDBRANCH  57  81
BRANCH  69  92
ATOM     92  C   UNL A   1      44.218  38.003  34.215  1.00  0.00     0.023 A 
ATOM     93  C   UNL A   1      44.924  37.948  35.433  1.00  0.00     0.012 A 
ATOM     94  C   UNL A   1      43.682  39.234  33.785  1.00  0.00     0.148 A 
ATOM     95  C   UNL A   1      45.063  39.087  36.226  1.00  0.00     0.002 A 
ATOM     96  C   UNL A   1      43.868  40.376  34.555  1.00  0.00     0.091 A 
ATOM     97  F   UNL A   1      42.997  39.265  32.632  1.00  0.00    -0.205 F 
ATOM     98  C   UNL A   1      44.545  40.302  35.783  1.00  0.00     0.022 A 
BRANCH  96  99
ATOM     99  S   UNL A   1      43.320  42.002  34.021  1.00  0.00     0.127 S 
ATOM    100  O   UNL A   1      44.088  42.185  32.791  1.00  0.00    -0.237 OA
ATOM    101  O   UNL A   1      41.886  41.794  33.820  1.00  0.00    -0.237 OA
ATOM    102  O   UNL A   1      43.654  42.915  35.105  1.00  0.00    -0.744 OA
ENDBRANCH  96  99
ENDBRANCH  69  92
ENDBRANCH  43  44
ENDBRANCH  35  38
ENDBRANCH  33  34
ENDBRANCH  32  33
ENDBRANCH  31  32
ENDBRANCH  30  31
ENDBRANCH   1  30
TORSDOF 22
ENDMDL
