MODEL 1
REMARK VINA RESULT:     -11.4      0.000      0.000
REMARK SMILES COc1ccc(OCc2nc(N)cc(SCC(=O)NCCCCCCNC(=O)c3ccc(-c4c5nc(c(-c6cccc(S(=O)(=O)[O-])c6F)c6ccc([nH]6)c(-c6cccc(S(=O)(=O)[O-])c6F)c6nc(c(-c7cccc(S(=O)(=O)[O-])c7F)c7ccc4[nH]7)C=C6)C=C5)cc3)n2)cc1
REMARK SMILES IDX 21 1 20 2 19 3 17 4 18 5 16 7 15 8 14 9 9 10 10 11 92 12
REMARK SMILES IDX 11 13 13 14 8 15 7 16 6 17 3 18 4 19 94 20 5 21 93 22 2 23
REMARK SMILES IDX 1 24 12 25 22 28 23 29 24 30 25 31 26 32 27 33 28 35 29 36
REMARK SMILES IDX 30 37 91 38 31 39 90 40 32 41 33 42 34 43 84 44 35 45 89 46
REMARK SMILES IDX 83 47 85 48 36 49 88 50 82 51 81 52 37 54 69 55 49 56 68 57
REMARK SMILES IDX 50 58 53 59 67 60 86 61 51 62 52 63 66 65 87 66 54 67 38 68
REMARK SMILES IDX 39 69 47 70 40 71 42 72 48 73 41 74 43 75 44 76 45 77 46 78
REMARK SMILES IDX 70 79 71 80 79 81 72 82 74 83 80 84 73 85 75 86 76 87 77 88
REMARK SMILES IDX 78 89 55 90 56 91 64 92 57 93 59 94 65 95 58 96 60 97 61 98
REMARK SMILES IDX 62 99 63 100
REMARK H PARENT 19 6 12 26 12 27 26 34 85 53 53 64
REMARK Flexibility Score: inf
ROOT
ATOM      1  C   UNL A   1      31.839  28.266  27.435  1.00  0.00     0.021 C 
ENDROOT
BRANCH   1   2
ATOM      2  C   UNL A   1      32.021  27.029  26.554  1.00  0.00     0.116 C 
BRANCH   2   3
ATOM      3  N   UNL A   1      30.877  26.852  25.679  1.00  0.00    -0.355 N 
ATOM      4  C   UNL A   1      30.729  27.193  24.371  1.00  0.00     0.230 C 
ATOM      5  O   UNL A   1      29.612  27.058  23.860  1.00  0.00    -0.274 OA
ATOM      6  H   UNL A   1      30.094  26.423  26.093  1.00  0.00     0.163 HD
BRANCH   4   7
ATOM      7  C   UNL A   1      31.913  27.642  23.538  1.00  0.00     0.176 C 
BRANCH   7   8
ATOM      8  S   UNL A   1      32.455  26.462  22.271  1.00  0.00    -0.096 SA
BRANCH   8   9
ATOM      9  C   UNL A   1      33.212  25.124  23.163  1.00  0.00     0.102 A 
ATOM     10  C   UNL A   1      33.102  22.864  23.568  1.00  0.00     0.169 A 
ATOM     11  N   UNL A   1      34.171  22.893  24.382  1.00  0.00    -0.213 NA
ATOM     12  N   UNL A   1      32.576  23.953  22.980  1.00  0.00    -0.223 NA
ATOM     13  C   UNL A   1      34.790  24.066  24.527  1.00  0.00     0.128 A 
ATOM     14  C   UNL A   1      34.363  25.216  23.907  1.00  0.00     0.082 A 
BRANCH  10  15
ATOM     15  C   UNL A   1      32.521  21.521  23.159  1.00  0.00     0.306 C 
BRANCH  15  16
ATOM     16  O   UNL A   1      32.072  20.673  24.229  1.00  0.00    -0.486 OA
BRANCH  16  17
ATOM     17  C   UNL A   1      32.389  19.343  24.182  1.00  0.00     0.120 A 
ATOM     18  C   UNL A   1      33.201  16.661  24.376  1.00  0.00     0.119 A 
ATOM     19  C   UNL A   1      32.916  17.395  25.527  1.00  0.00     0.050 A 
ATOM     20  C   UNL A   1      33.028  17.254  23.127  1.00  0.00     0.050 A 
ATOM     21  C   UNL A   1      32.520  18.731  25.430  1.00  0.00     0.050 A 
ATOM     22  C   UNL A   1      32.607  18.587  23.030  1.00  0.00     0.050 A 
BRANCH  18  23
ATOM     23  O   UNL A   1      33.594  15.367  24.584  1.00  0.00    -0.497 OA
ATOM     24  C   UNL A   1      32.888  14.676  25.609  1.00  0.00     0.278 C 
ENDBRANCH  18  23
ENDBRANCH  16  17
ENDBRANCH  15  16
ENDBRANCH  10  15
BRANCH  13  25
ATOM     25  N   UNL A   1      35.959  24.054  25.264  1.00  0.00    -0.384 N 
ATOM     26  H   UNL A   1      36.662  24.718  25.083  1.00  0.00     0.158 HD
ATOM     27  H   UNL A   1      36.090  23.379  25.969  1.00  0.00     0.158 HD
ENDBRANCH  13  25
ENDBRANCH   8   9
ENDBRANCH   7   8
ENDBRANCH   4   7
ENDBRANCH   2   3
ENDBRANCH   1   2
BRANCH   1  28
ATOM     28  C   UNL A   1      32.606  29.502  26.942  1.00  0.00     0.002 C 
BRANCH  28  29
ATOM     29  C   UNL A   1      31.808  30.445  26.038  1.00  0.00     0.002 C 
BRANCH  29  30
ATOM     30  C   UNL A   1      31.536  31.829  26.631  1.00  0.00     0.021 C 
BRANCH  30  31
ATOM     31  C   UNL A   1      32.728  32.458  27.344  1.00  0.00     0.116 C 
BRANCH  31  32
ATOM     32  N   UNL A   1      32.517  33.872  27.618  1.00  0.00    -0.352 N 
ATOM     33  C   UNL A   1      33.107  34.666  28.569  1.00  0.00     0.251 C 
ATOM     34  H   UNL A   1      31.859  34.322  27.039  1.00  0.00     0.163 HD
ATOM     35  O   UNL A   1      32.663  35.793  28.789  1.00  0.00    -0.269 OA
BRANCH  33  36
ATOM     36  C   UNL A   1      34.262  34.159  29.340  1.00  0.00     0.039 A 
ATOM     37  C   UNL A   1      34.030  33.354  30.458  1.00  0.00     0.014 A 
ATOM     38  C   UNL A   1      35.569  34.473  28.959  1.00  0.00     0.014 A 
ATOM     39  C   UNL A   1      35.112  32.818  31.159  1.00  0.00     0.010 A 
ATOM     40  C   UNL A   1      36.643  33.874  29.610  1.00  0.00     0.010 A 
ATOM     41  C   UNL A   1      36.428  33.047  30.722  1.00  0.00    -0.014 A 
BRANCH  41  42
ATOM     42  C   UNL A   1      37.588  32.422  31.409  1.00  0.00     0.031 A 
ATOM     43  C   UNL A   1      38.312  31.263  30.777  1.00  0.00     0.074 A 
ATOM     44  C   UNL A   1      37.940  32.844  32.640  1.00  0.00     0.049 A 
ATOM     45  N   UNL A   1      39.310  30.560  31.246  1.00  0.00    -0.248 NA
ATOM     46  C   UNL A   1      37.838  30.820  29.455  1.00  0.00     0.031 C 
ATOM     47  C   UNL A   1      37.271  33.909  33.392  1.00  0.00     0.029 A 
ATOM     48  N   UNL A   1      38.931  32.414  33.486  1.00  0.00    -0.354 N 
ATOM     49  C   UNL A   1      39.561  29.575  30.298  1.00  0.00     0.074 A 
ATOM     50  C   UNL A   1      38.586  29.748  29.243  1.00  0.00     0.031 C 
ATOM     51  C   UNL A   1      37.875  34.053  34.582  1.00  0.00     0.029 A 
ATOM     52  C   UNL A   1      38.948  33.072  34.695  1.00  0.00     0.049 A 
ATOM     53  H   UNL A   1      39.570  31.703  33.251  1.00  0.00     0.167 HD
ATOM     54  C   UNL A   1      40.531  28.630  30.290  1.00  0.00     0.034 A 
ATOM     55  C   UNL A   1      39.732  32.895  35.778  1.00  0.00     0.034 A 
ATOM     56  C   UNL A   1      41.518  28.481  31.326  1.00  0.00     0.049 A 
ATOM     57  C   UNL A   1      40.814  31.851  35.735  1.00  0.00     0.074 A 
ATOM     58  C   UNL A   1      42.591  27.607  31.372  1.00  0.00     0.029 A 
ATOM     59  N   UNL A   1      41.547  29.211  32.503  1.00  0.00    -0.354 N 
ATOM     60  N   UNL A   1      41.133  31.030  34.763  1.00  0.00    -0.248 NA
ATOM     61  C   UNL A   1      41.669  31.732  36.924  1.00  0.00     0.031 C 
ATOM     62  C   UNL A   1      43.247  27.786  32.593  1.00  0.00     0.029 A 
ATOM     63  C   UNL A   1      42.609  28.799  33.290  1.00  0.00     0.049 A 
ATOM     64  H   UNL A   1      40.906  29.918  32.745  1.00  0.00     0.167 HD
ATOM     65  C   UNL A   1      42.247  30.326  35.207  1.00  0.00     0.074 A 
ATOM     66  C   UNL A   1      42.559  30.832  36.529  1.00  0.00     0.031 C 
ATOM     67  C   UNL A   1      42.941  29.344  34.583  1.00  0.00     0.034 A 
BRANCH  54  68
ATOM     68  C   UNL A   1      40.599  27.706  29.100  1.00  0.00     0.023 A 
ATOM     69  C   UNL A   1      39.685  26.638  28.991  1.00  0.00     0.012 A 
ATOM     70  C   UNL A   1      41.528  27.928  28.064  1.00  0.00     0.148 A 
ATOM     71  C   UNL A   1      39.721  25.779  27.893  1.00  0.00     0.002 A 
ATOM     72  C   UNL A   1      41.525  27.097  26.948  1.00  0.00     0.091 A 
ATOM     73  F   UNL A   1      42.400  28.936  28.191  1.00  0.00    -0.205 F 
ATOM     74  C   UNL A   1      40.633  26.015  26.868  1.00  0.00     0.022 A 
BRANCH  72  75
ATOM     75  S   UNL A   1      42.603  27.366  25.536  1.00  0.00     0.127 S 
ATOM     76  O   UNL A   1      43.902  27.536  26.185  1.00  0.00    -0.237 OA
ATOM     77  O   UNL A   1      42.451  26.114  24.794  1.00  0.00    -0.237 OA
ATOM     78  O   UNL A   1      42.086  28.544  24.854  1.00  0.00    -0.744 OA
ENDBRANCH  72  75
ENDBRANCH  54  68
BRANCH  55  79
ATOM     79  C   UNL A   1      39.558  33.766  36.975  1.00  0.00     0.023 A 
ATOM     80  C   UNL A   1      40.007  35.101  36.932  1.00  0.00     0.012 A 
ATOM     81  C   UNL A   1      38.937  33.288  38.145  1.00  0.00     0.148 A 
ATOM     82  C   UNL A   1      39.876  35.932  38.044  1.00  0.00     0.002 A 
ATOM     83  C   UNL A   1      38.756  34.138  39.229  1.00  0.00     0.091 A 
ATOM     84  F   UNL A   1      38.523  32.014  38.168  1.00  0.00    -0.205 F 
ATOM     85  C   UNL A   1      39.242  35.454  39.189  1.00  0.00     0.022 A 
BRANCH  83  86
ATOM     86  S   UNL A   1      37.838  33.652  40.694  1.00  0.00     0.127 S 
ATOM     87  O   UNL A   1      37.779  34.906  41.442  1.00  0.00    -0.237 OA
ATOM     88  O   UNL A   1      36.565  33.215  40.120  1.00  0.00    -0.237 OA
ATOM     89  O   UNL A   1      38.616  32.585  41.311  1.00  0.00    -0.744 OA
ENDBRANCH  83  86
ENDBRANCH  55  79
BRANCH  67  90
ATOM     90  C   UNL A   1      44.140  28.772  35.294  1.00  0.00     0.023 A 
ATOM     91  C   UNL A   1      45.424  29.302  35.054  1.00  0.00     0.012 A 
ATOM     92  C   UNL A   1      43.981  27.753  36.254  1.00  0.00     0.148 A 
ATOM     93  C   UNL A   1      46.535  28.800  35.732  1.00  0.00     0.002 A 
ATOM     94  C   UNL A   1      45.085  27.296  36.964  1.00  0.00     0.091 A 
ATOM     95  F   UNL A   1      42.755  27.250  36.455  1.00  0.00    -0.205 F 
ATOM     96  C   UNL A   1      46.363  27.809  36.695  1.00  0.00     0.022 A 
BRANCH  94  97
ATOM     97  S   UNL A   1      44.948  26.094  38.292  1.00  0.00     0.127 S 
ATOM     98  O   UNL A   1      46.351  25.768  38.543  1.00  0.00    -0.237 OA
ATOM     99  O   UNL A   1      44.303  26.873  39.349  1.00  0.00    -0.237 OA
ATOM    100  O   UNL A   1      44.139  25.002  37.766  1.00  0.00    -0.744 OA
ENDBRANCH  94  97
ENDBRANCH  67  90
ENDBRANCH  41  42
ENDBRANCH  33  36
ENDBRANCH  31  32
ENDBRANCH  30  31
ENDBRANCH  29  30
ENDBRANCH  28  29
ENDBRANCH   1  28
TORSDOF 23
ENDMDL
MODEL 2
REMARK VINA RESULT:     -10.3      3.174      9.143
REMARK SMILES COc1ccc(OCc2nc(N)cc(SCC(=O)NCCCCCCNC(=O)c3ccc(-c4c5nc(c(-c6cccc(S(=O)(=O)[O-])c6F)c6ccc([nH]6)c(-c6cccc(S(=O)(=O)[O-])c6F)c6nc(c(-c7cccc(S(=O)(=O)[O-])c7F)c7ccc4[nH]7)C=C6)C=C5)cc3)n2)cc1
REMARK SMILES IDX 21 1 20 2 19 3 17 4 18 5 16 7 15 8 14 9 9 10 10 11 92 12
REMARK SMILES IDX 11 13 13 14 8 15 7 16 6 17 3 18 4 19 94 20 5 21 93 22 2 23
REMARK SMILES IDX 1 24 12 25 22 28 23 29 24 30 25 31 26 32 27 33 28 35 29 36
REMARK SMILES IDX 30 37 91 38 31 39 90 40 32 41 33 42 34 43 84 44 35 45 89 46
REMARK SMILES IDX 83 47 85 48 36 49 88 50 82 51 81 52 37 54 69 55 49 56 68 57
REMARK SMILES IDX 50 58 53 59 67 60 86 61 51 62 52 63 66 65 87 66 54 67 38 68
REMARK SMILES IDX 39 69 47 70 40 71 42 72 48 73 41 74 43 75 44 76 45 77 46 78
REMARK SMILES IDX 70 79 71 80 79 81 72 82 74 83 80 84 73 85 75 86 76 87 77 88
REMARK SMILES IDX 78 89 55 90 56 91 64 92 57 93 59 94 65 95 58 96 60 97 61 98
REMARK SMILES IDX 62 99 63 100
REMARK H PARENT 19 6 12 26 12 27 26 34 85 53 53 64
REMARK Flexibility Score: inf
ROOT
ATOM      1  C   UNL A   1      39.096  23.480  26.823  1.00  0.00     0.021 C 
ENDROOT
BRANCH   1   2
ATOM      2  C   UNL A   1      37.704  23.938  26.390  1.00  0.00     0.116 C 
BRANCH   2   3
ATOM      3  N   UNL A   1      37.518  23.731  24.965  1.00  0.00    -0.355 N 
ATOM      4  C   UNL A   1      36.376  23.498  24.267  1.00  0.00     0.230 C 
ATOM      5  O   UNL A   1      36.475  23.226  23.066  1.00  0.00    -0.274 OA
ATOM      6  H   UNL A   1      38.342  23.763  24.426  1.00  0.00     0.163 HD
BRANCH   4   7
ATOM      7  C   UNL A   1      35.015  23.652  24.916  1.00  0.00     0.176 C 
BRANCH   7   8
ATOM      8  S   UNL A   1      34.513  25.362  25.257  1.00  0.00    -0.096 SA
BRANCH   8   9
ATOM      9  C   UNL A   1      32.752  25.302  25.486  1.00  0.00     0.102 A 
ATOM     10  C   UNL A   1      30.768  26.310  24.912  1.00  0.00     0.169 A 
ATOM     11  N   UNL A   1      30.043  25.438  25.632  1.00  0.00    -0.213 NA
ATOM     12  N   UNL A   1      32.111  26.298  24.848  1.00  0.00    -0.223 NA
ATOM     13  C   UNL A   1      30.706  24.452  26.237  1.00  0.00     0.128 A 
ATOM     14  C   UNL A   1      32.073  24.321  26.166  1.00  0.00     0.082 A 
BRANCH  10  15
ATOM     15  C   UNL A   1      30.052  27.288  23.995  1.00  0.00     0.306 C 
BRANCH  15  16
ATOM     16  O   UNL A   1      30.722  28.536  23.753  1.00  0.00    -0.486 OA
BRANCH  16  17
ATOM     17  C   UNL A   1      29.968  29.620  23.392  1.00  0.00     0.120 A 
ATOM     18  C   UNL A   1      28.511  31.776  22.336  1.00  0.00     0.119 A 
ATOM     19  C   UNL A   1      28.655  30.598  21.604  1.00  0.00     0.050 A 
ATOM     20  C   UNL A   1      29.052  31.854  23.618  1.00  0.00     0.050 A 
ATOM     21  C   UNL A   1      29.386  29.529  22.127  1.00  0.00     0.050 A 
ATOM     22  C   UNL A   1      29.764  30.773  24.151  1.00  0.00     0.050 A 
BRANCH  18  23
ATOM     23  O   UNL A   1      27.788  32.765  21.726  1.00  0.00    -0.497 OA
ATOM     24  C   UNL A   1      27.732  32.688  20.306  1.00  0.00     0.278 C 
ENDBRANCH  18  23
ENDBRANCH  16  17
ENDBRANCH  15  16
ENDBRANCH  10  15
BRANCH  13  25
ATOM     25  N   UNL A   1      29.936  23.492  26.867  1.00  0.00    -0.384 N 
ATOM     26  H   UNL A   1      29.775  22.626  26.429  1.00  0.00     0.158 HD
ATOM     27  H   UNL A   1      29.548  23.676  27.753  1.00  0.00     0.158 HD
ENDBRANCH  13  25
ENDBRANCH   8   9
ENDBRANCH   7   8
ENDBRANCH   4   7
ENDBRANCH   2   3
ENDBRANCH   1   2
BRANCH   1  28
ATOM     28  C   UNL A   1      39.441  22.044  26.401  1.00  0.00     0.002 C 
BRANCH  28  29
ATOM     29  C   UNL A   1      40.782  21.517  26.921  1.00  0.00     0.002 C 
BRANCH  29  30
ATOM     30  C   UNL A   1      41.991  21.861  26.049  1.00  0.00     0.021 C 
BRANCH  30  31
ATOM     31  C   UNL A   1      41.895  23.204  25.334  1.00  0.00     0.116 C 
BRANCH  31  32
ATOM     32  N   UNL A   1      43.196  23.680  24.889  1.00  0.00    -0.352 N 
ATOM     33  C   UNL A   1      43.916  24.764  25.325  1.00  0.00     0.251 C 
ATOM     34  H   UNL A   1      43.620  23.151  24.174  1.00  0.00     0.163 HD
ATOM     35  O   UNL A   1      44.908  25.135  24.699  1.00  0.00    -0.269 OA
BRANCH  33  36
ATOM     36  C   UNL A   1      43.487  25.494  26.537  1.00  0.00     0.039 A 
ATOM     37  C   UNL A   1      43.881  26.823  26.703  1.00  0.00     0.014 A 
ATOM     38  C   UNL A   1      42.695  24.869  27.505  1.00  0.00     0.014 A 
ATOM     39  C   UNL A   1      43.433  27.543  27.813  1.00  0.00     0.010 A 
ATOM     40  C   UNL A   1      42.185  25.611  28.566  1.00  0.00     0.010 A 
ATOM     41  C   UNL A   1      42.554  26.953  28.737  1.00  0.00    -0.014 A 
BRANCH  41  42
ATOM     42  C   UNL A   1      42.005  27.727  29.881  1.00  0.00     0.031 A 
ATOM     43  C   UNL A   1      40.765  28.563  29.707  1.00  0.00     0.074 A 
ATOM     44  C   UNL A   1      42.668  27.742  31.054  1.00  0.00     0.049 A 
ATOM     45  N   UNL A   1      40.169  29.342  30.573  1.00  0.00    -0.248 NA
ATOM     46  C   UNL A   1      40.125  28.541  28.382  1.00  0.00     0.031 C 
ATOM     47  C   UNL A   1      43.921  27.032  31.327  1.00  0.00     0.029 A 
ATOM     48  N   UNL A   1      42.396  28.396  32.230  1.00  0.00    -0.354 N 
ATOM     49  C   UNL A   1      39.108  29.927  29.892  1.00  0.00     0.074 A 
ATOM     50  C   UNL A   1      39.164  29.442  28.529  1.00  0.00     0.031 C 
ATOM     51  C   UNL A   1      44.302  27.283  32.589  1.00  0.00     0.029 A 
ATOM     52  C   UNL A   1      43.346  28.196  33.205  1.00  0.00     0.049 A 
ATOM     53  H   UNL A   1      41.596  28.953  32.364  1.00  0.00     0.167 HD
ATOM     54  C   UNL A   1      38.157  30.768  30.360  1.00  0.00     0.034 A 
ATOM     55  C   UNL A   1      43.444  28.702  34.451  1.00  0.00     0.034 A 
ATOM     56  C   UNL A   1      38.086  31.224  31.724  1.00  0.00     0.049 A 
ATOM     57  C   UNL A   1      42.362  29.620  34.953  1.00  0.00     0.074 A 
ATOM     58  C   UNL A   1      37.115  32.013  32.317  1.00  0.00     0.029 A 
ATOM     59  N   UNL A   1      39.028  30.945  32.701  1.00  0.00    -0.354 N 
ATOM     60  N   UNL A   1      41.283  30.040  34.340  1.00  0.00    -0.248 NA
ATOM     61  C   UNL A   1      42.493  30.106  36.335  1.00  0.00     0.031 C 
ATOM     62  C   UNL A   1      37.490  32.239  33.645  1.00  0.00     0.029 A 
ATOM     63  C   UNL A   1      38.671  31.558  33.890  1.00  0.00     0.049 A 
ATOM     64  H   UNL A   1      39.832  30.394  32.570  1.00  0.00     0.167 HD
ATOM     65  C   UNL A   1      40.587  30.805  35.269  1.00  0.00     0.074 A 
ATOM     66  C   UNL A   1      41.359  30.775  36.495  1.00  0.00     0.031 C 
ATOM     67  C   UNL A   1      39.422  31.481  35.118  1.00  0.00     0.034 A 
BRANCH  54  68
ATOM     68  C   UNL A   1      37.085  31.219  29.400  1.00  0.00     0.023 A 
ATOM     69  C   UNL A   1      37.038  32.567  28.988  1.00  0.00     0.012 A 
ATOM     70  C   UNL A   1      36.161  30.301  28.863  1.00  0.00     0.148 A 
ATOM     71  C   UNL A   1      36.064  33.004  28.091  1.00  0.00     0.002 A 
ATOM     72  C   UNL A   1      35.224  30.734  27.930  1.00  0.00     0.091 A 
ATOM     73  F   UNL A   1      36.208  29.029  29.278  1.00  0.00    -0.205 F 
ATOM     74  C   UNL A   1      35.165  32.086  27.555  1.00  0.00     0.022 A 
BRANCH  72  75
ATOM     75  S   UNL A   1      34.077  29.617  27.118  1.00  0.00     0.127 S 
ATOM     76  O   UNL A   1      33.307  30.539  26.284  1.00  0.00    -0.237 OA
ATOM     77  O   UNL A   1      34.980  28.735  26.378  1.00  0.00    -0.237 OA
ATOM     78  O   UNL A   1      33.327  28.965  28.182  1.00  0.00    -0.744 OA
ENDBRANCH  72  75
ENDBRANCH  54  68
BRANCH  55  79
ATOM     79  C   UNL A   1      44.580  28.308  35.330  1.00  0.00     0.023 A 
ATOM     80  C   UNL A   1      45.831  28.936  35.170  1.00  0.00     0.012 A 
ATOM     81  C   UNL A   1      44.427  27.330  36.333  1.00  0.00     0.148 A 
ATOM     82  C   UNL A   1      46.918  28.572  35.965  1.00  0.00     0.002 A 
ATOM     83  C   UNL A   1      45.497  27.014  37.160  1.00  0.00     0.091 A 
ATOM     84  F   UNL A   1      43.231  26.739  36.464  1.00  0.00    -0.205 F 
ATOM     85  C   UNL A   1      46.749  27.618  36.966  1.00  0.00     0.022 A 
BRANCH  83  86
ATOM     86  S   UNL A   1      45.339  25.895  38.556  1.00  0.00     0.127 S 
ATOM     87  O   UNL A   1      45.117  24.614  37.891  1.00  0.00    -0.237 OA
ATOM     88  O   UNL A   1      46.643  26.036  39.204  1.00  0.00    -0.237 OA
ATOM     89  O   UNL A   1      44.221  26.400  39.342  1.00  0.00    -0.744 OA
ENDBRANCH  83  86
ENDBRANCH  55  79
BRANCH  67  90
ATOM     90  C   UNL A   1      38.875  32.211  36.318  1.00  0.00     0.023 A 
ATOM     91  C   UNL A   1      39.165  33.577  36.507  1.00  0.00     0.012 A 
ATOM     92  C   UNL A   1      38.015  31.555  37.222  1.00  0.00     0.148 A 
ATOM     93  C   UNL A   1      38.636  34.269  37.597  1.00  0.00     0.002 A 
ATOM     94  C   UNL A   1      37.449  32.265  38.274  1.00  0.00     0.091 A 
ATOM     95  F   UNL A   1      37.766  30.251  37.035  1.00  0.00    -0.205 F 
ATOM     96  C   UNL A   1      37.770  33.617  38.471  1.00  0.00     0.022 A 
BRANCH  94  97
ATOM     97  S   UNL A   1      36.246  31.537  39.391  1.00  0.00     0.127 S 
ATOM     98  O   UNL A   1      35.104  32.436  39.224  1.00  0.00    -0.237 OA
ATOM     99  O   UNL A   1      36.061  30.203  38.821  1.00  0.00    -0.237 OA
ATOM    100  O   UNL A   1      36.860  31.551  40.712  1.00  0.00    -0.744 OA
ENDBRANCH  94  97
ENDBRANCH  67  90
ENDBRANCH  41  42
ENDBRANCH  33  36
ENDBRANCH  31  32
ENDBRANCH  30  31
ENDBRANCH  29  30
ENDBRANCH  28  29
ENDBRANCH   1  28
TORSDOF 23
ENDMDL
MODEL 3
REMARK VINA RESULT:     -10.3      2.262      2.739
REMARK SMILES COc1ccc(OCc2nc(N)cc(SCC(=O)NCCCCCCNC(=O)c3ccc(-c4c5nc(c(-c6cccc(S(=O)(=O)[O-])c6F)c6ccc([nH]6)c(-c6cccc(S(=O)(=O)[O-])c6F)c6nc(c(-c7cccc(S(=O)(=O)[O-])c7F)c7ccc4[nH]7)C=C6)C=C5)cc3)n2)cc1
REMARK SMILES IDX 21 1 20 2 19 3 17 4 18 5 16 7 15 8 14 9 9 10 10 11 92 12
REMARK SMILES IDX 11 13 13 14 8 15 7 16 6 17 3 18 4 19 94 20 5 21 93 22 2 23
REMARK SMILES IDX 1 24 12 25 22 28 23 29 24 30 25 31 26 32 27 33 28 35 29 36
REMARK SMILES IDX 30 37 91 38 31 39 90 40 32 41 33 42 34 43 84 44 35 45 89 46
REMARK SMILES IDX 83 47 85 48 36 49 88 50 82 51 81 52 37 54 69 55 49 56 68 57
REMARK SMILES IDX 50 58 53 59 67 60 86 61 51 62 52 63 66 65 87 66 54 67 38 68
REMARK SMILES IDX 39 69 47 70 40 71 42 72 48 73 41 74 43 75 44 76 45 77 46 78
REMARK SMILES IDX 70 79 71 80 79 81 72 82 74 83 80 84 73 85 75 86 76 87 77 88
REMARK SMILES IDX 78 89 55 90 56 91 64 92 57 93 59 94 65 95 58 96 60 97 61 98
REMARK SMILES IDX 62 99 63 100
REMARK H PARENT 19 6 12 26 12 27 26 34 85 53 53 64
REMARK Flexibility Score: inf
ROOT
ATOM      1  C   UNL A   1      31.698  28.466  27.594  1.00  0.00     0.021 C 
ENDROOT
BRANCH   1   2
ATOM      2  C   UNL A   1      31.894  27.306  26.616  1.00  0.00     0.116 C 
BRANCH   2   3
ATOM      3  N   UNL A   1      31.040  27.470  25.454  1.00  0.00    -0.355 N 
ATOM      4  C   UNL A   1      31.302  28.079  24.268  1.00  0.00     0.230 C 
ATOM      5  O   UNL A   1      30.373  28.207  23.463  1.00  0.00    -0.274 OA
ATOM      6  H   UNL A   1      30.139  27.082  25.538  1.00  0.00     0.163 HD
BRANCH   4   7
ATOM      7  C   UNL A   1      32.708  28.513  23.902  1.00  0.00     0.176 C 
BRANCH   7   8
ATOM      8  S   UNL A   1      33.317  27.889  22.311  1.00  0.00    -0.096 SA
BRANCH   8   9
ATOM      9  C   UNL A   1      33.174  26.121  22.410  1.00  0.00     0.102 A 
ATOM     10  C   UNL A   1      32.936  24.355  23.862  1.00  0.00     0.169 A 
ATOM     11  N   UNL A   1      32.914  23.455  22.865  1.00  0.00    -0.213 NA
ATOM     12  N   UNL A   1      33.103  25.676  23.678  1.00  0.00    -0.223 NA
ATOM     13  C   UNL A   1      32.967  23.929  21.619  1.00  0.00     0.128 A 
ATOM     14  C   UNL A   1      33.066  25.271  21.337  1.00  0.00     0.082 A 
BRANCH  10  15
ATOM     15  C   UNL A   1      32.616  23.899  25.276  1.00  0.00     0.306 C 
BRANCH  15  16
ATOM     16  O   UNL A   1      33.658  24.076  26.250  1.00  0.00    -0.486 OA
BRANCH  16  17
ATOM     17  C   UNL A   1      34.903  23.582  25.966  1.00  0.00     0.120 A 
ATOM     18  C   UNL A   1      37.353  22.280  25.527  1.00  0.00     0.119 A 
ATOM     19  C   UNL A   1      36.159  21.562  25.494  1.00  0.00     0.050 A 
ATOM     20  C   UNL A   1      37.315  23.659  25.727  1.00  0.00     0.050 A 
ATOM     21  C   UNL A   1      34.941  22.208  25.720  1.00  0.00     0.050 A 
ATOM     22  C   UNL A   1      36.092  24.310  25.930  1.00  0.00     0.050 A 
BRANCH  18  23
ATOM     23  O   UNL A   1      38.489  21.549  25.306  1.00  0.00    -0.497 OA
ATOM     24  C   UNL A   1      39.580  21.848  26.170  1.00  0.00     0.278 C 
ENDBRANCH  18  23
ENDBRANCH  16  17
ENDBRANCH  15  16
ENDBRANCH  10  15
BRANCH  13  25
ATOM     25  N   UNL A   1      32.815  23.003  20.605  1.00  0.00    -0.384 N 
ATOM     26  H   UNL A   1      33.603  22.543  20.237  1.00  0.00     0.158 HD
ATOM     27  H   UNL A   1      31.919  22.804  20.249  1.00  0.00     0.158 HD
ENDBRANCH  13  25
ENDBRANCH   8   9
ENDBRANCH   7   8
ENDBRANCH   4   7
ENDBRANCH   2   3
ENDBRANCH   1   2
BRANCH   1  28
ATOM     28  C   UNL A   1      32.517  29.719  27.251  1.00  0.00     0.002 C 
BRANCH  28  29
ATOM     29  C   UNL A   1      31.817  30.720  26.327  1.00  0.00     0.002 C 
BRANCH  29  30
ATOM     30  C   UNL A   1      31.600  32.109  26.931  1.00  0.00     0.021 C 
BRANCH  30  31
ATOM     31  C   UNL A   1      32.880  32.836  27.325  1.00  0.00     0.116 C 
BRANCH  31  32
ATOM     32  N   UNL A   1      32.628  34.217  27.711  1.00  0.00    -0.352 N 
ATOM     33  C   UNL A   1      33.183  34.945  28.733  1.00  0.00     0.251 C 
ATOM     34  H   UNL A   1      31.967  34.696  27.160  1.00  0.00     0.163 HD
ATOM     35  O   UNL A   1      32.707  36.038  29.038  1.00  0.00    -0.269 OA
BRANCH  33  36
ATOM     36  C   UNL A   1      34.340  34.405  29.478  1.00  0.00     0.039 A 
ATOM     37  C   UNL A   1      34.116  33.719  30.675  1.00  0.00     0.014 A 
ATOM     38  C   UNL A   1      35.641  34.572  28.997  1.00  0.00     0.014 A 
ATOM     39  C   UNL A   1      35.194  33.152  31.357  1.00  0.00     0.010 A 
ATOM     40  C   UNL A   1      36.702  33.938  29.636  1.00  0.00     0.010 A 
ATOM     41  C   UNL A   1      36.493  33.228  30.827  1.00  0.00    -0.014 A 
BRANCH  41  42
ATOM     42  C   UNL A   1      37.640  32.564  31.499  1.00  0.00     0.031 A 
ATOM     43  C   UNL A   1      38.344  31.410  30.838  1.00  0.00     0.074 A 
ATOM     44  C   UNL A   1      37.997  32.948  32.741  1.00  0.00     0.049 A 
ATOM     45  N   UNL A   1      39.329  30.677  31.290  1.00  0.00    -0.248 NA
ATOM     46  C   UNL A   1      37.866  31.011  29.504  1.00  0.00     0.031 C 
ATOM     47  C   UNL A   1      37.346  34.004  33.520  1.00  0.00     0.029 A 
ATOM     48  N   UNL A   1      38.978  32.477  33.578  1.00  0.00    -0.354 N 
ATOM     49  C   UNL A   1      39.564  29.713  30.317  1.00  0.00     0.074 A 
ATOM     50  C   UNL A   1      38.594  29.931  29.265  1.00  0.00     0.031 C 
ATOM     51  C   UNL A   1      37.950  34.106  34.715  1.00  0.00     0.029 A 
ATOM     52  C   UNL A   1      39.005  33.102  34.804  1.00  0.00     0.049 A 
ATOM     53  H   UNL A   1      39.604  31.761  33.325  1.00  0.00     0.167 HD
ATOM     54  C   UNL A   1      40.516  28.751  30.285  1.00  0.00     0.034 A 
ATOM     55  C   UNL A   1      39.783  32.883  35.883  1.00  0.00     0.034 A 
ATOM     56  C   UNL A   1      41.499  28.556  31.318  1.00  0.00     0.049 A 
ATOM     57  C   UNL A   1      40.846  31.821  35.814  1.00  0.00     0.074 A 
ATOM     58  C   UNL A   1      42.556  27.663  31.343  1.00  0.00     0.029 A 
ATOM     59  N   UNL A   1      41.538  29.255  32.515  1.00  0.00    -0.354 N 
ATOM     60  N   UNL A   1      41.152  31.021  34.821  1.00  0.00    -0.248 NA
ATOM     61  C   UNL A   1      41.697  31.655  37.001  1.00  0.00     0.031 C 
ATOM     62  C   UNL A   1      43.212  27.798  32.570  1.00  0.00     0.029 A 
ATOM     63  C   UNL A   1      42.591  28.803  33.292  1.00  0.00     0.049 A 
ATOM     64  H   UNL A   1      40.910  29.967  32.774  1.00  0.00     0.167 HD
ATOM     65  C   UNL A   1      42.252  30.285  35.248  1.00  0.00     0.074 A 
ATOM     66  C   UNL A   1      42.571  30.750  36.583  1.00  0.00     0.031 C 
ATOM     67  C   UNL A   1      42.929  29.307  34.599  1.00  0.00     0.034 A 
BRANCH  54  68
ATOM     68  C   UNL A   1      40.571  27.858  29.071  1.00  0.00     0.023 A 
ATOM     69  C   UNL A   1      39.611  26.836  28.911  1.00  0.00     0.012 A 
ATOM     70  C   UNL A   1      41.533  28.064  28.063  1.00  0.00     0.148 A 
ATOM     71  C   UNL A   1      39.634  26.007  27.791  1.00  0.00     0.002 A 
ATOM     72  C   UNL A   1      41.518  27.265  26.924  1.00  0.00     0.091 A 
ATOM     73  F   UNL A   1      42.447  29.027  28.239  1.00  0.00    -0.205 F 
ATOM     74  C   UNL A   1      40.580  26.229  26.794  1.00  0.00     0.022 A 
BRANCH  72  75
ATOM     75  S   UNL A   1      42.641  27.522  25.545  1.00  0.00     0.127 S 
ATOM     76  O   UNL A   1      42.213  28.833  25.058  1.00  0.00    -0.237 OA
ATOM     77  O   UNL A   1      43.946  27.513  26.207  1.00  0.00    -0.237 OA
ATOM     78  O   UNL A   1      42.414  26.412  24.630  1.00  0.00    -0.744 OA
ENDBRANCH  72  75
ENDBRANCH  54  68
BRANCH  55  79
ATOM     79  C   UNL A   1      39.622  33.725  37.102  1.00  0.00     0.023 A 
ATOM     80  C   UNL A   1      38.615  33.408  38.035  1.00  0.00     0.012 A 
ATOM     81  C   UNL A   1      40.467  34.823  37.352  1.00  0.00     0.148 A 
ATOM     82  C   UNL A   1      38.429  34.190  39.175  1.00  0.00     0.002 A 
ATOM     83  C   UNL A   1      40.314  35.564  38.517  1.00  0.00     0.091 A 
ATOM     84  F   UNL A   1      41.413  35.114  36.448  1.00  0.00    -0.205 F 
ATOM     85  C   UNL A   1      39.284  35.262  39.421  1.00  0.00     0.022 A 
BRANCH  83  86
ATOM     86  S   UNL A   1      41.447  36.878  38.981  1.00  0.00     0.127 S 
ATOM     87  O   UNL A   1      40.527  37.947  39.363  1.00  0.00    -0.237 OA
ATOM     88  O   UNL A   1      42.179  36.268  40.091  1.00  0.00    -0.237 OA
ATOM     89  O   UNL A   1      42.258  37.136  37.798  1.00  0.00    -0.744 OA
ENDBRANCH  83  86
ENDBRANCH  55  79
BRANCH  67  90
ATOM     90  C   UNL A   1      44.117  28.695  35.297  1.00  0.00     0.023 A 
ATOM     91  C   UNL A   1      45.350  29.376  35.323  1.00  0.00     0.012 A 
ATOM     92  C   UNL A   1      43.987  27.474  35.987  1.00  0.00     0.148 A 
ATOM     93  C   UNL A   1      46.446  28.832  35.994  1.00  0.00     0.002 A 
ATOM     94  C   UNL A   1      45.067  26.965  36.699  1.00  0.00     0.091 A 
ATOM     95  F   UNL A   1      42.810  26.833  35.936  1.00  0.00    -0.205 F 
ATOM     96  C   UNL A   1      46.300  27.635  36.691  1.00  0.00     0.022 A 
BRANCH  94  97
ATOM     97  S   UNL A   1      44.946  25.483  37.708  1.00  0.00     0.127 S 
ATOM     98  O   UNL A   1      46.345  25.252  38.063  1.00  0.00    -0.237 OA
ATOM     99  O   UNL A   1      44.101  25.931  38.814  1.00  0.00    -0.237 OA
ATOM    100  O   UNL A   1      44.343  24.465  36.859  1.00  0.00    -0.744 OA
ENDBRANCH  94  97
ENDBRANCH  67  90
ENDBRANCH  41  42
ENDBRANCH  33  36
ENDBRANCH  31  32
ENDBRANCH  30  31
ENDBRANCH  29  30
ENDBRANCH  28  29
ENDBRANCH   1  28
TORSDOF 23
ENDMDL
