MODEL 1
REMARK VINA RESULT:     -11.4      0.000      0.000
REMARK SMILES C[C@H](NC(=O)N1CC[C@@H](C(=O)NCCCCCCNC(=O)c2ccc(-c3c4nc(c(-c5cccc(S(=O)(=O)[O-])c5F)c5ccc([nH]5)c(-c5cccc(S(=O)(=O)[O-])c5F)c5nc(c(-c6cccc(S(=O)(=O)[O-])c6F)c6ccc3[nH]6)C=C5)C=C4)cc2)[C@H]1C)c1ccc(Cl)cc1
REMARK SMILES IDX 15 1 14 2 13 3 12 4 10 5 11 6 9 8 6 9 7 10 85 11 8 12 86 13
REMARK SMILES IDX 4 14 3 15 5 17 2 18 1 19 87 20 88 21 93 22 89 23 92 24 90 25
REMARK SMILES IDX 91 26 16 27 17 28 18 29 19 30 20 31 21 33 22 34 23 35 84 36
REMARK SMILES IDX 24 37 83 38 25 39 26 40 27 41 77 42 28 43 82 44 76 45 78 46
REMARK SMILES IDX 29 47 81 48 75 49 74 50 30 52 62 53 42 54 61 55 43 56 46 57
REMARK SMILES IDX 60 58 79 59 44 60 45 61 59 63 80 64 47 65 31 66 32 67 40 68
REMARK SMILES IDX 33 69 35 70 41 71 34 72 36 73 37 74 38 75 39 76 63 77 64 78
REMARK SMILES IDX 72 79 65 80 67 81 73 82 66 83 68 84 69 85 70 86 71 87 48 88
REMARK SMILES IDX 49 89 57 90 50 91 52 92 58 93 51 94 53 95 54 96 55 97 56 98
REMARK H PARENT 12 7 3 16 19 32 78 51 46 62
REMARK Flexibility Score: inf
ROOT
ATOM      1  C   UNL A   1      37.755  22.255  25.496  1.00  0.00     0.002 C 
ENDROOT
BRANCH   1   2
ATOM      2  C   UNL A   1      37.154  23.592  25.056  1.00  0.00     0.021 C 
BRANCH   2   3
ATOM      3  C   UNL A   1      35.808  23.958  25.686  1.00  0.00     0.116 C 
BRANCH   3   4
ATOM      4  N   UNL A   1      35.390  22.973  26.669  1.00  0.00    -0.356 N 
ATOM      5  C   UNL A   1      34.339  22.115  26.703  1.00  0.00     0.225 C 
ATOM      6  O   UNL A   1      34.224  21.424  27.723  1.00  0.00    -0.275 OA
ATOM      7  H   UNL A   1      35.979  22.919  27.456  1.00  0.00     0.163 HD
BRANCH   5   8
ATOM      8  C   UNL A   1      33.316  21.965  25.585  1.00  0.00     0.102 C 
ATOM      9  N   UNL A   1      32.358  23.468  23.983  1.00  0.00    -0.321 N 
ATOM     10  C   UNL A   1      32.910  22.342  23.251  1.00  0.00     0.122 C 
ATOM     11  C   UNL A   1      32.260  23.078  25.398  1.00  0.00     0.096 C 
ATOM     12  C   UNL A   1      33.904  21.700  24.197  1.00  0.00     0.037 C 
ATOM     13  C   UNL A   1      32.280  24.203  26.416  1.00  0.00     0.032 C 
BRANCH   9  14
ATOM     14  C   UNL A   1      31.310  24.120  23.372  1.00  0.00     0.318 C 
ATOM     15  N   UNL A   1      31.456  25.437  23.092  1.00  0.00    -0.331 N 
ATOM     16  H   UNL A   1      30.625  25.919  22.880  1.00  0.00     0.165 HD
ATOM     17  O   UNL A   1      30.274  23.551  23.037  1.00  0.00    -0.249 OA
BRANCH  15  18
ATOM     18  C   UNL A   1      32.666  26.244  23.059  1.00  0.00     0.111 C 
ATOM     19  C   UNL A   1      32.989  26.711  21.640  1.00  0.00     0.036 C 
BRANCH  18  20
ATOM     20  C   UNL A   1      32.561  27.406  24.037  1.00  0.00    -0.026 A 
ATOM     21  C   UNL A   1      31.443  28.256  23.990  1.00  0.00     0.007 A 
ATOM     22  C   UNL A   1      33.562  27.672  24.987  1.00  0.00     0.007 A 
ATOM     23  C   UNL A   1      31.337  29.353  24.850  1.00  0.00     0.021 A 
ATOM     24  C   UNL A   1      33.455  28.769  25.851  1.00  0.00     0.021 A 
ATOM     25  C   UNL A   1      32.346  29.607  25.774  1.00  0.00     0.041 A 
ATOM     26  Cl  UNL A   1      32.222  30.969  26.817  1.00  0.00    -0.084 Cl
ENDBRANCH  18  20
ENDBRANCH  15  18
ENDBRANCH   9  14
ENDBRANCH   5   8
ENDBRANCH   3   4
ENDBRANCH   2   3
ENDBRANCH   1   2
BRANCH   1  27
ATOM     27  C   UNL A   1      37.446  21.058  24.596  1.00  0.00     0.002 C 
BRANCH  27  28
ATOM     28  C   UNL A   1      38.199  19.768  24.930  1.00  0.00     0.021 C 
BRANCH  28  29
ATOM     29  C   UNL A   1      39.043  19.818  26.202  1.00  0.00     0.116 C 
BRANCH  29  30
ATOM     30  N   UNL A   1      40.254  19.021  26.089  1.00  0.00    -0.352 N 
ATOM     31  C   UNL A   1      41.564  19.430  26.061  1.00  0.00     0.251 C 
ATOM     32  H   UNL A   1      40.114  18.049  26.021  1.00  0.00     0.163 HD
ATOM     33  O   UNL A   1      42.447  18.640  25.746  1.00  0.00    -0.269 OA
BRANCH  31  34
ATOM     34  C   UNL A   1      41.906  20.829  26.401  1.00  0.00     0.039 A 
ATOM     35  C   UNL A   1      42.299  21.133  27.707  1.00  0.00     0.014 A 
ATOM     36  C   UNL A   1      41.824  21.839  25.438  1.00  0.00     0.014 A 
ATOM     37  C   UNL A   1      42.662  22.442  28.033  1.00  0.00     0.010 A 
ATOM     38  C   UNL A   1      42.257  23.126  25.745  1.00  0.00     0.010 A 
ATOM     39  C   UNL A   1      42.670  23.444  27.048  1.00  0.00    -0.014 A 
BRANCH  39  40
ATOM     40  C   UNL A   1      43.117  24.825  27.361  1.00  0.00     0.031 A 
ATOM     41  C   UNL A   1      42.187  25.792  28.041  1.00  0.00     0.074 A 
ATOM     42  C   UNL A   1      44.332  25.241  26.947  1.00  0.00     0.049 A 
ATOM     43  N   UNL A   1      42.384  27.048  28.349  1.00  0.00    -0.248 NA
ATOM     44  C   UNL A   1      40.848  25.293  28.395  1.00  0.00     0.031 C 
ATOM     45  C   UNL A   1      45.291  24.427  26.198  1.00  0.00     0.029 A 
ATOM     46  N   UNL A   1      44.952  26.459  27.070  1.00  0.00    -0.354 N 
ATOM     47  C   UNL A   1      41.186  27.500  28.889  1.00  0.00     0.074 A 
ATOM     48  C   UNL A   1      40.258  26.392  28.840  1.00  0.00     0.031 C 
ATOM     49  C   UNL A   1      46.375  25.168  25.924  1.00  0.00     0.029 A 
ATOM     50  C   UNL A   1      46.178  26.517  26.450  1.00  0.00     0.049 A 
ATOM     51  H   UNL A   1      44.558  27.219  27.555  1.00  0.00     0.167 HD
ATOM     52  C   UNL A   1      40.891  28.720  29.401  1.00  0.00     0.034 A 
ATOM     53  C   UNL A   1      47.042  27.540  26.306  1.00  0.00     0.034 A 
ATOM     54  C   UNL A   1      41.830  29.805  29.483  1.00  0.00     0.049 A 
ATOM     55  C   UNL A   1      46.717  28.868  26.931  1.00  0.00     0.074 A 
ATOM     56  C   UNL A   1      41.666  31.040  30.086  1.00  0.00     0.029 A 
ATOM     57  N   UNL A   1      43.102  29.798  28.930  1.00  0.00    -0.354 N 
ATOM     58  N   UNL A   1      45.646  29.222  27.600  1.00  0.00    -0.248 NA
ATOM     59  C   UNL A   1      47.733  29.924  26.820  1.00  0.00     0.031 C 
ATOM     60  C   UNL A   1      42.824  31.792  29.866  1.00  0.00     0.029 A 
ATOM     61  C   UNL A   1      43.727  31.012  29.159  1.00  0.00     0.049 A 
ATOM     62  H   UNL A   1      43.501  29.039  28.446  1.00  0.00     0.167 HD
ATOM     63  C   UNL A   1      45.871  30.530  28.015  1.00  0.00     0.074 A 
ATOM     64  C   UNL A   1      47.189  30.897  27.541  1.00  0.00     0.031 C 
ATOM     65  C   UNL A   1      45.055  31.355  28.717  1.00  0.00     0.034 A 
BRANCH  52  66
ATOM     66  C   UNL A   1      39.501  28.933  29.942  1.00  0.00     0.023 A 
ATOM     67  C   UNL A   1      39.145  28.397  31.197  1.00  0.00     0.012 A 
ATOM     68  C   UNL A   1      38.560  29.704  29.231  1.00  0.00     0.148 A 
ATOM     69  C   UNL A   1      37.864  28.584  31.713  1.00  0.00     0.002 A 
ATOM     70  C   UNL A   1      37.302  29.929  29.775  1.00  0.00     0.091 A 
ATOM     71  F   UNL A   1      38.907  30.191  28.031  1.00  0.00    -0.205 F 
ATOM     72  C   UNL A   1      36.946  29.358  31.008  1.00  0.00     0.022 A 
BRANCH  70  73
ATOM     73  S   UNL A   1      36.080  30.982  28.984  1.00  0.00     0.127 S 
ATOM     74  O   UNL A   1      35.446  30.051  28.053  1.00  0.00    -0.237 OA
ATOM     75  O   UNL A   1      35.240  31.383  30.113  1.00  0.00    -0.237 OA
ATOM     76  O   UNL A   1      36.828  32.070  28.369  1.00  0.00    -0.744 OA
ENDBRANCH  70  73
ENDBRANCH  52  66
BRANCH  53  77
ATOM     77  C   UNL A   1      48.324  27.323  25.577  1.00  0.00     0.023 A 
ATOM     78  C   UNL A   1      49.451  26.849  26.275  1.00  0.00     0.012 A 
ATOM     79  C   UNL A   1      48.412  27.529  24.186  1.00  0.00     0.148 A 
ATOM     80  C   UNL A   1      50.650  26.608  25.604  1.00  0.00     0.002 A 
ATOM     81  C   UNL A   1      49.592  27.232  23.516  1.00  0.00     0.091 A 
ATOM     82  F   UNL A   1      47.327  27.988  23.544  1.00  0.00    -0.205 F 
ATOM     83  C   UNL A   1      50.718  26.787  24.225  1.00  0.00     0.022 A 
BRANCH  81  84
ATOM     84  S   UNL A   1      49.726  27.296  21.725  1.00  0.00     0.127 S 
ATOM     85  O   UNL A   1      51.100  26.850  21.512  1.00  0.00    -0.237 OA
ATOM     86  O   UNL A   1      48.695  26.342  21.314  1.00  0.00    -0.237 OA
ATOM     87  O   UNL A   1      49.446  28.677  21.356  1.00  0.00    -0.744 OA
ENDBRANCH  81  84
ENDBRANCH  53  77
BRANCH  65  88
ATOM     88  C   UNL A   1      45.567  32.732  29.050  1.00  0.00     0.023 A 
ATOM     89  C   UNL A   1      46.368  32.929  30.193  1.00  0.00     0.012 A 
ATOM     90  C   UNL A   1      45.316  33.817  28.187  1.00  0.00     0.148 A 
ATOM     91  C   UNL A   1      46.885  34.190  30.487  1.00  0.00     0.002 A 
ATOM     92  C   UNL A   1      45.877  35.059  28.458  1.00  0.00     0.091 A 
ATOM     93  F   UNL A   1      44.536  33.613  27.115  1.00  0.00    -0.205 F 
ATOM     94  C   UNL A   1      46.650  35.251  29.614  1.00  0.00     0.022 A 
BRANCH  92  95
ATOM     95  S   UNL A   1      45.713  36.455  27.340  1.00  0.00     0.127 S 
ATOM     96  O   UNL A   1      46.737  36.157  26.340  1.00  0.00    -0.237 OA
ATOM     97  O   UNL A   1      44.337  36.313  26.866  1.00  0.00    -0.237 OA
ATOM     98  O   UNL A   1      45.955  37.645  28.145  1.00  0.00    -0.744 OA
ENDBRANCH  92  95
ENDBRANCH  65  88
ENDBRANCH  39  40
ENDBRANCH  31  34
ENDBRANCH  29  30
ENDBRANCH  28  29
ENDBRANCH  27  28
ENDBRANCH   1  27
TORSDOF 19
ENDMDL
MODEL 2
REMARK VINA RESULT:     -11.1      7.056     11.098
REMARK SMILES C[C@H](NC(=O)N1CC[C@@H](C(=O)NCCCCCCNC(=O)c2ccc(-c3c4nc(c(-c5cccc(S(=O)(=O)[O-])c5F)c5ccc([nH]5)c(-c5cccc(S(=O)(=O)[O-])c5F)c5nc(c(-c6cccc(S(=O)(=O)[O-])c6F)c6ccc3[nH]6)C=C5)C=C4)cc2)[C@H]1C)c1ccc(Cl)cc1
REMARK SMILES IDX 15 1 14 2 13 3 12 4 10 5 11 6 9 8 6 9 7 10 85 11 8 12 86 13
REMARK SMILES IDX 4 14 3 15 5 17 2 18 1 19 87 20 88 21 93 22 89 23 92 24 90 25
REMARK SMILES IDX 91 26 16 27 17 28 18 29 19 30 20 31 21 33 22 34 23 35 84 36
REMARK SMILES IDX 24 37 83 38 25 39 26 40 27 41 77 42 28 43 82 44 76 45 78 46
REMARK SMILES IDX 29 47 81 48 75 49 74 50 30 52 62 53 42 54 61 55 43 56 46 57
REMARK SMILES IDX 60 58 79 59 44 60 45 61 59 63 80 64 47 65 31 66 32 67 40 68
REMARK SMILES IDX 33 69 35 70 41 71 34 72 36 73 37 74 38 75 39 76 63 77 64 78
REMARK SMILES IDX 72 79 65 80 67 81 73 82 66 83 68 84 69 85 70 86 71 87 48 88
REMARK SMILES IDX 49 89 57 90 50 91 52 92 58 93 51 94 53 95 54 96 55 97 56 98
REMARK H PARENT 12 7 3 16 19 32 78 51 46 62
REMARK Flexibility Score: inf
ROOT
ATOM      1  C   UNL A   1      35.433  33.004  28.631  1.00  0.00     0.002 C 
ENDROOT
BRANCH   1   2
ATOM      2  C   UNL A   1      34.639  31.706  28.798  1.00  0.00     0.021 C 
BRANCH   2   3
ATOM      3  C   UNL A   1      34.224  31.006  27.502  1.00  0.00     0.116 C 
BRANCH   3   4
ATOM      4  N   UNL A   1      33.119  30.088  27.718  1.00  0.00    -0.356 N 
ATOM      5  C   UNL A   1      32.387  29.333  26.861  1.00  0.00     0.225 C 
ATOM      6  O   UNL A   1      31.459  28.680  27.355  1.00  0.00    -0.275 OA
ATOM      7  H   UNL A   1      32.853  29.997  28.662  1.00  0.00     0.163 HD
BRANCH   5   8
ATOM      8  C   UNL A   1      32.633  29.254  25.360  1.00  0.00     0.102 C 
ATOM      9  N   UNL A   1      32.604  27.478  23.752  1.00  0.00    -0.321 N 
ATOM     10  C   UNL A   1      31.713  28.519  23.270  1.00  0.00     0.122 C 
ATOM     11  C   UNL A   1      33.445  28.062  24.807  1.00  0.00     0.096 C 
ATOM     12  C   UNL A   1      31.377  29.353  24.490  1.00  0.00     0.037 C 
ATOM     13  C   UNL A   1      34.011  27.099  25.835  1.00  0.00     0.032 C 
BRANCH   9  14
ATOM     14  C   UNL A   1      33.166  26.679  22.782  1.00  0.00     0.318 C 
ATOM     15  N   UNL A   1      33.053  25.336  22.917  1.00  0.00    -0.331 N 
ATOM     16  H   UNL A   1      33.655  24.802  22.351  1.00  0.00     0.165 HD
ATOM     17  O   UNL A   1      33.727  27.132  21.786  1.00  0.00    -0.249 OA
BRANCH  15  18
ATOM     18  C   UNL A   1      32.169  24.568  23.780  1.00  0.00     0.111 C 
ATOM     19  C   UNL A   1      30.753  24.499  23.211  1.00  0.00     0.036 C 
BRANCH  18  20
ATOM     20  C   UNL A   1      32.750  23.187  24.047  1.00  0.00    -0.026 A 
ATOM     21  C   UNL A   1      34.137  23.035  24.214  1.00  0.00     0.007 A 
ATOM     22  C   UNL A   1      31.940  22.040  24.119  1.00  0.00     0.007 A 
ATOM     23  C   UNL A   1      34.702  21.774  24.423  1.00  0.00     0.021 A 
ATOM     24  C   UNL A   1      32.505  20.777  24.330  1.00  0.00     0.021 A 
ATOM     25  C   UNL A   1      33.884  20.650  24.475  1.00  0.00     0.041 A 
ATOM     26  Cl  UNL A   1      34.586  19.097  24.713  1.00  0.00    -0.084 Cl
ENDBRANCH  18  20
ENDBRANCH  15  18
ENDBRANCH   9  14
ENDBRANCH   5   8
ENDBRANCH   3   4
ENDBRANCH   2   3
ENDBRANCH   1   2
BRANCH   1  27
ATOM     27  C   UNL A   1      34.674  34.170  27.997  1.00  0.00     0.002 C 
BRANCH  27  28
ATOM     28  C   UNL A   1      33.422  34.629  28.748  1.00  0.00     0.021 C 
BRANCH  28  29
ATOM     29  C   UNL A   1      33.547  35.971  29.465  1.00  0.00     0.116 C 
BRANCH  29  30
ATOM     30  N   UNL A   1      32.562  36.123  30.523  1.00  0.00    -0.352 N 
ATOM     31  C   UNL A   1      32.546  35.575  31.782  1.00  0.00     0.251 C 
ATOM     32  H   UNL A   1      31.795  36.701  30.305  1.00  0.00     0.163 HD
ATOM     33  O   UNL A   1      31.530  35.640  32.466  1.00  0.00    -0.269 OA
BRANCH  31  34
ATOM     34  C   UNL A   1      33.753  34.898  32.306  1.00  0.00     0.039 A 
ATOM     35  C   UNL A   1      33.603  33.725  33.049  1.00  0.00     0.014 A 
ATOM     36  C   UNL A   1      35.026  35.427  32.075  1.00  0.00     0.014 A 
ATOM     37  C   UNL A   1      34.735  33.053  33.517  1.00  0.00     0.010 A 
ATOM     38  C   UNL A   1      36.154  34.717  32.477  1.00  0.00     0.010 A 
ATOM     39  C   UNL A   1      36.021  33.529  33.211  1.00  0.00    -0.014 A 
BRANCH  39  40
ATOM     40  C   UNL A   1      37.236  32.791  33.643  1.00  0.00     0.031 A 
ATOM     41  C   UNL A   1      38.031  33.260  34.831  1.00  0.00     0.074 A 
ATOM     42  C   UNL A   1      37.679  31.751  32.907  1.00  0.00     0.049 A 
ATOM     43  N   UNL A   1      39.141  32.774  35.323  1.00  0.00    -0.248 NA
ATOM     44  C   UNL A   1      37.531  34.448  35.541  1.00  0.00     0.031 C 
ATOM     45  C   UNL A   1      37.048  31.257  31.682  1.00  0.00     0.029 A 
ATOM     46  N   UNL A   1      38.779  30.947  33.064  1.00  0.00    -0.354 N 
ATOM     47  C   UNL A   1      39.495  33.619  36.368  1.00  0.00     0.074 A 
ATOM     48  C   UNL A   1      38.497  34.665  36.420  1.00  0.00     0.031 C 
ATOM     49  C   UNL A   1      37.773  30.237  31.196  1.00  0.00     0.029 A 
ATOM     50  C   UNL A   1      38.935  30.024  32.055  1.00  0.00     0.049 A 
ATOM     51  H   UNL A   1      39.398  31.021  33.825  1.00  0.00     0.167 HD
ATOM     52  C   UNL A   1      40.542  33.521  37.223  1.00  0.00     0.034 A 
ATOM     53  C   UNL A   1      39.907  29.119  31.835  1.00  0.00     0.034 A 
ATOM     54  C   UNL A   1      41.508  32.457  37.191  1.00  0.00     0.049 A 
ATOM     55  C   UNL A   1      41.029  28.992  32.828  1.00  0.00     0.074 A 
ATOM     56  C   UNL A   1      42.538  32.205  38.081  1.00  0.00     0.029 A 
ATOM     57  N   UNL A   1      41.580  31.480  36.210  1.00  0.00    -0.354 N 
ATOM     58  N   UNL A   1      41.247  29.689  33.917  1.00  0.00    -0.248 NA
ATOM     59  C   UNL A   1      42.015  27.930  32.587  1.00  0.00     0.031 C 
ATOM     60  C   UNL A   1      43.254  31.096  37.617  1.00  0.00     0.029 A 
ATOM     61  C   UNL A   1      42.647  30.634  36.460  1.00  0.00     0.049 A 
ATOM     62  H   UNL A   1      40.961  31.399  35.448  1.00  0.00     0.167 HD
ATOM     63  C   UNL A   1      42.376  29.133  34.507  1.00  0.00     0.074 A 
ATOM     64  C   UNL A   1      42.783  28.026  33.666  1.00  0.00     0.031 C 
ATOM     65  C   UNL A   1      43.022  29.510  35.638  1.00  0.00     0.034 A 
BRANCH  52  66
ATOM     66  C   UNL A   1      40.678  34.581  38.286  1.00  0.00     0.023 A 
ATOM     67  C   UNL A   1      41.512  35.696  38.065  1.00  0.00     0.012 A 
ATOM     68  C   UNL A   1      39.945  34.497  39.486  1.00  0.00     0.148 A 
ATOM     69  C   UNL A   1      41.650  36.686  39.037  1.00  0.00     0.002 A 
ATOM     70  C   UNL A   1      40.048  35.512  40.429  1.00  0.00     0.091 A 
ATOM     71  F   UNL A   1      39.171  33.420  39.690  1.00  0.00    -0.205 F 
ATOM     72  C   UNL A   1      40.910  36.599  40.213  1.00  0.00     0.022 A 
BRANCH  70  73
ATOM     73  S   UNL A   1      39.071  35.534  41.937  1.00  0.00     0.127 S 
ATOM     74  O   UNL A   1      39.481  36.803  42.536  1.00  0.00    -0.237 OA
ATOM     75  O   UNL A   1      37.703  35.518  41.419  1.00  0.00    -0.237 OA
ATOM     76  O   UNL A   1      39.453  34.340  42.677  1.00  0.00    -0.744 OA
ENDBRANCH  70  73
ENDBRANCH  52  66
BRANCH  53  77
ATOM     77  C   UNL A   1      39.825  28.227  30.645  1.00  0.00     0.023 A 
ATOM     78  C   UNL A   1      38.972  27.107  30.670  1.00  0.00     0.012 A 
ATOM     79  C   UNL A   1      40.544  28.517  29.469  1.00  0.00     0.148 A 
ATOM     80  C   UNL A   1      38.857  26.278  29.554  1.00  0.00     0.002 A 
ATOM     81  C   UNL A   1      40.380  27.722  28.342  1.00  0.00     0.091 A 
ATOM     82  F   UNL A   1      41.355  29.586  29.470  1.00  0.00    -0.205 F 
ATOM     83  C   UNL A   1      39.550  26.591  28.388  1.00  0.00     0.022 A 
BRANCH  81  84
ATOM     84  S   UNL A   1      41.120  28.131  26.756  1.00  0.00     0.127 S 
ATOM     85  O   UNL A   1      40.313  29.274  26.336  1.00  0.00    -0.237 OA
ATOM     86  O   UNL A   1      42.494  28.453  27.142  1.00  0.00    -0.237 OA
ATOM     87  O   UNL A   1      40.991  26.932  25.938  1.00  0.00    -0.744 OA
ENDBRANCH  81  84
ENDBRANCH  53  77
BRANCH  65  88
ATOM     88  C   UNL A   1      44.223  28.707  36.062  1.00  0.00     0.023 A 
ATOM     89  C   UNL A   1      45.511  29.083  35.633  1.00  0.00     0.012 A 
ATOM     90  C   UNL A   1      44.082  27.622  36.950  1.00  0.00     0.148 A 
ATOM     91  C   UNL A   1      46.635  28.375  36.055  1.00  0.00     0.002 A 
ATOM     92  C   UNL A   1      45.210  26.952  37.408  1.00  0.00     0.091 A 
ATOM     93  F   UNL A   1      42.846  27.267  37.333  1.00  0.00    -0.205 F 
ATOM     94  C   UNL A   1      46.486  27.318  36.951  1.00  0.00     0.022 A 
BRANCH  92  95
ATOM     95  S   UNL A   1      45.123  25.647  38.639  1.00  0.00     0.127 S 
ATOM     96  O   UNL A   1      44.308  26.273  39.679  1.00  0.00    -0.237 OA
ATOM     97  O   UNL A   1      44.456  24.572  37.905  1.00  0.00    -0.237 OA
ATOM     98  O   UNL A   1      46.500  25.357  39.016  1.00  0.00    -0.744 OA
ENDBRANCH  92  95
ENDBRANCH  65  88
ENDBRANCH  39  40
ENDBRANCH  31  34
ENDBRANCH  29  30
ENDBRANCH  28  29
ENDBRANCH  27  28
ENDBRANCH   1  27
TORSDOF 19
ENDMDL
MODEL 3
REMARK VINA RESULT:     -10.7      6.146     11.262
REMARK SMILES C[C@H](NC(=O)N1CC[C@@H](C(=O)NCCCCCCNC(=O)c2ccc(-c3c4nc(c(-c5cccc(S(=O)(=O)[O-])c5F)c5ccc([nH]5)c(-c5cccc(S(=O)(=O)[O-])c5F)c5nc(c(-c6cccc(S(=O)(=O)[O-])c6F)c6ccc3[nH]6)C=C5)C=C4)cc2)[C@H]1C)c1ccc(Cl)cc1
REMARK SMILES IDX 15 1 14 2 13 3 12 4 10 5 11 6 9 8 6 9 7 10 85 11 8 12 86 13
REMARK SMILES IDX 4 14 3 15 5 17 2 18 1 19 87 20 88 21 93 22 89 23 92 24 90 25
REMARK SMILES IDX 91 26 16 27 17 28 18 29 19 30 20 31 21 33 22 34 23 35 84 36
REMARK SMILES IDX 24 37 83 38 25 39 26 40 27 41 77 42 28 43 82 44 76 45 78 46
REMARK SMILES IDX 29 47 81 48 75 49 74 50 30 52 62 53 42 54 61 55 43 56 46 57
REMARK SMILES IDX 60 58 79 59 44 60 45 61 59 63 80 64 47 65 31 66 32 67 40 68
REMARK SMILES IDX 33 69 35 70 41 71 34 72 36 73 37 74 38 75 39 76 63 77 64 78
REMARK SMILES IDX 72 79 65 80 67 81 73 82 66 83 68 84 69 85 70 86 71 87 48 88
REMARK SMILES IDX 49 89 57 90 50 91 52 92 58 93 51 94 53 95 54 96 55 97 56 98
REMARK H PARENT 12 7 3 16 19 32 78 51 46 62
REMARK Flexibility Score: inf
ROOT
ATOM      1  C   UNL A   1      33.223  29.392  27.186  1.00  0.00     0.002 C 
ENDROOT
BRANCH   1   2
ATOM      2  C   UNL A   1      32.252  29.478  26.007  1.00  0.00     0.021 C 
BRANCH   2   3
ATOM      3  C   UNL A   1      32.723  28.822  24.707  1.00  0.00     0.116 C 
BRANCH   3   4
ATOM      4  N   UNL A   1      31.997  29.332  23.555  1.00  0.00    -0.356 N 
ATOM      5  C   UNL A   1      31.102  28.751  22.717  1.00  0.00     0.225 C 
ATOM      6  O   UNL A   1      30.692  29.447  21.780  1.00  0.00    -0.275 OA
ATOM      7  H   UNL A   1      32.192  30.274  23.346  1.00  0.00     0.163 HD
BRANCH   5   8
ATOM      8  C   UNL A   1      30.594  27.322  22.859  1.00  0.00     0.102 C 
ATOM      9  N   UNL A   1      31.558  25.276  23.647  1.00  0.00    -0.321 N 
ATOM     10  C   UNL A   1      30.327  25.492  24.385  1.00  0.00     0.122 C 
ATOM     11  C   UNL A   1      31.539  26.162  22.474  1.00  0.00     0.096 C 
ATOM     12  C   UNL A   1      30.026  26.969  24.236  1.00  0.00     0.037 C 
ATOM     13  C   UNL A   1      32.887  26.555  21.896  1.00  0.00     0.032 C 
BRANCH   9  14
ATOM     14  C   UNL A   1      31.952  23.962  23.516  1.00  0.00     0.318 C 
ATOM     15  N   UNL A   1      33.175  23.614  23.980  1.00  0.00    -0.331 N 
ATOM     16  H   UNL A   1      33.515  22.746  23.664  1.00  0.00     0.165 HD
ATOM     17  O   UNL A   1      31.227  23.094  23.034  1.00  0.00    -0.249 OA
BRANCH  15  18
ATOM     18  C   UNL A   1      34.061  24.337  24.879  1.00  0.00     0.111 C 
ATOM     19  C   UNL A   1      33.372  24.655  26.206  1.00  0.00     0.036 C 
BRANCH  18  20
ATOM     20  C   UNL A   1      35.363  23.575  25.075  1.00  0.00    -0.026 A 
ATOM     21  C   UNL A   1      35.464  22.244  24.636  1.00  0.00     0.007 A 
ATOM     22  C   UNL A   1      36.479  24.158  25.700  1.00  0.00     0.007 A 
ATOM     23  C   UNL A   1      36.635  21.508  24.836  1.00  0.00     0.021 A 
ATOM     24  C   UNL A   1      37.654  23.421  25.899  1.00  0.00     0.021 A 
ATOM     25  C   UNL A   1      37.723  22.098  25.471  1.00  0.00     0.041 A 
ATOM     26  Cl  UNL A   1      39.156  21.182  25.733  1.00  0.00    -0.084 Cl
ENDBRANCH  18  20
ENDBRANCH  15  18
ENDBRANCH   9  14
ENDBRANCH   5   8
ENDBRANCH   3   4
ENDBRANCH   2   3
ENDBRANCH   1   2
BRANCH   1  27
ATOM     27  C   UNL A   1      33.898  30.704  27.588  1.00  0.00     0.002 C 
BRANCH  27  28
ATOM     28  C   UNL A   1      33.339  31.965  26.923  1.00  0.00     0.021 C 
BRANCH  28  29
ATOM     29  C   UNL A   1      32.230  32.673  27.697  1.00  0.00     0.116 C 
BRANCH  29  30
ATOM     30  N   UNL A   1      32.445  34.109  27.774  1.00  0.00    -0.352 N 
ATOM     31  C   UNL A   1      33.376  34.812  28.500  1.00  0.00     0.251 C 
ATOM     32  H   UNL A   1      31.835  34.657  27.229  1.00  0.00     0.163 HD
ATOM     33  O   UNL A   1      33.274  36.028  28.611  1.00  0.00    -0.269 OA
BRANCH  31  34
ATOM     34  C   UNL A   1      34.492  34.095  29.155  1.00  0.00     0.039 A 
ATOM     35  C   UNL A   1      35.779  34.218  28.627  1.00  0.00     0.014 A 
ATOM     36  C   UNL A   1      34.266  33.294  30.278  1.00  0.00     0.014 A 
ATOM     37  C   UNL A   1      36.849  33.578  29.257  1.00  0.00     0.010 A 
ATOM     38  C   UNL A   1      35.342  32.719  30.947  1.00  0.00     0.010 A 
ATOM     39  C   UNL A   1      36.644  32.846  30.438  1.00  0.00    -0.014 A 
BRANCH  39  40
ATOM     40  C   UNL A   1      37.780  32.216  31.159  1.00  0.00     0.031 A 
ATOM     41  C   UNL A   1      38.528  31.064  30.545  1.00  0.00     0.074 A 
ATOM     42  C   UNL A   1      38.079  32.619  32.411  1.00  0.00     0.049 A 
ATOM     43  N   UNL A   1      39.511  30.360  31.043  1.00  0.00    -0.248 NA
ATOM     44  C   UNL A   1      38.097  30.627  29.207  1.00  0.00     0.031 C 
ATOM     45  C   UNL A   1      37.369  33.663  33.152  1.00  0.00     0.029 A 
ATOM     46  N   UNL A   1      39.035  32.177  33.290  1.00  0.00    -0.354 N 
ATOM     47  C   UNL A   1      39.785  29.372  30.105  1.00  0.00     0.074 A 
ATOM     48  C   UNL A   1      38.846  29.551  29.020  1.00  0.00     0.031 C 
ATOM     49  C   UNL A   1      37.910  33.779  34.374  1.00  0.00     0.029 A 
ATOM     50  C   UNL A   1      38.984  32.799  34.516  1.00  0.00     0.049 A 
ATOM     51  H   UNL A   1      39.694  31.482  33.067  1.00  0.00     0.167 HD
ATOM     52  C   UNL A   1      40.747  28.417  30.133  1.00  0.00     0.034 A 
ATOM     53  C   UNL A   1      39.707  32.596  35.634  1.00  0.00     0.034 A 
ATOM     54  C   UNL A   1      41.703  28.271  31.196  1.00  0.00     0.049 A 
ATOM     55  C   UNL A   1      40.805  31.569  35.622  1.00  0.00     0.074 A 
ATOM     56  C   UNL A   1      42.786  27.411  31.265  1.00  0.00     0.029 A 
ATOM     57  N   UNL A   1      41.684  28.984  32.385  1.00  0.00    -0.354 N 
ATOM     58  N   UNL A   1      41.168  30.764  34.652  1.00  0.00    -0.248 NA
ATOM     59  C   UNL A   1      41.621  31.450  36.838  1.00  0.00     0.031 C 
ATOM     60  C   UNL A   1      43.398  27.580  32.511  1.00  0.00     0.029 A 
ATOM     61  C   UNL A   1      42.721  28.572  33.203  1.00  0.00     0.049 A 
ATOM     62  H   UNL A   1      41.027  29.682  32.612  1.00  0.00     0.167 HD
ATOM     63  C   UNL A   1      42.270  30.064  35.129  1.00  0.00     0.074 A 
ATOM     64  C   UNL A   1      42.530  30.557  36.466  1.00  0.00     0.031 C 
ATOM     65  C   UNL A   1      42.996  29.095  34.518  1.00  0.00     0.034 A 
BRANCH  52  66
ATOM     66  C   UNL A   1      40.830  27.475  28.959  1.00  0.00     0.023 A 
ATOM     67  C   UNL A   1      39.952  26.374  28.878  1.00  0.00     0.012 A 
ATOM     68  C   UNL A   1      41.744  27.705  27.913  1.00  0.00     0.148 A 
ATOM     69  C   UNL A   1      40.015  25.492  27.800  1.00  0.00     0.002 A 
ATOM     70  C   UNL A   1      41.766  26.851  26.817  1.00  0.00     0.091 A 
ATOM     71  F   UNL A   1      42.585  28.745  28.014  1.00  0.00    -0.205 F 
ATOM     72  C   UNL A   1      40.913  25.736  26.766  1.00  0.00     0.022 A 
BRANCH  70  73
ATOM     73  S   UNL A   1      42.829  27.130  25.395  1.00  0.00     0.127 S 
ATOM     74  O   UNL A   1      44.134  27.303  26.032  1.00  0.00    -0.237 OA
ATOM     75  O   UNL A   1      42.676  25.882  24.647  1.00  0.00    -0.237 OA
ATOM     76  O   UNL A   1      42.298  28.307  24.724  1.00  0.00    -0.744 OA
ENDBRANCH  70  73
ENDBRANCH  52  66
BRANCH  53  77
ATOM     77  C   UNL A   1      39.441  33.426  36.842  1.00  0.00     0.023 A 
ATOM     78  C   UNL A   1      38.489  32.998  37.788  1.00  0.00     0.012 A 
ATOM     79  C   UNL A   1      40.168  34.608  37.085  1.00  0.00     0.148 A 
ATOM     80  C   UNL A   1      38.250  33.745  38.941  1.00  0.00     0.002 A 
ATOM     81  C   UNL A   1      39.966  35.315  38.264  1.00  0.00     0.091 A 
ATOM     82  F   UNL A   1      41.064  35.000  36.167  1.00  0.00    -0.205 F 
ATOM     83  C   UNL A   1      38.995  34.896  39.185  1.00  0.00     0.022 A 
BRANCH  81  84
ATOM     84  S   UNL A   1      40.979  36.726  38.727  1.00  0.00     0.127 S 
ATOM     85  O   UNL A   1      41.752  36.952  37.509  1.00  0.00    -0.237 OA
ATOM     86  O   UNL A   1      39.965  37.740  39.014  1.00  0.00    -0.237 OA
ATOM     87  O   UNL A   1      41.745  36.298  39.890  1.00  0.00    -0.744 OA
ENDBRANCH  81  84
ENDBRANCH  53  77
BRANCH  65  88
ATOM     88  C   UNL A   1      44.166  28.516  35.269  1.00  0.00     0.023 A 
ATOM     89  C   UNL A   1      45.457  29.048  35.082  1.00  0.00     0.012 A 
ATOM     90  C   UNL A   1      43.972  27.493  36.218  1.00  0.00     0.148 A 
ATOM     91  C   UNL A   1      46.541  28.550  35.804  1.00  0.00     0.002 A 
ATOM     92  C   UNL A   1      45.046  27.037  36.972  1.00  0.00     0.091 A 
ATOM     93  F   UNL A   1      42.739  26.986  36.368  1.00  0.00    -0.205 F 
ATOM     94  C   UNL A   1      46.333  27.554  36.757  1.00  0.00     0.022 A 
BRANCH  92  95
ATOM     95  S   UNL A   1      44.856  25.831  38.289  1.00  0.00     0.127 S 
ATOM     96  O   UNL A   1      44.110  26.596  39.287  1.00  0.00    -0.237 OA
ATOM     97  O   UNL A   1      44.089  24.773  37.633  1.00  0.00    -0.237 OA
ATOM     98  O   UNL A   1      46.206  25.445  38.680  1.00  0.00    -0.744 OA
ENDBRANCH  92  95
ENDBRANCH  65  88
ENDBRANCH  39  40
ENDBRANCH  31  34
ENDBRANCH  29  30
ENDBRANCH  28  29
ENDBRANCH  27  28
ENDBRANCH   1  27
TORSDOF 19
ENDMDL
