MODEL 1
REMARK VINA RESULT:     -13.5      0.000      0.000
REMARK SMILES Cc1cccc(N2C(=O)/C(=C/c3ccc(C(=O)NCCCCCCNC(=O)c4ccc(-c5c6nc(c(-c7cccc(S(=O)(=O)[O-])c7F)c7ccc([nH]7)c(-c7cccc(S(=O)(=O)[O-])c7F)c7nc(c(-c8cccc(S(=O)(=O)[O-])c8F)c8ccc5[nH]8)C=C7)C=C6)cc4)cc3)c3ccccc3C2=O)c1
REMARK SMILES IDX 22 1 21 2 20 3 19 4 18 5 16 6 17 7 15 9 12 10 13 11 92 12
REMARK SMILES IDX 14 13 91 14 11 15 7 16 8 17 99 18 9 19 10 20 98 21 100 22
REMARK SMILES IDX 93 23 97 24 94 25 96 26 95 27 6 28 1 29 2 30 3 31 101 32
REMARK SMILES IDX 4 33 5 34 23 35 24 36 25 37 26 38 27 40 28 41 29 42 90 43
REMARK SMILES IDX 30 44 89 45 31 46 32 47 33 48 83 49 34 50 88 51 82 52 84 53
REMARK SMILES IDX 35 54 87 55 81 56 80 57 36 59 68 60 48 61 67 62 49 63 52 64
REMARK SMILES IDX 66 65 85 66 50 67 51 68 65 70 86 71 53 72 37 73 38 74 46 75
REMARK SMILES IDX 39 76 41 77 47 78 40 79 42 80 43 81 44 82 45 83 69 84 70 85
REMARK SMILES IDX 78 86 71 87 73 88 79 89 72 90 74 91 75 92 76 93 77 94 54 95
REMARK SMILES IDX 55 96 63 97 56 98 58 99 64 100 57 101 59 102 60 103 61 104
REMARK SMILES IDX 62 105
REMARK H PARENT 18 8 25 39 84 58 52 69
REMARK Flexibility Score: inf
ROOT
ATOM      1  C   UNL A   1      33.744  35.423  28.737  1.00  0.00     0.002 C 
ENDROOT
BRANCH   1   2
ATOM      2  C   UNL A   1      34.718  34.478  28.020  1.00  0.00     0.002 C 
BRANCH   2   3
ATOM      3  C   UNL A   1      34.942  33.089  28.629  1.00  0.00     0.021 C 
BRANCH   3   4
ATOM      4  C   UNL A   1      34.082  31.945  28.096  1.00  0.00     0.116 C 
BRANCH   4   5
ATOM      5  N   UNL A   1      32.886  32.376  27.395  1.00  0.00    -0.352 N 
ATOM      6  C   UNL A   1      31.971  31.620  26.701  1.00  0.00     0.251 C 
ATOM      7  O   UNL A   1      31.017  32.157  26.143  1.00  0.00    -0.269 OA
ATOM      8  H   UNL A   1      32.703  33.342  27.422  1.00  0.00     0.163 HD
BRANCH   6   9
ATOM      9  C   UNL A   1      32.162  30.157  26.565  1.00  0.00     0.039 A 
ATOM     10  C   UNL A   1      32.812  27.441  26.416  1.00  0.00    -0.025 A 
ATOM     11  C   UNL A   1      33.327  28.340  25.475  1.00  0.00     0.009 A 
ATOM     12  C   UNL A   1      31.867  27.891  27.349  1.00  0.00     0.009 A 
ATOM     13  C   UNL A   1      33.002  29.695  25.548  1.00  0.00     0.014 A 
ATOM     14  C   UNL A   1      31.544  29.247  27.426  1.00  0.00     0.014 A 
BRANCH  10  15
ATOM     15  C   UNL A   1      33.289  26.052  26.406  1.00  0.00     0.022 C 
ATOM     16  N   UNL A   1      34.461  23.231  24.499  1.00  0.00    -0.242 N 
ATOM     17  C   UNL A   1      33.909  23.844  25.642  1.00  0.00     0.265 C 
ATOM     18  C   UNL A   1      34.437  23.887  23.250  1.00  0.00     0.265 C 
ATOM     19  O   UNL A   1      34.028  23.463  26.808  1.00  0.00    -0.268 OA
ATOM     20  C   UNL A   1      33.210  25.157  25.394  1.00  0.00     0.049 C 
ATOM     21  C   UNL A   1      33.293  24.795  22.995  1.00  0.00     0.048 A 
ATOM     22  O   UNL A   1      35.260  23.804  22.343  1.00  0.00    -0.268 OA
ATOM     23  C   UNL A   1      32.632  25.384  24.067  1.00  0.00    -0.000 A 
ATOM     24  C   UNL A   1      32.881  25.041  21.677  1.00  0.00     0.014 A 
ATOM     25  C   UNL A   1      31.479  26.142  23.813  1.00  0.00     0.010 A 
ATOM     26  C   UNL A   1      31.770  25.846  21.432  1.00  0.00     0.001 A 
ATOM     27  C   UNL A   1      31.059  26.384  22.502  1.00  0.00     0.001 A 
BRANCH  16  28
ATOM     28  C   UNL A   1      35.199  21.975  24.650  1.00  0.00     0.053 A 
ATOM     29  C   UNL A   1      34.493  18.195  24.658  1.00  0.00     0.044 C 
ATOM     30  C   UNL A   1      35.228  19.500  24.730  1.00  0.00    -0.049 A 
ATOM     31  C   UNL A   1      36.606  19.509  24.936  1.00  0.00     0.003 A 
ATOM     32  C   UNL A   1      34.549  20.725  24.570  1.00  0.00     0.030 A 
ATOM     33  C   UNL A   1      37.284  20.718  24.985  1.00  0.00     0.002 A 
ATOM     34  C   UNL A   1      36.591  21.928  24.843  1.00  0.00     0.027 A 
ENDBRANCH  16  28
ENDBRANCH  10  15
ENDBRANCH   6   9
ENDBRANCH   4   5
ENDBRANCH   3   4
ENDBRANCH   2   3
ENDBRANCH   1   2
BRANCH   1  35
ATOM     35  C   UNL A   1      33.364  35.070  30.174  1.00  0.00     0.021 C 
BRANCH  35  36
ATOM     36  C   UNL A   1      32.743  36.203  30.978  1.00  0.00     0.116 C 
BRANCH  36  37
ATOM     37  N   UNL A   1      33.370  36.443  32.266  1.00  0.00    -0.352 N 
ATOM     38  C   UNL A   1      34.312  35.685  32.941  1.00  0.00     0.251 C 
ATOM     39  H   UNL A   1      33.085  37.266  32.726  1.00  0.00     0.163 HD
ATOM     40  O   UNL A   1      34.569  35.972  34.108  1.00  0.00    -0.269 OA
BRANCH  38  41
ATOM     41  C   UNL A   1      35.086  34.638  32.223  1.00  0.00     0.039 A 
ATOM     42  C   UNL A   1      34.822  33.295  32.527  1.00  0.00     0.014 A 
ATOM     43  C   UNL A   1      36.189  34.959  31.439  1.00  0.00     0.014 A 
ATOM     44  C   UNL A   1      35.793  32.323  32.282  1.00  0.00     0.010 A 
ATOM     45  C   UNL A   1      37.193  34.030  31.287  1.00  0.00     0.010 A 
ATOM     46  C   UNL A   1      37.019  32.731  31.772  1.00  0.00    -0.014 A 
BRANCH  46  47
ATOM     47  C   UNL A   1      38.228  31.924  31.754  1.00  0.00     0.031 A 
ATOM     48  C   UNL A   1      38.259  30.644  31.029  1.00  0.00     0.074 A 
ATOM     49  C   UNL A   1      39.379  32.485  32.182  1.00  0.00     0.049 A 
ATOM     50  N   UNL A   1      39.212  29.785  31.141  1.00  0.00    -0.248 NA
ATOM     51  C   UNL A   1      37.200  30.227  30.125  1.00  0.00     0.031 C 
ATOM     52  C   UNL A   1      40.740  32.087  31.840  1.00  0.00     0.029 A 
ATOM     53  N   UNL A   1      39.546  33.415  33.211  1.00  0.00    -0.354 N 
ATOM     54  C   UNL A   1      39.053  28.859  30.135  1.00  0.00     0.074 A 
ATOM     55  C   UNL A   1      37.743  29.129  29.589  1.00  0.00     0.031 C 
ATOM     56  C   UNL A   1      41.568  32.521  32.801  1.00  0.00     0.029 A 
ATOM     57  C   UNL A   1      40.738  33.053  33.865  1.00  0.00     0.049 A 
ATOM     58  H   UNL A   1      38.952  34.168  33.432  1.00  0.00     0.167 HD
ATOM     59  C   UNL A   1      40.117  28.077  29.796  1.00  0.00     0.034 A 
ATOM     60  C   UNL A   1      40.798  32.690  35.180  1.00  0.00     0.034 A 
ATOM     61  C   UNL A   1      41.267  28.330  30.680  1.00  0.00     0.049 A 
ATOM     62  C   UNL A   1      41.397  31.308  35.406  1.00  0.00     0.074 A 
ATOM     63  C   UNL A   1      42.456  29.032  30.547  1.00  0.00     0.029 A 
ATOM     64  N   UNL A   1      41.161  28.015  32.027  1.00  0.00    -0.354 N 
ATOM     65  N   UNL A   1      41.833  30.517  34.465  1.00  0.00    -0.248 NA
ATOM     66  C   UNL A   1      41.466  30.677  36.721  1.00  0.00     0.031 C 
ATOM     67  C   UNL A   1      43.069  29.123  31.830  1.00  0.00     0.029 A 
ATOM     68  C   UNL A   1      42.262  28.464  32.739  1.00  0.00     0.049 A 
ATOM     69  H   UNL A   1      40.399  27.534  32.424  1.00  0.00     0.167 HD
ATOM     70  C   UNL A   1      42.068  29.262  34.977  1.00  0.00     0.074 A 
ATOM     71  C   UNL A   1      41.865  29.433  36.407  1.00  0.00     0.031 C 
ATOM     72  C   UNL A   1      42.331  28.181  34.168  1.00  0.00     0.034 A 
BRANCH  59  73
ATOM     73  C   UNL A   1      40.245  27.275  28.508  1.00  0.00     0.023 A 
ATOM     74  C   UNL A   1      39.386  26.163  28.350  1.00  0.00     0.012 A 
ATOM     75  C   UNL A   1      41.175  27.479  27.464  1.00  0.00     0.148 A 
ATOM     76  C   UNL A   1      39.516  25.247  27.302  1.00  0.00     0.002 A 
ATOM     77  C   UNL A   1      41.358  26.528  26.455  1.00  0.00     0.091 A 
ATOM     78  F   UNL A   1      41.832  28.636  27.374  1.00  0.00    -0.205 F 
ATOM     79  C   UNL A   1      40.533  25.405  26.374  1.00  0.00     0.022 A 
BRANCH  77  80
ATOM     80  S   UNL A   1      42.710  26.631  25.267  1.00  0.00     0.127 S 
ATOM     81  O   UNL A   1      43.883  26.684  26.142  1.00  0.00    -0.237 OA
ATOM     82  O   UNL A   1      42.569  25.385  24.516  1.00  0.00    -0.237 OA
ATOM     83  O   UNL A   1      42.488  27.855  24.504  1.00  0.00    -0.744 OA
ENDBRANCH  77  80
ENDBRANCH  59  73
BRANCH  60  84
ATOM     84  C   UNL A   1      39.731  33.322  36.013  1.00  0.00     0.023 A 
ATOM     85  C   UNL A   1      38.548  32.570  36.214  1.00  0.00     0.012 A 
ATOM     86  C   UNL A   1      40.015  34.383  36.890  1.00  0.00     0.148 A 
ATOM     87  C   UNL A   1      37.747  32.777  37.337  1.00  0.00     0.002 A 
ATOM     88  C   UNL A   1      39.204  34.591  38.005  1.00  0.00     0.091 A 
ATOM     89  F   UNL A   1      41.115  35.117  36.676  1.00  0.00    -0.205 F 
ATOM     90  C   UNL A   1      38.095  33.766  38.251  1.00  0.00     0.022 A 
BRANCH  88  91
ATOM     91  S   UNL A   1      39.619  35.823  39.247  1.00  0.00     0.127 S 
ATOM     92  O   UNL A   1      39.181  37.052  38.595  1.00  0.00    -0.237 OA
ATOM     93  O   UNL A   1      38.805  35.405  40.389  1.00  0.00    -0.237 OA
ATOM     94  O   UNL A   1      41.052  35.671  39.453  1.00  0.00    -0.744 OA
ENDBRANCH  88  91
ENDBRANCH  60  84
BRANCH  72  95
ATOM     95  C   UNL A   1      42.586  26.740  34.617  1.00  0.00     0.023 A 
ATOM     96  C   UNL A   1      41.821  26.107  35.611  1.00  0.00     0.012 A 
ATOM     97  C   UNL A   1      43.663  25.968  34.088  1.00  0.00     0.148 A 
ATOM     98  C   UNL A   1      42.010  24.761  35.959  1.00  0.00     0.002 A 
ATOM     99  C   UNL A   1      43.849  24.630  34.428  1.00  0.00     0.091 A 
ATOM    100  F   UNL A   1      44.576  26.539  33.294  1.00  0.00    -0.205 F 
ATOM    101  C   UNL A   1      43.005  24.013  35.348  1.00  0.00     0.022 A 
BRANCH  99 102
ATOM    102  S   UNL A   1      45.163  23.639  33.698  1.00  0.00     0.127 S 
ATOM    103  O   UNL A   1      46.357  24.289  34.236  1.00  0.00    -0.237 OA
ATOM    104  O   UNL A   1      44.891  22.312  34.253  1.00  0.00    -0.237 OA
ATOM    105  O   UNL A   1      44.979  23.737  32.258  1.00  0.00    -0.744 OA
ENDBRANCH  99 102
ENDBRANCH  72  95
ENDBRANCH  46  47
ENDBRANCH  38  41
ENDBRANCH  36  37
ENDBRANCH  35  36
ENDBRANCH   1  35
TORSDOF 18
ENDMDL
MODEL 2
REMARK VINA RESULT:     -13.4      6.099     10.242
REMARK SMILES Cc1cccc(N2C(=O)/C(=C/c3ccc(C(=O)NCCCCCCNC(=O)c4ccc(-c5c6nc(c(-c7cccc(S(=O)(=O)[O-])c7F)c7ccc([nH]7)c(-c7cccc(S(=O)(=O)[O-])c7F)c7nc(c(-c8cccc(S(=O)(=O)[O-])c8F)c8ccc5[nH]8)C=C7)C=C6)cc4)cc3)c3ccccc3C2=O)c1
REMARK SMILES IDX 22 1 21 2 20 3 19 4 18 5 16 6 17 7 15 9 12 10 13 11 92 12
REMARK SMILES IDX 14 13 91 14 11 15 7 16 8 17 99 18 9 19 10 20 98 21 100 22
REMARK SMILES IDX 93 23 97 24 94 25 96 26 95 27 6 28 1 29 2 30 3 31 101 32
REMARK SMILES IDX 4 33 5 34 23 35 24 36 25 37 26 38 27 40 28 41 29 42 90 43
REMARK SMILES IDX 30 44 89 45 31 46 32 47 33 48 83 49 34 50 88 51 82 52 84 53
REMARK SMILES IDX 35 54 87 55 81 56 80 57 36 59 68 60 48 61 67 62 49 63 52 64
REMARK SMILES IDX 66 65 85 66 50 67 51 68 65 70 86 71 53 72 37 73 38 74 46 75
REMARK SMILES IDX 39 76 41 77 47 78 40 79 42 80 43 81 44 82 45 83 69 84 70 85
REMARK SMILES IDX 78 86 71 87 73 88 79 89 72 90 74 91 75 92 76 93 77 94 54 95
REMARK SMILES IDX 55 96 63 97 56 98 58 99 64 100 57 101 59 102 60 103 61 104
REMARK SMILES IDX 62 105
REMARK H PARENT 18 8 25 39 84 58 52 69
REMARK Flexibility Score: inf
ROOT
ATOM      1  C   UNL A   1      37.238  23.362  25.312  1.00  0.00     0.002 C 
ENDROOT
BRANCH   1   2
ATOM      2  C   UNL A   1      35.831  22.749  25.349  1.00  0.00     0.002 C 
BRANCH   2   3
ATOM      3  C   UNL A   1      35.670  21.306  24.857  1.00  0.00     0.021 C 
BRANCH   3   4
ATOM      4  C   UNL A   1      34.604  20.450  25.539  1.00  0.00     0.116 C 
BRANCH   4   5
ATOM      5  N   UNL A   1      33.814  19.644  24.626  1.00  0.00    -0.352 N 
ATOM      6  C   UNL A   1      32.731  20.012  23.864  1.00  0.00     0.251 C 
ATOM      7  O   UNL A   1      32.161  19.187  23.155  1.00  0.00    -0.269 OA
ATOM      8  H   UNL A   1      34.092  18.704  24.540  1.00  0.00     0.163 HD
BRANCH   6   9
ATOM      9  C   UNL A   1      32.203  21.394  23.938  1.00  0.00     0.039 A 
ATOM     10  C   UNL A   1      30.995  23.916  23.863  1.00  0.00    -0.025 A 
ATOM     11  C   UNL A   1      31.821  23.501  22.812  1.00  0.00     0.009 A 
ATOM     12  C   UNL A   1      30.886  23.115  25.007  1.00  0.00     0.009 A 
ATOM     13  C   UNL A   1      32.425  22.242  22.849  1.00  0.00     0.014 A 
ATOM     14  C   UNL A   1      31.485  21.854  25.045  1.00  0.00     0.014 A 
BRANCH  10  15
ATOM     15  C   UNL A   1      30.255  25.177  23.727  1.00  0.00     0.022 C 
ATOM     16  N   UNL A   1      30.350  28.764  23.415  1.00  0.00    -0.242 N 
ATOM     17  C   UNL A   1      29.724  27.536  23.710  1.00  0.00     0.265 C 
ATOM     18  C   UNL A   1      31.757  28.865  23.390  1.00  0.00     0.265 C 
ATOM     19  O   UNL A   1      28.527  27.275  23.586  1.00  0.00    -0.268 OA
ATOM     20  C   UNL A   1      30.656  26.416  24.099  1.00  0.00     0.049 C 
ATOM     21  C   UNL A   1      32.507  27.973  24.306  1.00  0.00     0.048 A 
ATOM     22  O   UNL A   1      32.444  29.602  22.688  1.00  0.00    -0.268 OA
ATOM     23  C   UNL A   1      31.935  26.774  24.717  1.00  0.00    -0.000 A 
ATOM     24  C   UNL A   1      33.780  28.351  24.758  1.00  0.00     0.014 A 
ATOM     25  C   UNL A   1      32.606  26.002  25.678  1.00  0.00     0.010 A 
ATOM     26  C   UNL A   1      34.466  27.546  25.666  1.00  0.00     0.001 A 
ATOM     27  C   UNL A   1      33.872  26.379  26.138  1.00  0.00     0.001 A 
BRANCH  16  28
ATOM     28  C   UNL A   1      29.529  29.897  22.982  1.00  0.00     0.053 A 
ATOM     29  C   UNL A   1      27.942  31.242  19.748  1.00  0.00     0.044 C 
ATOM     30  C   UNL A   1      28.342  31.123  21.189  1.00  0.00    -0.049 A 
ATOM     31  C   UNL A   1      27.926  32.088  22.104  1.00  0.00     0.003 A 
ATOM     32  C   UNL A   1      29.116  30.036  21.639  1.00  0.00     0.030 A 
ATOM     33  C   UNL A   1      28.284  31.965  23.439  1.00  0.00     0.002 A 
ATOM     34  C   UNL A   1      29.070  30.887  23.867  1.00  0.00     0.027 A 
ENDBRANCH  16  28
ENDBRANCH  10  15
ENDBRANCH   6   9
ENDBRANCH   4   5
ENDBRANCH   3   4
ENDBRANCH   2   3
ENDBRANCH   1   2
BRANCH   1  35
ATOM     35  C   UNL A   1      37.591  24.360  26.413  1.00  0.00     0.021 C 
BRANCH  35  36
ATOM     36  C   UNL A   1      38.881  24.068  27.166  1.00  0.00     0.116 C 
BRANCH  36  37
ATOM     37  N   UNL A   1      39.716  23.048  26.557  1.00  0.00    -0.352 N 
ATOM     38  C   UNL A   1      41.097  22.942  26.532  1.00  0.00     0.251 C 
ATOM     39  H   UNL A   1      39.230  22.326  26.096  1.00  0.00     0.163 HD
ATOM     40  O   UNL A   1      41.606  22.099  25.797  1.00  0.00    -0.269 OA
BRANCH  38  41
ATOM     41  C   UNL A   1      41.928  23.737  27.473  1.00  0.00     0.039 A 
ATOM     42  C   UNL A   1      42.176  25.082  27.162  1.00  0.00     0.014 A 
ATOM     43  C   UNL A   1      42.627  23.134  28.513  1.00  0.00     0.014 A 
ATOM     44  C   UNL A   1      43.292  25.724  27.700  1.00  0.00     0.010 A 
ATOM     45  C   UNL A   1      43.785  23.722  28.969  1.00  0.00     0.010 A 
ATOM     46  C   UNL A   1      44.152  24.989  28.506  1.00  0.00    -0.014 A 
BRANCH  46  47
ATOM     47  C   UNL A   1      45.495  25.393  28.883  1.00  0.00     0.031 A 
ATOM     48  C   UNL A   1      46.650  25.002  28.060  1.00  0.00     0.074 A 
ATOM     49  C   UNL A   1      45.636  26.339  29.837  1.00  0.00     0.049 A 
ATOM     50  N   UNL A   1      47.874  25.140  28.437  1.00  0.00    -0.248 NA
ATOM     51  C   UNL A   1      46.510  24.407  26.741  1.00  0.00     0.031 C 
ATOM     52  C   UNL A   1      46.779  27.220  30.050  1.00  0.00     0.029 A 
ATOM     53  N   UNL A   1      44.837  26.541  30.965  1.00  0.00    -0.354 N 
ATOM     54  C   UNL A   1      48.672  24.936  27.334  1.00  0.00     0.074 A 
ATOM     55  C   UNL A   1      47.782  24.399  26.331  1.00  0.00     0.031 C 
ATOM     56  C   UNL A   1      46.767  27.638  31.324  1.00  0.00     0.029 A 
ATOM     57  C   UNL A   1      45.719  26.897  32.001  1.00  0.00     0.049 A 
ATOM     58  H   UNL A   1      43.858  26.453  31.022  1.00  0.00     0.167 HD
ATOM     59  C   UNL A   1      49.957  25.390  27.367  1.00  0.00     0.034 A 
ATOM     60  C   UNL A   1      45.870  26.172  33.148  1.00  0.00     0.034 A 
ATOM     61  C   UNL A   1      50.285  25.965  28.683  1.00  0.00     0.049 A 
ATOM     62  C   UNL A   1      47.301  25.716  33.400  1.00  0.00     0.074 A 
ATOM     63  C   UNL A   1      50.408  27.257  29.171  1.00  0.00     0.029 A 
ATOM     64  N   UNL A   1      50.298  25.135  29.794  1.00  0.00    -0.354 N 
ATOM     65  N   UNL A   1      48.318  25.979  32.627  1.00  0.00    -0.248 NA
ATOM     66  C   UNL A   1      47.674  24.845  34.511  1.00  0.00     0.031 C 
ATOM     67  C   UNL A   1      50.509  27.191  30.591  1.00  0.00     0.029 A 
ATOM     68  C   UNL A   1      50.462  25.861  30.963  1.00  0.00     0.049 A 
ATOM     69  H   UNL A   1      50.201  24.156  29.755  1.00  0.00     0.167 HD
ATOM     70  C   UNL A   1      49.401  25.216  32.998  1.00  0.00     0.074 A 
ATOM     71  C   UNL A   1      48.953  24.558  34.216  1.00  0.00     0.031 C 
ATOM     72  C   UNL A   1      50.537  25.138  32.228  1.00  0.00     0.034 A 
BRANCH  59  73
ATOM     73  C   UNL A   1      50.855  25.579  26.152  1.00  0.00     0.023 A 
ATOM     74  C   UNL A   1      52.077  24.867  26.135  1.00  0.00     0.012 A 
ATOM     75  C   UNL A   1      50.635  26.438  25.053  1.00  0.00     0.148 A 
ATOM     76  C   UNL A   1      53.065  25.082  25.168  1.00  0.00     0.002 A 
ATOM     77  C   UNL A   1      51.646  26.711  24.127  1.00  0.00     0.091 A 
ATOM     78  F   UNL A   1      49.417  26.935  24.829  1.00  0.00    -0.205 F 
ATOM     79  C   UNL A   1      52.868  26.037  24.185  1.00  0.00     0.022 A 
BRANCH  77  80
ATOM     80  S   UNL A   1      51.486  27.997  22.874  1.00  0.00     0.127 S 
ATOM     81  O   UNL A   1      52.844  28.066  22.331  1.00  0.00    -0.237 OA
ATOM     82  O   UNL A   1      50.495  27.430  21.961  1.00  0.00    -0.237 OA
ATOM     83  O   UNL A   1      51.072  29.204  23.582  1.00  0.00    -0.744 OA
ENDBRANCH  77  80
ENDBRANCH  59  73
BRANCH  60  84
ATOM     84  C   UNL A   1      44.638  25.419  33.533  1.00  0.00     0.023 A 
ATOM     85  C   UNL A   1      44.632  24.027  33.274  1.00  0.00     0.012 A 
ATOM     86  C   UNL A   1      43.720  25.938  34.464  1.00  0.00     0.148 A 
ATOM     87  C   UNL A   1      43.835  23.160  34.023  1.00  0.00     0.002 A 
ATOM     88  C   UNL A   1      42.920  25.066  35.201  1.00  0.00     0.091 A 
ATOM     89  F   UNL A   1      43.702  27.260  34.679  1.00  0.00    -0.205 F 
ATOM     90  C   UNL A   1      43.004  23.678  35.010  1.00  0.00     0.022 A 
BRANCH  88  91
ATOM     91  S   UNL A   1      41.855  25.664  36.521  1.00  0.00     0.127 S 
ATOM     92  O   UNL A   1      41.034  26.640  35.812  1.00  0.00    -0.237 OA
ATOM     93  O   UNL A   1      41.154  24.448  36.934  1.00  0.00    -0.237 OA
ATOM     94  O   UNL A   1      42.770  26.190  37.523  1.00  0.00    -0.744 OA
ENDBRANCH  88  91
ENDBRANCH  60  84
BRANCH  72  95
ATOM     95  C   UNL A   1      51.792  24.311  32.524  1.00  0.00     0.023 A 
ATOM     96  C   UNL A   1      53.091  24.784  32.269  1.00  0.00     0.012 A 
ATOM     97  C   UNL A   1      51.712  22.977  33.025  1.00  0.00     0.148 A 
ATOM     98  C   UNL A   1      54.236  24.052  32.617  1.00  0.00     0.002 A 
ATOM     99  C   UNL A   1      52.848  22.251  33.376  1.00  0.00     0.091 A 
ATOM    100  F   UNL A   1      50.530  22.357  33.106  1.00  0.00    -0.205 F 
ATOM    101  C   UNL A   1      54.116  22.798  33.197  1.00  0.00     0.022 A 
BRANCH  99 102
ATOM    102  S   UNL A   1      52.737  20.599  34.081  1.00  0.00     0.127 S 
ATOM    103  O   UNL A   1      53.722  20.672  35.161  1.00  0.00    -0.237 OA
ATOM    104  O   UNL A   1      51.345  20.550  34.530  1.00  0.00    -0.237 OA
ATOM    105  O   UNL A   1      53.050  19.682  32.995  1.00  0.00    -0.744 OA
ENDBRANCH  99 102
ENDBRANCH  72  95
ENDBRANCH  46  47
ENDBRANCH  38  41
ENDBRANCH  36  37
ENDBRANCH  35  36
ENDBRANCH   1  35
TORSDOF 18
ENDMDL
MODEL 3
REMARK VINA RESULT:     -12.9      4.438     10.798
REMARK SMILES Cc1cccc(N2C(=O)/C(=C/c3ccc(C(=O)NCCCCCCNC(=O)c4ccc(-c5c6nc(c(-c7cccc(S(=O)(=O)[O-])c7F)c7ccc([nH]7)c(-c7cccc(S(=O)(=O)[O-])c7F)c7nc(c(-c8cccc(S(=O)(=O)[O-])c8F)c8ccc5[nH]8)C=C7)C=C6)cc4)cc3)c3ccccc3C2=O)c1
REMARK SMILES IDX 22 1 21 2 20 3 19 4 18 5 16 6 17 7 15 9 12 10 13 11 92 12
REMARK SMILES IDX 14 13 91 14 11 15 7 16 8 17 99 18 9 19 10 20 98 21 100 22
REMARK SMILES IDX 93 23 97 24 94 25 96 26 95 27 6 28 1 29 2 30 3 31 101 32
REMARK SMILES IDX 4 33 5 34 23 35 24 36 25 37 26 38 27 40 28 41 29 42 90 43
REMARK SMILES IDX 30 44 89 45 31 46 32 47 33 48 83 49 34 50 88 51 82 52 84 53
REMARK SMILES IDX 35 54 87 55 81 56 80 57 36 59 68 60 48 61 67 62 49 63 52 64
REMARK SMILES IDX 66 65 85 66 50 67 51 68 65 70 86 71 53 72 37 73 38 74 46 75
REMARK SMILES IDX 39 76 41 77 47 78 40 79 42 80 43 81 44 82 45 83 69 84 70 85
REMARK SMILES IDX 78 86 71 87 73 88 79 89 72 90 74 91 75 92 76 93 77 94 54 95
REMARK SMILES IDX 55 96 63 97 56 98 58 99 64 100 57 101 59 102 60 103 61 104
REMARK SMILES IDX 62 105
REMARK H PARENT 18 8 25 39 84 58 52 69
REMARK Flexibility Score: inf
ROOT
ATOM      1  C   UNL A   1      39.821  26.624  28.370  1.00  0.00     0.002 C 
ENDROOT
BRANCH   1   2
ATOM      2  C   UNL A   1      39.156  25.628  27.410  1.00  0.00     0.002 C 
BRANCH   2   3
ATOM      3  C   UNL A   1      39.651  24.177  27.435  1.00  0.00     0.021 C 
BRANCH   3   4
ATOM      4  C   UNL A   1      39.981  23.527  26.092  1.00  0.00     0.116 C 
BRANCH   4   5
ATOM      5  N   UNL A   1      39.665  22.112  26.021  1.00  0.00    -0.352 N 
ATOM      6  C   UNL A   1      38.511  21.505  25.585  1.00  0.00     0.251 C 
ATOM      7  O   UNL A   1      38.403  20.282  25.614  1.00  0.00    -0.269 OA
ATOM      8  H   UNL A   1      40.375  21.503  26.325  1.00  0.00     0.163 HD
BRANCH   6   9
ATOM      9  C   UNL A   1      37.361  22.324  25.135  1.00  0.00     0.039 A 
ATOM     10  C   UNL A   1      35.375  24.120  24.329  1.00  0.00    -0.025 A 
ATOM     11  C   UNL A   1      35.704  23.998  25.683  1.00  0.00     0.009 A 
ATOM     12  C   UNL A   1      35.953  23.244  23.400  1.00  0.00     0.009 A 
ATOM     13  C   UNL A   1      36.695  23.101  26.087  1.00  0.00     0.014 A 
ATOM     14  C   UNL A   1      36.947  22.349  23.800  1.00  0.00     0.014 A 
BRANCH  10  15
ATOM     15  C   UNL A   1      34.440  25.176  23.918  1.00  0.00     0.022 C 
ATOM     16  N   UNL A   1      31.309  26.873  24.459  1.00  0.00    -0.242 N 
ATOM     17  C   UNL A   1      32.429  26.498  23.688  1.00  0.00     0.265 C 
ATOM     18  C   UNL A   1      30.945  26.131  25.602  1.00  0.00     0.265 C 
ATOM     19  O   UNL A   1      32.953  27.156  22.788  1.00  0.00    -0.268 OA
ATOM     20  C   UNL A   1      33.100  25.215  24.110  1.00  0.00     0.049 C 
ATOM     21  C   UNL A   1      31.245  24.680  25.582  1.00  0.00     0.048 A 
ATOM     22  O   UNL A   1      30.412  26.548  26.628  1.00  0.00    -0.268 OA
ATOM     23  C   UNL A   1      32.282  24.205  24.786  1.00  0.00    -0.000 A 
ATOM     24  C   UNL A   1      30.474  23.799  26.354  1.00  0.00     0.014 A 
ATOM     25  C   UNL A   1      32.473  22.819  24.685  1.00  0.00     0.010 A 
ATOM     26  C   UNL A   1      30.712  22.427  26.293  1.00  0.00     0.001 A 
ATOM     27  C   UNL A   1      31.701  21.935  25.446  1.00  0.00     0.001 A 
BRANCH  16  28
ATOM     28  C   UNL A   1      30.621  28.128  24.152  1.00  0.00     0.053 A 
ATOM     29  C   UNL A   1      27.459  29.311  22.311  1.00  0.00     0.044 C 
ATOM     30  C   UNL A   1      28.733  29.338  23.101  1.00  0.00    -0.049 A 
ATOM     31  C   UNL A   1      29.251  30.555  23.539  1.00  0.00     0.003 A 
ATOM     32  C   UNL A   1      29.409  28.145  23.428  1.00  0.00     0.030 A 
ATOM     33  C   UNL A   1      30.421  30.574  24.284  1.00  0.00     0.002 A 
ATOM     34  C   UNL A   1      31.091  29.380  24.584  1.00  0.00     0.027 A 
ENDBRANCH  16  28
ENDBRANCH  10  15
ENDBRANCH   6   9
ENDBRANCH   4   5
ENDBRANCH   3   4
ENDBRANCH   2   3
ENDBRANCH   1   2
BRANCH   1  35
ATOM     35  C   UNL A   1      39.059  26.974  29.646  1.00  0.00     0.021 C 
BRANCH  35  36
ATOM     36  C   UNL A   1      38.666  28.438  29.788  1.00  0.00     0.116 C 
BRANCH  36  37
ATOM     37  N   UNL A   1      37.937  28.979  28.654  1.00  0.00    -0.352 N 
ATOM     38  C   UNL A   1      37.275  30.189  28.530  1.00  0.00     0.251 C 
ATOM     39  H   UNL A   1      37.911  28.402  27.856  1.00  0.00     0.163 HD
ATOM     40  O   UNL A   1      36.560  30.368  27.547  1.00  0.00    -0.269 OA
BRANCH  38  41
ATOM     41  C   UNL A   1      37.534  31.288  29.497  1.00  0.00     0.039 A 
ATOM     42  C   UNL A   1      38.121  32.467  29.016  1.00  0.00     0.014 A 
ATOM     43  C   UNL A   1      37.412  31.092  30.869  1.00  0.00     0.014 A 
ATOM     44  C   UNL A   1      38.815  33.304  29.890  1.00  0.00     0.010 A 
ATOM     45  C   UNL A   1      38.180  31.853  31.722  1.00  0.00     0.010 A 
ATOM     46  C   UNL A   1      38.936  32.915  31.219  1.00  0.00    -0.014 A 
BRANCH  46  47
ATOM     47  C   UNL A   1      39.870  33.485  32.175  1.00  0.00     0.031 A 
ATOM     48  C   UNL A   1      39.377  34.174  33.378  1.00  0.00     0.074 A 
ATOM     49  C   UNL A   1      41.174  33.145  32.079  1.00  0.00     0.049 A 
ATOM     50  N   UNL A   1      40.127  34.878  34.153  1.00  0.00    -0.248 NA
ATOM     51  C   UNL A   1      37.985  34.131  33.795  1.00  0.00     0.031 C 
ATOM     52  C   UNL A   1      42.180  33.185  33.133  1.00  0.00     0.029 A 
ATOM     53  N   UNL A   1      41.908  32.897  30.917  1.00  0.00    -0.354 N 
ATOM     54  C   UNL A   1      39.410  35.135  35.300  1.00  0.00     0.074 A 
ATOM     55  C   UNL A   1      38.060  34.725  34.989  1.00  0.00     0.031 C 
ATOM     56  C   UNL A   1      43.393  33.263  32.565  1.00  0.00     0.029 A 
ATOM     57  C   UNL A   1      43.181  33.451  31.142  1.00  0.00     0.049 A 
ATOM     58  H   UNL A   1      41.598  32.429  30.107  1.00  0.00     0.167 HD
ATOM     59  C   UNL A   1      40.087  35.525  36.418  1.00  0.00     0.034 A 
ATOM     60  C   UNL A   1      43.715  34.453  30.382  1.00  0.00     0.034 A 
ATOM     61  C   UNL A   1      41.524  35.687  36.140  1.00  0.00     0.049 A 
ATOM     62  C   UNL A   1      44.104  35.687  31.184  1.00  0.00     0.074 A 
ATOM     63  C   UNL A   1      42.653  34.927  36.403  1.00  0.00     0.029 A 
ATOM     64  N   UNL A   1      41.929  36.679  35.260  1.00  0.00    -0.354 N 
ATOM     65  N   UNL A   1      43.969  35.815  32.475  1.00  0.00    -0.248 NA
ATOM     66  C   UNL A   1      44.599  36.914  30.566  1.00  0.00     0.031 C 
ATOM     67  C   UNL A   1      43.747  35.483  35.678  1.00  0.00     0.029 A 
ATOM     68  C   UNL A   1      43.285  36.589  34.988  1.00  0.00     0.049 A 
ATOM     69  H   UNL A   1      41.329  37.359  34.877  1.00  0.00     0.167 HD
ATOM     70  C   UNL A   1      44.173  37.126  32.842  1.00  0.00     0.074 A 
ATOM     71  C   UNL A   1      44.611  37.760  31.609  1.00  0.00     0.031 C 
ATOM     72  C   UNL A   1      43.888  37.583  34.107  1.00  0.00     0.034 A 
BRANCH  59  73
ATOM     73  C   UNL A   1      39.531  35.503  37.835  1.00  0.00     0.023 A 
ATOM     74  C   UNL A   1      39.524  36.725  38.546  1.00  0.00     0.012 A 
ATOM     75  C   UNL A   1      39.071  34.377  38.554  1.00  0.00     0.148 A 
ATOM     76  C   UNL A   1      39.205  36.810  39.905  1.00  0.00     0.002 A 
ATOM     77  C   UNL A   1      38.822  34.443  39.929  1.00  0.00     0.091 A 
ATOM     78  F   UNL A   1      38.776  33.248  37.908  1.00  0.00    -0.205 F 
ATOM     79  C   UNL A   1      38.893  35.660  40.610  1.00  0.00     0.022 A 
BRANCH  77  80
ATOM     80  S   UNL A   1      38.491  32.974  40.920  1.00  0.00     0.127 S 
ATOM     81  O   UNL A   1      38.481  33.519  42.280  1.00  0.00    -0.237 OA
ATOM     82  O   UNL A   1      37.184  32.545  40.427  1.00  0.00    -0.237 OA
ATOM     83  O   UNL A   1      39.594  32.054  40.663  1.00  0.00    -0.744 OA
ENDBRANCH  77  80
ENDBRANCH  59  73
BRANCH  60  84
ATOM     84  C   UNL A   1      43.213  34.453  28.975  1.00  0.00     0.023 A 
ATOM     85  C   UNL A   1      42.235  35.422  28.646  1.00  0.00     0.012 A 
ATOM     86  C   UNL A   1      43.938  33.843  27.936  1.00  0.00     0.148 A 
ATOM     87  C   UNL A   1      42.083  35.874  27.334  1.00  0.00     0.002 A 
ATOM     88  C   UNL A   1      43.774  34.292  26.626  1.00  0.00     0.091 A 
ATOM     89  F   UNL A   1      44.836  32.899  28.248  1.00  0.00    -0.205 F 
ATOM     90  C   UNL A   1      42.878  35.332  26.330  1.00  0.00     0.022 A 
BRANCH  88  91
ATOM     91  S   UNL A   1      44.797  33.665  25.288  1.00  0.00     0.127 S 
ATOM     92  O   UNL A   1      46.121  34.122  25.696  1.00  0.00    -0.237 OA
ATOM     93  O   UNL A   1      44.586  32.220  25.381  1.00  0.00    -0.237 OA
ATOM     94  O   UNL A   1      44.243  34.270  24.085  1.00  0.00    -0.744 OA
ENDBRANCH  88  91
ENDBRANCH  60  84
BRANCH  72  95
ATOM     95  C   UNL A   1      44.052  39.015  34.624  1.00  0.00     0.023 A 
ATOM     96  C   UNL A   1      44.643  39.312  35.864  1.00  0.00     0.012 A 
ATOM     97  C   UNL A   1      43.556  40.138  33.897  1.00  0.00     0.148 A 
ATOM     98  C   UNL A   1      44.861  40.629  36.295  1.00  0.00     0.002 A 
ATOM     99  C   UNL A   1      43.776  41.447  34.320  1.00  0.00     0.091 A 
ATOM    100  F   UNL A   1      42.795  39.956  32.812  1.00  0.00    -0.205 F 
ATOM    101  C   UNL A   1      44.454  41.698  35.510  1.00  0.00     0.022 A 
BRANCH  99 102
ATOM    102  S   UNL A   1      43.216  42.861  33.358  1.00  0.00     0.127 S 
ATOM    103  O   UNL A   1      43.436  43.963  34.295  1.00  0.00    -0.237 OA
ATOM    104  O   UNL A   1      44.133  42.839  32.218  1.00  0.00    -0.237 OA
ATOM    105  O   UNL A   1      41.828  42.585  33.018  1.00  0.00    -0.744 OA
ENDBRANCH  99 102
ENDBRANCH  72  95
ENDBRANCH  46  47
ENDBRANCH  38  41
ENDBRANCH  36  37
ENDBRANCH  35  36
ENDBRANCH   1  35
TORSDOF 18
ENDMDL
