MODEL 1
REMARK VINA RESULT:     -12.1      0.000      0.000
REMARK SMILES C[C@H]1[C@H](C(=O)NCCCCCCNC(=O)c2ccc(-c3c4nc(c(-c5cccc(S(=O)(=O)[O-])c5F)c5ccc([nH]5)c(-c5cccc(S(=O)(=O)[O-])c5F)c5nc(c(-c6cccc(S(=O)(=O)[O-])c6F)c6ccc3[nH]6)C=C5)C=C4)cc2)CC[N@@H+]1Cc1ccc(C(F)(F)F)cc1
REMARK SMILES IDX 9 1 8 2 7 3 6 4 4 5 5 6 3 8 1 9 2 10 81 11 79 12 80 13 82 15
REMARK SMILES IDX 83 16 84 17 92 18 85 19 91 20 86 21 87 22 88 23 89 24 90 25
REMARK SMILES IDX 10 26 11 27 12 28 13 29 14 30 15 32 16 33 17 34 78 35 18 36
REMARK SMILES IDX 77 37 19 38 20 39 21 40 71 41 22 42 76 43 70 44 72 45 23 46
REMARK SMILES IDX 75 47 69 48 68 49 24 51 56 52 36 53 55 54 37 55 40 56 54 57
REMARK SMILES IDX 73 58 38 59 39 60 53 62 74 63 41 64 25 65 26 66 34 67 27 68
REMARK SMILES IDX 29 69 35 70 28 71 30 72 31 73 32 74 33 75 57 76 58 77 66 78
REMARK SMILES IDX 59 79 61 80 67 81 60 82 62 83 63 84 64 85 65 86 42 87 43 88
REMARK SMILES IDX 51 89 44 90 46 91 52 92 45 93 47 94 48 95 49 96 50 97
REMARK H PARENT 6 7 81 14 13 31 72 50 40 61
REMARK Flexibility Score: inf
ROOT
ATOM      1  C   UNL A   1      32.246  29.706  26.864  1.00  0.00     0.002 C 
ENDROOT
BRANCH   1   2
ATOM      2  C   UNL A   1      31.500  28.514  27.485  1.00  0.00     0.021 C 
BRANCH   2   3
ATOM      3  C   UNL A   1      31.291  27.296  26.571  1.00  0.00     0.116 C 
BRANCH   3   4
ATOM      4  N   UNL A   1      32.082  27.338  25.358  1.00  0.00    -0.356 N 
ATOM      5  C   UNL A   1      32.977  26.459  24.838  1.00  0.00     0.229 C 
ATOM      6  O   UNL A   1      33.341  26.688  23.676  1.00  0.00    -0.275 OA
ATOM      7  H   UNL A   1      31.947  28.148  24.815  1.00  0.00     0.163 HD
BRANCH   5   8
ATOM      8  C   UNL A   1      33.523  25.216  25.542  1.00  0.00     0.142 C 
ATOM      9  C   UNL A   1      31.813  23.615  26.450  1.00  0.00     0.076 C 
ATOM     10  C   UNL A   1      32.835  23.853  25.330  1.00  0.00     0.193 C 
ATOM     11  N   UNL A   1      33.901  22.832  25.468  1.00  0.00    -0.328 N 
ATOM     12  C   UNL A   1      34.998  24.928  25.337  1.00  0.00     0.081 C 
ATOM     13  C   UNL A   1      35.112  23.521  25.910  1.00  0.00     0.263 C 
ATOM     14  H   UNL A   1      33.605  22.167  26.181  1.00  0.00     0.348 HD
BRANCH  11  15
ATOM     15  C   UNL A   1      34.066  21.854  24.373  1.00  0.00     0.299 C 
BRANCH  15  16
ATOM     16  C   UNL A   1      33.988  20.378  24.720  1.00  0.00     0.006 A 
ATOM     17  C   UNL A   1      32.765  19.789  25.048  1.00  0.00     0.010 A 
ATOM     18  C   UNL A   1      35.122  19.554  24.715  1.00  0.00     0.010 A 
ATOM     19  C   UNL A   1      32.658  18.399  25.149  1.00  0.00     0.013 A 
ATOM     20  C   UNL A   1      35.005  18.164  24.739  1.00  0.00     0.013 A 
ATOM     21  C   UNL A   1      33.753  17.567  24.883  1.00  0.00     0.056 A 
BRANCH  21  22
ATOM     22  C   UNL A   1      33.580  16.091  24.620  1.00  0.00     0.416 C 
ATOM     23  F   UNL A   1      33.851  15.720  23.341  1.00  0.00    -0.166 F 
ATOM     24  F   UNL A   1      34.434  15.356  25.398  1.00  0.00    -0.166 F 
ATOM     25  F   UNL A   1      32.338  15.619  24.907  1.00  0.00    -0.166 F 
ENDBRANCH  21  22
ENDBRANCH  15  16
ENDBRANCH  11  15
ENDBRANCH   5   8
ENDBRANCH   3   4
ENDBRANCH   2   3
ENDBRANCH   1   2
BRANCH   1  26
ATOM     26  C   UNL A   1      31.422  30.782  26.136  1.00  0.00     0.002 C 
BRANCH  26  27
ATOM     27  C   UNL A   1      31.428  32.233  26.641  1.00  0.00     0.021 C 
BRANCH  27  28
ATOM     28  C   UNL A   1      32.658  32.765  27.377  1.00  0.00     0.116 C 
BRANCH  28  29
ATOM     29  N   UNL A   1      32.525  34.184  27.661  1.00  0.00    -0.352 N 
ATOM     30  C   UNL A   1      33.015  34.911  28.723  1.00  0.00     0.251 C 
ATOM     31  H   UNL A   1      32.011  34.699  26.999  1.00  0.00     0.163 HD
ATOM     32  O   UNL A   1      32.489  35.990  28.992  1.00  0.00    -0.269 OA
BRANCH  30  33
ATOM     33  C   UNL A   1      34.176  34.448  29.530  1.00  0.00     0.039 A 
ATOM     34  C   UNL A   1      35.462  34.535  28.978  1.00  0.00     0.014 A 
ATOM     35  C   UNL A   1      34.005  33.800  30.757  1.00  0.00     0.014 A 
ATOM     36  C   UNL A   1      36.561  33.978  29.646  1.00  0.00     0.010 A 
ATOM     37  C   UNL A   1      35.111  33.291  31.448  1.00  0.00     0.010 A 
ATOM     38  C   UNL A   1      36.397  33.342  30.886  1.00  0.00    -0.014 A 
BRANCH  38  39
ATOM     39  C   UNL A   1      37.542  32.681  31.578  1.00  0.00     0.031 A 
ATOM     40  C   UNL A   1      38.266  31.529  30.919  1.00  0.00     0.074 A 
ATOM     41  C   UNL A   1      37.904  33.065  32.817  1.00  0.00     0.049 A 
ATOM     42  N   UNL A   1      39.247  30.794  31.379  1.00  0.00    -0.248 NA
ATOM     43  C   UNL A   1      37.809  31.137  29.576  1.00  0.00     0.031 C 
ATOM     44  C   UNL A   1      37.257  34.121  33.596  1.00  0.00     0.029 A 
ATOM     45  N   UNL A   1      38.890  32.593  33.652  1.00  0.00    -0.354 N 
ATOM     46  C   UNL A   1      39.496  29.832  30.406  1.00  0.00     0.074 A 
ATOM     47  C   UNL A   1      38.543  30.058  29.341  1.00  0.00     0.031 C 
ATOM     48  C   UNL A   1      37.858  34.214  34.795  1.00  0.00     0.029 A 
ATOM     49  C   UNL A   1      38.918  33.213  34.880  1.00  0.00     0.049 A 
ATOM     50  H   UNL A   1      39.516  31.878  33.395  1.00  0.00     0.167 HD
ATOM     51  C   UNL A   1      40.446  28.866  30.382  1.00  0.00     0.034 A 
ATOM     52  C   UNL A   1      39.704  32.999  35.955  1.00  0.00     0.034 A 
ATOM     53  C   UNL A   1      41.434  28.676  31.410  1.00  0.00     0.049 A 
ATOM     54  C   UNL A   1      40.784  31.952  35.885  1.00  0.00     0.074 A 
ATOM     55  C   UNL A   1      42.496  27.787  31.430  1.00  0.00     0.029 A 
ATOM     56  N   UNL A   1      41.484  29.384  32.600  1.00  0.00    -0.354 N 
ATOM     57  N   UNL A   1      41.099  31.157  34.892  1.00  0.00    -0.248 NA
ATOM     58  C   UNL A   1      41.641  31.798  37.070  1.00  0.00     0.031 C 
ATOM     59  C   UNL A   1      43.178  27.948  32.642  1.00  0.00     0.029 A 
ATOM     60  C   UNL A   1      42.552  28.948  33.367  1.00  0.00     0.049 A 
ATOM     61  H   UNL A   1      40.853  30.092  32.862  1.00  0.00     0.167 HD
ATOM     62  C   UNL A   1      42.208  30.433  35.318  1.00  0.00     0.074 A 
ATOM     63  C   UNL A   1      42.524  30.901  36.653  1.00  0.00     0.031 C 
ATOM     64  C   UNL A   1      42.891  29.457  34.671  1.00  0.00     0.034 A 
BRANCH  51  65
ATOM     65  C   UNL A   1      40.506  27.971  29.168  1.00  0.00     0.023 A 
ATOM     66  C   UNL A   1      39.582  26.916  29.038  1.00  0.00     0.012 A 
ATOM     67  C   UNL A   1      41.433  28.207  28.132  1.00  0.00     0.148 A 
ATOM     68  C   UNL A   1      39.601  26.084  27.918  1.00  0.00     0.002 A 
ATOM     69  C   UNL A   1      41.418  27.400  26.999  1.00  0.00     0.091 A 
ATOM     70  F   UNL A   1      42.317  29.205  28.278  1.00  0.00    -0.205 F 
ATOM     71  C   UNL A   1      40.512  26.332  26.896  1.00  0.00     0.022 A 
BRANCH  69  72
ATOM     72  S   UNL A   1      42.501  27.686  25.593  1.00  0.00     0.127 S 
ATOM     73  O   UNL A   1      42.021  28.981  25.110  1.00  0.00    -0.237 OA
ATOM     74  O   UNL A   1      43.822  27.724  26.221  1.00  0.00    -0.237 OA
ATOM     75  O   UNL A   1      42.291  26.564  24.691  1.00  0.00    -0.744 OA
ENDBRANCH  69  72
ENDBRANCH  51  65
BRANCH  52  76
ATOM     76  C   UNL A   1      39.544  33.850  37.171  1.00  0.00     0.023 A 
ATOM     77  C   UNL A   1      40.034  35.169  37.156  1.00  0.00     0.012 A 
ATOM     78  C   UNL A   1      38.885  33.374  38.320  1.00  0.00     0.148 A 
ATOM     79  C   UNL A   1      39.894  35.992  38.275  1.00  0.00     0.002 A 
ATOM     80  C   UNL A   1      38.702  34.216  39.411  1.00  0.00     0.091 A 
ATOM     81  F   UNL A   1      38.441  32.109  38.320  1.00  0.00    -0.205 F 
ATOM     82  C   UNL A   1      39.219  35.521  39.396  1.00  0.00     0.022 A 
BRANCH  80  83
ATOM     83  S   UNL A   1      37.728  33.733  40.843  1.00  0.00     0.127 S 
ATOM     84  O   UNL A   1      37.545  35.016  41.524  1.00  0.00    -0.237 OA
ATOM     85  O   UNL A   1      36.517  33.194  40.217  1.00  0.00    -0.237 OA
ATOM     86  O   UNL A   1      38.527  32.749  41.548  1.00  0.00    -0.744 OA
ENDBRANCH  80  83
ENDBRANCH  52  76
BRANCH  64  87
ATOM     87  C   UNL A   1      44.068  28.837  35.378  1.00  0.00     0.023 A 
ATOM     88  C   UNL A   1      45.365  29.335  35.141  1.00  0.00     0.012 A 
ATOM     89  C   UNL A   1      43.884  27.819  36.334  1.00  0.00     0.148 A 
ATOM     90  C   UNL A   1      46.463  28.809  35.822  1.00  0.00     0.002 A 
ATOM     91  C   UNL A   1      44.976  27.332  37.042  1.00  0.00     0.091 A 
ATOM     92  F   UNL A   1      42.646  27.345  36.533  1.00  0.00    -0.205 F 
ATOM     93  C   UNL A   1      46.267  27.817  36.780  1.00  0.00     0.022 A 
BRANCH  91  94
ATOM     94  S   UNL A   1      44.807  26.121  38.359  1.00  0.00     0.127 S 
ATOM     95  O   UNL A   1      44.433  24.920  37.615  1.00  0.00    -0.237 OA
ATOM     96  O   UNL A   1      46.154  26.090  38.930  1.00  0.00    -0.237 OA
ATOM     97  O   UNL A   1      43.786  26.646  39.257  1.00  0.00    -0.744 OA
ENDBRANCH  91  94
ENDBRANCH  64  87
ENDBRANCH  38  39
ENDBRANCH  30  33
ENDBRANCH  28  29
ENDBRANCH  27  28
ENDBRANCH  26  27
ENDBRANCH   1  26
TORSDOF 19
ENDMDL
MODEL 2
REMARK VINA RESULT:     -12.0      5.591      8.863
REMARK SMILES C[C@H]1[C@H](C(=O)NCCCCCCNC(=O)c2ccc(-c3c4nc(c(-c5cccc(S(=O)(=O)[O-])c5F)c5ccc([nH]5)c(-c5cccc(S(=O)(=O)[O-])c5F)c5nc(c(-c6cccc(S(=O)(=O)[O-])c6F)c6ccc3[nH]6)C=C5)C=C4)cc2)CC[N@@H+]1Cc1ccc(C(F)(F)F)cc1
REMARK SMILES IDX 9 1 8 2 7 3 6 4 4 5 5 6 3 8 1 9 2 10 81 11 79 12 80 13 82 15
REMARK SMILES IDX 83 16 84 17 92 18 85 19 91 20 86 21 87 22 88 23 89 24 90 25
REMARK SMILES IDX 10 26 11 27 12 28 13 29 14 30 15 32 16 33 17 34 78 35 18 36
REMARK SMILES IDX 77 37 19 38 20 39 21 40 71 41 22 42 76 43 70 44 72 45 23 46
REMARK SMILES IDX 75 47 69 48 68 49 24 51 56 52 36 53 55 54 37 55 40 56 54 57
REMARK SMILES IDX 73 58 38 59 39 60 53 62 74 63 41 64 25 65 26 66 34 67 27 68
REMARK SMILES IDX 29 69 35 70 28 71 30 72 31 73 32 74 33 75 57 76 58 77 66 78
REMARK SMILES IDX 59 79 61 80 67 81 60 82 62 83 63 84 64 85 65 86 42 87 43 88
REMARK SMILES IDX 51 89 44 90 46 91 52 92 45 93 47 94 48 95 49 96 50 97
REMARK H PARENT 6 7 81 14 13 31 72 50 40 61
REMARK Flexibility Score: inf
ROOT
ATOM      1  C   UNL A   1      34.923  23.615  23.428  1.00  0.00     0.002 C 
ENDROOT
BRANCH   1   2
ATOM      2  C   UNL A   1      33.867  23.362  22.339  1.00  0.00     0.021 C 
BRANCH   2   3
ATOM      3  C   UNL A   1      32.766  24.425  22.205  1.00  0.00     0.116 C 
BRANCH   3   4
ATOM      4  N   UNL A   1      33.242  25.692  21.690  1.00  0.00    -0.356 N 
ATOM      5  C   UNL A   1      33.461  26.885  22.301  1.00  0.00     0.229 C 
ATOM      6  O   UNL A   1      34.065  27.731  21.626  1.00  0.00    -0.275 OA
ATOM      7  H   UNL A   1      33.443  25.688  20.726  1.00  0.00     0.163 HD
BRANCH   5   8
ATOM      8  C   UNL A   1      33.067  27.241  23.735  1.00  0.00     0.142 C 
ATOM      9  C   UNL A   1      31.170  28.866  23.994  1.00  0.00     0.076 C 
ATOM     10  C   UNL A   1      31.579  27.391  24.105  1.00  0.00     0.193 C 
ATOM     11  N   UNL A   1      31.471  27.000  25.530  1.00  0.00    -0.328 N 
ATOM     12  C   UNL A   1      33.637  26.349  24.823  1.00  0.00     0.081 C 
ATOM     13  C   UNL A   1      32.828  26.800  26.033  1.00  0.00     0.263 C 
ATOM     14  H   UNL A   1      31.028  27.769  26.032  1.00  0.00     0.348 HD
BRANCH  11  15
ATOM     15  C   UNL A   1      30.480  25.964  25.889  1.00  0.00     0.299 C 
BRANCH  15  16
ATOM     16  C   UNL A   1      30.944  24.520  25.932  1.00  0.00     0.006 A 
ATOM     17  C   UNL A   1      30.600  23.632  24.910  1.00  0.00     0.010 A 
ATOM     18  C   UNL A   1      31.736  24.026  26.978  1.00  0.00     0.010 A 
ATOM     19  C   UNL A   1      31.206  22.375  24.836  1.00  0.00     0.013 A 
ATOM     20  C   UNL A   1      32.399  22.803  26.867  1.00  0.00     0.013 A 
ATOM     21  C   UNL A   1      32.196  21.993  25.751  1.00  0.00     0.056 A 
BRANCH  21  22
ATOM     22  C   UNL A   1      33.114  20.826  25.482  1.00  0.00     0.416 C 
ATOM     23  F   UNL A   1      33.653  20.819  24.233  1.00  0.00    -0.166 F 
ATOM     24  F   UNL A   1      34.183  20.841  26.336  1.00  0.00    -0.166 F 
ATOM     25  F   UNL A   1      32.531  19.610  25.660  1.00  0.00    -0.166 F 
ENDBRANCH  21  22
ENDBRANCH  15  16
ENDBRANCH  11  15
ENDBRANCH   5   8
ENDBRANCH   3   4
ENDBRANCH   2   3
ENDBRANCH   1   2
BRANCH   1  26
ATOM     26  C   UNL A   1      36.326  23.016  23.234  1.00  0.00     0.002 C 
BRANCH  26  27
ATOM     27  C   UNL A   1      36.708  21.701  23.932  1.00  0.00     0.021 C 
BRANCH  27  28
ATOM     28  C   UNL A   1      36.887  21.684  25.451  1.00  0.00     0.116 C 
BRANCH  28  29
ATOM     29  N   UNL A   1      37.929  20.750  25.844  1.00  0.00    -0.352 N 
ATOM     30  C   UNL A   1      39.239  20.998  26.188  1.00  0.00     0.251 C 
ATOM     31  H   UNL A   1      37.659  19.804  25.870  1.00  0.00     0.163 HD
ATOM     32  O   UNL A   1      40.053  20.079  26.114  1.00  0.00    -0.269 OA
BRANCH  30  33
ATOM     33  C   UNL A   1      39.690  22.330  26.673  1.00  0.00     0.039 A 
ATOM     34  C   UNL A   1      39.157  23.484  26.081  1.00  0.00     0.014 A 
ATOM     35  C   UNL A   1      40.732  22.459  27.597  1.00  0.00     0.014 A 
ATOM     36  C   UNL A   1      39.662  24.750  26.409  1.00  0.00     0.010 A 
ATOM     37  C   UNL A   1      41.199  23.728  27.962  1.00  0.00     0.010 A 
ATOM     38  C   UNL A   1      40.695  24.886  27.349  1.00  0.00    -0.014 A 
BRANCH  38  39
ATOM     39  C   UNL A   1      41.294  26.218  27.657  1.00  0.00     0.031 A 
ATOM     40  C   UNL A   1      42.712  26.530  27.238  1.00  0.00     0.074 A 
ATOM     41  C   UNL A   1      40.598  27.131  28.362  1.00  0.00     0.049 A 
ATOM     42  N   UNL A   1      43.423  27.606  27.458  1.00  0.00    -0.248 NA
ATOM     43  C   UNL A   1      43.430  25.483  26.494  1.00  0.00     0.031 C 
ATOM     44  C   UNL A   1      39.243  26.943  28.881  1.00  0.00     0.029 A 
ATOM     45  N   UNL A   1      40.944  28.393  28.786  1.00  0.00    -0.354 N 
ATOM     46  C   UNL A   1      44.681  27.352  26.920  1.00  0.00     0.074 A 
ATOM     47  C   UNL A   1      44.644  26.007  26.387  1.00  0.00     0.031 C 
ATOM     48  C   UNL A   1      38.875  28.045  29.557  1.00  0.00     0.029 A 
ATOM     49  C   UNL A   1      39.972  29.010  29.538  1.00  0.00     0.049 A 
ATOM     50  H   UNL A   1      41.808  28.814  28.571  1.00  0.00     0.167 HD
ATOM     51  C   UNL A   1      45.760  28.168  26.847  1.00  0.00     0.034 A 
ATOM     52  C   UNL A   1      39.963  30.212  30.148  1.00  0.00     0.034 A 
ATOM     53  C   UNL A   1      45.783  29.526  27.321  1.00  0.00     0.049 A 
ATOM     54  C   UNL A   1      41.157  31.120  30.011  1.00  0.00     0.074 A 
ATOM     55  C   UNL A   1      46.797  30.462  27.205  1.00  0.00     0.029 A 
ATOM     56  N   UNL A   1      44.745  30.145  28.000  1.00  0.00    -0.354 N 
ATOM     57  N   UNL A   1      42.278  30.916  29.364  1.00  0.00    -0.248 NA
ATOM     58  C   UNL A   1      41.070  32.439  30.657  1.00  0.00     0.031 C 
ATOM     59  C   UNL A   1      46.377  31.642  27.831  1.00  0.00     0.029 A 
ATOM     60  C   UNL A   1      45.096  31.446  28.318  1.00  0.00     0.049 A 
ATOM     61  H   UNL A   1      43.885  29.720  28.223  1.00  0.00     0.167 HD
ATOM     62  C   UNL A   1      43.015  32.088  29.497  1.00  0.00     0.074 A 
ATOM     63  C   UNL A   1      42.202  33.007  30.267  1.00  0.00     0.031 C 
ATOM     64  C   UNL A   1      44.259  32.371  29.038  1.00  0.00     0.034 A 
BRANCH  51  65
ATOM     65  C   UNL A   1      46.999  27.633  26.170  1.00  0.00     0.023 A 
ATOM     66  C   UNL A   1      47.205  27.888  24.800  1.00  0.00     0.012 A 
ATOM     67  C   UNL A   1      47.984  26.933  26.897  1.00  0.00     0.148 A 
ATOM     68  C   UNL A   1      48.349  27.422  24.152  1.00  0.00     0.002 A 
ATOM     69  C   UNL A   1      49.142  26.509  26.253  1.00  0.00     0.091 A 
ATOM     70  F   UNL A   1      47.765  26.684  28.196  1.00  0.00    -0.205 F 
ATOM     71  C   UNL A   1      49.320  26.742  24.880  1.00  0.00     0.022 A 
BRANCH  69  72
ATOM     72  S   UNL A   1      50.487  25.692  27.121  1.00  0.00     0.127 S 
ATOM     73  O   UNL A   1      51.482  25.552  26.058  1.00  0.00    -0.237 OA
ATOM     74  O   UNL A   1      50.832  26.673  28.152  1.00  0.00    -0.237 OA
ATOM     75  O   UNL A   1      49.935  24.446  27.632  1.00  0.00    -0.744 OA
ENDBRANCH  69  72
ENDBRANCH  51  65
BRANCH  52  76
ATOM     76  C   UNL A   1      38.746  30.660  30.886  1.00  0.00     0.023 A 
ATOM     77  C   UNL A   1      38.688  30.493  32.284  1.00  0.00     0.012 A 
ATOM     78  C   UNL A   1      37.666  31.273  30.223  1.00  0.00     0.148 A 
ATOM     79  C   UNL A   1      37.567  30.907  33.004  1.00  0.00     0.002 A 
ATOM     80  C   UNL A   1      36.575  31.732  30.953  1.00  0.00     0.091 A 
ATOM     81  F   UNL A   1      37.733  31.407  28.891  1.00  0.00    -0.205 F 
ATOM     82  C   UNL A   1      36.517  31.536  32.341  1.00  0.00     0.022 A 
BRANCH  80  83
ATOM     83  S   UNL A   1      35.242  32.671  30.197  1.00  0.00     0.127 S 
ATOM     84  O   UNL A   1      34.402  32.979  31.355  1.00  0.00    -0.237 OA
ATOM     85  O   UNL A   1      35.960  33.820  29.638  1.00  0.00    -0.237 OA
ATOM     86  O   UNL A   1      34.655  31.791  29.204  1.00  0.00    -0.744 OA
ENDBRANCH  80  83
ENDBRANCH  52  76
BRANCH  64  87
ATOM     87  C   UNL A   1      44.820  33.739  29.329  1.00  0.00     0.023 A 
ATOM     88  C   UNL A   1      45.487  33.973  30.549  1.00  0.00     0.012 A 
ATOM     89  C   UNL A   1      44.758  34.766  28.367  1.00  0.00     0.148 A 
ATOM     90  C   UNL A   1      46.057  35.218  30.818  1.00  0.00     0.002 A 
ATOM     91  C   UNL A   1      45.369  35.989  28.623  1.00  0.00     0.091 A 
ATOM     92  F   UNL A   1      44.104  34.531  27.221  1.00  0.00    -0.205 F 
ATOM     93  C   UNL A   1      46.008  36.221  29.851  1.00  0.00     0.022 A 
BRANCH  91  94
ATOM     94  S   UNL A   1      45.437  37.306  27.402  1.00  0.00     0.127 S 
ATOM     95  O   UNL A   1      44.023  37.632  27.236  1.00  0.00    -0.237 OA
ATOM     96  O   UNL A   1      46.223  38.330  28.091  1.00  0.00    -0.237 OA
ATOM     97  O   UNL A   1      46.090  36.732  26.232  1.00  0.00    -0.744 OA
ENDBRANCH  91  94
ENDBRANCH  64  87
ENDBRANCH  38  39
ENDBRANCH  30  33
ENDBRANCH  28  29
ENDBRANCH  27  28
ENDBRANCH  26  27
ENDBRANCH   1  26
TORSDOF 19
ENDMDL
MODEL 3
REMARK VINA RESULT:     -12.0      3.404      8.797
REMARK SMILES C[C@H]1[C@H](C(=O)NCCCCCCNC(=O)c2ccc(-c3c4nc(c(-c5cccc(S(=O)(=O)[O-])c5F)c5ccc([nH]5)c(-c5cccc(S(=O)(=O)[O-])c5F)c5nc(c(-c6cccc(S(=O)(=O)[O-])c6F)c6ccc3[nH]6)C=C5)C=C4)cc2)CC[N@@H+]1Cc1ccc(C(F)(F)F)cc1
REMARK SMILES IDX 9 1 8 2 7 3 6 4 4 5 5 6 3 8 1 9 2 10 81 11 79 12 80 13 82 15
REMARK SMILES IDX 83 16 84 17 92 18 85 19 91 20 86 21 87 22 88 23 89 24 90 25
REMARK SMILES IDX 10 26 11 27 12 28 13 29 14 30 15 32 16 33 17 34 78 35 18 36
REMARK SMILES IDX 77 37 19 38 20 39 21 40 71 41 22 42 76 43 70 44 72 45 23 46
REMARK SMILES IDX 75 47 69 48 68 49 24 51 56 52 36 53 55 54 37 55 40 56 54 57
REMARK SMILES IDX 73 58 38 59 39 60 53 62 74 63 41 64 25 65 26 66 34 67 27 68
REMARK SMILES IDX 29 69 35 70 28 71 30 72 31 73 32 74 33 75 57 76 58 77 66 78
REMARK SMILES IDX 59 79 61 80 67 81 60 82 62 83 63 84 64 85 65 86 42 87 43 88
REMARK SMILES IDX 51 89 44 90 46 91 52 92 45 93 47 94 48 95 49 96 50 97
REMARK H PARENT 6 7 81 14 13 31 72 50 40 61
REMARK Flexibility Score: inf
ROOT
ATOM      1  C   UNL A   1      32.147  28.836  26.328  1.00  0.00     0.002 C 
ENDROOT
BRANCH   1   2
ATOM      2  C   UNL A   1      31.491  27.620  27.004  1.00  0.00     0.021 C 
BRANCH   2   3
ATOM      3  C   UNL A   1      31.302  26.376  26.122  1.00  0.00     0.116 C 
BRANCH   3   4
ATOM      4  N   UNL A   1      31.311  25.132  26.865  1.00  0.00    -0.356 N 
ATOM      5  C   UNL A   1      32.129  24.050  26.794  1.00  0.00     0.229 C 
ATOM      6  O   UNL A   1      32.002  23.221  27.707  1.00  0.00    -0.275 OA
ATOM      7  H   UNL A   1      30.600  25.059  27.541  1.00  0.00     0.163 HD
BRANCH   5   8
ATOM      8  C   UNL A   1      33.196  23.802  25.727  1.00  0.00     0.142 C 
ATOM      9  C   UNL A   1      32.756  21.908  24.138  1.00  0.00     0.076 C 
ATOM     10  C   UNL A   1      32.771  23.434  24.292  1.00  0.00     0.193 C 
ATOM     11  N   UNL A   1      33.830  23.967  23.403  1.00  0.00    -0.328 N 
ATOM     12  C   UNL A   1      34.223  24.904  25.544  1.00  0.00     0.081 C 
ATOM     13  C   UNL A   1      34.908  24.464  24.256  1.00  0.00     0.263 C 
ATOM     14  H   UNL A   1      34.173  23.197  22.830  1.00  0.00     0.348 HD
BRANCH  11  15
ATOM     15  C   UNL A   1      33.420  24.845  22.288  1.00  0.00     0.299 C 
BRANCH  15  16
ATOM     16  C   UNL A   1      32.500  26.011  22.602  1.00  0.00     0.006 A 
ATOM     17  C   UNL A   1      33.011  27.305  22.724  1.00  0.00     0.010 A 
ATOM     18  C   UNL A   1      31.118  25.842  22.768  1.00  0.00     0.010 A 
ATOM     19  C   UNL A   1      32.144  28.399  22.792  1.00  0.00     0.013 A 
ATOM     20  C   UNL A   1      30.250  26.935  22.759  1.00  0.00     0.013 A 
ATOM     21  C   UNL A   1      30.756  28.232  22.694  1.00  0.00     0.056 A 
BRANCH  21  22
ATOM     22  C   UNL A   1      29.839  29.392  22.392  1.00  0.00     0.416 C 
ATOM     23  F   UNL A   1      30.231  30.147  21.332  1.00  0.00    -0.166 F 
ATOM     24  F   UNL A   1      28.583  28.948  22.075  1.00  0.00    -0.166 F 
ATOM     25  F   UNL A   1      29.664  30.247  23.435  1.00  0.00    -0.166 F 
ENDBRANCH  21  22
ENDBRANCH  15  16
ENDBRANCH  11  15
ENDBRANCH   5   8
ENDBRANCH   3   4
ENDBRANCH   2   3
ENDBRANCH   1   2
BRANCH   1  26
ATOM     26  C   UNL A   1      31.246  30.010  25.910  1.00  0.00     0.002 C 
BRANCH  26  27
ATOM     27  C   UNL A   1      31.601  31.444  26.331  1.00  0.00     0.021 C 
BRANCH  27  28
ATOM     28  C   UNL A   1      32.704  31.669  27.367  1.00  0.00     0.116 C 
BRANCH  28  29
ATOM     29  N   UNL A   1      33.137  33.056  27.377  1.00  0.00    -0.352 N 
ATOM     30  C   UNL A   1      34.201  33.634  28.032  1.00  0.00     0.251 C 
ATOM     31  H   UNL A   1      32.591  33.672  26.836  1.00  0.00     0.163 HD
ATOM     32  O   UNL A   1      34.183  34.847  28.233  1.00  0.00    -0.269 OA
BRANCH  30  33
ATOM     33  C   UNL A   1      35.382  32.843  28.474  1.00  0.00     0.039 A 
ATOM     34  C   UNL A   1      35.178  31.562  29.007  1.00  0.00     0.014 A 
ATOM     35  C   UNL A   1      36.665  33.396  28.505  1.00  0.00     0.014 A 
ATOM     36  C   UNL A   1      36.246  30.847  29.566  1.00  0.00     0.010 A 
ATOM     37  C   UNL A   1      37.741  32.660  29.016  1.00  0.00     0.010 A 
ATOM     38  C   UNL A   1      37.540  31.391  29.584  1.00  0.00    -0.014 A 
BRANCH  38  39
ATOM     39  C   UNL A   1      38.674  30.675  30.238  1.00  0.00     0.031 A 
ATOM     40  C   UNL A   1      39.092  31.038  31.644  1.00  0.00     0.074 A 
ATOM     41  C   UNL A   1      39.372  29.742  29.562  1.00  0.00     0.049 A 
ATOM     42  N   UNL A   1      40.081  30.569  32.362  1.00  0.00    -0.248 NA
ATOM     43  C   UNL A   1      38.308  32.083  32.322  1.00  0.00     0.031 C 
ATOM     44  C   UNL A   1      39.117  29.334  28.180  1.00  0.00     0.029 A 
ATOM     45  N   UNL A   1      40.456  28.984  29.938  1.00  0.00    -0.354 N 
ATOM     46  C   UNL A   1      40.066  31.286  33.553  1.00  0.00     0.074 A 
ATOM     47  C   UNL A   1      38.985  32.243  33.451  1.00  0.00     0.031 C 
ATOM     48  C   UNL A   1      40.021  28.406  27.822  1.00  0.00     0.029 A 
ATOM     49  C   UNL A   1      40.932  28.166  28.939  1.00  0.00     0.049 A 
ATOM     50  H   UNL A   1      40.855  29.024  30.837  1.00  0.00     0.167 HD
ATOM     51  C   UNL A   1      40.855  31.146  34.646  1.00  0.00     0.034 A 
ATOM     52  C   UNL A   1      41.983  27.321  28.920  1.00  0.00     0.034 A 
ATOM     53  C   UNL A   1      41.890  30.155  34.776  1.00  0.00     0.049 A 
ATOM     54  C   UNL A   1      42.815  27.148  30.163  1.00  0.00     0.074 A 
ATOM     55  C   UNL A   1      42.679  29.874  35.879  1.00  0.00     0.029 A 
ATOM     56  N   UNL A   1      42.283  29.285  33.772  1.00  0.00    -0.354 N 
ATOM     57  N   UNL A   1      42.684  27.728  31.331  1.00  0.00    -0.248 NA
ATOM     58  C   UNL A   1      43.918  26.178  30.098  1.00  0.00     0.031 C 
ATOM     59  C   UNL A   1      43.560  28.842  35.535  1.00  0.00     0.029 A 
ATOM     60  C   UNL A   1      43.308  28.470  34.225  1.00  0.00     0.049 A 
ATOM     61  H   UNL A   1      41.891  29.251  32.870  1.00  0.00     0.167 HD
ATOM     62  C   UNL A   1      43.663  27.171  32.147  1.00  0.00     0.074 A 
ATOM     63  C   UNL A   1      44.365  26.190  31.346  1.00  0.00     0.031 C 
ATOM     64  C   UNL A   1      43.964  27.459  33.437  1.00  0.00     0.034 A 
BRANCH  51  65
ATOM     65  C   UNL A   1      40.588  32.051  35.824  1.00  0.00     0.023 A 
ATOM     66  C   UNL A   1      41.466  33.121  36.089  1.00  0.00     0.012 A 
ATOM     67  C   UNL A   1      39.445  31.881  36.632  1.00  0.00     0.148 A 
ATOM     68  C   UNL A   1      41.235  33.985  37.160  1.00  0.00     0.002 A 
ATOM     69  C   UNL A   1      39.199  32.772  37.671  1.00  0.00     0.091 A 
ATOM     70  F   UNL A   1      38.630  30.848  36.378  1.00  0.00    -0.205 F 
ATOM     71  C   UNL A   1      40.098  33.816  37.943  1.00  0.00     0.022 A 
BRANCH  69  72
ATOM     72  S   UNL A   1      37.721  32.685  38.690  1.00  0.00     0.127 S 
ATOM     73  O   UNL A   1      36.674  32.995  37.718  1.00  0.00    -0.237 OA
ATOM     74  O   UNL A   1      37.738  31.294  39.144  1.00  0.00    -0.237 OA
ATOM     75  O   UNL A   1      37.905  33.669  39.747  1.00  0.00    -0.744 OA
ENDBRANCH  69  72
ENDBRANCH  51  65
BRANCH  52  76
ATOM     76  C   UNL A   1      42.263  26.515  27.696  1.00  0.00     0.023 A 
ATOM     77  C   UNL A   1      42.966  27.105  26.628  1.00  0.00     0.012 A 
ATOM     78  C   UNL A   1      41.869  25.167  27.597  1.00  0.00     0.148 A 
ATOM     79  C   UNL A   1      43.250  26.375  25.473  1.00  0.00     0.002 A 
ATOM     80  C   UNL A   1      42.202  24.430  26.466  1.00  0.00     0.091 A 
ATOM     81  F   UNL A   1      41.186  24.628  28.617  1.00  0.00    -0.205 F 
ATOM     82  C   UNL A   1      42.879  25.037  25.396  1.00  0.00     0.022 A 
BRANCH  80  83
ATOM     83  S   UNL A   1      41.880  22.666  26.341  1.00  0.00     0.127 S 
ATOM     84  O   UNL A   1      42.520  22.336  25.067  1.00  0.00    -0.237 OA
ATOM     85  O   UNL A   1      42.570  22.148  27.526  1.00  0.00    -0.237 OA
ATOM     86  O   UNL A   1      40.436  22.526  26.380  1.00  0.00    -0.744 OA
ENDBRANCH  80  83
ENDBRANCH  52  76
BRANCH  64  87
ATOM     87  C   UNL A   1      45.088  26.691  34.084  1.00  0.00     0.023 A 
ATOM     88  C   UNL A   1      46.410  27.164  33.972  1.00  0.00     0.012 A 
ATOM     89  C   UNL A   1      44.826  25.548  34.866  1.00  0.00     0.148 A 
ATOM     90  C   UNL A   1      47.459  26.496  34.605  1.00  0.00     0.002 A 
ATOM     91  C   UNL A   1      45.870  24.914  35.531  1.00  0.00     0.091 A 
ATOM     92  F   UNL A   1      43.565  25.102  34.945  1.00  0.00    -0.205 F 
ATOM     93  C   UNL A   1      47.187  25.378  35.392  1.00  0.00     0.022 A 
BRANCH  91  94
ATOM     94  S   UNL A   1      45.602  23.526  36.640  1.00  0.00     0.127 S 
ATOM     95  O   UNL A   1      46.972  23.142  36.974  1.00  0.00    -0.237 OA
ATOM     96  O   UNL A   1      44.856  24.142  37.737  1.00  0.00    -0.237 OA
ATOM     97  O   UNL A   1      44.845  22.543  35.875  1.00  0.00    -0.744 OA
ENDBRANCH  91  94
ENDBRANCH  64  87
ENDBRANCH  38  39
ENDBRANCH  30  33
ENDBRANCH  28  29
ENDBRANCH  27  28
ENDBRANCH  26  27
ENDBRANCH   1  26
TORSDOF 19
ENDMDL
