MODEL 1
REMARK VINA RESULT:     -11.0      0.000      0.000
REMARK SMILES Cc1ccc(NC(=O)C[NH+]2CCC(C(=O)NCCCCCCNC(=O)c3ccc(-c4c5nc(c(-c6cccc(S(=O)(=O)[O-])c6F)c6ccc([nH]6)c(-c6cccc(S(=O)(=O)[O-])c6F)c6nc(c(-c7cccc(S(=O)(=O)[O-])c7F)c7ccc4[nH]7)C=C6)C=C5)cc3)CC2)cc1Cl
REMARK SMILES IDX 19 1 18 2 17 3 16 4 14 5 15 6 13 8 10 9 11 10 90 11 12 13
REMARK SMILES IDX 89 14 9 15 7 16 6 17 8 19 5 20 1 21 2 22 3 23 92 24 4 25
REMARK SMILES IDX 91 26 93 27 20 28 21 29 22 30 23 31 24 32 25 34 26 35 27 36
REMARK SMILES IDX 88 37 28 38 87 39 29 40 30 41 31 42 81 43 32 44 86 45 80 46
REMARK SMILES IDX 82 47 33 48 85 49 79 50 78 51 34 53 66 54 46 55 65 56 47 57
REMARK SMILES IDX 50 58 64 59 83 60 48 61 49 62 63 64 84 65 51 66 35 67 36 68
REMARK SMILES IDX 44 69 37 70 39 71 45 72 38 73 40 74 41 75 42 76 43 77 67 78
REMARK SMILES IDX 68 79 76 80 69 81 71 82 77 83 70 84 72 85 73 86 74 87 75 88
REMARK SMILES IDX 52 89 53 90 61 91 54 92 56 93 62 94 55 95 57 96 58 97 59 98
REMARK SMILES IDX 60 99
REMARK H PARENT 16 7 10 12 6 18 23 33 82 52 50 63
REMARK Flexibility Score: inf
ROOT
ATOM      1  C   UNL A   1      31.028  28.811  24.668  1.00  0.00     0.002 C 
ENDROOT
BRANCH   1   2
ATOM      2  C   UNL A   1      31.365  27.691  23.681  1.00  0.00     0.021 C 
BRANCH   2   3
ATOM      3  C   UNL A   1      30.240  26.683  23.492  1.00  0.00     0.116 C 
BRANCH   3   4
ATOM      4  N   UNL A   1      29.657  26.311  24.774  1.00  0.00    -0.356 N 
ATOM      5  C   UNL A   1      30.058  25.404  25.705  1.00  0.00     0.223 C 
ATOM      6  O   UNL A   1      29.352  25.246  26.704  1.00  0.00    -0.275 OA
ATOM      7  H   UNL A   1      28.835  26.800  25.007  1.00  0.00     0.163 HD
BRANCH   5   8
ATOM      8  C   UNL A   1      31.366  24.647  25.559  1.00  0.00     0.089 C 
ATOM      9  N   UNL A   1      32.764  22.194  26.255  1.00  0.00    -0.327 N 
ATOM     10  C   UNL A   1      33.277  23.461  26.771  1.00  0.00     0.263 C 
ATOM     11  C   UNL A   1      32.234  22.362  24.908  1.00  0.00     0.263 C 
ATOM     12  H   UNL A   1      31.992  21.919  26.862  1.00  0.00     0.348 HD
ATOM     13  C   UNL A   1      32.132  24.478  26.878  1.00  0.00     0.075 C 
ATOM     14  C   UNL A   1      31.102  23.354  24.797  1.00  0.00     0.075 C 
BRANCH   9  15
ATOM     15  C   UNL A   1      33.736  21.071  26.353  1.00  0.00     0.363 C 
BRANCH  15  16
ATOM     16  C   UNL A   1      34.429  20.671  25.036  1.00  0.00     0.279 C 
ATOM     17  N   UNL A   1      35.698  21.083  24.697  1.00  0.00    -0.321 N 
ATOM     18  H   UNL A   1      35.997  20.804  23.801  1.00  0.00     0.170 HD
ATOM     19  O   UNL A   1      33.879  19.875  24.262  1.00  0.00    -0.268 OA
BRANCH  17  20
ATOM     20  C   UNL A   1      36.636  21.838  25.423  1.00  0.00     0.042 A 
ATOM     21  C   UNL A   1      39.622  24.745  26.516  1.00  0.00     0.046 C 
ATOM     22  C   UNL A   1      38.574  23.688  26.291  1.00  0.00    -0.032 A 
ATOM     23  C   UNL A   1      37.233  24.072  26.155  1.00  0.00     0.007 A 
ATOM     24  C   UNL A   1      38.903  22.337  26.103  1.00  0.00     0.046 A 
ATOM     25  C   UNL A   1      36.264  23.146  25.754  1.00  0.00     0.026 A 
ATOM     26  C   UNL A   1      37.935  21.412  25.692  1.00  0.00     0.047 A 
ATOM     27  Cl  UNL A   1      40.531  21.778  26.250  1.00  0.00    -0.084 Cl
ENDBRANCH  17  20
ENDBRANCH  15  16
ENDBRANCH   9  15
ENDBRANCH   5   8
ENDBRANCH   3   4
ENDBRANCH   2   3
ENDBRANCH   1   2
BRANCH   1  28
ATOM     28  C   UNL A   1      31.782  28.746  26.000  1.00  0.00     0.002 C 
BRANCH  28  29
ATOM     29  C   UNL A   1      33.173  28.107  25.931  1.00  0.00     0.021 C 
BRANCH  29  30
ATOM     30  C   UNL A   1      34.333  29.060  26.207  1.00  0.00     0.116 C 
BRANCH  30  31
ATOM     31  N   UNL A   1      33.881  30.409  26.502  1.00  0.00    -0.352 N 
ATOM     32  C   UNL A   1      34.307  31.280  27.470  1.00  0.00     0.251 C 
ATOM     33  H   UNL A   1      33.163  30.747  25.921  1.00  0.00     0.163 HD
ATOM     34  O   UNL A   1      33.687  32.325  27.661  1.00  0.00    -0.269 OA
BRANCH  32  35
ATOM     35  C   UNL A   1      35.492  30.960  28.295  1.00  0.00     0.039 A 
ATOM     36  C   UNL A   1      35.420  29.871  29.166  1.00  0.00     0.014 A 
ATOM     37  C   UNL A   1      36.652  31.738  28.238  1.00  0.00     0.014 A 
ATOM     38  C   UNL A   1      36.525  29.539  29.952  1.00  0.00     0.010 A 
ATOM     39  C   UNL A   1      37.776  31.366  28.974  1.00  0.00     0.010 A 
ATOM     40  C   UNL A   1      37.719  30.270  29.847  1.00  0.00    -0.014 A 
BRANCH  40  41
ATOM     41  C   UNL A   1      38.910  29.882  30.643  1.00  0.00     0.031 A 
ATOM     42  C   UNL A   1      39.154  30.477  32.003  1.00  0.00     0.074 A 
ATOM     43  C   UNL A   1      39.802  29.021  30.116  1.00  0.00     0.049 A 
ATOM     44  N   UNL A   1      40.121  30.228  32.849  1.00  0.00    -0.248 NA
ATOM     45  C   UNL A   1      38.202  31.501  32.468  1.00  0.00     0.031 C 
ATOM     46  C   UNL A   1      39.731  28.453  28.767  1.00  0.00     0.029 A 
ATOM     47  N   UNL A   1      40.951  28.486  30.640  1.00  0.00    -0.354 N 
ATOM     48  C   UNL A   1      39.907  31.071  33.933  1.00  0.00     0.074 A 
ATOM     49  C   UNL A   1      38.743  31.872  33.621  1.00  0.00     0.031 C 
ATOM     50  C   UNL A   1      40.785  27.645  28.574  1.00  0.00     0.029 A 
ATOM     51  C   UNL A   1      41.613  27.646  29.777  1.00  0.00     0.049 A 
ATOM     52  H   UNL A   1      41.271  28.685  31.550  1.00  0.00     0.167 HD
ATOM     53  C   UNL A   1      40.590  31.143  35.100  1.00  0.00     0.034 A 
ATOM     54  C   UNL A   1      42.753  26.947  29.937  1.00  0.00     0.034 A 
ATOM     55  C   UNL A   1      41.725  30.320  35.424  1.00  0.00     0.049 A 
ATOM     56  C   UNL A   1      43.453  26.993  31.268  1.00  0.00     0.074 A 
ATOM     57  C   UNL A   1      42.445  30.269  36.603  1.00  0.00     0.029 A 
ATOM     58  N   UNL A   1      42.305  29.401  34.562  1.00  0.00    -0.354 N 
ATOM     59  N   UNL A   1      43.136  27.670  32.344  1.00  0.00    -0.248 NA
ATOM     60  C   UNL A   1      44.640  26.140  31.424  1.00  0.00     0.031 C 
ATOM     61  C   UNL A   1      43.467  29.324  36.454  1.00  0.00     0.029 A 
ATOM     62  C   UNL A   1      43.372  28.775  35.184  1.00  0.00     0.049 A 
ATOM     63  H   UNL A   1      42.003  29.219  33.643  1.00  0.00     0.167 HD
ATOM     64  C   UNL A   1      44.064  27.307  33.312  1.00  0.00     0.074 A 
ATOM     65  C   UNL A   1      44.936  26.323  32.703  1.00  0.00     0.031 C 
ATOM     66  C   UNL A   1      44.200  27.762  34.582  1.00  0.00     0.034 A 
BRANCH  53  67
ATOM     67  C   UNL A   1      40.077  32.096  36.150  1.00  0.00     0.023 A 
ATOM     68  C   UNL A   1      40.677  33.367  36.273  1.00  0.00     0.012 A 
ATOM     69  C   UNL A   1      38.976  31.770  36.965  1.00  0.00     0.148 A 
ATOM     70  C   UNL A   1      40.211  34.286  37.213  1.00  0.00     0.002 A 
ATOM     71  C   UNL A   1      38.491  32.708  37.871  1.00  0.00     0.091 A 
ATOM     72  F   UNL A   1      38.430  30.551  36.849  1.00  0.00    -0.205 F 
ATOM     73  C   UNL A   1      39.113  33.961  38.003  1.00  0.00     0.022 A 
BRANCH  71  74
ATOM     74  S   UNL A   1      37.037  32.417  38.885  1.00  0.00     0.127 S 
ATOM     75  O   UNL A   1      37.402  33.095  40.128  1.00  0.00    -0.237 OA
ATOM     76  O   UNL A   1      35.985  33.084  38.115  1.00  0.00    -0.237 OA
ATOM     77  O   UNL A   1      36.896  30.971  38.979  1.00  0.00    -0.744 OA
ENDBRANCH  71  74
ENDBRANCH  53  67
BRANCH  54  78
ATOM     78  C   UNL A   1      43.255  26.083  28.833  1.00  0.00     0.023 A 
ATOM     79  C   UNL A   1      42.762  24.770  28.700  1.00  0.00     0.012 A 
ATOM     80  C   UNL A   1      44.188  26.564  27.895  1.00  0.00     0.148 A 
ATOM     81  C   UNL A   1      43.215  23.941  27.673  1.00  0.00     0.002 A 
ATOM     82  C   UNL A   1      44.593  25.751  26.841  1.00  0.00     0.091 A 
ATOM     83  F   UNL A   1      44.658  27.810  28.046  1.00  0.00    -0.205 F 
ATOM     84  C   UNL A   1      44.121  24.434  26.737  1.00  0.00     0.022 A 
BRANCH  82  85
ATOM     85  S   UNL A   1      45.646  26.363  25.520  1.00  0.00     0.127 S 
ATOM     86  O   UNL A   1      44.852  27.472  24.995  1.00  0.00    -0.237 OA
ATOM     87  O   UNL A   1      46.852  26.762  26.249  1.00  0.00    -0.237 OA
ATOM     88  O   UNL A   1      45.839  25.235  24.624  1.00  0.00    -0.744 OA
ENDBRANCH  82  85
ENDBRANCH  54  78
BRANCH  66  89
ATOM     89  C   UNL A   1      45.324  27.191  35.407  1.00  0.00     0.023 A 
ATOM     90  C   UNL A   1      46.588  27.812  35.385  1.00  0.00     0.012 A 
ATOM     91  C   UNL A   1      45.116  26.074  36.241  1.00  0.00     0.148 A 
ATOM     92  C   UNL A   1      47.639  27.308  36.149  1.00  0.00     0.002 A 
ATOM     93  C   UNL A   1      46.156  25.605  37.035  1.00  0.00     0.091 A 
ATOM     94  F   UNL A   1      43.913  25.482  36.233  1.00  0.00    -0.205 F 
ATOM     95  C   UNL A   1      47.421  26.214  36.982  1.00  0.00     0.022 A 
BRANCH  93  96
ATOM     96  S   UNL A   1      45.935  24.257  38.201  1.00  0.00     0.127 S 
ATOM     97  O   UNL A   1      45.028  24.854  39.179  1.00  0.00    -0.237 OA
ATOM     98  O   UNL A   1      45.335  23.214  37.368  1.00  0.00    -0.237 OA
ATOM     99  O   UNL A   1      47.270  23.937  38.692  1.00  0.00    -0.744 OA
ENDBRANCH  93  96
ENDBRANCH  66  89
ENDBRANCH  40  41
ENDBRANCH  32  35
ENDBRANCH  30  31
ENDBRANCH  29  30
ENDBRANCH  28  29
ENDBRANCH   1  28
TORSDOF 19
ENDMDL
MODEL 2
REMARK VINA RESULT:     -11.0      2.717      4.450
REMARK SMILES Cc1ccc(NC(=O)C[NH+]2CCC(C(=O)NCCCCCCNC(=O)c3ccc(-c4c5nc(c(-c6cccc(S(=O)(=O)[O-])c6F)c6ccc([nH]6)c(-c6cccc(S(=O)(=O)[O-])c6F)c6nc(c(-c7cccc(S(=O)(=O)[O-])c7F)c7ccc4[nH]7)C=C6)C=C5)cc3)CC2)cc1Cl
REMARK SMILES IDX 19 1 18 2 17 3 16 4 14 5 15 6 13 8 10 9 11 10 90 11 12 13
REMARK SMILES IDX 89 14 9 15 7 16 6 17 8 19 5 20 1 21 2 22 3 23 92 24 4 25
REMARK SMILES IDX 91 26 93 27 20 28 21 29 22 30 23 31 24 32 25 34 26 35 27 36
REMARK SMILES IDX 88 37 28 38 87 39 29 40 30 41 31 42 81 43 32 44 86 45 80 46
REMARK SMILES IDX 82 47 33 48 85 49 79 50 78 51 34 53 66 54 46 55 65 56 47 57
REMARK SMILES IDX 50 58 64 59 83 60 48 61 49 62 63 64 84 65 51 66 35 67 36 68
REMARK SMILES IDX 44 69 37 70 39 71 45 72 38 73 40 74 41 75 42 76 43 77 67 78
REMARK SMILES IDX 68 79 76 80 69 81 71 82 77 83 70 84 72 85 73 86 74 87 75 88
REMARK SMILES IDX 52 89 53 90 61 91 54 92 56 93 62 94 55 95 57 96 58 97 59 98
REMARK SMILES IDX 60 99
REMARK H PARENT 16 7 10 12 6 18 23 33 82 52 50 63
REMARK Flexibility Score: inf
ROOT
ATOM      1  C   UNL A   1      35.517  33.167  28.425  1.00  0.00     0.002 C 
ENDROOT
BRANCH   1   2
ATOM      2  C   UNL A   1      34.585  32.022  28.830  1.00  0.00     0.021 C 
BRANCH   2   3
ATOM      3  C   UNL A   1      34.479  30.921  27.785  1.00  0.00     0.116 C 
BRANCH   3   4
ATOM      4  N   UNL A   1      33.186  30.255  27.863  1.00  0.00    -0.356 N 
ATOM      5  C   UNL A   1      32.657  29.247  27.118  1.00  0.00     0.223 C 
ATOM      6  O   UNL A   1      31.504  28.886  27.365  1.00  0.00    -0.275 OA
ATOM      7  H   UNL A   1      32.595  30.591  28.576  1.00  0.00     0.163 HD
BRANCH   5   8
ATOM      8  C   UNL A   1      33.475  28.537  26.054  1.00  0.00     0.089 C 
ATOM      9  N   UNL A   1      33.323  26.799  23.728  1.00  0.00    -0.327 N 
ATOM     10  C   UNL A   1      34.006  26.309  24.923  1.00  0.00     0.263 C 
ATOM     11  C   UNL A   1      33.559  28.225  23.545  1.00  0.00     0.263 C 
ATOM     12  H   UNL A   1      32.323  26.666  23.886  1.00  0.00     0.348 HD
ATOM     13  C   UNL A   1      33.440  27.007  26.167  1.00  0.00     0.075 C 
ATOM     14  C   UNL A   1      33.090  29.092  24.688  1.00  0.00     0.075 C 
BRANCH   9  15
ATOM     15  C   UNL A   1      33.618  26.007  22.503  1.00  0.00     0.363 C 
BRANCH  15  16
ATOM     16  C   UNL A   1      32.399  25.367  21.813  1.00  0.00     0.279 C 
ATOM     17  N   UNL A   1      31.764  24.243  22.295  1.00  0.00    -0.321 N 
ATOM     18  H   UNL A   1      31.035  23.905  21.726  1.00  0.00     0.170 HD
ATOM     19  O   UNL A   1      31.889  25.909  20.823  1.00  0.00    -0.268 OA
BRANCH  17  20
ATOM     20  C   UNL A   1      31.987  23.504  23.469  1.00  0.00     0.042 A 
ATOM     21  C   UNL A   1      33.253  22.327  27.416  1.00  0.00     0.046 C 
ATOM     22  C   UNL A   1      32.731  22.597  26.030  1.00  0.00    -0.032 A 
ATOM     23  C   UNL A   1      31.629  23.448  25.867  1.00  0.00     0.007 A 
ATOM     24  C   UNL A   1      33.375  22.113  24.881  1.00  0.00     0.046 A 
ATOM     25  C   UNL A   1      31.240  23.874  24.593  1.00  0.00     0.026 A 
ATOM     26  C   UNL A   1      32.991  22.547  23.605  1.00  0.00     0.047 A 
ATOM     27  Cl  UNL A   1      34.740  21.060  24.990  1.00  0.00    -0.084 Cl
ENDBRANCH  17  20
ENDBRANCH  15  16
ENDBRANCH   9  15
ENDBRANCH   5   8
ENDBRANCH   3   4
ENDBRANCH   2   3
ENDBRANCH   1   2
BRANCH   1  28
ATOM     28  C   UNL A   1      34.807  34.432  27.930  1.00  0.00     0.002 C 
BRANCH  28  29
ATOM     29  C   UNL A   1      33.496  34.767  28.649  1.00  0.00     0.021 C 
BRANCH  29  30
ATOM     30  C   UNL A   1      33.520  36.055  29.466  1.00  0.00     0.116 C 
BRANCH  30  31
ATOM     31  N   UNL A   1      32.594  36.017  30.585  1.00  0.00    -0.352 N 
ATOM     32  C   UNL A   1      32.713  35.387  31.795  1.00  0.00     0.251 C 
ATOM     33  H   UNL A   1      31.756  36.516  30.454  1.00  0.00     0.163 HD
ATOM     34  O   UNL A   1      31.746  35.341  32.554  1.00  0.00    -0.269 OA
BRANCH  32  35
ATOM     35  C   UNL A   1      33.989  34.747  32.183  1.00  0.00     0.039 A 
ATOM     36  C   UNL A   1      33.976  33.394  32.527  1.00  0.00     0.014 A 
ATOM     37  C   UNL A   1      35.183  35.473  32.236  1.00  0.00     0.014 A 
ATOM     38  C   UNL A   1      35.166  32.760  32.890  1.00  0.00     0.010 A 
ATOM     39  C   UNL A   1      36.380  34.823  32.534  1.00  0.00     0.010 A 
ATOM     40  C   UNL A   1      36.381  33.464  32.875  1.00  0.00    -0.014 A 
BRANCH  40  41
ATOM     41  C   UNL A   1      37.653  32.774  33.207  1.00  0.00     0.031 A 
ATOM     42  C   UNL A   1      38.371  33.064  34.497  1.00  0.00     0.074 A 
ATOM     43  C   UNL A   1      38.186  31.913  32.318  1.00  0.00     0.049 A 
ATOM     44  N   UNL A   1      39.472  32.530  34.963  1.00  0.00    -0.248 NA
ATOM     45  C   UNL A   1      37.794  34.102  35.367  1.00  0.00     0.031 C 
ATOM     46  C   UNL A   1      37.639  31.624  30.990  1.00  0.00     0.029 A 
ATOM     47  N   UNL A   1      39.315  31.138  32.387  1.00  0.00    -0.354 N 
ATOM     48  C   UNL A   1      39.728  33.176  36.168  1.00  0.00     0.074 A 
ATOM     49  C   UNL A   1      38.693  34.173  36.340  1.00  0.00     0.031 C 
ATOM     50  C   UNL A   1      38.428  30.731  30.374  1.00  0.00     0.029 A 
ATOM     51  C   UNL A   1      39.542  30.392  31.255  1.00  0.00     0.049 A 
ATOM     52  H   UNL A   1      39.907  31.116  33.174  1.00  0.00     0.167 HD
ATOM     53  C   UNL A   1      40.710  32.934  37.068  1.00  0.00     0.034 A 
ATOM     54  C   UNL A   1      40.532  29.527  30.961  1.00  0.00     0.034 A 
ATOM     55  C   UNL A   1      41.716  31.917  36.912  1.00  0.00     0.049 A 
ATOM     56  C   UNL A   1      41.570  29.226  32.007  1.00  0.00     0.074 A 
ATOM     57  C   UNL A   1      42.714  31.548  37.796  1.00  0.00     0.029 A 
ATOM     58  N   UNL A   1      41.852  31.106  35.795  1.00  0.00    -0.354 N 
ATOM     59  N   UNL A   1      41.696  29.725  33.212  1.00  0.00    -0.248 NA
ATOM     60  C   UNL A   1      42.573  28.205  31.672  1.00  0.00     0.031 C 
ATOM     61  C   UNL A   1      43.459  30.517  37.212  1.00  0.00     0.029 A 
ATOM     62  C   UNL A   1      42.914  30.235  35.968  1.00  0.00     0.049 A 
ATOM     63  H   UNL A   1      41.278  31.143  34.997  1.00  0.00     0.167 HD
ATOM     64  C   UNL A   1      42.773  29.064  33.789  1.00  0.00     0.074 A 
ATOM     65  C   UNL A   1      43.242  28.102  32.813  1.00  0.00     0.031 C 
ATOM     66  C   UNL A   1      43.338  29.249  35.008  1.00  0.00     0.034 A 
BRANCH  53  67
ATOM     67  C   UNL A   1      40.695  33.734  38.346  1.00  0.00     0.023 A 
ATOM     68  C   UNL A   1      41.524  34.870  38.452  1.00  0.00     0.012 A 
ATOM     69  C   UNL A   1      39.830  33.409  39.408  1.00  0.00     0.148 A 
ATOM     70  C   UNL A   1      41.518  35.652  39.607  1.00  0.00     0.002 A 
ATOM     71  C   UNL A   1      39.800  34.217  40.541  1.00  0.00     0.091 A 
ATOM     72  F   UNL A   1      39.064  32.314  39.299  1.00  0.00    -0.205 F 
ATOM     73  C   UNL A   1      40.648  35.331  40.645  1.00  0.00     0.022 A 
BRANCH  71  74
ATOM     74  S   UNL A   1      38.664  33.934  41.904  1.00  0.00     0.127 S 
ATOM     75  O   UNL A   1      39.297  34.697  42.979  1.00  0.00    -0.237 OA
ATOM     76  O   UNL A   1      37.421  34.516  41.396  1.00  0.00    -0.237 OA
ATOM     77  O   UNL A   1      38.623  32.492  42.101  1.00  0.00    -0.744 OA
ENDBRANCH  71  74
ENDBRANCH  53  67
BRANCH  54  78
ATOM     78  C   UNL A   1      40.537  28.825  29.647  1.00  0.00     0.023 A 
ATOM     79  C   UNL A   1      39.493  27.933  29.332  1.00  0.00     0.012 A 
ATOM     80  C   UNL A   1      41.547  29.062  28.696  1.00  0.00     0.148 A 
ATOM     81  C   UNL A   1      39.474  27.264  28.108  1.00  0.00     0.002 A 
ATOM     82  C   UNL A   1      41.491  28.434  27.455  1.00  0.00     0.091 A 
ATOM     83  F   UNL A   1      42.541  29.902  29.017  1.00  0.00    -0.205 F 
ATOM     84  C   UNL A   1      40.466  27.523  27.165  1.00  0.00     0.022 A 
BRANCH  82  85
ATOM     85  S   UNL A   1      42.652  28.825  26.140  1.00  0.00     0.127 S 
ATOM     86  O   UNL A   1      43.742  27.891  26.417  1.00  0.00    -0.237 OA
ATOM     87  O   UNL A   1      41.870  28.519  24.940  1.00  0.00    -0.237 OA
ATOM     88  O   UNL A   1      42.962  30.236  26.304  1.00  0.00    -0.744 OA
ENDBRANCH  82  85
ENDBRANCH  54  78
BRANCH  66  89
ATOM     89  C   UNL A   1      44.520  28.385  35.362  1.00  0.00     0.023 A 
ATOM     90  C   UNL A   1      45.826  28.865  35.134  1.00  0.00     0.012 A 
ATOM     91  C   UNL A   1      44.342  27.125  35.966  1.00  0.00     0.148 A 
ATOM     92  C   UNL A   1      46.934  28.088  35.466  1.00  0.00     0.002 A 
ATOM     93  C   UNL A   1      45.453  26.375  36.335  1.00  0.00     0.091 A 
ATOM     94  F   UNL A   1      43.093  26.674  36.154  1.00  0.00    -0.205 F 
ATOM     95  C   UNL A   1      46.749  26.850  36.076  1.00  0.00     0.022 A 
BRANCH  93  96
ATOM     96  S   UNL A   1      45.304  24.811  37.206  1.00  0.00     0.127 S 
ATOM     97  O   UNL A   1      44.592  25.211  38.418  1.00  0.00    -0.237 OA
ATOM     98  O   UNL A   1      44.516  24.005  36.273  1.00  0.00    -0.237 OA
ATOM     99  O   UNL A   1      46.668  24.338  37.402  1.00  0.00    -0.744 OA
ENDBRANCH  93  96
ENDBRANCH  66  89
ENDBRANCH  40  41
ENDBRANCH  32  35
ENDBRANCH  30  31
ENDBRANCH  29  30
ENDBRANCH  28  29
ENDBRANCH   1  28
TORSDOF 19
ENDMDL
MODEL 3
REMARK VINA RESULT:     -10.9      3.148      3.954
REMARK SMILES Cc1ccc(NC(=O)C[NH+]2CCC(C(=O)NCCCCCCNC(=O)c3ccc(-c4c5nc(c(-c6cccc(S(=O)(=O)[O-])c6F)c6ccc([nH]6)c(-c6cccc(S(=O)(=O)[O-])c6F)c6nc(c(-c7cccc(S(=O)(=O)[O-])c7F)c7ccc4[nH]7)C=C6)C=C5)cc3)CC2)cc1Cl
REMARK SMILES IDX 19 1 18 2 17 3 16 4 14 5 15 6 13 8 10 9 11 10 90 11 12 13
REMARK SMILES IDX 89 14 9 15 7 16 6 17 8 19 5 20 1 21 2 22 3 23 92 24 4 25
REMARK SMILES IDX 91 26 93 27 20 28 21 29 22 30 23 31 24 32 25 34 26 35 27 36
REMARK SMILES IDX 88 37 28 38 87 39 29 40 30 41 31 42 81 43 32 44 86 45 80 46
REMARK SMILES IDX 82 47 33 48 85 49 79 50 78 51 34 53 66 54 46 55 65 56 47 57
REMARK SMILES IDX 50 58 64 59 83 60 48 61 49 62 63 64 84 65 51 66 35 67 36 68
REMARK SMILES IDX 44 69 37 70 39 71 45 72 38 73 40 74 41 75 42 76 43 77 67 78
REMARK SMILES IDX 68 79 76 80 69 81 71 82 77 83 70 84 72 85 73 86 74 87 75 88
REMARK SMILES IDX 52 89 53 90 61 91 54 92 56 93 62 94 55 95 57 96 58 97 59 98
REMARK SMILES IDX 60 99
REMARK H PARENT 16 7 10 12 6 18 23 33 82 52 50 63
REMARK Flexibility Score: inf
ROOT
ATOM      1  C   UNL A   1      32.729  29.462  25.226  1.00  0.00     0.002 C 
ENDROOT
BRANCH   1   2
ATOM      2  C   UNL A   1      33.762  28.487  24.654  1.00  0.00     0.021 C 
BRANCH   2   3
ATOM      3  C   UNL A   1      33.431  28.001  23.250  1.00  0.00     0.116 C 
BRANCH   3   4
ATOM      4  N   UNL A   1      32.317  28.752  22.689  1.00  0.00    -0.356 N 
ATOM      5  C   UNL A   1      31.041  28.374  22.406  1.00  0.00     0.223 C 
ATOM      6  O   UNL A   1      30.291  29.205  21.887  1.00  0.00    -0.275 OA
ATOM      7  H   UNL A   1      32.521  29.693  22.482  1.00  0.00     0.163 HD
BRANCH   5   8
ATOM      8  C   UNL A   1      30.526  26.993  22.770  1.00  0.00     0.089 C 
ATOM      9  N   UNL A   1      31.018  24.650  24.420  1.00  0.00    -0.327 N 
ATOM     10  C   UNL A   1      31.081  24.507  22.968  1.00  0.00     0.263 C 
ATOM     11  C   UNL A   1      29.974  25.592  24.802  1.00  0.00     0.263 C 
ATOM     12  H   UNL A   1      31.913  25.040  24.717  1.00  0.00     0.348 HD
ATOM     13  C   UNL A   1      31.454  25.853  22.330  1.00  0.00     0.075 C 
ATOM     14  C   UNL A   1      30.149  26.984  24.246  1.00  0.00     0.075 C 
BRANCH   9  15
ATOM     15  C   UNL A   1      30.914  23.354  25.145  1.00  0.00     0.363 C 
BRANCH  15  16
ATOM     16  C   UNL A   1      31.266  23.398  26.644  1.00  0.00     0.279 C 
ATOM     17  N   UNL A   1      32.555  23.295  27.120  1.00  0.00    -0.321 N 
ATOM     18  H   UNL A   1      32.633  23.279  28.101  1.00  0.00     0.170 HD
ATOM     19  O   UNL A   1      30.382  23.619  27.483  1.00  0.00    -0.268 OA
BRANCH  17  20
ATOM     20  C   UNL A   1      33.776  23.209  26.430  1.00  0.00     0.042 A 
ATOM     21  C   UNL A   1      36.731  22.973  23.303  1.00  0.00     0.046 C 
ATOM     22  C   UNL A   1      35.823  23.069  24.499  1.00  0.00    -0.032 A 
ATOM     23  C   UNL A   1      35.198  24.290  24.788  1.00  0.00     0.007 A 
ATOM     24  C   UNL A   1      35.490  21.949  25.278  1.00  0.00     0.046 A 
ATOM     25  C   UNL A   1      34.204  24.367  25.769  1.00  0.00     0.026 A 
ATOM     26  C   UNL A   1      34.487  22.024  26.253  1.00  0.00     0.047 A 
ATOM     27  Cl  UNL A   1      36.212  20.406  24.989  1.00  0.00    -0.084 Cl
ENDBRANCH  17  20
ENDBRANCH  15  16
ENDBRANCH   9  15
ENDBRANCH   5   8
ENDBRANCH   3   4
ENDBRANCH   2   3
ENDBRANCH   1   2
BRANCH   1  28
ATOM     28  C   UNL A   1      32.544  29.387  26.745  1.00  0.00     0.002 C 
BRANCH  28  29
ATOM     29  C   UNL A   1      33.821  29.592  27.567  1.00  0.00     0.021 C 
BRANCH  29  30
ATOM     30  C   UNL A   1      34.519  30.932  27.353  1.00  0.00     0.116 C 
BRANCH  30  31
ATOM     31  N   UNL A   1      34.200  31.893  28.395  1.00  0.00    -0.352 N 
ATOM     32  C   UNL A   1      34.829  32.125  29.589  1.00  0.00     0.251 C 
ATOM     33  H   UNL A   1      33.416  32.461  28.218  1.00  0.00     0.163 HD
ATOM     34  O   UNL A   1      34.311  32.879  30.412  1.00  0.00    -0.269 OA
BRANCH  32  35
ATOM     35  C   UNL A   1      36.114  31.461  29.900  1.00  0.00     0.039 A 
ATOM     36  C   UNL A   1      37.292  32.033  29.414  1.00  0.00     0.014 A 
ATOM     37  C   UNL A   1      36.161  30.272  30.634  1.00  0.00     0.014 A 
ATOM     38  C   UNL A   1      38.520  31.433  29.697  1.00  0.00     0.010 A 
ATOM     39  C   UNL A   1      37.393  29.711  30.971  1.00  0.00     0.010 A 
ATOM     40  C   UNL A   1      38.583  30.280  30.497  1.00  0.00    -0.014 A 
BRANCH  40  41
ATOM     41  C   UNL A   1      39.893  29.676  30.842  1.00  0.00     0.031 A 
ATOM     42  C   UNL A   1      40.665  30.146  32.045  1.00  0.00     0.074 A 
ATOM     43  C   UNL A   1      40.413  28.726  30.039  1.00  0.00     0.049 A 
ATOM     44  N   UNL A   1      41.806  29.708  32.513  1.00  0.00    -0.248 NA
ATOM     45  C   UNL A   1      40.095  31.268  32.810  1.00  0.00     0.031 C 
ATOM     46  C   UNL A   1      39.810  28.256  28.789  1.00  0.00     0.029 A 
ATOM     47  N   UNL A   1      41.570  27.999  30.142  1.00  0.00    -0.354 N 
ATOM     48  C   UNL A   1      42.099  30.507  33.613  1.00  0.00     0.074 A 
ATOM     49  C   UNL A   1      41.039  31.486  33.716  1.00  0.00     0.031 C 
ATOM     50  C   UNL A   1      40.599  27.316  28.246  1.00  0.00     0.029 A 
ATOM     51  C   UNL A   1      41.767  27.124  29.100  1.00  0.00     0.049 A 
ATOM     52  H   UNL A   1      42.201  28.094  30.892  1.00  0.00     0.167 HD
ATOM     53  C   UNL A   1      43.133  30.409  34.482  1.00  0.00     0.034 A 
ATOM     54  C   UNL A   1      42.771  26.258  28.862  1.00  0.00     0.034 A 
ATOM     55  C   UNL A   1      44.165  29.410  34.398  1.00  0.00     0.049 A 
ATOM     56  C   UNL A   1      43.871  26.121  29.880  1.00  0.00     0.074 A 
ATOM     57  C   UNL A   1      45.219  29.185  35.266  1.00  0.00     0.029 A 
ATOM     58  N   UNL A   1      44.274  28.470  33.385  1.00  0.00    -0.354 N 
ATOM     59  N   UNL A   1      44.039  26.772  31.005  1.00  0.00    -0.248 NA
ATOM     60  C   UNL A   1      44.892  25.097  29.620  1.00  0.00     0.031 C 
ATOM     61  C   UNL A   1      45.970  28.111  34.774  1.00  0.00     0.029 A 
ATOM     62  C   UNL A   1      45.375  27.659  33.607  1.00  0.00     0.049 A 
ATOM     63  H   UNL A   1      43.660  28.389  32.620  1.00  0.00     0.167 HD
ATOM     64  C   UNL A   1      45.166  26.220  31.600  1.00  0.00     0.074 A 
ATOM     65  C   UNL A   1      45.621  25.157  30.726  1.00  0.00     0.031 C 
ATOM     66  C   UNL A   1      45.785  26.573  32.754  1.00  0.00     0.034 A 
BRANCH  53  67
ATOM     67  C   UNL A   1      43.154  31.361  35.650  1.00  0.00     0.023 A 
ATOM     68  C   UNL A   1      42.577  30.958  36.873  1.00  0.00     0.012 A 
ATOM     69  C   UNL A   1      43.789  32.615  35.566  1.00  0.00     0.148 A 
ATOM     70  C   UNL A   1      42.603  31.800  37.984  1.00  0.00     0.002 A 
ATOM     71  C   UNL A   1      43.846  33.433  36.691  1.00  0.00     0.091 A 
ATOM     72  F   UNL A   1      44.314  32.991  34.391  1.00  0.00    -0.205 F 
ATOM     73  C   UNL A   1      43.246  33.031  37.895  1.00  0.00     0.022 A 
BRANCH  71  74
ATOM     74  S   UNL A   1      44.714  35.006  36.704  1.00  0.00     0.127 S 
ATOM     75  O   UNL A   1      44.517  35.441  38.086  1.00  0.00    -0.237 OA
ATOM     76  O   UNL A   1      46.085  34.604  36.382  1.00  0.00    -0.237 OA
ATOM     77  O   UNL A   1      44.069  35.829  35.691  1.00  0.00    -0.744 OA
ENDBRANCH  71  74
ENDBRANCH  53  67
BRANCH  54  78
ATOM     78  C   UNL A   1      42.735  25.397  27.647  1.00  0.00     0.023 A 
ATOM     79  C   UNL A   1      43.305  25.864  26.447  1.00  0.00     0.012 A 
ATOM     80  C   UNL A   1      42.173  24.106  27.683  1.00  0.00     0.148 A 
ATOM     81  C   UNL A   1      43.285  25.076  25.296  1.00  0.00     0.002 A 
ATOM     82  C   UNL A   1      42.207  23.305  26.547  1.00  0.00     0.091 A 
ATOM     83  F   UNL A   1      41.622  23.683  28.829  1.00  0.00    -0.205 F 
ATOM     84  C   UNL A   1      42.748  23.793  25.348  1.00  0.00     0.022 A 
BRANCH  82  85
ATOM     85  S   UNL A   1      41.664  21.592  26.576  1.00  0.00     0.127 S 
ATOM     86  O   UNL A   1      42.256  21.112  27.824  1.00  0.00    -0.237 OA
ATOM     87  O   UNL A   1      40.206  21.734  26.603  1.00  0.00    -0.237 OA
ATOM     88  O   UNL A   1      42.180  21.000  25.354  1.00  0.00    -0.744 OA
ENDBRANCH  82  85
ENDBRANCH  54  78
BRANCH  66  89
ATOM     89  C   UNL A   1      47.014  25.796  33.147  1.00  0.00     0.023 A 
ATOM     90  C   UNL A   1      48.284  26.245  32.734  1.00  0.00     0.012 A 
ATOM     91  C   UNL A   1      46.917  24.654  33.968  1.00  0.00     0.148 A 
ATOM     92  C   UNL A   1      49.435  25.549  33.096  1.00  0.00     0.002 A 
ATOM     93  C   UNL A   1      48.074  23.991  34.363  1.00  0.00     0.091 A 
ATOM     94  F   UNL A   1      45.700  24.228  34.334  1.00  0.00    -0.205 F 
ATOM     95  C   UNL A   1      49.332  24.430  33.920  1.00  0.00     0.022 A 
BRANCH  93  96
ATOM     96  S   UNL A   1      48.036  22.596  35.494  1.00  0.00     0.127 S 
ATOM     97  O   UNL A   1      47.305  23.153  36.630  1.00  0.00    -0.237 OA
ATOM     98  O   UNL A   1      47.299  21.589  34.728  1.00  0.00    -0.237 OA
ATOM     99  O   UNL A   1      49.430  22.254  35.745  1.00  0.00    -0.744 OA
ENDBRANCH  93  96
ENDBRANCH  66  89
ENDBRANCH  40  41
ENDBRANCH  32  35
ENDBRANCH  30  31
ENDBRANCH  29  30
ENDBRANCH  28  29
ENDBRANCH   1  28
TORSDOF 19
ENDMDL
