MODEL 1
REMARK VINA RESULT:     -11.3      0.000      0.000
REMARK SMILES CCCCc1cc(S(F)(F)(F)(F)F)cc2c1O[C@@H](C(F)(F)F)C(C(=O)NCCCCCCNC(=O)c1ccc(-c3c4nc(c(-c5cccc(S(=O)(=O)[O-])c5F)c5ccc([nH]5)c(-c5cccc(S(=O)(=O)[O-])c5F)c5nc(c(-c6cccc(S(=O)(=O)[O-])c6F)c6ccc3[nH]6)C=C5)C=C4)cc1)=C2
REMARK SMILES IDX 29 1 28 2 27 3 26 4 24 5 25 6 23 8 5 9 6 10 16 11 7 12 15 13
REMARK SMILES IDX 17 14 14 15 99 16 18 17 4 18 3 19 2 20 1 21 8 22 9 23 10 24
REMARK SMILES IDX 11 25 12 26 13 27 19 28 20 29 21 30 22 31 30 32 31 33 32 34
REMARK SMILES IDX 33 35 34 36 35 38 36 39 37 40 98 41 38 42 97 43 39 44 40 45
REMARK SMILES IDX 41 46 91 47 42 48 96 49 90 50 92 51 43 52 95 53 89 54 88 55
REMARK SMILES IDX 44 57 76 58 56 59 75 60 57 61 60 62 74 63 93 64 58 65 59 66
REMARK SMILES IDX 73 68 94 69 61 70 45 71 46 72 54 73 47 74 49 75 55 76 48 77
REMARK SMILES IDX 50 78 51 79 52 80 53 81 77 82 78 83 86 84 79 85 81 86 87 87
REMARK SMILES IDX 80 88 82 89 83 90 84 91 85 92 62 93 63 94 71 95 64 96 66 97
REMARK SMILES IDX 72 98 65 99 67 100 68 101 69 102 70 103
REMARK H PARENT 26 7 33 37 92 56 60 67
REMARK Flexibility Score: inf
ROOT
ATOM      1  C   UNL A   1      37.415  22.194  25.777  1.00  0.00     0.002 C 
ENDROOT
BRANCH   1   2
ATOM      2  C   UNL A   1      37.075  23.070  24.582  1.00  0.00     0.021 C 
BRANCH   2   3
ATOM      3  C   UNL A   1      35.799  22.564  23.928  1.00  0.00     0.116 C 
BRANCH   3   4
ATOM      4  N   UNL A   1      35.176  21.550  24.790  1.00  0.00    -0.352 N 
ATOM      5  C   UNL A   1      33.883  21.826  25.431  1.00  0.00     0.251 C 
ATOM      6  O   UNL A   1      33.343  20.949  26.177  1.00  0.00    -0.270 OA
ATOM      7  H   UNL A   1      35.625  20.687  24.938  1.00  0.00     0.163 HD
BRANCH   5   8
ATOM      8  C   UNL A   1      33.190  23.159  25.202  1.00  0.00     0.067 C 
ATOM      9  C   UNL A   1      31.560  26.857  24.144  1.00  0.00    -0.004 A 
ATOM     10  C   UNL A   1      31.835  27.976  24.908  1.00  0.00     0.032 A 
ATOM     11  C   UNL A   1      32.151  25.665  24.483  1.00  0.00     0.131 A 
ATOM     12  C   UNL A   1      32.683  27.905  25.982  1.00  0.00     0.108 A 
ATOM     13  C   UNL A   1      32.998  25.552  25.571  1.00  0.00     0.019 A 
ATOM     14  O   UNL A   1      31.959  24.589  23.651  1.00  0.00    -0.475 OA
ATOM     15  C   UNL A   1      33.258  26.697  26.315  1.00  0.00     0.036 A 
ATOM     16  C   UNL A   1      33.605  24.255  25.825  1.00  0.00     0.025 C 
ATOM     17  C   UNL A   1      32.002  23.266  24.255  1.00  0.00     0.314 C 
BRANCH   9  18
ATOM     18  C   UNL A   1      30.621  26.944  22.951  1.00  0.00     0.039 C 
BRANCH  18  19
ATOM     19  C   UNL A   1      29.215  27.259  23.435  1.00  0.00     0.005 C 
BRANCH  19  20
ATOM     20  C   UNL A   1      28.828  28.660  22.990  1.00  0.00    -0.003 C 
ATOM     21  C   UNL A   1      29.892  29.205  22.052  1.00  0.00     0.004 C 
ENDBRANCH  19  20
ENDBRANCH  18  19
ENDBRANCH   9  18
BRANCH  12  22
ATOM     22  S   UNL A   1      33.048  29.387  26.955  1.00  0.00     0.310 S 
ATOM     23  F   UNL A   1      34.089  28.609  27.864  1.00  0.00    -0.094 F 
ATOM     24  F   UNL A   1      31.933  28.954  27.979  1.00  0.00    -0.094 F 
ATOM     25  F   UNL A   1      33.363  30.660  27.791  1.00  0.00    -0.094 F 
ATOM     26  F   UNL A   1      34.255  29.730  25.995  1.00  0.00    -0.094 F 
ATOM     27  F   UNL A   1      32.817  28.042  26.159  1.00  0.00    -0.094 F 
ENDBRANCH  12  22
BRANCH  17  28
ATOM     28  C   UNL A   1      32.148  22.225  23.158  1.00  0.00     0.429 C 
ATOM     29  F   UNL A   1      32.412  21.040  23.702  1.00  0.00    -0.167 F 
ATOM     30  F   UNL A   1      31.015  22.150  22.463  1.00  0.00    -0.167 F 
ATOM     31  F   UNL A   1      33.143  22.571  22.346  1.00  0.00    -0.167 F 
ENDBRANCH  17  28
ENDBRANCH   5   8
ENDBRANCH   3   4
ENDBRANCH   2   3
ENDBRANCH   1   2
BRANCH   1  32
ATOM     32  C   UNL A   1      38.923  22.023  25.866  1.00  0.00     0.002 C 
BRANCH  32  33
ATOM     33  C   UNL A   1      39.304  20.631  25.390  1.00  0.00     0.021 C 
BRANCH  33  34
ATOM     34  C   UNL A   1      39.941  19.861  26.536  1.00  0.00     0.116 C 
BRANCH  34  35
ATOM     35  N   UNL A   1      40.978  18.963  26.005  1.00  0.00    -0.352 N 
ATOM     36  C   UNL A   1      42.359  19.444  25.851  1.00  0.00     0.251 C 
ATOM     37  H   UNL A   1      40.747  18.040  25.753  1.00  0.00     0.163 HD
ATOM     38  O   UNL A   1      43.254  18.667  25.393  1.00  0.00    -0.269 OA
BRANCH  36  39
ATOM     39  C   UNL A   1      42.715  20.870  26.240  1.00  0.00     0.039 A 
ATOM     40  C   UNL A   1      42.802  21.215  27.578  1.00  0.00     0.014 A 
ATOM     41  C   UNL A   1      42.940  21.761  25.282  1.00  0.00     0.014 A 
ATOM     42  C   UNL A   1      42.853  22.610  27.809  1.00  0.00     0.010 A 
ATOM     43  C   UNL A   1      43.116  23.089  25.590  1.00  0.00     0.010 A 
ATOM     44  C   UNL A   1      43.154  23.511  26.890  1.00  0.00    -0.014 A 
BRANCH  44  45
ATOM     45  C   UNL A   1      43.525  24.937  27.259  1.00  0.00     0.031 A 
ATOM     46  C   UNL A   1      42.503  25.812  27.636  1.00  0.00     0.074 A 
ATOM     47  C   UNL A   1      44.862  25.289  27.202  1.00  0.00     0.049 A 
ATOM     48  N   UNL A   1      42.622  27.081  28.028  1.00  0.00    -0.248 NA
ATOM     49  C   UNL A   1      41.078  25.450  27.666  1.00  0.00     0.031 C 
ATOM     50  C   UNL A   1      45.898  24.411  26.831  1.00  0.00     0.029 A 
ATOM     51  N   UNL A   1      45.426  26.514  27.483  1.00  0.00    -0.354 N 
ATOM     52  C   UNL A   1      41.423  27.586  28.327  1.00  0.00     0.074 A 
ATOM     53  C   UNL A   1      40.412  26.545  28.092  1.00  0.00     0.031 C 
ATOM     54  C   UNL A   1      47.070  25.098  26.875  1.00  0.00     0.029 A 
ATOM     55  C   UNL A   1      46.785  26.418  27.276  1.00  0.00     0.049 A 
ATOM     56  H   UNL A   1      44.944  27.318  27.779  1.00  0.00     0.167 HD
ATOM     57  C   UNL A   1      41.133  28.871  28.788  1.00  0.00     0.034 A 
ATOM     58  C   UNL A   1      47.738  27.414  27.421  1.00  0.00     0.034 A 
ATOM     59  C   UNL A   1      42.092  29.854  28.974  1.00  0.00     0.049 A 
ATOM     60  C   UNL A   1      47.441  28.718  27.826  1.00  0.00     0.074 A 
ATOM     61  C   UNL A   1      41.818  31.152  29.445  1.00  0.00     0.029 A 
ATOM     62  N   UNL A   1      43.447  29.766  28.744  1.00  0.00    -0.354 N 
ATOM     63  N   UNL A   1      46.248  29.210  28.162  1.00  0.00    -0.248 NA
ATOM     64  C   UNL A   1      48.437  29.790  27.952  1.00  0.00     0.031 C 
ATOM     65  C   UNL A   1      42.990  31.841  29.489  1.00  0.00     0.029 A 
ATOM     66  C   UNL A   1      44.015  30.984  29.046  1.00  0.00     0.049 A 
ATOM     67  H   UNL A   1      43.927  28.969  28.420  1.00  0.00     0.167 HD
ATOM     68  C   UNL A   1      46.362  30.493  28.514  1.00  0.00     0.074 A 
ATOM     69  C   UNL A   1      47.771  30.886  28.376  1.00  0.00     0.031 C 
ATOM     70  C   UNL A   1      45.349  31.349  28.947  1.00  0.00     0.034 A 
BRANCH  57  71
ATOM     71  C   UNL A   1      39.686  29.211  29.101  1.00  0.00     0.023 A 
ATOM     72  C   UNL A   1      38.825  29.537  28.066  1.00  0.00     0.012 A 
ATOM     73  C   UNL A   1      39.269  29.188  30.361  1.00  0.00     0.148 A 
ATOM     74  C   UNL A   1      37.603  30.107  28.495  1.00  0.00     0.002 A 
ATOM     75  C   UNL A   1      38.012  29.633  30.691  1.00  0.00     0.091 A 
ATOM     76  F   UNL A   1      40.075  28.728  31.313  1.00  0.00    -0.205 F 
ATOM     77  C   UNL A   1      37.129  30.027  29.724  1.00  0.00     0.022 A 
BRANCH  75  78
ATOM     78  S   UNL A   1      37.518  29.703  32.431  1.00  0.00     0.127 S 
ATOM     79  O   UNL A   1      36.152  30.383  32.547  1.00  0.00    -0.237 OA
ATOM     80  O   UNL A   1      37.429  28.283  32.994  1.00  0.00    -0.237 OA
ATOM     81  O   UNL A   1      38.676  30.597  33.318  1.00  0.00    -0.744 OA
ENDBRANCH  75  78
ENDBRANCH  57  71
BRANCH  58  82
ATOM     82  C   UNL A   1      49.188  27.069  27.123  1.00  0.00     0.023 A 
ATOM     83  C   UNL A   1      49.943  26.420  28.085  1.00  0.00     0.012 A 
ATOM     84  C   UNL A   1      49.707  27.399  25.946  1.00  0.00     0.148 A 
ATOM     85  C   UNL A   1      51.333  26.419  27.818  1.00  0.00     0.002 A 
ATOM     86  C   UNL A   1      51.051  27.244  25.707  1.00  0.00     0.091 A 
ATOM     87  F   UNL A   1      48.919  27.885  24.991  1.00  0.00    -0.205 F 
ATOM     88  C   UNL A   1      51.869  26.665  26.637  1.00  0.00     0.022 A 
BRANCH  86  89
ATOM     89  S   UNL A   1      51.750  27.817  24.139  1.00  0.00     0.127 S 
ATOM     90  O   UNL A   1      53.271  27.652  24.167  1.00  0.00    -0.237 OA
ATOM     91  O   UNL A   1      51.168  26.991  22.990  1.00  0.00    -0.237 OA
ATOM     92  O   UNL A   1      51.359  29.467  23.910  1.00  0.00    -0.744 OA
ENDBRANCH  86  89
ENDBRANCH  58  82
BRANCH  70  93
ATOM     93  C   UNL A   1      45.730  32.769  29.333  1.00  0.00     0.023 A 
ATOM     94  C   UNL A   1      46.177  33.032  30.617  1.00  0.00     0.012 A 
ATOM     95  C   UNL A   1      45.631  33.734  28.427  1.00  0.00     0.148 A 
ATOM     96  C   UNL A   1      46.222  34.410  30.937  1.00  0.00     0.002 A 
ATOM     97  C   UNL A   1      45.821  35.048  28.780  1.00  0.00     0.091 A 
ATOM     98  F   UNL A   1      45.345  33.426  27.164  1.00  0.00    -0.205 F 
ATOM     99  C   UNL A   1      46.207  35.387  30.048  1.00  0.00     0.022 A 
BRANCH  97 100
ATOM    100  S   UNL A   1      45.559  36.350  27.550  1.00  0.00     0.127 S 
ATOM    101  O   UNL A   1      44.128  36.266  27.016  1.00  0.00    -0.237 OA
ATOM    102  O   UNL A   1      45.783  37.718  28.200  1.00  0.00    -0.237 OA
ATOM    103  O   UNL A   1      46.663  36.145  26.259  1.00  0.00    -0.744 OA
ENDBRANCH  97 100
ENDBRANCH  70  93
ENDBRANCH  44  45
ENDBRANCH  36  39
ENDBRANCH  34  35
ENDBRANCH  33  34
ENDBRANCH  32  33
ENDBRANCH   1  32
TORSDOF 21
ENDMDL
MODEL 2
REMARK VINA RESULT:     -11.2      0.539      7.287
REMARK SMILES CCCCc1cc(S(F)(F)(F)(F)F)cc2c1O[C@@H](C(F)(F)F)C(C(=O)NCCCCCCNC(=O)c1ccc(-c3c4nc(c(-c5cccc(S(=O)(=O)[O-])c5F)c5ccc([nH]5)c(-c5cccc(S(=O)(=O)[O-])c5F)c5nc(c(-c6cccc(S(=O)(=O)[O-])c6F)c6ccc3[nH]6)C=C5)C=C4)cc1)=C2
REMARK SMILES IDX 29 1 28 2 27 3 26 4 24 5 25 6 23 8 5 9 6 10 16 11 7 12 15 13
REMARK SMILES IDX 17 14 14 15 99 16 18 17 4 18 3 19 2 20 1 21 8 22 9 23 10 24
REMARK SMILES IDX 11 25 12 26 13 27 19 28 20 29 21 30 22 31 30 32 31 33 32 34
REMARK SMILES IDX 33 35 34 36 35 38 36 39 37 40 98 41 38 42 97 43 39 44 40 45
REMARK SMILES IDX 41 46 91 47 42 48 96 49 90 50 92 51 43 52 95 53 89 54 88 55
REMARK SMILES IDX 44 57 76 58 56 59 75 60 57 61 60 62 74 63 93 64 58 65 59 66
REMARK SMILES IDX 73 68 94 69 61 70 45 71 46 72 54 73 47 74 49 75 55 76 48 77
REMARK SMILES IDX 50 78 51 79 52 80 53 81 77 82 78 83 86 84 79 85 81 86 87 87
REMARK SMILES IDX 80 88 82 89 83 90 84 91 85 92 62 93 63 94 71 95 64 96 66 97
REMARK SMILES IDX 72 98 65 99 67 100 68 101 69 102 70 103
REMARK H PARENT 26 7 33 37 92 56 60 67
REMARK Flexibility Score: inf
ROOT
ATOM      1  C   UNL A   1      37.828  22.243  26.092  1.00  0.00     0.002 C 
ENDROOT
BRANCH   1   2
ATOM      2  C   UNL A   1      37.451  23.165  24.943  1.00  0.00     0.021 C 
BRANCH   2   3
ATOM      3  C   UNL A   1      36.159  22.679  24.305  1.00  0.00     0.116 C 
BRANCH   3   4
ATOM      4  N   UNL A   1      35.495  21.728  25.207  1.00  0.00    -0.352 N 
ATOM      5  C   UNL A   1      34.178  22.051  25.774  1.00  0.00     0.251 C 
ATOM      6  O   UNL A   1      33.603  21.229  26.554  1.00  0.00    -0.270 OA
ATOM      7  H   UNL A   1      35.932  20.875  25.433  1.00  0.00     0.163 HD
BRANCH   5   8
ATOM      8  C   UNL A   1      33.503  23.368  25.426  1.00  0.00     0.067 C 
ATOM      9  C   UNL A   1      31.916  26.973  24.034  1.00  0.00    -0.004 A 
ATOM     10  C   UNL A   1      32.222  28.156  24.681  1.00  0.00     0.032 A 
ATOM     11  C   UNL A   1      32.494  25.809  24.480  1.00  0.00     0.131 A 
ATOM     12  C   UNL A   1      33.086  28.175  25.744  1.00  0.00     0.108 A 
ATOM     13  C   UNL A   1      33.357  25.788  25.561  1.00  0.00     0.019 A 
ATOM     14  O   UNL A   1      32.270  24.661  23.760  1.00  0.00    -0.475 OA
ATOM     15  C   UNL A   1      33.647  26.995  26.186  1.00  0.00     0.036 A 
ATOM     16  C   UNL A   1      33.947  24.511  25.931  1.00  0.00     0.025 C 
ATOM     17  C   UNL A   1      32.302  23.403  24.490  1.00  0.00     0.314 C 
BRANCH   9  18
ATOM     18  C   UNL A   1      30.960  26.960  22.853  1.00  0.00     0.039 C 
BRANCH  18  19
ATOM     19  C   UNL A   1      29.662  27.648  23.244  1.00  0.00     0.005 C 
BRANCH  19  20
ATOM     20  C   UNL A   1      29.483  28.905  22.409  1.00  0.00    -0.003 C 
ATOM     21  C   UNL A   1      28.527  29.851  23.117  1.00  0.00     0.004 C 
ENDBRANCH  19  20
ENDBRANCH  18  19
ENDBRANCH   9  18
BRANCH  12  22
ATOM     22  S   UNL A   1      33.492  29.739  26.562  1.00  0.00     0.310 S 
ATOM     23  F   UNL A   1      32.348  29.542  27.642  1.00  0.00    -0.094 F 
ATOM     24  F   UNL A   1      32.420  30.456  25.657  1.00  0.00    -0.094 F 
ATOM     25  F   UNL A   1      33.840  31.082  27.265  1.00  0.00    -0.094 F 
ATOM     26  F   UNL A   1      34.459  28.979  27.554  1.00  0.00    -0.094 F 
ATOM     27  F   UNL A   1      33.068  28.351  25.936  1.00  0.00    -0.094 F 
ENDBRANCH  12  22
BRANCH  17  28
ATOM     28  C   UNL A   1      32.412  22.257  23.498  1.00  0.00     0.429 C 
ATOM     29  F   UNL A   1      32.431  21.101  24.156  1.00  0.00    -0.167 F 
ATOM     30  F   UNL A   1      31.368  22.280  22.674  1.00  0.00    -0.167 F 
ATOM     31  F   UNL A   1      33.535  22.385  22.796  1.00  0.00    -0.167 F 
ENDBRANCH  17  28
ENDBRANCH   5   8
ENDBRANCH   3   4
ENDBRANCH   2   3
ENDBRANCH   1   2
BRANCH   1  32
ATOM     32  C   UNL A   1      39.301  21.881  25.986  1.00  0.00     0.002 C 
BRANCH  32  33
ATOM     33  C   UNL A   1      39.437  20.409  25.634  1.00  0.00     0.021 C 
BRANCH  33  34
ATOM     34  C   UNL A   1      40.307  19.718  26.671  1.00  0.00     0.116 C 
BRANCH  34  35
ATOM     35  N   UNL A   1      41.280  18.848  25.993  1.00  0.00    -0.352 N 
ATOM     36  C   UNL A   1      42.625  19.354  25.679  1.00  0.00     0.251 C 
ATOM     37  H   UNL A   1      41.032  17.928  25.749  1.00  0.00     0.163 HD
ATOM     38  O   UNL A   1      43.465  18.602  25.094  1.00  0.00    -0.269 OA
BRANCH  36  39
ATOM     39  C   UNL A   1      43.008  20.776  26.055  1.00  0.00     0.039 A 
ATOM     40  C   UNL A   1      43.070  21.140  27.390  1.00  0.00     0.014 A 
ATOM     41  C   UNL A   1      43.283  21.646  25.091  1.00  0.00     0.014 A 
ATOM     42  C   UNL A   1      43.152  22.537  27.600  1.00  0.00     0.010 A 
ATOM     43  C   UNL A   1      43.486  22.973  25.382  1.00  0.00     0.010 A 
ATOM     44  C   UNL A   1      43.501  23.414  26.676  1.00  0.00    -0.014 A 
BRANCH  44  45
ATOM     45  C   UNL A   1      43.900  24.836  27.033  1.00  0.00     0.031 A 
ATOM     46  C   UNL A   1      45.245  25.197  26.919  1.00  0.00     0.074 A 
ATOM     47  C   UNL A   1      42.902  25.698  27.452  1.00  0.00     0.049 A 
ATOM     48  N   UNL A   1      45.789  26.393  27.148  1.00  0.00    -0.248 NA
ATOM     49  C   UNL A   1      46.313  24.274  26.507  1.00  0.00     0.031 C 
ATOM     50  C   UNL A   1      41.543  25.345  27.561  1.00  0.00     0.029 A 
ATOM     51  N   UNL A   1      43.027  27.017  27.830  1.00  0.00    -0.354 N 
ATOM     52  C   UNL A   1      47.102  26.355  26.912  1.00  0.00     0.074 A 
ATOM     53  C   UNL A   1      47.459  24.989  26.503  1.00  0.00     0.031 C 
ATOM     54  C   UNL A   1      40.859  26.431  28.010  1.00  0.00     0.029 A 
ATOM     55  C   UNL A   1      41.780  27.481  28.188  1.00  0.00     0.049 A 
ATOM     56  H   UNL A   1      43.861  27.537  27.842  1.00  0.00     0.167 HD
ATOM     57  C   UNL A   1      48.015  27.405  27.021  1.00  0.00     0.034 A 
ATOM     58  C   UNL A   1      41.445  28.746  28.648  1.00  0.00     0.034 A 
ATOM     59  C   UNL A   1      47.673  28.681  27.439  1.00  0.00     0.049 A 
ATOM     60  C   UNL A   1      42.369  29.780  28.813  1.00  0.00     0.074 A 
ATOM     61  C   UNL A   1      48.579  29.752  27.547  1.00  0.00     0.029 A 
ATOM     62  N   UNL A   1      46.431  29.139  27.821  1.00  0.00    -0.354 N 
ATOM     63  N   UNL A   1      43.675  29.753  28.540  1.00  0.00    -0.248 NA
ATOM     64  C   UNL A   1      42.032  31.113  29.329  1.00  0.00     0.031 C 
ATOM     65  C   UNL A   1      47.896  30.839  27.997  1.00  0.00     0.029 A 
ATOM     66  C   UNL A   1      46.551  30.464  28.177  1.00  0.00     0.049 A 
ATOM     67  H   UNL A   1      45.600  28.609  27.836  1.00  0.00     0.167 HD
ATOM     68  C   UNL A   1      44.225  30.938  28.809  1.00  0.00     0.074 A 
ATOM     69  C   UNL A   1      43.178  31.828  29.327  1.00  0.00     0.031 C 
ATOM     70  C   UNL A   1      45.558  31.314  28.639  1.00  0.00     0.034 A 
BRANCH  57  71
ATOM     71  C   UNL A   1      49.467  27.134  26.661  1.00  0.00     0.023 A 
ATOM     72  C   UNL A   1      50.311  26.585  27.612  1.00  0.00     0.012 A 
ATOM     73  C   UNL A   1      49.901  27.423  25.440  1.00  0.00     0.148 A 
ATOM     74  C   UNL A   1      51.682  26.646  27.265  1.00  0.00     0.002 A 
ATOM     75  C   UNL A   1      51.236  27.329  25.132  1.00  0.00     0.091 A 
ATOM     76  F   UNL A   1      49.035  27.806  24.507  1.00  0.00    -0.205 F 
ATOM     77  C   UNL A   1      52.137  26.852  26.043  1.00  0.00     0.022 A 
BRANCH  75  78
ATOM     78  S   UNL A   1      51.813  27.847  23.496  1.00  0.00     0.127 S 
ATOM     79  O   UNL A   1      51.425  29.308  23.257  1.00  0.00    -0.237 OA
ATOM     80  O   UNL A   1      53.335  27.705  23.423  1.00  0.00    -0.237 OA
ATOM     81  O   UNL A   1      51.091  26.862  22.298  1.00  0.00    -0.744 OA
ENDBRANCH  75  78
ENDBRANCH  57  71
BRANCH  58  82
ATOM     82  C   UNL A   1      39.990  29.021  28.991  1.00  0.00     0.023 A 
ATOM     83  C   UNL A   1      39.112  29.386  27.986  1.00  0.00     0.012 A 
ATOM     84  C   UNL A   1      39.588  28.912  30.253  1.00  0.00     0.148 A 
ATOM     85  C   UNL A   1      37.881  29.900  28.458  1.00  0.00     0.002 A 
ATOM     86  C   UNL A   1      38.324  29.306  30.619  1.00  0.00     0.091 A 
ATOM     87  F   UNL A   1      40.415  28.416  31.169  1.00  0.00    -0.205 F 
ATOM     88  C   UNL A   1      37.422  29.735  29.685  1.00  0.00     0.022 A 
BRANCH  86  89
ATOM     89  S   UNL A   1      37.847  29.260  32.365  1.00  0.00     0.127 S 
ATOM     90  O   UNL A   1      38.779  30.166  33.172  1.00  0.00    -0.237 OA
ATOM     91  O   UNL A   1      36.405  29.750  32.512  1.00  0.00    -0.237 OA
ATOM     92  O   UNL A   1      37.966  27.656  32.946  1.00  0.00    -0.744 OA
ENDBRANCH  86  89
ENDBRANCH  58  82
BRANCH  70  93
ATOM     93  C   UNL A   1      45.946  32.744  28.979  1.00  0.00     0.023 A 
ATOM     94  C   UNL A   1      46.448  33.037  30.236  1.00  0.00     0.012 A 
ATOM     95  C   UNL A   1      45.798  33.690  28.060  1.00  0.00     0.148 A 
ATOM     96  C   UNL A   1      46.497  34.421  30.526  1.00  0.00     0.002 A 
ATOM     97  C   UNL A   1      45.994  35.013  28.378  1.00  0.00     0.091 A 
ATOM     98  F   UNL A   1      45.456  33.355  26.818  1.00  0.00    -0.205 F 
ATOM     99  C   UNL A   1      46.434  35.379  29.620  1.00  0.00     0.022 A 
BRANCH  97 100
ATOM    100  S   UNL A   1      45.665  36.288  27.136  1.00  0.00     0.127 S 
ATOM    101  O   UNL A   1      45.880  37.670  27.755  1.00  0.00    -0.237 OA
ATOM    102  O   UNL A   1      46.619  36.105  25.953  1.00  0.00    -0.237 OA
ATOM    103  O   UNL A   1      44.049  36.151  26.592  1.00  0.00    -0.744 OA
ENDBRANCH  97 100
ENDBRANCH  70  93
ENDBRANCH  44  45
ENDBRANCH  36  39
ENDBRANCH  34  35
ENDBRANCH  33  34
ENDBRANCH  32  33
ENDBRANCH   1  32
TORSDOF 21
ENDMDL
MODEL 3
REMARK VINA RESULT:     -10.7      2.158      7.433
REMARK SMILES CCCCc1cc(S(F)(F)(F)(F)F)cc2c1O[C@@H](C(F)(F)F)C(C(=O)NCCCCCCNC(=O)c1ccc(-c3c4nc(c(-c5cccc(S(=O)(=O)[O-])c5F)c5ccc([nH]5)c(-c5cccc(S(=O)(=O)[O-])c5F)c5nc(c(-c6cccc(S(=O)(=O)[O-])c6F)c6ccc3[nH]6)C=C5)C=C4)cc1)=C2
REMARK SMILES IDX 29 1 28 2 27 3 26 4 24 5 25 6 23 8 5 9 6 10 16 11 7 12 15 13
REMARK SMILES IDX 17 14 14 15 99 16 18 17 4 18 3 19 2 20 1 21 8 22 9 23 10 24
REMARK SMILES IDX 11 25 12 26 13 27 19 28 20 29 21 30 22 31 30 32 31 33 32 34
REMARK SMILES IDX 33 35 34 36 35 38 36 39 37 40 98 41 38 42 97 43 39 44 40 45
REMARK SMILES IDX 41 46 91 47 42 48 96 49 90 50 92 51 43 52 95 53 89 54 88 55
REMARK SMILES IDX 44 57 76 58 56 59 75 60 57 61 60 62 74 63 93 64 58 65 59 66
REMARK SMILES IDX 73 68 94 69 61 70 45 71 46 72 54 73 47 74 49 75 55 76 48 77
REMARK SMILES IDX 50 78 51 79 52 80 53 81 77 82 78 83 86 84 79 85 81 86 87 87
REMARK SMILES IDX 80 88 82 89 83 90 84 91 85 92 62 93 63 94 71 95 64 96 66 97
REMARK SMILES IDX 72 98 65 99 67 100 68 101 69 102 70 103
REMARK H PARENT 26 7 33 37 92 56 60 67
REMARK Flexibility Score: inf
ROOT
ATOM      1  C   UNL A   1      38.902  23.423  26.482  1.00  0.00     0.002 C 
ENDROOT
BRANCH   1   2
ATOM      2  C   UNL A   1      38.010  22.611  25.556  1.00  0.00     0.021 C 
BRANCH   2   3
ATOM      3  C   UNL A   1      36.558  22.998  25.783  1.00  0.00     0.116 C 
BRANCH   3   4
ATOM      4  N   UNL A   1      35.866  21.911  26.490  1.00  0.00    -0.352 N 
ATOM      5  C   UNL A   1      34.401  21.932  26.615  1.00  0.00     0.251 C 
ATOM      6  O   UNL A   1      33.803  20.993  27.226  1.00  0.00    -0.270 OA
ATOM      7  H   UNL A   1      36.383  21.169  26.879  1.00  0.00     0.163 HD
BRANCH   5   8
ATOM      8  C   UNL A   1      33.603  23.078  26.014  1.00  0.00     0.067 C 
ATOM      9  C   UNL A   1      31.763  26.236  23.992  1.00  0.00    -0.004 A 
ATOM     10  C   UNL A   1      31.718  27.492  24.570  1.00  0.00     0.032 A 
ATOM     11  C   UNL A   1      32.420  25.228  24.655  1.00  0.00     0.131 A 
ATOM     12  C   UNL A   1      32.319  27.734  25.777  1.00  0.00     0.108 A 
ATOM     13  C   UNL A   1      33.023  25.432  25.883  1.00  0.00     0.019 A 
ATOM     14  O   UNL A   1      32.554  24.018  24.019  1.00  0.00    -0.475 OA
ATOM     15  C   UNL A   1      32.964  26.707  26.433  1.00  0.00     0.036 A 
ATOM     16  C   UNL A   1      33.728  24.312  26.485  1.00  0.00     0.025 C 
ATOM     17  C   UNL A   1      32.642  22.833  24.858  1.00  0.00     0.314 C 
BRANCH   9  18
ATOM     18  C   UNL A   1      31.097  25.976  22.651  1.00  0.00     0.039 C 
BRANCH  18  19
ATOM     19  C   UNL A   1      31.972  26.524  21.536  1.00  0.00     0.005 C 
BRANCH  19  20
ATOM     20  C   UNL A   1      32.644  25.372  20.805  1.00  0.00    -0.003 C 
ATOM     21  C   UNL A   1      32.394  25.507  19.312  1.00  0.00     0.004 C 
ENDBRANCH  19  20
ENDBRANCH  18  19
ENDBRANCH   9  18
BRANCH  12  22
ATOM     22  S   UNL A   1      32.270  29.391  26.504  1.00  0.00     0.310 S 
ATOM     23  F   UNL A   1      31.109  29.853  25.526  1.00  0.00    -0.094 F 
ATOM     24  F   UNL A   1      33.292  29.872  25.406  1.00  0.00    -0.094 F 
ATOM     25  F   UNL A   1      32.227  30.815  27.128  1.00  0.00    -0.094 F 
ATOM     26  F   UNL A   1      31.141  28.926  27.507  1.00  0.00    -0.094 F 
ATOM     27  F   UNL A   1      32.217  27.972  25.811  1.00  0.00    -0.094 F 
ENDBRANCH  12  22
BRANCH  17  28
ATOM     28  C   UNL A   1      33.154  21.671  24.024  1.00  0.00     0.429 C 
ATOM     29  F   UNL A   1      32.566  21.688  22.831  1.00  0.00    -0.167 F 
ATOM     30  F   UNL A   1      34.471  21.781  23.870  1.00  0.00    -0.167 F 
ATOM     31  F   UNL A   1      32.874  20.526  24.640  1.00  0.00    -0.167 F 
ENDBRANCH  17  28
ENDBRANCH   5   8
ENDBRANCH   3   4
ENDBRANCH   2   3
ENDBRANCH   1   2
BRANCH   1  32
ATOM     32  C   UNL A   1      39.999  22.529  27.039  1.00  0.00     0.002 C 
BRANCH  32  33
ATOM     33  C   UNL A   1      39.987  21.197  26.308  1.00  0.00     0.021 C 
BRANCH  33  34
ATOM     34  C   UNL A   1      40.862  20.202  27.054  1.00  0.00     0.116 C 
BRANCH  34  35
ATOM     35  N   UNL A   1      41.763  19.534  26.104  1.00  0.00    -0.352 N 
ATOM     36  C   UNL A   1      42.937  20.247  25.578  1.00  0.00     0.251 C 
ATOM     37  H   UNL A   1      41.581  18.610  25.819  1.00  0.00     0.163 HD
ATOM     38  O   UNL A   1      43.716  19.669  24.756  1.00  0.00    -0.269 OA
BRANCH  36  39
ATOM     39  C   UNL A   1      43.219  21.675  26.016  1.00  0.00     0.039 A 
ATOM     40  C   UNL A   1      43.126  22.706  25.097  1.00  0.00     0.014 A 
ATOM     41  C   UNL A   1      43.547  21.907  27.281  1.00  0.00     0.014 A 
ATOM     42  C   UNL A   1      43.683  23.927  25.546  1.00  0.00     0.010 A 
ATOM     43  C   UNL A   1      43.954  23.158  27.680  1.00  0.00     0.010 A 
ATOM     44  C   UNL A   1      43.944  24.212  26.810  1.00  0.00    -0.014 A 
BRANCH  44  45
ATOM     45  C   UNL A   1      44.215  25.634  27.270  1.00  0.00     0.031 A 
ATOM     46  C   UNL A   1      45.534  26.094  27.262  1.00  0.00     0.074 A 
ATOM     47  C   UNL A   1      43.133  26.397  27.671  1.00  0.00     0.049 A 
ATOM     48  N   UNL A   1      45.975  27.309  27.591  1.00  0.00    -0.248 NA
ATOM     49  C   UNL A   1      46.690  25.274  26.868  1.00  0.00     0.031 C 
ATOM     50  C   UNL A   1      41.800  25.944  27.674  1.00  0.00     0.029 A 
ATOM     51  N   UNL A   1      43.138  27.697  28.129  1.00  0.00    -0.354 N 
ATOM     52  C   UNL A   1      47.299  27.377  27.438  1.00  0.00     0.074 A 
ATOM     53  C   UNL A   1      47.778  26.066  26.976  1.00  0.00     0.031 C 
ATOM     54  C   UNL A   1      41.013  26.951  28.138  1.00  0.00     0.029 A 
ATOM     55  C   UNL A   1      41.842  28.050  28.432  1.00  0.00     0.049 A 
ATOM     56  H   UNL A   1      43.930  28.272  28.224  1.00  0.00     0.167 HD
ATOM     57  C   UNL A   1      48.124  28.479  27.662  1.00  0.00     0.034 A 
ATOM     58  C   UNL A   1      41.388  29.258  28.939  1.00  0.00     0.034 A 
ATOM     59  C   UNL A   1      47.664  29.701  28.129  1.00  0.00     0.049 A 
ATOM     60  C   UNL A   1      42.222  30.343  29.220  1.00  0.00     0.074 A 
ATOM     61  C   UNL A   1      48.482  30.825  28.353  1.00  0.00     0.029 A 
ATOM     62  N   UNL A   1      46.372  30.047  28.455  1.00  0.00    -0.354 N 
ATOM     63  N   UNL A   1      43.540  30.423  29.030  1.00  0.00    -0.248 NA
ATOM     64  C   UNL A   1      41.758  31.616  29.788  1.00  0.00     0.031 C 
ATOM     65  C   UNL A   1      47.695  31.832  28.818  1.00  0.00     0.029 A 
ATOM     66  C   UNL A   1      46.373  31.354  28.892  1.00  0.00     0.049 A 
ATOM     67  H   UNL A   1      45.583  29.461  28.387  1.00  0.00     0.167 HD
ATOM     68  C   UNL A   1      43.985  31.626  29.399  1.00  0.00     0.074 A 
ATOM     69  C   UNL A   1      42.846  32.408  29.898  1.00  0.00     0.031 C 
ATOM     70  C   UNL A   1      45.295  32.104  29.335  1.00  0.00     0.034 A 
BRANCH  57  71
ATOM     71  C   UNL A   1      49.610  28.332  27.381  1.00  0.00     0.023 A 
ATOM     72  C   UNL A   1      50.083  28.543  26.097  1.00  0.00     0.012 A 
ATOM     73  C   UNL A   1      50.432  28.008  28.372  1.00  0.00     0.148 A 
ATOM     74  C   UNL A   1      51.413  28.103  25.896  1.00  0.00     0.002 A 
ATOM     75  C   UNL A   1      51.752  27.723  28.122  1.00  0.00     0.091 A 
ATOM     76  F   UNL A   1      49.973  27.959  29.619  1.00  0.00    -0.205 F 
ATOM     77  C   UNL A   1      52.274  27.852  26.864  1.00  0.00     0.022 A 
BRANCH  75  78
ATOM     78  S   UNL A   1      52.817  27.166  29.475  1.00  0.00     0.127 S 
ATOM     79  O   UNL A   1      52.204  25.928  30.131  1.00  0.00    -0.237 OA
ATOM     80  O   UNL A   1      54.202  26.817  28.924  1.00  0.00    -0.237 OA
ATOM     81  O   UNL A   1      52.964  28.413  30.637  1.00  0.00    -0.744 OA
ENDBRANCH  75  78
ENDBRANCH  57  71
BRANCH  58  82
ATOM     82  C   UNL A   1      39.899  29.411  29.204  1.00  0.00     0.023 A 
ATOM     83  C   UNL A   1      39.038  29.620  28.142  1.00  0.00     0.012 A 
ATOM     84  C   UNL A   1      39.451  29.344  30.453  1.00  0.00     0.148 A 
ATOM     85  C   UNL A   1      37.742  30.040  28.528  1.00  0.00     0.002 A 
ATOM     86  C   UNL A   1      38.139  29.635  30.741  1.00  0.00     0.091 A 
ATOM     87  F   UNL A   1      40.278  28.994  31.434  1.00  0.00    -0.205 F 
ATOM     88  C   UNL A   1      37.244  29.910  29.744  1.00  0.00     0.022 A 
BRANCH  86  89
ATOM     89  S   UNL A   1      37.587  29.655  32.464  1.00  0.00     0.127 S 
ATOM     90  O   UNL A   1      37.444  28.218  32.971  1.00  0.00    -0.237 OA
ATOM     91  O   UNL A   1      38.616  30.397  33.319  1.00  0.00    -0.237 OA
ATOM     92  O   UNL A   1      36.077  30.451  32.570  1.00  0.00    -0.744 OA
ENDBRANCH  86  89
ENDBRANCH  58  82
BRANCH  70  93
ATOM     93  C   UNL A   1      45.556  33.534  29.779  1.00  0.00     0.023 A 
ATOM     94  C   UNL A   1      45.466  34.564  28.857  1.00  0.00     0.012 A 
ATOM     95  C   UNL A   1      45.863  33.771  31.048  1.00  0.00     0.148 A 
ATOM     96  C   UNL A   1      46.005  35.790  29.314  1.00  0.00     0.002 A 
ATOM     97  C   UNL A   1      46.252  35.026  31.452  1.00  0.00     0.091 A 
ATOM     98  F   UNL A   1      45.795  32.784  31.938  1.00  0.00    -0.205 F 
ATOM     99  C   UNL A   1      46.243  36.079  30.580  1.00  0.00     0.022 A 
BRANCH  97 100
ATOM    100  S   UNL A   1      46.782  35.289  33.162  1.00  0.00     0.127 S 
ATOM    101  O   UNL A   1      47.977  34.384  33.471  1.00  0.00    -0.237 OA
ATOM    102  O   UNL A   1      47.188  36.752  33.351  1.00  0.00    -0.237 OA
ATOM    103  O   UNL A   1      45.493  34.913  34.223  1.00  0.00    -0.744 OA
ENDBRANCH  97 100
ENDBRANCH  70  93
ENDBRANCH  44  45
ENDBRANCH  36  39
ENDBRANCH  34  35
ENDBRANCH  33  34
ENDBRANCH  32  33
ENDBRANCH   1  32
TORSDOF 21
ENDMDL
