MODEL 1
REMARK VINA RESULT:     -11.3      0.000      0.000
REMARK SMILES CCOc1ccc(-c2ccc(=O)n(CC(=O)NCCCCCCNC(=O)c3ccc(-c4c5nc(c(-c6cccc(S(=O)(=O)[O-])c6F)c6ccc([nH]6)c(-c6cccc(S(=O)(=O)[O-])c6F)c6nc(c(-c7cccc(S(=O)(=O)[O-])c7F)c7ccc4[nH]7)C=C6)C=C5)cc3)n2)cc1
REMARK SMILES IDX 20 1 19 2 18 3 17 4 15 5 16 6 14 8 13 9 8 10 9 11 90 12
REMARK SMILES IDX 10 13 11 14 12 15 7 16 4 17 5 18 92 19 6 20 91 21 3 22 2 23
REMARK SMILES IDX 1 24 21 25 22 26 23 27 24 28 25 29 26 31 27 32 28 33 89 34
REMARK SMILES IDX 29 35 88 36 30 37 31 38 32 39 82 40 33 41 87 42 81 43 83 44
REMARK SMILES IDX 34 45 86 46 80 47 79 48 35 50 67 51 47 52 66 53 48 54 51 55
REMARK SMILES IDX 65 56 84 57 49 58 50 59 64 61 85 62 52 63 36 64 37 65 45 66
REMARK SMILES IDX 38 67 40 68 46 69 39 70 41 71 42 72 43 73 44 74 68 75 69 76
REMARK SMILES IDX 77 77 70 78 72 79 78 80 71 81 73 82 74 83 75 84 76 85 53 86
REMARK SMILES IDX 54 87 62 88 55 89 57 90 63 91 56 92 58 93 59 94 60 95 61 96
REMARK H PARENT 17 7 24 30 83 49 51 60
REMARK Flexibility Score: inf
ROOT
ATOM      1  C   UNL A   1      33.168  25.512  25.991  1.00  0.00     0.002 C 
ENDROOT
BRANCH   1   2
ATOM      2  C   UNL A   1      34.177  24.390  26.273  1.00  0.00     0.021 C 
BRANCH   2   3
ATOM      3  C   UNL A   1      33.538  23.095  26.774  1.00  0.00     0.116 C 
BRANCH   3   4
ATOM      4  N   UNL A   1      32.177  23.312  27.224  1.00  0.00    -0.354 N 
ATOM      5  C   UNL A   1      31.002  23.010  26.597  1.00  0.00     0.241 C 
ATOM      6  O   UNL A   1      29.968  23.109  27.264  1.00  0.00    -0.273 OA
ATOM      7  H   UNL A   1      32.087  23.737  28.106  1.00  0.00     0.163 HD
BRANCH   5   8
ATOM      8  C   UNL A   1      30.982  22.397  25.191  1.00  0.00     0.248 C 
BRANCH   8   9
ATOM      9  N   UNL A   1      31.390  23.325  24.143  1.00  0.00    -0.220 N 
ATOM     10  C   UNL A   1      31.032  25.343  23.121  1.00  0.00     0.091 A 
ATOM     11  C   UNL A   1      32.066  25.081  22.102  1.00  0.00     0.036 A 
ATOM     12  N   UNL A   1      30.725  24.531  24.085  1.00  0.00    -0.169 NA
ATOM     13  C   UNL A   1      32.773  23.959  22.251  1.00  0.00     0.075 A 
ATOM     14  C   UNL A   1      32.478  23.008  23.344  1.00  0.00     0.267 A 
ATOM     15  O   UNL A   1      33.171  22.001  23.462  1.00  0.00    -0.268 OA
BRANCH  10  16
ATOM     16  C   UNL A   1      30.346  26.649  23.035  1.00  0.00     0.002 A 
ATOM     17  C   UNL A   1      28.972  29.065  22.913  1.00  0.00     0.119 A 
ATOM     18  C   UNL A   1      30.232  28.955  22.326  1.00  0.00     0.047 A 
ATOM     19  C   UNL A   1      28.374  27.957  23.512  1.00  0.00     0.047 A 
ATOM     20  C   UNL A   1      30.931  27.745  22.391  1.00  0.00     0.014 A 
ATOM     21  C   UNL A   1      29.063  26.749  23.581  1.00  0.00     0.014 A 
BRANCH  17  22
ATOM     22  O   UNL A   1      28.279  30.231  22.760  1.00  0.00    -0.494 OA
BRANCH  22  23
ATOM     23  C   UNL A   1      28.880  31.138  21.828  1.00  0.00     0.226 C 
ATOM     24  C   UNL A   1      28.779  32.583  22.293  1.00  0.00     0.049 C 
ENDBRANCH  22  23
ENDBRANCH  17  22
ENDBRANCH  10  16
ENDBRANCH   8   9
ENDBRANCH   5   8
ENDBRANCH   3   4
ENDBRANCH   2   3
ENDBRANCH   1   2
BRANCH   1  25
ATOM     25  C   UNL A   1      33.786  26.885  25.702  1.00  0.00     0.002 C 
BRANCH  25  26
ATOM     26  C   UNL A   1      32.779  28.021  25.505  1.00  0.00     0.021 C 
BRANCH  26  27
ATOM     27  C   UNL A   1      33.397  29.347  25.076  1.00  0.00     0.116 C 
BRANCH  27  28
ATOM     28  N   UNL A   1      32.757  30.482  25.724  1.00  0.00    -0.352 N 
ATOM     29  C   UNL A   1      33.092  31.117  26.892  1.00  0.00     0.251 C 
ATOM     30  H   UNL A   1      31.970  30.847  25.257  1.00  0.00     0.163 HD
ATOM     31  O   UNL A   1      32.315  31.927  27.397  1.00  0.00    -0.269 OA
BRANCH  29  32
ATOM     32  C   UNL A   1      34.381  30.817  27.551  1.00  0.00     0.039 A 
ATOM     33  C   UNL A   1      35.328  31.836  27.683  1.00  0.00     0.014 A 
ATOM     34  C   UNL A   1      34.655  29.534  28.033  1.00  0.00     0.014 A 
ATOM     35  C   UNL A   1      36.529  31.579  28.349  1.00  0.00     0.010 A 
ATOM     36  C   UNL A   1      35.816  29.303  28.763  1.00  0.00     0.010 A 
ATOM     37  C   UNL A   1      36.769  30.320  28.923  1.00  0.00    -0.014 A 
BRANCH  37  38
ATOM     38  C   UNL A   1      38.007  30.052  29.700  1.00  0.00     0.031 A 
ATOM     39  C   UNL A   1      39.045  29.098  29.176  1.00  0.00     0.074 A 
ATOM     40  C   UNL A   1      38.157  30.605  30.920  1.00  0.00     0.049 A 
ATOM     41  N   UNL A   1      40.155  28.697  29.739  1.00  0.00    -0.248 NA
ATOM     42  C   UNL A   1      38.787  28.491  27.860  1.00  0.00     0.031 C 
ATOM     43  C   UNL A   1      37.183  31.479  31.577  1.00  0.00     0.029 A 
ATOM     44  N   UNL A   1      39.171  30.489  31.838  1.00  0.00    -0.354 N 
ATOM     45  C   UNL A   1      40.714  27.774  28.863  1.00  0.00     0.074 A 
ATOM     46  C   UNL A   1      39.796  27.640  27.752  1.00  0.00     0.031 C 
ATOM     47  C   UNL A   1      37.644  31.817  32.792  1.00  0.00     0.029 A 
ATOM     48  C   UNL A   1      38.927  31.159  33.014  1.00  0.00     0.049 A 
ATOM     49  H   UNL A   1      39.994  29.975  31.670  1.00  0.00     0.167 HD
ATOM     50  C   UNL A   1      41.898  27.123  28.955  1.00  0.00     0.034 A 
ATOM     51  C   UNL A   1      39.647  31.225  34.151  1.00  0.00     0.034 A 
ATOM     52  C   UNL A   1      42.819  27.277  30.050  1.00  0.00     0.049 A 
ATOM     53  C   UNL A   1      40.971  30.516  34.221  1.00  0.00     0.074 A 
ATOM     54  C   UNL A   1      44.076  26.719  30.202  1.00  0.00     0.029 A 
ATOM     55  N   UNL A   1      42.578  28.034  31.186  1.00  0.00    -0.354 N 
ATOM     56  N   UNL A   1      41.554  29.766  33.318  1.00  0.00    -0.248 NA
ATOM     57  C   UNL A   1      41.755  30.692  35.453  1.00  0.00     0.031 C 
ATOM     58  C   UNL A   1      44.582  27.114  31.445  1.00  0.00     0.029 A 
ATOM     59  C   UNL A   1      43.657  27.949  32.050  1.00  0.00     0.049 A 
ATOM     60  H   UNL A   1      41.760  28.555  31.354  1.00  0.00     0.167 HD
ATOM     61  C   UNL A   1      42.785  29.408  33.856  1.00  0.00     0.074 A 
ATOM     62  C   UNL A   1      42.871  30.041  35.155  1.00  0.00     0.031 C 
ATOM     63  C   UNL A   1      43.750  28.616  33.325  1.00  0.00     0.034 A 
BRANCH  50  64
ATOM     64  C   UNL A   1      42.280  26.213  27.813  1.00  0.00     0.023 A 
ATOM     65  C   UNL A   1      43.110  26.702  26.782  1.00  0.00     0.012 A 
ATOM     66  C   UNL A   1      41.849  24.873  27.773  1.00  0.00     0.148 A 
ATOM     67  C   UNL A   1      43.463  25.888  25.706  1.00  0.00     0.002 A 
ATOM     68  C   UNL A   1      42.247  24.053  26.723  1.00  0.00     0.091 A 
ATOM     69  F   UNL A   1      41.046  24.429  28.750  1.00  0.00    -0.205 F 
ATOM     70  C   UNL A   1      43.039  24.563  25.681  1.00  0.00     0.022 A 
BRANCH  68  71
ATOM     71  S   UNL A   1      41.821  22.310  26.640  1.00  0.00     0.127 S 
ATOM     72  O   UNL A   1      42.419  21.921  25.363  1.00  0.00    -0.237 OA
ATOM     73  O   UNL A   1      42.498  21.771  27.820  1.00  0.00    -0.237 OA
ATOM     74  O   UNL A   1      40.367  22.250  26.695  1.00  0.00    -0.744 OA
ENDBRANCH  68  71
ENDBRANCH  50  64
BRANCH  51  75
ATOM     75  C   UNL A   1      39.141  32.032  35.296  1.00  0.00     0.023 A 
ATOM     76  C   UNL A   1      39.237  33.437  35.257  1.00  0.00     0.012 A 
ATOM     77  C   UNL A   1      38.521  31.415  36.400  1.00  0.00     0.148 A 
ATOM     78  C   UNL A   1      38.750  34.211  36.312  1.00  0.00     0.002 A 
ATOM     79  C   UNL A   1      37.986  32.195  37.419  1.00  0.00     0.091 A 
ATOM     80  F   UNL A   1      38.447  30.077  36.419  1.00  0.00    -0.205 F 
ATOM     81  C   UNL A   1      38.114  33.591  37.385  1.00  0.00     0.022 A 
BRANCH  79  82
ATOM     82  S   UNL A   1      37.032  31.494  38.770  1.00  0.00     0.127 S 
ATOM     83  O   UNL A   1      36.830  30.122  38.312  1.00  0.00    -0.237 OA
ATOM     84  O   UNL A   1      37.957  31.640  39.894  1.00  0.00    -0.237 OA
ATOM     85  O   UNL A   1      35.829  32.310  38.870  1.00  0.00    -0.744 OA
ENDBRANCH  79  82
ENDBRANCH  51  75
BRANCH  63  86
ATOM     86  C   UNL A   1      45.007  28.412  34.130  1.00  0.00     0.023 A 
ATOM     87  C   UNL A   1      45.993  29.418  34.170  1.00  0.00     0.012 A 
ATOM     88  C   UNL A   1      45.178  27.247  34.905  1.00  0.00     0.148 A 
ATOM     89  C   UNL A   1      47.144  29.254  34.939  1.00  0.00     0.002 A 
ATOM     90  C   UNL A   1      46.303  27.114  35.710  1.00  0.00     0.091 A 
ATOM     91  F   UNL A   1      44.239  26.293  34.841  1.00  0.00    -0.205 F 
ATOM     92  C   UNL A   1      47.294  28.109  35.718  1.00  0.00     0.022 A 
BRANCH  90  93
ATOM     93  S   UNL A   1      46.534  25.720  36.821  1.00  0.00     0.127 S 
ATOM     94  O   UNL A   1      46.186  24.592  35.958  1.00  0.00    -0.237 OA
ATOM     95  O   UNL A   1      47.957  25.820  37.149  1.00  0.00    -0.237 OA
ATOM     96  O   UNL A   1      45.636  25.947  37.944  1.00  0.00    -0.744 OA
ENDBRANCH  90  93
ENDBRANCH  63  86
ENDBRANCH  37  38
ENDBRANCH  29  32
ENDBRANCH  27  28
ENDBRANCH  26  27
ENDBRANCH  25  26
ENDBRANCH   1  25
TORSDOF 20
ENDMDL
MODEL 2
REMARK VINA RESULT:     -11.1      2.516      7.708
REMARK SMILES CCOc1ccc(-c2ccc(=O)n(CC(=O)NCCCCCCNC(=O)c3ccc(-c4c5nc(c(-c6cccc(S(=O)(=O)[O-])c6F)c6ccc([nH]6)c(-c6cccc(S(=O)(=O)[O-])c6F)c6nc(c(-c7cccc(S(=O)(=O)[O-])c7F)c7ccc4[nH]7)C=C6)C=C5)cc3)n2)cc1
REMARK SMILES IDX 20 1 19 2 18 3 17 4 15 5 16 6 14 8 13 9 8 10 9 11 90 12
REMARK SMILES IDX 10 13 11 14 12 15 7 16 4 17 5 18 92 19 6 20 91 21 3 22 2 23
REMARK SMILES IDX 1 24 21 25 22 26 23 27 24 28 25 29 26 31 27 32 28 33 89 34
REMARK SMILES IDX 29 35 88 36 30 37 31 38 32 39 82 40 33 41 87 42 81 43 83 44
REMARK SMILES IDX 34 45 86 46 80 47 79 48 35 50 67 51 47 52 66 53 48 54 51 55
REMARK SMILES IDX 65 56 84 57 49 58 50 59 64 61 85 62 52 63 36 64 37 65 45 66
REMARK SMILES IDX 38 67 40 68 46 69 39 70 41 71 42 72 43 73 44 74 68 75 69 76
REMARK SMILES IDX 77 77 70 78 72 79 78 80 71 81 73 82 74 83 75 84 76 85 53 86
REMARK SMILES IDX 54 87 62 88 55 89 57 90 63 91 56 92 58 93 59 94 60 95 61 96
REMARK H PARENT 17 7 24 30 83 49 51 60
REMARK Flexibility Score: inf
ROOT
ATOM      1  C   UNL A   1      33.224  25.482  26.379  1.00  0.00     0.002 C 
ENDROOT
BRANCH   1   2
ATOM      2  C   UNL A   1      34.043  24.202  26.167  1.00  0.00     0.021 C 
BRANCH   2   3
ATOM      3  C   UNL A   1      33.452  22.969  26.852  1.00  0.00     0.116 C 
BRANCH   3   4
ATOM      4  N   UNL A   1      32.111  23.223  27.340  1.00  0.00    -0.354 N 
ATOM      5  C   UNL A   1      30.911  22.894  26.777  1.00  0.00     0.241 C 
ATOM      6  O   UNL A   1      29.903  23.040  27.476  1.00  0.00    -0.273 OA
ATOM      7  H   UNL A   1      32.057  23.700  28.199  1.00  0.00     0.163 HD
BRANCH   5   8
ATOM      8  C   UNL A   1      30.833  22.199  25.412  1.00  0.00     0.248 C 
BRANCH   8   9
ATOM      9  N   UNL A   1      31.370  22.999  24.318  1.00  0.00    -0.220 N 
ATOM     10  C   UNL A   1      31.348  25.010  23.221  1.00  0.00     0.091 A 
ATOM     11  C   UNL A   1      32.290  24.529  22.192  1.00  0.00     0.036 A 
ATOM     12  N   UNL A   1      30.930  24.302  24.224  1.00  0.00    -0.169 NA
ATOM     13  C   UNL A   1      32.789  23.305  22.372  1.00  0.00     0.075 A 
ATOM     14  C   UNL A   1      32.362  22.463  23.510  1.00  0.00     0.267 A 
ATOM     15  O   UNL A   1      32.867  21.354  23.654  1.00  0.00    -0.268 OA
BRANCH  10  16
ATOM     16  C   UNL A   1      30.903  26.414  23.095  1.00  0.00     0.002 A 
ATOM     17  C   UNL A   1      30.161  29.082  22.841  1.00  0.00     0.119 A 
ATOM     18  C   UNL A   1      29.217  28.136  23.240  1.00  0.00     0.047 A 
ATOM     19  C   UNL A   1      31.486  28.707  22.622  1.00  0.00     0.047 A 
ATOM     20  C   UNL A   1      29.583  26.792  23.362  1.00  0.00     0.014 A 
ATOM     21  C   UNL A   1      31.858  27.371  22.741  1.00  0.00     0.014 A 
BRANCH  17  22
ATOM     22  O   UNL A   1      29.797  30.397  22.813  1.00  0.00    -0.494 OA
BRANCH  22  23
ATOM     23  C   UNL A   1      28.553  30.663  23.474  1.00  0.00     0.226 C 
ATOM     24  C   UNL A   1      27.814  31.836  22.847  1.00  0.00     0.049 C 
ENDBRANCH  22  23
ENDBRANCH  17  22
ENDBRANCH  10  16
ENDBRANCH   8   9
ENDBRANCH   5   8
ENDBRANCH   3   4
ENDBRANCH   2   3
ENDBRANCH   1   2
BRANCH   1  25
ATOM     25  C   UNL A   1      33.822  26.748  25.753  1.00  0.00     0.002 C 
BRANCH  25  26
ATOM     26  C   UNL A   1      33.642  28.025  26.577  1.00  0.00     0.021 C 
BRANCH  26  27
ATOM     27  C   UNL A   1      34.465  29.213  26.089  1.00  0.00     0.116 C 
BRANCH  27  28
ATOM     28  N   UNL A   1      34.056  30.458  26.722  1.00  0.00    -0.352 N 
ATOM     29  C   UNL A   1      34.560  31.068  27.841  1.00  0.00     0.251 C 
ATOM     30  H   UNL A   1      33.310  30.929  26.284  1.00  0.00     0.163 HD
ATOM     31  O   UNL A   1      33.955  32.010  28.353  1.00  0.00    -0.269 OA
BRANCH  29  32
ATOM     32  C   UNL A   1      35.823  30.587  28.439  1.00  0.00     0.039 A 
ATOM     33  C   UNL A   1      35.769  29.675  29.496  1.00  0.00     0.014 A 
ATOM     34  C   UNL A   1      37.057  31.037  27.960  1.00  0.00     0.014 A 
ATOM     35  C   UNL A   1      36.955  29.172  30.035  1.00  0.00     0.010 A 
ATOM     36  C   UNL A   1      38.233  30.477  28.446  1.00  0.00     0.010 A 
ATOM     37  C   UNL A   1      38.197  29.544  29.494  1.00  0.00    -0.014 A 
BRANCH  37  38
ATOM     38  C   UNL A   1      39.465  28.963  30.004  1.00  0.00     0.031 A 
ATOM     39  C   UNL A   1      40.148  29.558  31.204  1.00  0.00     0.074 A 
ATOM     40  C   UNL A   1      40.046  27.947  29.334  1.00  0.00     0.049 A 
ATOM     41  N   UNL A   1      41.286  29.223  31.756  1.00  0.00    -0.248 NA
ATOM     42  C   UNL A   1      39.482  30.698  31.852  1.00  0.00     0.031 C 
ATOM     43  C   UNL A   1      39.528  27.339  28.107  1.00  0.00     0.029 A 
ATOM     44  N   UNL A   1      41.216  27.269  29.572  1.00  0.00    -0.354 N 
ATOM     45  C   UNL A   1      41.485  30.124  32.794  1.00  0.00     0.074 A 
ATOM     46  C   UNL A   1      40.374  31.050  32.767  1.00  0.00     0.031 C 
ATOM     47  C   UNL A   1      40.376  26.382  27.699  1.00  0.00     0.029 A 
ATOM     48  C   UNL A   1      41.513  26.331  28.613  1.00  0.00     0.049 A 
ATOM     49  H   UNL A   1      41.788  27.440  30.355  1.00  0.00     0.167 HD
ATOM     50  C   UNL A   1      42.483  30.160  33.710  1.00  0.00     0.034 A 
ATOM     51  C   UNL A   1      42.586  25.528  28.473  1.00  0.00     0.034 A 
ATOM     52  C   UNL A   1      43.575  29.224  33.749  1.00  0.00     0.049 A 
ATOM     53  C   UNL A   1      43.668  25.566  29.515  1.00  0.00     0.074 A 
ATOM     54  C   UNL A   1      44.595  29.130  34.678  1.00  0.00     0.029 A 
ATOM     55  N   UNL A   1      43.797  28.228  32.810  1.00  0.00    -0.354 N 
ATOM     56  N   UNL A   1      43.763  26.326  30.579  1.00  0.00    -0.248 NA
ATOM     57  C   UNL A   1      44.774  24.608  29.361  1.00  0.00     0.031 C 
ATOM     58  C   UNL A   1      45.452  28.096  34.283  1.00  0.00     0.029 A 
ATOM     59  C   UNL A   1      44.944  27.521  33.130  1.00  0.00     0.049 A 
ATOM     60  H   UNL A   1      43.223  28.049  32.030  1.00  0.00     0.167 HD
ATOM     61  C   UNL A   1      44.918  25.920  31.237  1.00  0.00     0.074 A 
ATOM     62  C   UNL A   1      45.477  24.831  30.463  1.00  0.00     0.031 C 
ATOM     63  C   UNL A   1      45.471  26.412  32.374  1.00  0.00     0.034 A 
BRANCH  50  64
ATOM     64  C   UNL A   1      42.411  31.228  34.773  1.00  0.00     0.023 A 
ATOM     65  C   UNL A   1      41.781  30.945  36.003  1.00  0.00     0.012 A 
ATOM     66  C   UNL A   1      42.989  32.496  34.572  1.00  0.00     0.148 A 
ATOM     67  C   UNL A   1      41.684  31.920  36.996  1.00  0.00     0.002 A 
ATOM     68  C   UNL A   1      42.934  33.447  35.586  1.00  0.00     0.091 A 
ATOM     69  F   UNL A   1      43.567  32.758  33.391  1.00  0.00    -0.205 F 
ATOM     70  C   UNL A   1      42.267  33.166  36.790  1.00  0.00     0.022 A 
BRANCH  68  71
ATOM     71  S   UNL A   1      43.723  35.055  35.451  1.00  0.00     0.127 S 
ATOM     72  O   UNL A   1      45.115  34.680  35.207  1.00  0.00    -0.237 OA
ATOM     73  O   UNL A   1      43.037  35.638  34.297  1.00  0.00    -0.237 OA
ATOM     74  O   UNL A   1      43.469  35.734  36.714  1.00  0.00    -0.744 OA
ENDBRANCH  68  71
ENDBRANCH  50  64
BRANCH  51  75
ATOM     75  C   UNL A   1      42.658  24.590  27.317  1.00  0.00     0.023 A 
ATOM     76  C   UNL A   1      43.324  24.983  26.140  1.00  0.00     0.012 A 
ATOM     77  C   UNL A   1      42.112  23.295  27.401  1.00  0.00     0.148 A 
ATOM     78  C   UNL A   1      43.419  24.110  25.054  1.00  0.00     0.002 A 
ATOM     79  C   UNL A   1      42.262  22.411  26.338  1.00  0.00     0.091 A 
ATOM     80  F   UNL A   1      41.478  22.946  28.528  1.00  0.00    -0.205 F 
ATOM     81  C   UNL A   1      42.900  22.822  25.158  1.00  0.00     0.022 A 
BRANCH  79  82
ATOM     82  S   UNL A   1      41.747  20.693  26.433  1.00  0.00     0.127 S 
ATOM     83  O   UNL A   1      40.307  20.801  26.218  1.00  0.00    -0.237 OA
ATOM     84  O   UNL A   1      42.494  20.096  25.326  1.00  0.00    -0.237 OA
ATOM     85  O   UNL A   1      42.155  20.230  27.753  1.00  0.00    -0.744 OA
ENDBRANCH  79  82
ENDBRANCH  51  75
BRANCH  63  86
ATOM     86  C   UNL A   1      46.731  25.759  32.878  1.00  0.00     0.023 A 
ATOM     87  C   UNL A   1      47.990  26.276  32.515  1.00  0.00     0.012 A 
ATOM     88  C   UNL A   1      46.664  24.670  33.772  1.00  0.00     0.148 A 
ATOM     89  C   UNL A   1      49.162  25.700  33.004  1.00  0.00     0.002 A 
ATOM     90  C   UNL A   1      47.834  24.136  34.297  1.00  0.00     0.091 A 
ATOM     91  F   UNL A   1      45.458  24.180  34.092  1.00  0.00    -0.205 F 
ATOM     92  C   UNL A   1      49.085  24.640  33.903  1.00  0.00     0.022 A 
BRANCH  90  93
ATOM     93  S   UNL A   1      47.829  22.834  35.535  1.00  0.00     0.127 S 
ATOM     94  O   UNL A   1      47.030  23.440  36.600  1.00  0.00    -0.237 OA
ATOM     95  O   UNL A   1      47.169  21.737  34.827  1.00  0.00    -0.237 OA
ATOM     96  O   UNL A   1      49.226  22.588  35.866  1.00  0.00    -0.744 OA
ENDBRANCH  90  93
ENDBRANCH  63  86
ENDBRANCH  37  38
ENDBRANCH  29  32
ENDBRANCH  27  28
ENDBRANCH  26  27
ENDBRANCH  25  26
ENDBRANCH   1  25
TORSDOF 20
ENDMDL
MODEL 3
REMARK VINA RESULT:     -11.1      2.114      8.584
REMARK SMILES CCOc1ccc(-c2ccc(=O)n(CC(=O)NCCCCCCNC(=O)c3ccc(-c4c5nc(c(-c6cccc(S(=O)(=O)[O-])c6F)c6ccc([nH]6)c(-c6cccc(S(=O)(=O)[O-])c6F)c6nc(c(-c7cccc(S(=O)(=O)[O-])c7F)c7ccc4[nH]7)C=C6)C=C5)cc3)n2)cc1
REMARK SMILES IDX 20 1 19 2 18 3 17 4 15 5 16 6 14 8 13 9 8 10 9 11 90 12
REMARK SMILES IDX 10 13 11 14 12 15 7 16 4 17 5 18 92 19 6 20 91 21 3 22 2 23
REMARK SMILES IDX 1 24 21 25 22 26 23 27 24 28 25 29 26 31 27 32 28 33 89 34
REMARK SMILES IDX 29 35 88 36 30 37 31 38 32 39 82 40 33 41 87 42 81 43 83 44
REMARK SMILES IDX 34 45 86 46 80 47 79 48 35 50 67 51 47 52 66 53 48 54 51 55
REMARK SMILES IDX 65 56 84 57 49 58 50 59 64 61 85 62 52 63 36 64 37 65 45 66
REMARK SMILES IDX 38 67 40 68 46 69 39 70 41 71 42 72 43 73 44 74 68 75 69 76
REMARK SMILES IDX 77 77 70 78 72 79 78 80 71 81 73 82 74 83 75 84 76 85 53 86
REMARK SMILES IDX 54 87 62 88 55 89 57 90 63 91 56 92 58 93 59 94 60 95 61 96
REMARK H PARENT 17 7 24 30 83 49 51 60
REMARK Flexibility Score: inf
ROOT
ATOM      1  C   UNL A   1      32.818  29.364  25.811  1.00  0.00     0.002 C 
ENDROOT
BRANCH   1   2
ATOM      2  C   UNL A   1      33.612  28.728  24.662  1.00  0.00     0.021 C 
BRANCH   2   3
ATOM      3  C   UNL A   1      32.743  28.255  23.497  1.00  0.00     0.116 C 
BRANCH   3   4
ATOM      4  N   UNL A   1      33.409  27.231  22.717  1.00  0.00    -0.354 N 
ATOM      5  C   UNL A   1      33.002  25.957  22.438  1.00  0.00     0.241 C 
ATOM      6  O   UNL A   1      33.646  25.336  21.587  1.00  0.00    -0.273 OA
ATOM      7  H   UNL A   1      34.277  27.490  22.334  1.00  0.00     0.163 HD
BRANCH   5   8
ATOM      8  C   UNL A   1      31.697  25.391  23.012  1.00  0.00     0.248 C 
BRANCH   8   9
ATOM      9  N   UNL A   1      31.899  24.490  24.141  1.00  0.00    -0.220 N 
ATOM     10  C   UNL A   1      32.500  22.393  24.838  1.00  0.00     0.091 A 
ATOM     11  C   UNL A   1      32.203  22.709  26.248  1.00  0.00     0.036 A 
ATOM     12  N   UNL A   1      32.374  23.228  23.854  1.00  0.00    -0.169 NA
ATOM     13  C   UNL A   1      31.856  23.970  26.512  1.00  0.00     0.075 A 
ATOM     14  C   UNL A   1      31.718  24.968  25.430  1.00  0.00     0.267 A 
ATOM     15  O   UNL A   1      31.424  26.125  25.720  1.00  0.00    -0.268 OA
BRANCH  10  16
ATOM     16  C   UNL A   1      33.016  21.035  24.568  1.00  0.00     0.002 A 
ATOM     17  C   UNL A   1      33.898  18.455  24.018  1.00  0.00     0.119 A 
ATOM     18  C   UNL A   1      34.709  19.321  24.751  1.00  0.00     0.047 A 
ATOM     19  C   UNL A   1      32.627  18.855  23.608  1.00  0.00     0.047 A 
ATOM     20  C   UNL A   1      34.273  20.623  25.023  1.00  0.00     0.014 A 
ATOM     21  C   UNL A   1      32.187  20.149  23.875  1.00  0.00     0.014 A 
BRANCH  17  22
ATOM     22  O   UNL A   1      34.312  17.166  23.841  1.00  0.00    -0.494 OA
BRANCH  22  23
ATOM     23  C   UNL A   1      34.234  16.368  25.029  1.00  0.00     0.226 C 
ATOM     24  C   UNL A   1      35.584  15.780  25.410  1.00  0.00     0.049 C 
ENDBRANCH  22  23
ENDBRANCH  17  22
ENDBRANCH  10  16
ENDBRANCH   8   9
ENDBRANCH   5   8
ENDBRANCH   3   4
ENDBRANCH   2   3
ENDBRANCH   1   2
BRANCH   1  25
ATOM     25  C   UNL A   1      31.545  30.108  25.389  1.00  0.00     0.002 C 
BRANCH  25  26
ATOM     26  C   UNL A   1      31.324  31.456  26.077  1.00  0.00     0.021 C 
BRANCH  26  27
ATOM     27  C   UNL A   1      32.344  31.787  27.162  1.00  0.00     0.116 C 
BRANCH  27  28
ATOM     28  N   UNL A   1      32.588  33.218  27.264  1.00  0.00    -0.352 N 
ATOM     29  C   UNL A   1      33.579  33.883  27.938  1.00  0.00     0.251 C 
ATOM     30  H   UNL A   1      31.950  33.791  26.778  1.00  0.00     0.163 HD
ATOM     31  O   UNL A   1      33.510  35.103  28.086  1.00  0.00    -0.269 OA
BRANCH  29  32
ATOM     32  C   UNL A   1      34.723  33.132  28.497  1.00  0.00     0.039 A 
ATOM     33  C   UNL A   1      36.015  33.634  28.323  1.00  0.00     0.014 A 
ATOM     34  C   UNL A   1      34.521  31.934  29.189  1.00  0.00     0.014 A 
ATOM     35  C   UNL A   1      37.099  32.962  28.890  1.00  0.00     0.010 A 
ATOM     36  C   UNL A   1      35.592  31.309  29.819  1.00  0.00     0.010 A 
ATOM     37  C   UNL A   1      36.894  31.811  29.670  1.00  0.00    -0.014 A 
BRANCH  37  38
ATOM     38  C   UNL A   1      38.027  31.126  30.344  1.00  0.00     0.031 A 
ATOM     39  C   UNL A   1      38.405  31.487  31.755  1.00  0.00     0.074 A 
ATOM     40  C   UNL A   1      38.769  30.236  29.655  1.00  0.00     0.049 A 
ATOM     41  N   UNL A   1      39.396  31.040  32.482  1.00  0.00    -0.248 NA
ATOM     42  C   UNL A   1      37.582  32.505  32.425  1.00  0.00     0.031 C 
ATOM     43  C   UNL A   1      38.558  29.865  28.255  1.00  0.00     0.029 A 
ATOM     44  N   UNL A   1      39.871  29.507  30.029  1.00  0.00    -0.354 N 
ATOM     45  C   UNL A   1      39.332  31.739  33.681  1.00  0.00     0.074 A 
ATOM     46  C   UNL A   1      38.234  32.673  33.566  1.00  0.00     0.031 C 
ATOM     47  C   UNL A   1      39.499  28.981  27.888  1.00  0.00     0.029 A 
ATOM     48  C   UNL A   1      40.400  28.749  29.012  1.00  0.00     0.049 A 
ATOM     49  H   UNL A   1      40.246  29.526  30.940  1.00  0.00     0.167 HD
ATOM     50  C   UNL A   1      40.095  31.594  34.792  1.00  0.00     0.034 A 
ATOM     51  C   UNL A   1      41.496  27.966  28.981  1.00  0.00     0.034 A 
ATOM     52  C   UNL A   1      41.172  30.648  34.912  1.00  0.00     0.049 A 
ATOM     53  C   UNL A   1      42.312  27.800  30.232  1.00  0.00     0.074 A 
ATOM     54  C   UNL A   1      41.957  30.372  36.017  1.00  0.00     0.029 A 
ATOM     55  N   UNL A   1      41.626  29.831  33.887  1.00  0.00    -0.354 N 
ATOM     56  N   UNL A   1      42.145  28.357  31.407  1.00  0.00    -0.248 NA
ATOM     57  C   UNL A   1      43.447  26.866  30.166  1.00  0.00     0.031 C 
ATOM     58  C   UNL A   1      42.906  29.411  35.651  1.00  0.00     0.029 A 
ATOM     59  C   UNL A   1      42.687  29.059  34.330  1.00  0.00     0.049 A 
ATOM     60  H   UNL A   1      41.248  29.804  32.978  1.00  0.00     0.167 HD
ATOM     61  C   UNL A   1      43.130  27.820  32.228  1.00  0.00     0.074 A 
ATOM     62  C   UNL A   1      43.876  26.877  31.421  1.00  0.00     0.031 C 
ATOM     63  C   UNL A   1      43.398  28.093  33.529  1.00  0.00     0.034 A 
BRANCH  50  64
ATOM     64  C   UNL A   1      39.758  32.458  35.982  1.00  0.00     0.023 A 
ATOM     65  C   UNL A   1      40.405  33.701  36.147  1.00  0.00     0.012 A 
ATOM     66  C   UNL A   1      38.784  32.060  36.919  1.00  0.00     0.148 A 
ATOM     67  C   UNL A   1      40.126  34.510  37.247  1.00  0.00     0.002 A 
ATOM     68  C   UNL A   1      38.474  32.895  37.987  1.00  0.00     0.091 A 
ATOM     69  F   UNL A   1      38.192  30.868  36.760  1.00  0.00    -0.205 F 
ATOM     70  C   UNL A   1      39.155  34.111  38.161  1.00  0.00     0.022 A 
BRANCH  68  71
ATOM     71  S   UNL A   1      37.183  32.510  39.175  1.00  0.00     0.127 S 
ATOM     72  O   UNL A   1      35.976  32.713  38.375  1.00  0.00    -0.237 OA
ATOM     73  O   UNL A   1      37.471  31.112  39.499  1.00  0.00    -0.237 OA
ATOM     74  O   UNL A   1      37.366  33.439  40.281  1.00  0.00    -0.744 OA
ENDBRANCH  68  71
ENDBRANCH  50  64
BRANCH  51  75
ATOM     75  C   UNL A   1      41.851  27.248  27.725  1.00  0.00     0.023 A 
ATOM     76  C   UNL A   1      42.417  27.959  26.649  1.00  0.00     0.012 A 
ATOM     77  C   UNL A   1      41.675  25.855  27.613  1.00  0.00     0.148 A 
ATOM     78  C   UNL A   1      42.775  27.300  25.472  1.00  0.00     0.002 A 
ATOM     79  C   UNL A   1      42.088  25.196  26.460  1.00  0.00     0.091 A 
ATOM     80  F   UNL A   1      41.129  25.200  28.646  1.00  0.00    -0.205 F 
ATOM     81  C   UNL A   1      42.622  25.918  25.382  1.00  0.00     0.022 A 
BRANCH  79  82
ATOM     82  S   UNL A   1      42.056  23.407  26.309  1.00  0.00     0.127 S 
ATOM     83  O   UNL A   1      42.686  23.206  25.007  1.00  0.00    -0.237 OA
ATOM     84  O   UNL A   1      42.864  22.996  27.457  1.00  0.00    -0.237 OA
ATOM     85  O   UNL A   1      40.652  23.027  26.395  1.00  0.00    -0.744 OA
ENDBRANCH  79  82
ENDBRANCH  51  75
BRANCH  63  86
ATOM     86  C   UNL A   1      44.526  27.339  34.183  1.00  0.00     0.023 A 
ATOM     87  C   UNL A   1      45.828  27.879  34.188  1.00  0.00     0.012 A 
ATOM     88  C   UNL A   1      44.280  26.125  34.856  1.00  0.00     0.148 A 
ATOM     89  C   UNL A   1      46.873  27.206  34.821  1.00  0.00     0.002 A 
ATOM     90  C   UNL A   1      45.314  25.488  35.529  1.00  0.00     0.091 A 
ATOM     91  F   UNL A   1      43.039  25.619  34.826  1.00  0.00    -0.205 F 
ATOM     92  C   UNL A   1      46.614  26.018  35.501  1.00  0.00     0.022 A 
BRANCH  90  93
ATOM     93  S   UNL A   1      45.056  24.007  36.513  1.00  0.00     0.127 S 
ATOM     94  O   UNL A   1      44.158  23.233  35.657  1.00  0.00    -0.237 OA
ATOM     95  O   UNL A   1      46.412  23.466  36.619  1.00  0.00    -0.237 OA
ATOM     96  O   UNL A   1      44.483  24.456  37.775  1.00  0.00    -0.744 OA
ENDBRANCH  90  93
ENDBRANCH  63  86
ENDBRANCH  37  38
ENDBRANCH  29  32
ENDBRANCH  27  28
ENDBRANCH  26  27
ENDBRANCH  25  26
ENDBRANCH   1  25
TORSDOF 20
ENDMDL
