MODEL 1
REMARK VINA RESULT:     -12.8      0.000      0.000
REMARK SMILES NC(=O)[C@@H]1CCC[N@@H+]1[C@@H](C(=O)NCCCCCCNC(=O)c1ccc(-c2c3nc(c(-c4cccc(S(=O)(=O)[O-])c4F)c4ccc([nH]4)c(-c4cccc(S(=O)(=O)[O-])c4F)c4nc(c(-c5cccc(S(=O)(=O)[O-])c5F)c5ccc2[nH]5)C=C4)C=C3)cc1)c1c[nH]c2cc(OCc3ccccc3)ccc12
REMARK SMILES IDX 15 1 14 2 13 3 12 4 10 5 11 6 9 8 8 9 4 10 5 11 6 12 7 13
REMARK SMILES IDX 2 15 1 16 3 19 85 20 86 21 101 22 87 23 88 24 100 25 89 27
REMARK SMILES IDX 99 28 90 29 91 30 92 31 93 32 94 33 98 34 95 35 97 36 96 37
REMARK SMILES IDX 16 38 17 39 18 40 19 41 20 42 21 44 22 45 23 46 84 47 24 48
REMARK SMILES IDX 83 49 25 50 26 51 27 52 77 53 28 54 82 55 76 56 78 57 29 58
REMARK SMILES IDX 81 59 75 60 74 61 30 63 62 64 42 65 61 66 43 67 46 68 60 69
REMARK SMILES IDX 79 70 44 71 45 72 59 74 80 75 47 76 31 77 32 78 40 79 33 80
REMARK SMILES IDX 35 81 41 82 34 83 36 84 37 85 38 86 39 87 63 88 64 89 72 90
REMARK SMILES IDX 65 91 67 92 73 93 66 94 68 95 69 96 70 97 71 98 48 99 49 100
REMARK SMILES IDX 57 101 50 102 52 103 58 104 51 105 53 106 54 107 55 108
REMARK SMILES IDX 56 109
REMARK H PARENT 12 7 8 14 1 17 1 18 87 26 19 43 78 62 46 73
REMARK Flexibility Score: inf
ROOT
ATOM      1  C   UNL A   1      33.394  29.196  26.856  1.00  0.00     0.002 C 
ENDROOT
BRANCH   1   2
ATOM      2  C   UNL A   1      33.845  28.520  25.558  1.00  0.00     0.021 C 
BRANCH   2   3
ATOM      3  C   UNL A   1      33.732  26.984  25.524  1.00  0.00     0.116 C 
BRANCH   3   4
ATOM      4  N   UNL A   1      33.875  26.423  24.190  1.00  0.00    -0.351 N 
ATOM      5  C   UNL A   1      34.030  25.188  23.631  1.00  0.00     0.283 C 
ATOM      6  O   UNL A   1      34.160  25.258  22.401  1.00  0.00    -0.268 OA
ATOM      7  H   UNL A   1      33.855  27.128  23.502  1.00  0.00     0.163 HD
BRANCH   5   8
ATOM      8  C   UNL A   1      33.930  23.823  24.396  1.00  0.00     0.308 C 
BRANCH   8   9
ATOM      9  N   UNL A   1      34.823  22.640  23.987  1.00  0.00    -0.311 N 
ATOM     10  C   UNL A   1      35.372  21.726  25.028  1.00  0.00     0.275 C 
ATOM     11  C   UNL A   1      36.563  22.481  25.625  1.00  0.00     0.081 C 
ATOM     12  C   UNL A   1      37.084  23.297  24.450  1.00  0.00     0.068 C 
ATOM     13  C   UNL A   1      36.116  22.949  23.346  1.00  0.00     0.264 C 
ATOM     14  H   UNL A   1      34.091  22.236  23.404  1.00  0.00     0.349 HD
BRANCH  10  15
ATOM     15  C   UNL A   1      34.416  20.842  25.810  1.00  0.00     0.275 C 
ATOM     16  N   UNL A   1      34.180  21.199  27.103  1.00  0.00    -0.365 N 
ATOM     17  H   UNL A   1      33.568  20.662  27.658  1.00  0.00     0.159 HD
ATOM     18  H   UNL A   1      34.619  21.994  27.483  1.00  0.00     0.159 HD
ATOM     19  O   UNL A   1      33.768  19.935  25.299  1.00  0.00    -0.268 OA
ENDBRANCH  10  15
ENDBRANCH   8   9
BRANCH   8  20
ATOM     20  C   UNL A   1      32.407  23.305  24.521  1.00  0.00     0.044 A 
ATOM     21  C   UNL A   1      31.858  22.351  23.659  1.00  0.00     0.094 A 
ATOM     22  C   UNL A   1      31.221  24.095  24.815  1.00  0.00     0.009 A 
ATOM     23  N   UNL A   1      31.046  23.116  22.839  1.00  0.00    -0.361 N 
ATOM     24  C   UNL A   1      30.615  24.205  23.565  1.00  0.00     0.050 A 
ATOM     25  C   UNL A   1      30.713  24.917  25.845  1.00  0.00     0.015 A 
ATOM     26  H   UNL A   1      30.817  22.919  21.902  1.00  0.00     0.166 HD
ATOM     27  C   UNL A   1      29.906  25.349  23.197  1.00  0.00     0.073 A 
ATOM     28  C   UNL A   1      29.822  25.966  25.531  1.00  0.00     0.047 A 
ATOM     29  C   UNL A   1      29.549  26.254  24.200  1.00  0.00     0.121 A 
BRANCH  29  30
ATOM     30  O   UNL A   1      29.060  27.443  23.730  1.00  0.00    -0.489 OA
BRANCH  30  31
ATOM     31  C   UNL A   1      29.978  28.515  23.527  1.00  0.00     0.265 C 
BRANCH  31  32
ATOM     32  C   UNL A   1      29.310  29.783  23.029  1.00  0.00    -0.011 A 
ATOM     33  C   UNL A   1      28.760  29.814  21.742  1.00  0.00     0.007 A 
ATOM     34  C   UNL A   1      29.235  30.950  23.805  1.00  0.00     0.007 A 
ATOM     35  C   UNL A   1      28.191  30.988  21.241  1.00  0.00     0.000 A 
ATOM     36  C   UNL A   1      28.686  32.125  23.303  1.00  0.00     0.000 A 
ATOM     37  C   UNL A   1      28.169  32.147  22.016  1.00  0.00     0.000 A 
ENDBRANCH  31  32
ENDBRANCH  30  31
ENDBRANCH  29  30
ENDBRANCH   8  20
ENDBRANCH   5   8
ENDBRANCH   3   4
ENDBRANCH   2   3
ENDBRANCH   1   2
BRANCH   1  38
ATOM     38  C   UNL A   1      31.952  29.698  26.786  1.00  0.00     0.002 C 
BRANCH  38  39
ATOM     39  C   UNL A   1      31.786  31.225  26.777  1.00  0.00     0.021 C 
BRANCH  39  40
ATOM     40  C   UNL A   1      33.003  32.006  27.267  1.00  0.00     0.116 C 
BRANCH  40  41
ATOM     41  N   UNL A   1      32.692  33.423  27.420  1.00  0.00    -0.352 N 
ATOM     42  C   UNL A   1      33.115  34.278  28.402  1.00  0.00     0.251 C 
ATOM     43  H   UNL A   1      32.106  33.812  26.731  1.00  0.00     0.163 HD
ATOM     44  O   UNL A   1      32.523  35.350  28.598  1.00  0.00    -0.269 OA
BRANCH  42  45
ATOM     45  C   UNL A   1      34.278  33.916  29.230  1.00  0.00     0.039 A 
ATOM     46  C   UNL A   1      34.100  33.155  30.386  1.00  0.00     0.014 A 
ATOM     47  C   UNL A   1      35.560  34.315  28.835  1.00  0.00     0.014 A 
ATOM     48  C   UNL A   1      35.217  32.730  31.111  1.00  0.00     0.010 A 
ATOM     49  C   UNL A   1      36.673  33.840  29.524  1.00  0.00     0.010 A 
ATOM     50  C   UNL A   1      36.514  33.036  30.663  1.00  0.00    -0.014 A 
BRANCH  50  51
ATOM     51  C   UNL A   1      37.716  32.471  31.330  1.00  0.00     0.031 A 
ATOM     52  C   UNL A   1      38.461  31.320  30.712  1.00  0.00     0.074 A 
ATOM     53  C   UNL A   1      38.066  32.926  32.551  1.00  0.00     0.049 A 
ATOM     54  N   UNL A   1      39.479  30.649  31.188  1.00  0.00    -0.248 NA
ATOM     55  C   UNL A   1      37.993  30.843  29.399  1.00  0.00     0.031 C 
ATOM     56  C   UNL A   1      37.371  33.983  33.289  1.00  0.00     0.029 A 
ATOM     57  N   UNL A   1      39.065  32.531  33.405  1.00  0.00    -0.354 N 
ATOM     58  C   UNL A   1      39.746  29.650  30.261  1.00  0.00     0.074 A 
ATOM     59  C   UNL A   1      38.779  29.793  29.194  1.00  0.00     0.031 C 
ATOM     60  C   UNL A   1      37.955  34.142  34.487  1.00  0.00     0.029 A 
ATOM     61  C   UNL A   1      39.039  33.175  34.621  1.00  0.00     0.049 A 
ATOM     62  H   UNL A   1      39.738  31.851  33.170  1.00  0.00     0.167 HD
ATOM     63  C   UNL A   1      40.718  28.710  30.290  1.00  0.00     0.034 A 
ATOM     64  C   UNL A   1      39.783  32.991  35.731  1.00  0.00     0.034 A 
ATOM     65  C   UNL A   1      41.704  28.599  31.331  1.00  0.00     0.049 A 
ATOM     66  C   UNL A   1      40.869  31.948  35.717  1.00  0.00     0.074 A 
ATOM     67  C   UNL A   1      42.805  27.761  31.382  1.00  0.00     0.029 A 
ATOM     68  N   UNL A   1      41.697  29.322  32.511  1.00  0.00    -0.354 N 
ATOM     69  N   UNL A   1      41.238  31.153  34.742  1.00  0.00    -0.248 NA
ATOM     70  C   UNL A   1      41.660  31.793  36.948  1.00  0.00     0.031 C 
ATOM     71  C   UNL A   1      43.437  27.946  32.615  1.00  0.00     0.029 A 
ATOM     72  C   UNL A   1      42.751  28.924  33.315  1.00  0.00     0.049 A 
ATOM     73  H   UNL A   1      41.040  30.017  32.745  1.00  0.00     0.167 HD
ATOM     74  C   UNL A   1      42.315  30.424  35.233  1.00  0.00     0.074 A 
ATOM     75  C   UNL A   1      42.563  30.896  36.579  1.00  0.00     0.031 C 
ATOM     76  C   UNL A   1      43.020  29.434  34.634  1.00  0.00     0.034 A 
BRANCH  63  77
ATOM     77  C   UNL A   1      40.808  27.732  29.147  1.00  0.00     0.023 A 
ATOM     78  C   UNL A   1      39.924  26.636  29.096  1.00  0.00     0.012 A 
ATOM     79  C   UNL A   1      41.676  27.976  28.065  1.00  0.00     0.148 A 
ATOM     80  C   UNL A   1      39.912  25.789  27.988  1.00  0.00     0.002 A 
ATOM     81  C   UNL A   1      41.629  27.153  26.947  1.00  0.00     0.091 A 
ATOM     82  F   UNL A   1      42.518  29.016  28.144  1.00  0.00    -0.205 F 
ATOM     83  C   UNL A   1      40.753  26.055  26.910  1.00  0.00     0.022 A 
BRANCH  81  84
ATOM     84  S   UNL A   1      42.608  27.457  25.473  1.00  0.00     0.127 S 
ATOM     85  O   UNL A   1      43.948  27.618  26.037  1.00  0.00    -0.237 OA
ATOM     86  O   UNL A   1      42.410  26.223  24.714  1.00  0.00    -0.237 OA
ATOM     87  O   UNL A   1      42.050  28.652  24.856  1.00  0.00    -0.744 OA
ENDBRANCH  81  84
ENDBRANCH  63  77
BRANCH  64  88
ATOM     88  C   UNL A   1      39.542  33.817  36.949  1.00  0.00     0.023 A 
ATOM     89  C   UNL A   1      39.991  35.151  36.985  1.00  0.00     0.012 A 
ATOM     90  C   UNL A   1      38.887  33.285  38.077  1.00  0.00     0.148 A 
ATOM     91  C   UNL A   1      39.837  35.923  38.138  1.00  0.00     0.002 A 
ATOM     92  C   UNL A   1      38.683  34.079  39.201  1.00  0.00     0.091 A 
ATOM     93  F   UNL A   1      38.480  32.008  38.035  1.00  0.00    -0.205 F 
ATOM     94  C   UNL A   1      39.177  35.391  39.241  1.00  0.00     0.022 A 
BRANCH  92  95
ATOM     95  S   UNL A   1      37.724  33.515  40.610  1.00  0.00     0.127 S 
ATOM     96  O   UNL A   1      36.494  33.051  39.972  1.00  0.00    -0.237 OA
ATOM     97  O   UNL A   1      38.574  32.453  41.153  1.00  0.00    -0.237 OA
ATOM     98  O   UNL A   1      37.592  34.675  41.480  1.00  0.00    -0.744 OA
ENDBRANCH  92  95
ENDBRANCH  64  88
BRANCH  76  99
ATOM     99  C   UNL A   1      44.143  28.801  35.412  1.00  0.00     0.023 A 
ATOM    100  C   UNL A   1      45.442  29.341  35.325  1.00  0.00     0.012 A 
ATOM    101  C   UNL A   1      43.897  27.728  36.291  1.00  0.00     0.148 A 
ATOM    102  C   UNL A   1      46.484  28.805  36.078  1.00  0.00     0.002 A 
ATOM    103  C   UNL A   1      44.931  27.231  37.076  1.00  0.00     0.091 A 
ATOM    104  F   UNL A   1      42.658  27.221  36.349  1.00  0.00    -0.205 F 
ATOM    105  C   UNL A   1      46.227  27.760  36.961  1.00  0.00     0.022 A 
BRANCH 103 106
ATOM    106  S   UNL A   1      44.679  25.950  38.311  1.00  0.00     0.127 S 
ATOM    107  O   UNL A   1      44.003  26.691  39.374  1.00  0.00    -0.237 OA
ATOM    108  O   UNL A   1      43.830  24.997  37.596  1.00  0.00    -0.237 OA
ATOM    109  O   UNL A   1      46.003  25.449  38.650  1.00  0.00    -0.744 OA
ENDBRANCH 103 106
ENDBRANCH  76  99
ENDBRANCH  50  51
ENDBRANCH  42  45
ENDBRANCH  40  41
ENDBRANCH  39  40
ENDBRANCH  38  39
ENDBRANCH   1  38
TORSDOF 22
ENDMDL
MODEL 2
REMARK VINA RESULT:     -12.2      5.872     11.349
REMARK SMILES NC(=O)[C@@H]1CCC[N@@H+]1[C@@H](C(=O)NCCCCCCNC(=O)c1ccc(-c2c3nc(c(-c4cccc(S(=O)(=O)[O-])c4F)c4ccc([nH]4)c(-c4cccc(S(=O)(=O)[O-])c4F)c4nc(c(-c5cccc(S(=O)(=O)[O-])c5F)c5ccc2[nH]5)C=C4)C=C3)cc1)c1c[nH]c2cc(OCc3ccccc3)ccc12
REMARK SMILES IDX 15 1 14 2 13 3 12 4 10 5 11 6 9 8 8 9 4 10 5 11 6 12 7 13
REMARK SMILES IDX 2 15 1 16 3 19 85 20 86 21 101 22 87 23 88 24 100 25 89 27
REMARK SMILES IDX 99 28 90 29 91 30 92 31 93 32 94 33 98 34 95 35 97 36 96 37
REMARK SMILES IDX 16 38 17 39 18 40 19 41 20 42 21 44 22 45 23 46 84 47 24 48
REMARK SMILES IDX 83 49 25 50 26 51 27 52 77 53 28 54 82 55 76 56 78 57 29 58
REMARK SMILES IDX 81 59 75 60 74 61 30 63 62 64 42 65 61 66 43 67 46 68 60 69
REMARK SMILES IDX 79 70 44 71 45 72 59 74 80 75 47 76 31 77 32 78 40 79 33 80
REMARK SMILES IDX 35 81 41 82 34 83 36 84 37 85 38 86 39 87 63 88 64 89 72 90
REMARK SMILES IDX 65 91 67 92 73 93 66 94 68 95 69 96 70 97 71 98 48 99 49 100
REMARK SMILES IDX 57 101 50 102 52 103 58 104 51 105 53 106 54 107 55 108
REMARK SMILES IDX 56 109
REMARK H PARENT 12 7 8 14 1 17 1 18 87 26 19 43 78 62 46 73
REMARK Flexibility Score: inf
ROOT
ATOM      1  C   UNL A   1      35.992  21.689  25.073  1.00  0.00     0.002 C 
ENDROOT
BRANCH   1   2
ATOM      2  C   UNL A   1      35.963  23.133  25.583  1.00  0.00     0.021 C 
BRANCH   2   3
ATOM      3  C   UNL A   1      34.872  24.038  24.981  1.00  0.00     0.116 C 
BRANCH   3   4
ATOM      4  N   UNL A   1      34.568  25.200  25.801  1.00  0.00    -0.351 N 
ATOM      5  C   UNL A   1      33.783  26.314  25.714  1.00  0.00     0.283 C 
ATOM      6  O   UNL A   1      33.926  27.049  26.701  1.00  0.00    -0.268 OA
ATOM      7  H   UNL A   1      35.063  25.177  26.652  1.00  0.00     0.163 HD
BRANCH   5   8
ATOM      8  C   UNL A   1      32.728  26.600  24.590  1.00  0.00     0.308 C 
BRANCH   8   9
ATOM      9  N   UNL A   1      32.350  28.046  24.233  1.00  0.00    -0.311 N 
ATOM     10  C   UNL A   1      32.157  28.436  22.808  1.00  0.00     0.275 C 
ATOM     11  C   UNL A   1      33.573  28.619  22.256  1.00  0.00     0.081 C 
ATOM     12  C   UNL A   1      34.359  29.109  23.464  1.00  0.00     0.068 C 
ATOM     13  C   UNL A   1      33.322  29.107  24.560  1.00  0.00     0.264 C 
ATOM     14  H   UNL A   1      31.494  28.002  24.786  1.00  0.00     0.349 HD
BRANCH  10  15
ATOM     15  C   UNL A   1      30.986  27.852  22.037  1.00  0.00     0.275 C 
ATOM     16  N   UNL A   1      31.229  26.704  21.344  1.00  0.00    -0.365 N 
ATOM     17  H   UNL A   1      30.506  26.280  20.826  1.00  0.00     0.159 HD
ATOM     18  H   UNL A   1      32.125  26.297  21.362  1.00  0.00     0.159 HD
ATOM     19  O   UNL A   1      29.842  28.282  22.124  1.00  0.00    -0.268 OA
ENDBRANCH  10  15
ENDBRANCH   8   9
BRANCH   8  20
ATOM     20  C   UNL A   1      31.375  25.744  24.794  1.00  0.00     0.044 A 
ATOM     21  C   UNL A   1      30.565  25.868  25.927  1.00  0.00     0.094 A 
ATOM     22  C   UNL A   1      31.153  24.343  24.474  1.00  0.00     0.009 A 
ATOM     23  N   UNL A   1      30.856  24.713  26.634  1.00  0.00    -0.361 N 
ATOM     24  C   UNL A   1      31.202  23.735  25.727  1.00  0.00     0.050 A 
ATOM     25  C   UNL A   1      31.172  23.487  23.350  1.00  0.00     0.015 A 
ATOM     26  H   UNL A   1      30.823  24.609  27.612  1.00  0.00     0.166 HD
ATOM     27  C   UNL A   1      31.714  22.448  25.895  1.00  0.00     0.073 A 
ATOM     28  C   UNL A   1      31.487  22.121  23.512  1.00  0.00     0.047 A 
ATOM     29  C   UNL A   1      31.894  21.658  24.757  1.00  0.00     0.121 A 
BRANCH  29  30
ATOM     30  O   UNL A   1      32.603  20.508  24.982  1.00  0.00    -0.489 OA
BRANCH  30  31
ATOM     31  C   UNL A   1      32.552  19.481  23.995  1.00  0.00     0.265 C 
BRANCH  31  32
ATOM     32  C   UNL A   1      33.179  18.180  24.457  1.00  0.00    -0.011 A 
ATOM     33  C   UNL A   1      32.390  17.230  25.117  1.00  0.00     0.007 A 
ATOM     34  C   UNL A   1      34.538  17.890  24.268  1.00  0.00     0.007 A 
ATOM     35  C   UNL A   1      32.958  16.050  25.603  1.00  0.00     0.000 A 
ATOM     36  C   UNL A   1      35.111  16.724  24.765  1.00  0.00     0.000 A 
ATOM     37  C   UNL A   1      34.321  15.804  25.440  1.00  0.00     0.000 A 
ENDBRANCH  31  32
ENDBRANCH  30  31
ENDBRANCH  29  30
ENDBRANCH   8  20
ENDBRANCH   5   8
ENDBRANCH   3   4
ENDBRANCH   2   3
ENDBRANCH   1   2
BRANCH   1  38
ATOM     38  C   UNL A   1      37.285  21.356  24.328  1.00  0.00     0.002 C 
BRANCH  38  39
ATOM     39  C   UNL A   1      37.907  19.994  24.666  1.00  0.00     0.021 C 
BRANCH  39  40
ATOM     40  C   UNL A   1      38.545  19.905  26.051  1.00  0.00     0.116 C 
BRANCH  40  41
ATOM     41  N   UNL A   1      39.785  19.139  26.010  1.00  0.00    -0.352 N 
ATOM     42  C   UNL A   1      41.069  19.612  26.039  1.00  0.00     0.251 C 
ATOM     43  H   UNL A   1      39.686  18.161  25.955  1.00  0.00     0.163 HD
ATOM     44  O   UNL A   1      42.011  18.894  25.670  1.00  0.00    -0.269 OA
BRANCH  42  45
ATOM     45  C   UNL A   1      41.328  20.984  26.510  1.00  0.00     0.039 A 
ATOM     46  C   UNL A   1      41.836  21.194  27.794  1.00  0.00     0.014 A 
ATOM     47  C   UNL A   1      41.090  22.066  25.656  1.00  0.00     0.014 A 
ATOM     48  C   UNL A   1      42.174  22.489  28.197  1.00  0.00     0.010 A 
ATOM     49  C   UNL A   1      41.484  23.345  26.037  1.00  0.00     0.010 A 
ATOM     50  C   UNL A   1      42.038  23.569  27.307  1.00  0.00    -0.014 A 
BRANCH  50  51
ATOM     51  C   UNL A   1      42.530  24.927  27.658  1.00  0.00     0.031 A 
ATOM     52  C   UNL A   1      41.600  25.942  28.265  1.00  0.00     0.074 A 
ATOM     53  C   UNL A   1      43.788  25.278  27.322  1.00  0.00     0.049 A 
ATOM     54  N   UNL A   1      41.831  27.195  28.561  1.00  0.00    -0.248 NA
ATOM     55  C   UNL A   1      40.225  25.503  28.561  1.00  0.00     0.031 C 
ATOM     56  C   UNL A   1      44.759  24.408  26.655  1.00  0.00     0.029 A 
ATOM     57  N   UNL A   1      44.454  26.472  27.456  1.00  0.00    -0.354 N 
ATOM     58  C   UNL A   1      40.629  27.705  29.034  1.00  0.00     0.074 A 
ATOM     59  C   UNL A   1      39.663  26.629  28.982  1.00  0.00     0.031 C 
ATOM     60  C   UNL A   1      45.887  25.097  26.425  1.00  0.00     0.029 A 
ATOM     61  C   UNL A   1      45.710  26.468  26.892  1.00  0.00     0.049 A 
ATOM     62  H   UNL A   1      44.071  27.256  27.912  1.00  0.00     0.167 HD
ATOM     63  C   UNL A   1      40.361  28.952  29.486  1.00  0.00     0.034 A 
ATOM     64  C   UNL A   1      46.609  27.462  26.740  1.00  0.00     0.034 A 
ATOM     65  C   UNL A   1      41.335  30.005  29.579  1.00  0.00     0.049 A 
ATOM     66  C   UNL A   1      46.281  28.832  27.274  1.00  0.00     0.074 A 
ATOM     67  C   UNL A   1      41.188  31.261  30.143  1.00  0.00     0.029 A 
ATOM     68  N   UNL A   1      42.622  29.942  29.073  1.00  0.00    -0.354 N 
ATOM     69  N   UNL A   1      45.208  29.234  27.910  1.00  0.00    -0.248 NA
ATOM     70  C   UNL A   1      47.299  29.879  27.094  1.00  0.00     0.031 C 
ATOM     71  C   UNL A   1      42.372  31.973  29.937  1.00  0.00     0.029 A 
ATOM     72  C   UNL A   1      43.268  31.149  29.277  1.00  0.00     0.049 A 
ATOM     73  H   UNL A   1      43.019  29.156  28.633  1.00  0.00     0.167 HD
ATOM     74  C   UNL A   1      45.431  30.569  28.225  1.00  0.00     0.074 A 
ATOM     75  C   UNL A   1      46.756  30.899  27.744  1.00  0.00     0.031 C 
ATOM     76  C   UNL A   1      44.605  31.452  28.836  1.00  0.00     0.034 A 
BRANCH  63  77
ATOM     77  C   UNL A   1      38.964  29.259  29.961  1.00  0.00     0.023 A 
ATOM     78  C   UNL A   1      38.586  28.928  31.277  1.00  0.00     0.012 A 
ATOM     79  C   UNL A   1      38.078  29.990  29.146  1.00  0.00     0.148 A 
ATOM     80  C   UNL A   1      37.339  29.310  31.771  1.00  0.00     0.002 A 
ATOM     81  C   UNL A   1      36.855  30.404  29.659  1.00  0.00     0.091 A 
ATOM     82  F   UNL A   1      38.455  30.280  27.893  1.00  0.00    -0.205 F 
ATOM     83  C   UNL A   1      36.481  30.058  30.968  1.00  0.00     0.022 A 
BRANCH  81  84
ATOM     84  S   UNL A   1      35.714  31.442  28.739  1.00  0.00     0.127 S 
ATOM     85  O   UNL A   1      34.754  31.815  29.777  1.00  0.00    -0.237 OA
ATOM     86  O   UNL A   1      36.583  32.531  28.293  1.00  0.00    -0.237 OA
ATOM     87  O   UNL A   1      35.178  30.609  27.672  1.00  0.00    -0.744 OA
ENDBRANCH  81  84
ENDBRANCH  63  77
BRANCH  64  88
ATOM     88  C   UNL A   1      47.914  27.206  26.064  1.00  0.00     0.023 A 
ATOM     89  C   UNL A   1      49.017  26.773  26.824  1.00  0.00     0.012 A 
ATOM     90  C   UNL A   1      48.073  27.406  24.679  1.00  0.00     0.148 A 
ATOM     91  C   UNL A   1      50.266  26.591  26.227  1.00  0.00     0.002 A 
ATOM     92  C   UNL A   1      49.304  27.163  24.079  1.00  0.00     0.091 A 
ATOM     93  F   UNL A   1      47.018  27.834  23.971  1.00  0.00    -0.205 F 
ATOM     94  C   UNL A   1      50.407  26.777  24.855  1.00  0.00     0.022 A 
BRANCH  92  95
ATOM     95  S   UNL A   1      49.536  27.250  22.300  1.00  0.00     0.127 S 
ATOM     96  O   UNL A   1      50.967  26.982  22.171  1.00  0.00    -0.237 OA
ATOM     97  O   UNL A   1      48.663  26.175  21.825  1.00  0.00    -0.237 OA
ATOM     98  O   UNL A   1      49.101  28.584  21.915  1.00  0.00    -0.744 OA
ENDBRANCH  92  95
ENDBRANCH  64  88
BRANCH  76  99
ATOM     99  C   UNL A   1      45.106  32.857  29.042  1.00  0.00     0.023 A 
ATOM    100  C   UNL A   1      45.846  33.171  30.200  1.00  0.00     0.012 A 
ATOM    101  C   UNL A   1      44.917  33.843  28.054  1.00  0.00     0.148 A 
ATOM    102  C   UNL A   1      46.365  34.450  30.384  1.00  0.00     0.002 A 
ATOM    103  C   UNL A   1      45.480  35.102  28.221  1.00  0.00     0.091 A 
ATOM    104  F   UNL A   1      44.199  33.528  26.966  1.00  0.00    -0.205 F 
ATOM    105  C   UNL A   1      46.193  35.411  29.391  1.00  0.00     0.022 A 
BRANCH 103 106
ATOM    106  S   UNL A   1      45.395  36.377  26.958  1.00  0.00     0.127 S 
ATOM    107  O   UNL A   1      46.181  37.450  27.564  1.00  0.00    -0.237 OA
ATOM    108  O   UNL A   1      46.035  35.721  25.817  1.00  0.00    -0.237 OA
ATOM    109  O   UNL A   1      43.981  36.671  26.774  1.00  0.00    -0.744 OA
ENDBRANCH 103 106
ENDBRANCH  76  99
ENDBRANCH  50  51
ENDBRANCH  42  45
ENDBRANCH  40  41
ENDBRANCH  39  40
ENDBRANCH  38  39
ENDBRANCH   1  38
TORSDOF 22
ENDMDL
MODEL 3
REMARK VINA RESULT:     -12.2      1.972      2.392
REMARK SMILES NC(=O)[C@@H]1CCC[N@@H+]1[C@@H](C(=O)NCCCCCCNC(=O)c1ccc(-c2c3nc(c(-c4cccc(S(=O)(=O)[O-])c4F)c4ccc([nH]4)c(-c4cccc(S(=O)(=O)[O-])c4F)c4nc(c(-c5cccc(S(=O)(=O)[O-])c5F)c5ccc2[nH]5)C=C4)C=C3)cc1)c1c[nH]c2cc(OCc3ccccc3)ccc12
REMARK SMILES IDX 15 1 14 2 13 3 12 4 10 5 11 6 9 8 8 9 4 10 5 11 6 12 7 13
REMARK SMILES IDX 2 15 1 16 3 19 85 20 86 21 101 22 87 23 88 24 100 25 89 27
REMARK SMILES IDX 99 28 90 29 91 30 92 31 93 32 94 33 98 34 95 35 97 36 96 37
REMARK SMILES IDX 16 38 17 39 18 40 19 41 20 42 21 44 22 45 23 46 84 47 24 48
REMARK SMILES IDX 83 49 25 50 26 51 27 52 77 53 28 54 82 55 76 56 78 57 29 58
REMARK SMILES IDX 81 59 75 60 74 61 30 63 62 64 42 65 61 66 43 67 46 68 60 69
REMARK SMILES IDX 79 70 44 71 45 72 59 74 80 75 47 76 31 77 32 78 40 79 33 80
REMARK SMILES IDX 35 81 41 82 34 83 36 84 37 85 38 86 39 87 63 88 64 89 72 90
REMARK SMILES IDX 65 91 67 92 73 93 66 94 68 95 69 96 70 97 71 98 48 99 49 100
REMARK SMILES IDX 57 101 50 102 52 103 58 104 51 105 53 106 54 107 55 108
REMARK SMILES IDX 56 109
REMARK H PARENT 12 7 8 14 1 17 1 18 87 26 19 43 78 62 46 73
REMARK Flexibility Score: inf
ROOT
ATOM      1  C   UNL A   1      31.797  28.535  26.205  1.00  0.00     0.002 C 
ENDROOT
BRANCH   1   2
ATOM      2  C   UNL A   1      33.066  28.313  25.377  1.00  0.00     0.021 C 
BRANCH   2   3
ATOM      3  C   UNL A   1      33.636  26.882  25.386  1.00  0.00     0.116 C 
BRANCH   3   4
ATOM      4  N   UNL A   1      33.832  26.329  24.055  1.00  0.00    -0.351 N 
ATOM      5  C   UNL A   1      34.052  25.102  23.500  1.00  0.00     0.283 C 
ATOM      6  O   UNL A   1      34.205  25.179  22.273  1.00  0.00    -0.268 OA
ATOM      7  H   UNL A   1      33.796  27.033  23.367  1.00  0.00     0.163 HD
BRANCH   5   8
ATOM      8  C   UNL A   1      33.995  23.733  24.263  1.00  0.00     0.308 C 
BRANCH   8   9
ATOM      9  N   UNL A   1      34.938  22.586  23.865  1.00  0.00    -0.311 N 
ATOM     10  C   UNL A   1      35.404  21.613  24.893  1.00  0.00     0.275 C 
ATOM     11  C   UNL A   1      36.525  22.340  25.641  1.00  0.00     0.081 C 
ATOM     12  C   UNL A   1      37.139  23.232  24.571  1.00  0.00     0.068 C 
ATOM     13  C   UNL A   1      36.279  22.946  23.364  1.00  0.00     0.264 C 
ATOM     14  H   UNL A   1      34.267  22.213  23.194  1.00  0.00     0.349 HD
BRANCH  10  15
ATOM     15  C   UNL A   1      34.394  20.674  25.529  1.00  0.00     0.275 C 
ATOM     16  N   UNL A   1      34.351  19.405  25.034  1.00  0.00    -0.365 N 
ATOM     17  H   UNL A   1      33.715  18.752  25.409  1.00  0.00     0.159 HD
ATOM     18  H   UNL A   1      34.955  19.140  24.304  1.00  0.00     0.159 HD
ATOM     19  O   UNL A   1      33.740  20.963  26.524  1.00  0.00    -0.268 OA
ENDBRANCH  10  15
ENDBRANCH   8   9
BRANCH   8  20
ATOM     20  C   UNL A   1      32.492  23.158  24.368  1.00  0.00     0.044 A 
ATOM     21  C   UNL A   1      31.948  22.281  23.423  1.00  0.00     0.094 A 
ATOM     22  C   UNL A   1      31.292  23.874  24.770  1.00  0.00     0.009 A 
ATOM     23  N   UNL A   1      31.093  23.102  22.707  1.00  0.00    -0.361 N 
ATOM     24  C   UNL A   1      30.649  24.095  23.553  1.00  0.00     0.050 A 
ATOM     25  C   UNL A   1      30.786  24.569  25.892  1.00  0.00     0.015 A 
ATOM     26  H   UNL A   1      30.845  22.995  21.760  1.00  0.00     0.166 HD
ATOM     27  C   UNL A   1      29.898  25.248  23.323  1.00  0.00     0.073 A 
ATOM     28  C   UNL A   1      29.857  25.615  25.711  1.00  0.00     0.047 A 
ATOM     29  C   UNL A   1      29.541  26.031  24.423  1.00  0.00     0.121 A 
BRANCH  29  30
ATOM     30  O   UNL A   1      29.006  27.247  24.092  1.00  0.00    -0.489 OA
BRANCH  30  31
ATOM     31  C   UNL A   1      29.591  27.968  23.010  1.00  0.00     0.265 C 
BRANCH  31  32
ATOM     32  C   UNL A   1      29.114  29.406  22.927  1.00  0.00    -0.011 A 
ATOM     33  C   UNL A   1      28.222  29.779  21.914  1.00  0.00     0.007 A 
ATOM     34  C   UNL A   1      29.547  30.396  23.820  1.00  0.00     0.007 A 
ATOM     35  C   UNL A   1      27.814  31.109  21.782  1.00  0.00     0.000 A 
ATOM     36  C   UNL A   1      29.157  31.725  23.682  1.00  0.00     0.000 A 
ATOM     37  C   UNL A   1      28.294  32.084  22.657  1.00  0.00     0.000 A 
ENDBRANCH  31  32
ENDBRANCH  30  31
ENDBRANCH  29  30
ENDBRANCH   8  20
ENDBRANCH   5   8
ENDBRANCH   3   4
ENDBRANCH   2   3
ENDBRANCH   1   2
BRANCH   1  38
ATOM     38  C   UNL A   1      31.976  29.608  27.278  1.00  0.00     0.002 C 
BRANCH  38  39
ATOM     39  C   UNL A   1      31.441  31.000  26.913  1.00  0.00     0.021 C 
BRANCH  39  40
ATOM     40  C   UNL A   1      32.485  31.961  26.348  1.00  0.00     0.116 C 
BRANCH  40  41
ATOM     41  N   UNL A   1      32.355  33.287  26.944  1.00  0.00    -0.352 N 
ATOM     42  C   UNL A   1      33.041  33.802  28.011  1.00  0.00     0.251 C 
ATOM     43  H   UNL A   1      31.694  33.884  26.526  1.00  0.00     0.163 HD
ATOM     44  O   UNL A   1      32.610  34.798  28.611  1.00  0.00    -0.269 OA
BRANCH  42  45
ATOM     45  C   UNL A   1      34.296  33.165  28.446  1.00  0.00     0.039 A 
ATOM     46  C   UNL A   1      35.513  33.820  28.250  1.00  0.00     0.014 A 
ATOM     47  C   UNL A   1      34.256  31.917  29.078  1.00  0.00     0.014 A 
ATOM     48  C   UNL A   1      36.688  33.256  28.755  1.00  0.00     0.010 A 
ATOM     49  C   UNL A   1      35.418  31.388  29.633  1.00  0.00     0.010 A 
ATOM     50  C   UNL A   1      36.644  32.055  29.485  1.00  0.00    -0.014 A 
BRANCH  50  51
ATOM     51  C   UNL A   1      37.853  31.515  30.159  1.00  0.00     0.031 A 
ATOM     52  C   UNL A   1      38.713  30.487  29.475  1.00  0.00     0.074 A 
ATOM     53  C   UNL A   1      38.108  31.869  31.436  1.00  0.00     0.049 A 
ATOM     54  N   UNL A   1      39.755  29.847  29.940  1.00  0.00    -0.248 NA
ATOM     55  C   UNL A   1      38.345  30.111  28.099  1.00  0.00     0.031 C 
ATOM     56  C   UNL A   1      37.301  32.795  32.233  1.00  0.00     0.029 A 
ATOM     57  N   UNL A   1      39.094  31.463  32.301  1.00  0.00    -0.354 N 
ATOM     58  C   UNL A   1      40.142  28.966  28.937  1.00  0.00     0.074 A 
ATOM     59  C   UNL A   1      39.218  29.146  27.838  1.00  0.00     0.031 C 
ATOM     60  C   UNL A   1      37.813  32.875  33.471  1.00  0.00     0.029 A 
ATOM     61  C   UNL A   1      38.961  31.979  33.571  1.00  0.00     0.049 A 
ATOM     62  H   UNL A   1      39.827  30.860  32.039  1.00  0.00     0.167 HD
ATOM     63  C   UNL A   1      41.181  28.100  28.929  1.00  0.00     0.034 A 
ATOM     64  C   UNL A   1      39.663  31.739  34.696  1.00  0.00     0.034 A 
ATOM     65  C   UNL A   1      42.122  27.957  30.006  1.00  0.00     0.049 A 
ATOM     66  C   UNL A   1      40.825  30.783  34.642  1.00  0.00     0.074 A 
ATOM     67  C   UNL A   1      43.280  27.199  30.037  1.00  0.00     0.029 A 
ATOM     68  N   UNL A   1      42.003  28.557  31.248  1.00  0.00    -0.354 N 
ATOM     69  N   UNL A   1      41.300  30.118  33.617  1.00  0.00    -0.248 NA
ATOM     70  C   UNL A   1      41.567  30.563  35.894  1.00  0.00     0.031 C 
ATOM     71  C   UNL A   1      43.837  27.305  31.314  1.00  0.00     0.029 A 
ATOM     72  C   UNL A   1      43.046  28.156  32.067  1.00  0.00     0.049 A 
ATOM     73  H   UNL A   1      41.285  29.176  31.511  1.00  0.00     0.167 HD
ATOM     74  C   UNL A   1      42.405  29.422  34.093  1.00  0.00     0.074 A 
ATOM     75  C   UNL A   1      42.553  29.775  35.490  1.00  0.00     0.031 C 
ATOM     76  C   UNL A   1      43.211  28.551  33.441  1.00  0.00     0.034 A 
BRANCH  63  77
ATOM     77  C   UNL A   1      41.398  27.251  27.704  1.00  0.00     0.023 A 
ATOM     78  C   UNL A   1      41.945  27.830  26.542  1.00  0.00     0.012 A 
ATOM     79  C   UNL A   1      41.184  25.859  27.753  1.00  0.00     0.148 A 
ATOM     80  C   UNL A   1      42.263  27.037  25.439  1.00  0.00     0.002 A 
ATOM     81  C   UNL A   1      41.543  25.071  26.667  1.00  0.00     0.091 A 
ATOM     82  F   UNL A   1      40.649  25.334  28.864  1.00  0.00    -0.205 F 
ATOM     83  C   UNL A   1      42.075  25.658  25.507  1.00  0.00     0.022 A 
BRANCH  81  84
ATOM     84  S   UNL A   1      41.421  23.279  26.683  1.00  0.00     0.127 S 
ATOM     85  O   UNL A   1      39.972  23.082  26.633  1.00  0.00    -0.237 OA
ATOM     86  O   UNL A   1      42.129  22.913  25.457  1.00  0.00    -0.237 OA
ATOM     87  O   UNL A   1      42.062  22.840  27.915  1.00  0.00    -0.744 OA
ENDBRANCH  81  84
ENDBRANCH  63  77
BRANCH  64  88
ATOM     88  C   UNL A   1      39.302  32.420  35.974  1.00  0.00     0.023 A 
ATOM     89  C   UNL A   1      39.849  33.684  36.266  1.00  0.00     0.012 A 
ATOM     90  C   UNL A   1      38.436  31.816  36.906  1.00  0.00     0.148 A 
ATOM     91  C   UNL A   1      39.580  34.312  37.484  1.00  0.00     0.002 A 
ATOM     92  C   UNL A   1      38.124  32.474  38.091  1.00  0.00     0.091 A 
ATOM     93  F   UNL A   1      37.937  30.605  36.621  1.00  0.00    -0.205 F 
ATOM     94  C   UNL A   1      38.712  33.711  38.391  1.00  0.00     0.022 A 
BRANCH  92  95
ATOM     95  S   UNL A   1      36.912  31.833  39.251  1.00  0.00     0.127 S 
ATOM     96  O   UNL A   1      37.538  32.134  40.537  1.00  0.00    -0.237 OA
ATOM     97  O   UNL A   1      35.732  32.641  38.938  1.00  0.00    -0.237 OA
ATOM     98  O   UNL A   1      36.770  30.421  38.926  1.00  0.00    -0.744 OA
ENDBRANCH  92  95
ENDBRANCH  64  88
BRANCH  76  99
ATOM     99  C   UNL A   1      44.342  27.925  34.215  1.00  0.00     0.023 A 
ATOM    100  C   UNL A   1      44.148  26.681  34.848  1.00  0.00     0.012 A 
ATOM    101  C   UNL A   1      45.616  28.525  34.245  1.00  0.00     0.148 A 
ATOM    102  C   UNL A   1      45.195  26.058  35.523  1.00  0.00     0.002 A 
ATOM    103  C   UNL A   1      46.668  27.874  34.877  1.00  0.00     0.091 A 
ATOM    104  F   UNL A   1      45.776  29.714  33.647  1.00  0.00    -0.205 F 
ATOM    105  C   UNL A   1      46.457  26.647  35.527  1.00  0.00     0.022 A 
BRANCH 103 106
ATOM    106  S   UNL A   1      48.351  28.505  34.855  1.00  0.00     0.127 S 
ATOM    107  O   UNL A   1      48.369  29.260  33.603  1.00  0.00    -0.237 OA
ATOM    108  O   UNL A   1      48.385  29.328  36.064  1.00  0.00    -0.237 OA
ATOM    109  O   UNL A   1      49.221  27.339  34.888  1.00  0.00    -0.744 OA
ENDBRANCH 103 106
ENDBRANCH  76  99
ENDBRANCH  50  51
ENDBRANCH  42  45
ENDBRANCH  40  41
ENDBRANCH  39  40
ENDBRANCH  38  39
ENDBRANCH   1  38
TORSDOF 22
ENDMDL
