MODEL 1
REMARK VINA RESULT:     -11.0      0.000      0.000
REMARK SMILES O=C(NCCCCCCNC(=O)[C@@H]1C=C[C@H](NC(=O)[C@@H]2CCSC2)C1)c1ccc(-c2c3nc(c(-c4cccc(S(=O)(=O)[O-])c4F)c4ccc([nH]4)c(-c4cccc(S(=O)(=O)[O-])c4F)c4nc(c(-c5cccc(S(=O)(=O)[O-])c5F)c5ccc2[nH]5)C=C4)C=C3)cc1
REMARK SMILES IDX 6 1 5 2 4 3 3 4 1 5 2 6 26 8 27 9 88 10 28 11 87 12 29 13
REMARK SMILES IDX 30 14 31 15 81 16 32 17 86 18 80 19 82 20 33 21 85 22 79 23
REMARK SMILES IDX 78 24 34 26 66 27 46 28 65 29 47 30 50 31 64 32 83 33 48 34
REMARK SMILES IDX 49 35 63 37 84 38 51 39 35 40 36 41 44 42 37 43 39 44 45 45
REMARK SMILES IDX 38 46 40 47 41 48 42 49 43 50 67 51 68 52 76 53 69 54 71 55
REMARK SMILES IDX 77 56 70 57 72 58 73 59 74 60 75 61 52 62 53 63 61 64 54 65
REMARK SMILES IDX 56 66 62 67 55 68 57 69 58 70 59 71 60 72 7 73 8 74 9 75
REMARK SMILES IDX 10 76 11 77 12 79 13 80 14 81 25 82 15 83 16 84 17 85 18 86
REMARK SMILES IDX 19 88 20 89 21 90 24 91 22 92 23 93
REMARK H PARENT 3 7 82 25 50 36 10 78 17 87
REMARK Flexibility Score: inf
ROOT
ATOM      1  C   UNL A   1      36.141  22.776  23.823  1.00  0.00     0.002 C 
ENDROOT
BRANCH   1   2
ATOM      2  C   UNL A   1      36.731  21.581  24.571  1.00  0.00     0.021 C 
BRANCH   2   3
ATOM      3  C   UNL A   1      37.659  21.953  25.723  1.00  0.00     0.116 C 
BRANCH   3   4
ATOM      4  N   UNL A   1      38.609  20.894  26.020  1.00  0.00    -0.352 N 
ATOM      5  O   UNL A   1      40.650  20.019  26.421  1.00  0.00    -0.269 OA
ATOM      6  C   UNL A   1      39.917  20.998  26.437  1.00  0.00     0.251 C 
ATOM      7  H   UNL A   1      38.270  19.975  25.909  1.00  0.00     0.163 HD
BRANCH   6   8
ATOM      8  C   UNL A   1      40.429  22.316  26.878  1.00  0.00     0.039 A 
ATOM      9  C   UNL A   1      40.106  23.468  26.160  1.00  0.00     0.014 A 
ATOM     10  C   UNL A   1      41.242  22.402  28.011  1.00  0.00     0.014 A 
ATOM     11  C   UNL A   1      40.725  24.672  26.473  1.00  0.00     0.010 A 
ATOM     12  C   UNL A   1      41.779  23.638  28.389  1.00  0.00     0.010 A 
ATOM     13  C   UNL A   1      41.551  24.780  27.605  1.00  0.00    -0.014 A 
BRANCH  13  14
ATOM     14  C   UNL A   1      42.064  26.122  27.984  1.00  0.00     0.031 A 
ATOM     15  C   UNL A   1      43.456  26.573  27.636  1.00  0.00     0.074 A 
ATOM     16  C   UNL A   1      41.226  26.958  28.630  1.00  0.00     0.049 A 
ATOM     17  N   UNL A   1      44.009  27.743  27.833  1.00  0.00    -0.248 NA
ATOM     18  C   UNL A   1      44.348  25.593  26.998  1.00  0.00     0.031 C 
ATOM     19  C   UNL A   1      39.873  26.607  29.077  1.00  0.00     0.029 A 
ATOM     20  N   UNL A   1      41.369  28.266  29.012  1.00  0.00    -0.354 N 
ATOM     21  C   UNL A   1      45.316  27.637  27.371  1.00  0.00     0.074 A 
ATOM     22  C   UNL A   1      45.480  26.280  26.894  1.00  0.00     0.031 C 
ATOM     23  C   UNL A   1      39.297  27.683  29.630  1.00  0.00     0.029 A 
ATOM     24  C   UNL A   1      40.254  28.784  29.628  1.00  0.00     0.049 A 
ATOM     25  H   UNL A   1      42.191  28.786  28.859  1.00  0.00     0.167 HD
ATOM     26  C   UNL A   1      46.281  28.588  27.330  1.00  0.00     0.034 A 
ATOM     27  C   UNL A   1      40.023  30.004  30.145  1.00  0.00     0.034 A 
ATOM     28  C   UNL A   1      46.101  29.945  27.780  1.00  0.00     0.049 A 
ATOM     29  C   UNL A   1      41.094  31.048  30.039  1.00  0.00     0.074 A 
ATOM     30  C   UNL A   1      47.008  30.991  27.743  1.00  0.00     0.029 A 
ATOM     31  N   UNL A   1      44.940  30.447  28.350  1.00  0.00    -0.354 N 
ATOM     32  N   UNL A   1      42.279  30.958  29.484  1.00  0.00    -0.248 NA
ATOM     33  C   UNL A   1      40.790  32.370  30.602  1.00  0.00     0.031 C 
ATOM     34  C   UNL A   1      46.397  32.122  28.299  1.00  0.00     0.029 A 
ATOM     35  C   UNL A   1      45.106  31.785  28.667  1.00  0.00     0.049 A 
ATOM     36  H   UNL A   1      44.118  29.927  28.506  1.00  0.00     0.167 HD
ATOM     37  C   UNL A   1      42.859  32.212  29.623  1.00  0.00     0.074 A 
ATOM     38  C   UNL A   1      41.874  33.057  30.271  1.00  0.00     0.031 C 
ATOM     39  C   UNL A   1      44.104  32.621  29.276  1.00  0.00     0.034 A 
BRANCH  26  40
ATOM     40  C   UNL A   1      47.613  28.220  26.726  1.00  0.00     0.023 A 
ATOM     41  C   UNL A   1      48.709  27.973  27.577  1.00  0.00     0.012 A 
ATOM     42  C   UNL A   1      47.759  28.023  25.338  1.00  0.00     0.148 A 
ATOM     43  C   UNL A   1      49.934  27.555  27.058  1.00  0.00     0.002 A 
ATOM     44  C   UNL A   1      48.973  27.572  24.831  1.00  0.00     0.091 A 
ATOM     45  F   UNL A   1      46.710  28.279  24.543  1.00  0.00    -0.205 F 
ATOM     46  C   UNL A   1      50.063  27.345  25.688  1.00  0.00     0.022 A 
BRANCH  44  47
ATOM     47  S   UNL A   1      49.224  27.200  23.090  1.00  0.00     0.127 S 
ATOM     48  O   UNL A   1      48.449  25.969  22.938  1.00  0.00    -0.237 OA
ATOM     49  O   UNL A   1      48.639  28.372  22.439  1.00  0.00    -0.237 OA
ATOM     50  O   UNL A   1      50.662  27.059  22.912  1.00  0.00    -0.744 OA
ENDBRANCH  44  47
ENDBRANCH  26  40
BRANCH  27  51
ATOM     51  C   UNL A   1      38.705  30.304  30.771  1.00  0.00     0.023 A 
ATOM     52  C   UNL A   1      38.469  29.945  32.111  1.00  0.00     0.012 A 
ATOM     53  C   UNL A   1      37.702  30.989  30.057  1.00  0.00     0.148 A 
ATOM     54  C   UNL A   1      37.248  30.239  32.720  1.00  0.00     0.002 A 
ATOM     55  C   UNL A   1      36.515  31.336  30.689  1.00  0.00     0.091 A 
ATOM     56  F   UNL A   1      37.933  31.303  28.774  1.00  0.00    -0.205 F 
ATOM     57  C   UNL A   1      36.277  30.946  32.015  1.00  0.00     0.022 A 
BRANCH  55  58
ATOM     58  S   UNL A   1      35.295  32.383  29.887  1.00  0.00     0.127 S 
ATOM     59  O   UNL A   1      36.109  33.515  29.455  1.00  0.00    -0.237 OA
ATOM     60  O   UNL A   1      34.811  31.523  28.805  1.00  0.00    -0.237 OA
ATOM     61  O   UNL A   1      34.300  32.659  30.915  1.00  0.00    -0.744 OA
ENDBRANCH  55  58
ENDBRANCH  27  51
BRANCH  39  62
ATOM     62  C   UNL A   1      44.466  34.047  29.592  1.00  0.00     0.023 A 
ATOM     63  C   UNL A   1      45.010  34.360  30.854  1.00  0.00     0.012 A 
ATOM     64  C   UNL A   1      44.298  35.068  28.639  1.00  0.00     0.148 A 
ATOM     65  C   UNL A   1      45.343  35.674  31.176  1.00  0.00     0.002 A 
ATOM     66  C   UNL A   1      44.674  36.369  28.951  1.00  0.00     0.091 A 
ATOM     67  F   UNL A   1      43.757  34.756  27.452  1.00  0.00    -0.205 F 
ATOM     68  C   UNL A   1      45.185  36.677  30.223  1.00  0.00     0.022 A 
BRANCH  66  69
ATOM     69  S   UNL A   1      44.581  37.704  27.752  1.00  0.00     0.127 S 
ATOM     70  O   UNL A   1      45.414  37.189  26.666  1.00  0.00    -0.237 OA
ATOM     71  O   UNL A   1      43.150  37.758  27.450  1.00  0.00    -0.237 OA
ATOM     72  O   UNL A   1      45.095  38.884  28.434  1.00  0.00    -0.744 OA
ENDBRANCH  66  69
ENDBRANCH  39  62
ENDBRANCH  13  14
ENDBRANCH   6   8
ENDBRANCH   3   4
ENDBRANCH   2   3
ENDBRANCH   1   2
BRANCH   1  73
ATOM     73  C   UNL A   1      36.006  24.058  24.655  1.00  0.00     0.002 C 
BRANCH  73  74
ATOM     74  C   UNL A   1      34.792  24.092  25.596  1.00  0.00     0.021 C 
BRANCH  74  75
ATOM     75  C   UNL A   1      33.840  25.257  25.338  1.00  0.00     0.116 C 
BRANCH  75  76
ATOM     76  N   UNL A   1      33.963  25.716  23.968  1.00  0.00    -0.356 N 
ATOM     77  C   UNL A   1      33.434  25.290  22.796  1.00  0.00     0.227 C 
ATOM     78  H   UNL A   1      34.551  26.500  23.869  1.00  0.00     0.163 HD
ATOM     79  O   UNL A   1      33.886  25.844  21.786  1.00  0.00    -0.274 OA
BRANCH  77  80
ATOM     80  C   UNL A   1      32.254  24.294  22.669  1.00  0.00     0.103 C 
ATOM     81  C   UNL A   1      31.090  24.297  23.617  1.00  0.00    -0.016 C 
ATOM     82  C   UNL A   1      32.793  22.841  22.816  1.00  0.00     0.047 C 
ATOM     83  C   UNL A   1      30.946  23.149  24.290  1.00  0.00    -0.006 C 
ATOM     84  C   UNL A   1      31.969  22.148  23.907  1.00  0.00     0.106 C 
BRANCH  84  85
ATOM     85  N   UNL A   1      32.730  21.647  25.040  1.00  0.00    -0.350 N 
ATOM     86  C   UNL A   1      33.252  20.429  25.357  1.00  0.00     0.224 C 
ATOM     87  H   UNL A   1      32.907  22.334  25.723  1.00  0.00     0.164 HD
ATOM     88  O   UNL A   1      33.665  20.258  26.505  1.00  0.00    -0.275 OA
BRANCH  86  89
ATOM     89  C   UNL A   1      33.387  19.353  24.302  1.00  0.00     0.089 C 
ATOM     90  C   UNL A   1      32.184  18.407  24.256  1.00  0.00     0.025 C 
ATOM     91  C   UNL A   1      34.679  18.569  24.539  1.00  0.00     0.083 C 
ATOM     92  C   UNL A   1      32.494  17.157  25.051  1.00  0.00     0.070 C 
ATOM     93  S   UNL A   1      34.223  16.821  24.668  1.00  0.00    -0.161 SA
ENDBRANCH  86  89
ENDBRANCH  84  85
ENDBRANCH  77  80
ENDBRANCH  75  76
ENDBRANCH  74  75
ENDBRANCH  73  74
ENDBRANCH   1  73
TORSDOF 18
ENDMDL
MODEL 2
REMARK VINA RESULT:     -10.9      4.957      9.446
REMARK SMILES O=C(NCCCCCCNC(=O)[C@@H]1C=C[C@H](NC(=O)[C@@H]2CCSC2)C1)c1ccc(-c2c3nc(c(-c4cccc(S(=O)(=O)[O-])c4F)c4ccc([nH]4)c(-c4cccc(S(=O)(=O)[O-])c4F)c4nc(c(-c5cccc(S(=O)(=O)[O-])c5F)c5ccc2[nH]5)C=C4)C=C3)cc1
REMARK SMILES IDX 6 1 5 2 4 3 3 4 1 5 2 6 26 8 27 9 88 10 28 11 87 12 29 13
REMARK SMILES IDX 30 14 31 15 81 16 32 17 86 18 80 19 82 20 33 21 85 22 79 23
REMARK SMILES IDX 78 24 34 26 66 27 46 28 65 29 47 30 50 31 64 32 83 33 48 34
REMARK SMILES IDX 49 35 63 37 84 38 51 39 35 40 36 41 44 42 37 43 39 44 45 45
REMARK SMILES IDX 38 46 40 47 41 48 42 49 43 50 67 51 68 52 76 53 69 54 71 55
REMARK SMILES IDX 77 56 70 57 72 58 73 59 74 60 75 61 52 62 53 63 61 64 54 65
REMARK SMILES IDX 56 66 62 67 55 68 57 69 58 70 59 71 60 72 7 73 8 74 9 75
REMARK SMILES IDX 10 76 11 77 12 79 13 80 14 81 25 82 15 83 16 84 17 85 18 86
REMARK SMILES IDX 19 88 20 89 21 90 24 91 22 92 23 93
REMARK H PARENT 3 7 82 25 50 36 10 78 17 87
REMARK Flexibility Score: inf
ROOT
ATOM      1  C   UNL A   1      32.515  28.170  24.684  1.00  0.00     0.002 C 
ENDROOT
BRANCH   1   2
ATOM      2  C   UNL A   1      32.835  27.673  26.093  1.00  0.00     0.021 C 
BRANCH   2   3
ATOM      3  C   UNL A   1      34.020  28.368  26.754  1.00  0.00     0.116 C 
BRANCH   3   4
ATOM      4  N   UNL A   1      33.742  29.767  27.036  1.00  0.00    -0.352 N 
ATOM      5  O   UNL A   1      33.956  31.720  28.147  1.00  0.00    -0.269 OA
ATOM      6  C   UNL A   1      34.447  30.645  27.829  1.00  0.00     0.251 C 
ATOM      7  H   UNL A   1      32.940  30.137  26.600  1.00  0.00     0.163 HD
BRANCH   6   8
ATOM      8  C   UNL A   1      35.793  30.258  28.311  1.00  0.00     0.039 A 
ATOM      9  C   UNL A   1      36.919  30.526  27.530  1.00  0.00     0.014 A 
ATOM     10  C   UNL A   1      35.932  29.617  29.544  1.00  0.00     0.014 A 
ATOM     11  C   UNL A   1      38.154  30.010  27.902  1.00  0.00     0.010 A 
ATOM     12  C   UNL A   1      37.197  29.193  29.968  1.00  0.00     0.010 A 
ATOM     13  C   UNL A   1      38.316  29.358  29.137  1.00  0.00    -0.014 A 
BRANCH  13  14
ATOM     14  C   UNL A   1      39.685  28.962  29.557  1.00  0.00     0.031 A 
ATOM     15  C   UNL A   1      40.415  29.665  30.669  1.00  0.00     0.074 A 
ATOM     16  C   UNL A   1      40.259  27.915  28.929  1.00  0.00     0.049 A 
ATOM     17  N   UNL A   1      41.579  29.375  31.194  1.00  0.00    -0.248 NA
ATOM     18  C   UNL A   1      39.770  30.845  31.266  1.00  0.00     0.031 C 
ATOM     19  C   UNL A   1      39.673  27.197  27.792  1.00  0.00     0.029 A 
ATOM     20  N   UNL A   1      41.442  27.263  29.156  1.00  0.00    -0.354 N 
ATOM     21  C   UNL A   1      41.821  30.346  32.159  1.00  0.00     0.074 A 
ATOM     22  C   UNL A   1      40.687  31.244  32.140  1.00  0.00     0.031 C 
ATOM     23  C   UNL A   1      40.475  26.180  27.451  1.00  0.00     0.029 A 
ATOM     24  C   UNL A   1      41.657  26.204  28.306  1.00  0.00     0.049 A 
ATOM     25  H   UNL A   1      42.078  27.526  29.861  1.00  0.00     0.167 HD
ATOM     26  C   UNL A   1      42.881  30.464  32.995  1.00  0.00     0.034 A 
ATOM     27  C   UNL A   1      42.691  25.348  28.211  1.00  0.00     0.034 A 
ATOM     28  C   UNL A   1      43.994  29.548  33.027  1.00  0.00     0.049 A 
ATOM     29  C   UNL A   1      43.825  25.476  29.184  1.00  0.00     0.074 A 
ATOM     30  C   UNL A   1      45.096  29.563  33.866  1.00  0.00     0.029 A 
ATOM     31  N   UNL A   1      44.151  28.456  32.186  1.00  0.00    -0.354 N 
ATOM     32  N   UNL A   1      43.971  26.328  30.170  1.00  0.00    -0.248 NA
ATOM     33  C   UNL A   1      44.922  24.509  29.054  1.00  0.00     0.031 C 
ATOM     34  C   UNL A   1      45.922  28.485  33.525  1.00  0.00     0.029 A 
ATOM     35  C   UNL A   1      45.328  27.790  32.486  1.00  0.00     0.049 A 
ATOM     36  H   UNL A   1      43.517  28.194  31.480  1.00  0.00     0.167 HD
ATOM     37  C   UNL A   1      45.172  25.996  30.783  1.00  0.00     0.074 A 
ATOM     38  C   UNL A   1      45.687  24.833  30.087  1.00  0.00     0.031 C 
ATOM     39  C   UNL A   1      45.807  26.614  31.809  1.00  0.00     0.034 A 
BRANCH  26  40
ATOM     40  C   UNL A   1      42.873  31.594  33.994  1.00  0.00     0.023 A 
ATOM     41  C   UNL A   1      43.407  32.845  33.621  1.00  0.00     0.012 A 
ATOM     42  C   UNL A   1      42.257  31.454  35.253  1.00  0.00     0.148 A 
ATOM     43  C   UNL A   1      43.346  33.932  34.491  1.00  0.00     0.002 A 
ATOM     44  C   UNL A   1      42.168  32.554  36.102  1.00  0.00     0.091 A 
ATOM     45  F   UNL A   1      41.770  30.254  35.596  1.00  0.00    -0.205 F 
ATOM     46  C   UNL A   1      42.718  33.790  35.726  1.00  0.00     0.022 A 
BRANCH  44  47
ATOM     47  S   UNL A   1      41.316  32.497  37.684  1.00  0.00     0.127 S 
ATOM     48  O   UNL A   1      40.011  31.962  37.296  1.00  0.00    -0.237 OA
ATOM     49  O   UNL A   1      42.151  31.570  38.449  1.00  0.00    -0.237 OA
ATOM     50  O   UNL A   1      41.307  33.864  38.184  1.00  0.00    -0.744 OA
ENDBRANCH  44  47
ENDBRANCH  26  40
BRANCH  27  51
ATOM     51  C   UNL A   1      42.670  24.276  27.178  1.00  0.00     0.023 A 
ATOM     52  C   UNL A   1      43.296  24.489  25.935  1.00  0.00     0.012 A 
ATOM     53  C   UNL A   1      42.077  23.025  27.441  1.00  0.00     0.148 A 
ATOM     54  C   UNL A   1      43.306  23.487  24.964  1.00  0.00     0.002 A 
ATOM     55  C   UNL A   1      42.148  22.011  26.496  1.00  0.00     0.091 A 
ATOM     56  F   UNL A   1      41.465  22.845  28.621  1.00  0.00    -0.205 F 
ATOM     57  C   UNL A   1      42.746  22.244  25.249  1.00  0.00     0.022 A 
BRANCH  55  58
ATOM     58  S   UNL A   1      41.589  20.344  26.863  1.00  0.00     0.127 S 
ATOM     59  O   UNL A   1      41.566  19.735  25.537  1.00  0.00    -0.237 OA
ATOM     60  O   UNL A   1      42.645  19.850  27.750  1.00  0.00    -0.237 OA
ATOM     61  O   UNL A   1      40.298  20.514  27.517  1.00  0.00    -0.744 OA
ENDBRANCH  55  58
ENDBRANCH  27  51
BRANCH  39  62
ATOM     62  C   UNL A   1      47.132  26.039  32.235  1.00  0.00     0.023 A 
ATOM     63  C   UNL A   1      48.312  26.476  31.601  1.00  0.00     0.012 A 
ATOM     64  C   UNL A   1      47.213  25.096  33.276  1.00  0.00     0.148 A 
ATOM     65  C   UNL A   1      49.549  25.952  31.969  1.00  0.00     0.002 A 
ATOM     66  C   UNL A   1      48.455  24.611  33.668  1.00  0.00     0.091 A 
ATOM     67  F   UNL A   1      46.078  24.675  33.852  1.00  0.00    -0.205 F 
ATOM     68  C   UNL A   1      49.623  25.028  33.008  1.00  0.00     0.022 A 
BRANCH  66  69
ATOM     69  S   UNL A   1      48.645  23.483  35.053  1.00  0.00     0.127 S 
ATOM     70  O   UNL A   1      48.089  24.265  36.156  1.00  0.00    -0.237 OA
ATOM     71  O   UNL A   1      47.828  22.339  34.643  1.00  0.00    -0.237 OA
ATOM     72  O   UNL A   1      50.072  23.200  35.139  1.00  0.00    -0.744 OA
ENDBRANCH  66  69
ENDBRANCH  39  62
ENDBRANCH  13  14
ENDBRANCH   6   8
ENDBRANCH   3   4
ENDBRANCH   2   3
ENDBRANCH   1   2
BRANCH   1  73
ATOM     73  C   UNL A   1      33.723  28.277  23.745  1.00  0.00     0.002 C 
BRANCH  73  74
ATOM     74  C   UNL A   1      33.526  27.636  22.363  1.00  0.00     0.021 C 
BRANCH  74  75
ATOM     75  C   UNL A   1      32.310  26.717  22.274  1.00  0.00     0.116 C 
BRANCH  75  76
ATOM     76  N   UNL A   1      32.628  25.532  21.503  1.00  0.00    -0.356 N 
ATOM     77  C   UNL A   1      33.143  24.322  21.830  1.00  0.00     0.227 C 
ATOM     78  H   UNL A   1      32.428  25.623  20.543  1.00  0.00     0.163 HD
ATOM     79  O   UNL A   1      33.420  23.594  20.868  1.00  0.00    -0.274 OA
BRANCH  77  80
ATOM     80  C   UNL A   1      33.268  23.777  23.275  1.00  0.00     0.103 C 
ATOM     81  C   UNL A   1      34.433  22.945  23.726  1.00  0.00    -0.016 C 
ATOM     82  C   UNL A   1      32.061  22.841  23.574  1.00  0.00     0.047 C 
ATOM     83  C   UNL A   1      34.086  21.722  24.145  1.00  0.00    -0.006 C 
ATOM     84  C   UNL A   1      32.621  21.505  24.077  1.00  0.00     0.106 C 
BRANCH  84  85
ATOM     85  N   UNL A   1      32.253  20.338  23.293  1.00  0.00    -0.350 N 
ATOM     86  C   UNL A   1      32.564  19.015  23.376  1.00  0.00     0.224 C 
ATOM     87  H   UNL A   1      31.650  20.548  22.544  1.00  0.00     0.164 HD
ATOM     88  O   UNL A   1      32.268  18.290  22.424  1.00  0.00    -0.275 OA
BRANCH  86  89
ATOM     89  C   UNL A   1      33.183  18.448  24.635  1.00  0.00     0.089 C 
ATOM     90  C   UNL A   1      34.593  17.895  24.410  1.00  0.00     0.025 C 
ATOM     91  C   UNL A   1      32.267  17.366  25.209  1.00  0.00     0.083 C 
ATOM     92  C   UNL A   1      34.522  16.396  24.207  1.00  0.00     0.070 C 
ATOM     93  S   UNL A   1      33.262  15.862  25.380  1.00  0.00    -0.161 SA
ENDBRANCH  86  89
ENDBRANCH  84  85
ENDBRANCH  77  80
ENDBRANCH  75  76
ENDBRANCH  74  75
ENDBRANCH  73  74
ENDBRANCH   1  73
TORSDOF 18
ENDMDL
MODEL 3
REMARK VINA RESULT:     -10.9      5.056      9.863
REMARK SMILES O=C(NCCCCCCNC(=O)[C@@H]1C=C[C@H](NC(=O)[C@@H]2CCSC2)C1)c1ccc(-c2c3nc(c(-c4cccc(S(=O)(=O)[O-])c4F)c4ccc([nH]4)c(-c4cccc(S(=O)(=O)[O-])c4F)c4nc(c(-c5cccc(S(=O)(=O)[O-])c5F)c5ccc2[nH]5)C=C4)C=C3)cc1
REMARK SMILES IDX 6 1 5 2 4 3 3 4 1 5 2 6 26 8 27 9 88 10 28 11 87 12 29 13
REMARK SMILES IDX 30 14 31 15 81 16 32 17 86 18 80 19 82 20 33 21 85 22 79 23
REMARK SMILES IDX 78 24 34 26 66 27 46 28 65 29 47 30 50 31 64 32 83 33 48 34
REMARK SMILES IDX 49 35 63 37 84 38 51 39 35 40 36 41 44 42 37 43 39 44 45 45
REMARK SMILES IDX 38 46 40 47 41 48 42 49 43 50 67 51 68 52 76 53 69 54 71 55
REMARK SMILES IDX 77 56 70 57 72 58 73 59 74 60 75 61 52 62 53 63 61 64 54 65
REMARK SMILES IDX 56 66 62 67 55 68 57 69 58 70 59 71 60 72 7 73 8 74 9 75
REMARK SMILES IDX 10 76 11 77 12 79 13 80 14 81 25 82 15 83 16 84 17 85 18 86
REMARK SMILES IDX 19 88 20 89 21 90 24 91 22 92 23 93
REMARK H PARENT 3 7 82 25 50 36 10 78 17 87
REMARK Flexibility Score: inf
ROOT
ATOM      1  C   UNL A   1      31.204  28.255  25.114  1.00  0.00     0.002 C 
ENDROOT
BRANCH   1   2
ATOM      2  C   UNL A   1      32.713  28.010  25.117  1.00  0.00     0.021 C 
BRANCH   2   3
ATOM      3  C   UNL A   1      33.558  29.276  25.038  1.00  0.00     0.116 C 
BRANCH   3   4
ATOM      4  N   UNL A   1      32.869  30.426  25.599  1.00  0.00    -0.352 N 
ATOM      5  O   UNL A   1      32.328  31.911  27.212  1.00  0.00    -0.269 OA
ATOM      6  C   UNL A   1      33.139  31.112  26.763  1.00  0.00     0.251 C 
ATOM      7  H   UNL A   1      32.104  30.761  25.076  1.00  0.00     0.163 HD
BRANCH   6   8
ATOM      8  C   UNL A   1      34.411  30.850  27.474  1.00  0.00     0.039 A 
ATOM      9  C   UNL A   1      34.667  29.585  28.007  1.00  0.00     0.014 A 
ATOM     10  C   UNL A   1      35.350  31.874  27.619  1.00  0.00     0.014 A 
ATOM     11  C   UNL A   1      35.777  29.391  28.819  1.00  0.00     0.010 A 
ATOM     12  C   UNL A   1      36.523  31.643  28.349  1.00  0.00     0.010 A 
ATOM     13  C   UNL A   1      36.733  30.409  28.982  1.00  0.00    -0.014 A 
BRANCH  13  14
ATOM     14  C   UNL A   1      37.977  30.100  29.733  1.00  0.00     0.031 A 
ATOM     15  C   UNL A   1      38.215  30.609  31.128  1.00  0.00     0.074 A 
ATOM     16  C   UNL A   1      38.894  29.309  29.138  1.00  0.00     0.049 A 
ATOM     17  N   UNL A   1      39.217  30.353  31.932  1.00  0.00    -0.248 NA
ATOM     18  C   UNL A   1      37.216  31.526  31.697  1.00  0.00     0.031 C 
ATOM     19  C   UNL A   1      38.801  28.809  27.762  1.00  0.00     0.029 A 
ATOM     20  N   UNL A   1      40.066  28.775  29.604  1.00  0.00    -0.354 N 
ATOM     21  C   UNL A   1      38.987  31.094  33.086  1.00  0.00     0.074 A 
ATOM     22  C   UNL A   1      37.754  31.822  32.874  1.00  0.00     0.031 C 
ATOM     23  C   UNL A   1      39.845  28.008  27.512  1.00  0.00     0.029 A 
ATOM     24  C   UNL A   1      40.710  27.980  28.685  1.00  0.00     0.049 A 
ATOM     25  H   UNL A   1      40.414  28.944  30.509  1.00  0.00     0.167 HD
ATOM     26  C   UNL A   1      39.725  31.145  34.221  1.00  0.00     0.034 A 
ATOM     27  C   UNL A   1      41.872  27.306  28.767  1.00  0.00     0.034 A 
ATOM     28  C   UNL A   1      40.937  30.394  34.435  1.00  0.00     0.049 A 
ATOM     29  C   UNL A   1      42.639  27.344  30.056  1.00  0.00     0.074 A 
ATOM     30  C   UNL A   1      41.733  30.350  35.567  1.00  0.00     0.029 A 
ATOM     31  N   UNL A   1      41.529  29.557  33.501  1.00  0.00    -0.354 N 
ATOM     32  N   UNL A   1      42.335  27.953  31.176  1.00  0.00    -0.248 NA
ATOM     33  C   UNL A   1      43.892  26.580  30.104  1.00  0.00     0.031 C 
ATOM     34  C   UNL A   1      42.811  29.494  35.314  1.00  0.00     0.029 A 
ATOM     35  C   UNL A   1      42.678  28.992  34.030  1.00  0.00     0.049 A 
ATOM     36  H   UNL A   1      41.183  29.390  32.595  1.00  0.00     0.167 HD
ATOM     37  C   UNL A   1      43.355  27.640  32.066  1.00  0.00     0.074 A 
ATOM     38  C   UNL A   1      44.257  26.747  31.367  1.00  0.00     0.031 C 
ATOM     39  C   UNL A   1      43.545  28.076  33.335  1.00  0.00     0.034 A 
BRANCH  26  40
ATOM     40  C   UNL A   1      39.220  32.000  35.357  1.00  0.00     0.023 A 
ATOM     41  C   UNL A   1      38.286  31.458  36.263  1.00  0.00     0.012 A 
ATOM     42  C   UNL A   1      39.733  33.293  35.585  1.00  0.00     0.148 A 
ATOM     43  C   UNL A   1      37.857  32.192  37.368  1.00  0.00     0.002 A 
ATOM     44  C   UNL A   1      39.327  34.005  36.709  1.00  0.00     0.091 A 
ATOM     45  F   UNL A   1      40.607  33.798  34.703  1.00  0.00    -0.205 F 
ATOM     46  C   UNL A   1      38.384  33.461  37.596  1.00  0.00     0.022 A 
BRANCH  44  47
ATOM     47  S   UNL A   1      39.999  35.617  37.135  1.00  0.00     0.127 S 
ATOM     48  O   UNL A   1      41.426  35.321  37.247  1.00  0.00    -0.237 OA
ATOM     49  O   UNL A   1      39.634  36.420  35.967  1.00  0.00    -0.237 OA
ATOM     50  O   UNL A   1      39.343  36.011  38.373  1.00  0.00    -0.744 OA
ENDBRANCH  44  47
ENDBRANCH  26  40
BRANCH  27  51
ATOM     51  C   UNL A   1      42.349  26.511  27.602  1.00  0.00     0.023 A 
ATOM     52  C   UNL A   1      43.216  27.099  26.662  1.00  0.00     0.012 A 
ATOM     53  C   UNL A   1      41.986  25.158  27.449  1.00  0.00     0.148 A 
ATOM     54  C   UNL A   1      43.691  26.361  25.576  1.00  0.00     0.002 A 
ATOM     55  C   UNL A   1      42.515  24.412  26.404  1.00  0.00     0.091 A 
ATOM     56  F   UNL A   1      41.141  24.619  28.341  1.00  0.00    -0.205 F 
ATOM     57  C   UNL A   1      43.353  25.015  25.455  1.00  0.00     0.022 A 
BRANCH  55  58
ATOM     58  S   UNL A   1      42.246  22.640  26.285  1.00  0.00     0.127 S 
ATOM     59  O   UNL A   1      42.925  22.152  27.481  1.00  0.00    -0.237 OA
ATOM     60  O   UNL A   1      40.785  22.545  26.322  1.00  0.00    -0.237 OA
ATOM     61  O   UNL A   1      42.832  22.254  25.008  1.00  0.00    -0.744 OA
ENDBRANCH  55  58
ENDBRANCH  27  51
BRANCH  39  62
ATOM     62  C   UNL A   1      44.779  27.588  34.046  1.00  0.00     0.023 A 
ATOM     63  C   UNL A   1      45.955  28.363  34.000  1.00  0.00     0.012 A 
ATOM     64  C   UNL A   1      44.768  26.388  34.779  1.00  0.00     0.148 A 
ATOM     65  C   UNL A   1      47.114  27.929  34.640  1.00  0.00     0.002 A 
ATOM     66  C   UNL A   1      45.915  25.983  35.452  1.00  0.00     0.091 A 
ATOM     67  F   UNL A   1      43.647  25.652  34.792  1.00  0.00    -0.205 F 
ATOM     68  C   UNL A   1      47.093  26.746  35.374  1.00  0.00     0.022 A 
BRANCH  66  69
ATOM     69  S   UNL A   1      45.947  24.516  36.488  1.00  0.00     0.127 S 
ATOM     70  O   UNL A   1      47.319  24.533  36.990  1.00  0.00    -0.237 OA
ATOM     71  O   UNL A   1      44.926  24.818  37.493  1.00  0.00    -0.237 OA
ATOM     72  O   UNL A   1      45.611  23.404  35.608  1.00  0.00    -0.744 OA
ENDBRANCH  66  69
ENDBRANCH  39  62
ENDBRANCH  13  14
ENDBRANCH   6   8
ENDBRANCH   3   4
ENDBRANCH   2   3
ENDBRANCH   1   2
BRANCH   1  73
ATOM     73  C   UNL A   1      30.546  28.222  23.729  1.00  0.00     0.002 C 
BRANCH  73  74
ATOM     74  C   UNL A   1      30.284  26.815  23.172  1.00  0.00     0.021 C 
BRANCH  74  75
ATOM     75  C   UNL A   1      29.887  25.792  24.234  1.00  0.00     0.116 C 
BRANCH  75  76
ATOM     76  N   UNL A   1      30.279  24.458  23.822  1.00  0.00    -0.356 N 
ATOM     77  C   UNL A   1      31.465  23.909  23.463  1.00  0.00     0.227 C 
ATOM     78  H   UNL A   1      29.531  23.819  23.800  1.00  0.00     0.163 HD
ATOM     79  O   UNL A   1      31.394  22.754  23.023  1.00  0.00    -0.274 OA
BRANCH  77  80
ATOM     80  C   UNL A   1      32.849  24.566  23.693  1.00  0.00     0.103 C 
ATOM     81  C   UNL A   1      34.130  23.930  23.238  1.00  0.00    -0.016 C 
ATOM     82  C   UNL A   1      33.089  24.732  25.222  1.00  0.00     0.047 C 
ATOM     83  C   UNL A   1      34.979  23.664  24.239  1.00  0.00    -0.006 C 
ATOM     84  C   UNL A   1      34.441  24.089  25.552  1.00  0.00     0.106 C 
BRANCH  84  85
ATOM     85  N   UNL A   1      34.399  23.012  26.528  1.00  0.00    -0.350 N 
ATOM     86  C   UNL A   1      34.066  21.694  26.456  1.00  0.00     0.224 C 
ATOM     87  H   UNL A   1      34.669  23.296  27.431  1.00  0.00     0.164 HD
ATOM     88  O   UNL A   1      33.918  21.076  27.513  1.00  0.00    -0.275 OA
BRANCH  86  89
ATOM     89  C   UNL A   1      33.961  20.998  25.116  1.00  0.00     0.089 C 
ATOM     90  C   UNL A   1      32.606  20.316  24.903  1.00  0.00     0.025 C 
ATOM     91  C   UNL A   1      35.100  19.987  24.977  1.00  0.00     0.083 C 
ATOM     92  C   UNL A   1      32.721  18.846  25.246  1.00  0.00     0.070 C 
ATOM     93  S   UNL A   1      34.343  18.382  24.613  1.00  0.00    -0.161 SA
ENDBRANCH  86  89
ENDBRANCH  84  85
ENDBRANCH  77  80
ENDBRANCH  75  76
ENDBRANCH  74  75
ENDBRANCH  73  74
ENDBRANCH   1  73
TORSDOF 18
ENDMDL
