MODEL 1
REMARK VINA RESULT:     -12.3      0.000      0.000
REMARK SMILES CC(=O)NS(=O)(=O)c1ccc(-c2ccn(C(F)F)c(=O)c2)cc1C(=O)NCCCCCCNC(=O)c1ccc(-c2c3nc(c(-c4cccc(S(=O)(=O)[O-])c4F)c4ccc([nH]4)c(-c4cccc(S(=O)(=O)[O-])c4F)c4nc(c(-c5cccc(S(=O)(=O)[O-])c5F)c5ccc2[nH]5)C=C4)C=C3)cc1
REMARK SMILES IDX 30 1 29 2 28 3 27 4 26 5 24 6 25 7 23 9 8 10 9 11 10 12
REMARK SMILES IDX 22 13 11 14 5 15 6 16 7 17 4 18 1 19 2 20 3 21 12 23 13 24
REMARK SMILES IDX 21 25 14 26 19 27 15 28 20 29 16 30 17 31 18 32 31 33 32 34
REMARK SMILES IDX 33 35 34 36 35 38 36 39 37 40 98 41 38 42 97 43 39 44 40 45
REMARK SMILES IDX 41 46 91 47 42 48 96 49 90 50 92 51 43 52 95 53 89 54 88 55
REMARK SMILES IDX 44 57 76 58 56 59 75 60 57 61 60 62 74 63 93 64 58 65 59 66
REMARK SMILES IDX 73 68 94 69 61 70 45 71 46 72 54 73 47 74 49 75 55 76 48 77
REMARK SMILES IDX 50 78 51 79 52 80 53 81 77 82 78 83 86 84 79 85 81 86 87 87
REMARK SMILES IDX 80 88 82 89 83 90 84 91 85 92 62 93 63 94 71 95 64 96 66 97
REMARK SMILES IDX 72 98 65 99 67 100 68 101 69 102 70 103
REMARK H PARENT 26 8 4 22 33 37 92 56 60 67
REMARK Flexibility Score: inf
ROOT
ATOM      1  C   UNL A   1      31.712  26.805  26.455  1.00  0.00     0.002 C 
ENDROOT
BRANCH   1   2
ATOM      2  C   UNL A   1      30.280  26.314  26.227  1.00  0.00     0.002 C 
BRANCH   2   3
ATOM      3  C   UNL A   1      30.080  24.810  26.416  1.00  0.00     0.021 C 
BRANCH   3   4
ATOM      4  C   UNL A   1      31.369  23.975  26.384  1.00  0.00     0.116 C 
BRANCH   4   5
ATOM      5  N   UNL A   1      31.323  23.082  25.234  1.00  0.00    -0.352 N 
ATOM      6  C   UNL A   1      31.491  23.258  23.891  1.00  0.00     0.252 C 
ATOM      7  O   UNL A   1      31.266  22.302  23.145  1.00  0.00    -0.269 OA
ATOM      8  H   UNL A   1      31.129  22.148  25.479  1.00  0.00     0.163 HD
BRANCH   6   9
ATOM      9  C   UNL A   1      32.070  24.474  23.271  1.00  0.00     0.060 A 
ATOM     10  C   UNL A   1      33.417  24.805  23.125  1.00  0.00     0.100 A 
ATOM     11  C   UNL A   1      33.783  26.053  22.583  1.00  0.00     0.024 A 
ATOM     12  C   UNL A   1      32.817  27.032  22.337  1.00  0.00     0.010 A 
ATOM     13  C   UNL A   1      31.109  25.472  22.997  1.00  0.00     0.024 A 
ATOM     14  C   UNL A   1      31.472  26.767  22.598  1.00  0.00    -0.017 A 
BRANCH  10  15
ATOM     15  S   UNL A   1      34.703  23.821  23.834  1.00  0.00     0.264 S 
ATOM     16  O   UNL A   1      34.726  24.134  25.245  1.00  0.00    -0.201 OA
ATOM     17  O   UNL A   1      35.879  23.903  23.003  1.00  0.00    -0.201 OA
BRANCH  15  18
ATOM     18  N   UNL A   1      34.143  22.259  23.730  1.00  0.00    -0.249 N 
ATOM     19  C   UNL A   1      35.976  21.046  24.922  1.00  0.00     0.115 C 
ATOM     20  C   UNL A   1      34.531  21.173  24.527  1.00  0.00     0.230 C 
ATOM     21  O   UNL A   1      33.725  20.274  24.731  1.00  0.00    -0.274 OA
ATOM     22  H   UNL A   1      33.468  22.079  23.036  1.00  0.00     0.183 HD
ENDBRANCH  15  18
ENDBRANCH  10  15
BRANCH  14  23
ATOM     23  C   UNL A   1      30.465  27.853  22.652  1.00  0.00    -0.011 A 
ATOM     24  C   UNL A   1      30.809  29.208  22.248  1.00  0.00     0.027 A 
ATOM     25  C   UNL A   1      29.199  27.596  23.023  1.00  0.00     0.080 A 
ATOM     26  C   UNL A   1      29.892  30.180  22.242  1.00  0.00     0.095 A 
ATOM     27  C   UNL A   1      28.163  28.672  23.025  1.00  0.00     0.255 A 
ATOM     28  N   UNL A   1      28.589  29.929  22.622  1.00  0.00    -0.258 N 
ATOM     29  O   UNL A   1      27.020  28.386  23.369  1.00  0.00    -0.269 OA
BRANCH  28  30
ATOM     30  C   UNL A   1      27.610  30.984  22.599  1.00  0.00     0.451 C 
ATOM     31  F   UNL A   1      27.348  31.438  23.849  1.00  0.00    -0.185 F 
ATOM     32  F   UNL A   1      28.036  32.033  21.854  1.00  0.00    -0.185 F 
ENDBRANCH  28  30
ENDBRANCH  14  23
ENDBRANCH   6   9
ENDBRANCH   4   5
ENDBRANCH   3   4
ENDBRANCH   2   3
ENDBRANCH   1   2
BRANCH   1  33
ATOM     33  C   UNL A   1      31.873  28.264  26.908  1.00  0.00     0.021 C 
BRANCH  33  34
ATOM     34  C   UNL A   1      32.813  29.145  26.081  1.00  0.00     0.116 C 
BRANCH  34  35
ATOM     35  N   UNL A   1      32.627  30.562  26.339  1.00  0.00    -0.352 N 
ATOM     36  C   UNL A   1      33.337  31.423  27.136  1.00  0.00     0.251 C 
ATOM     37  H   UNL A   1      31.868  30.971  25.863  1.00  0.00     0.163 HD
ATOM     38  O   UNL A   1      32.914  32.567  27.300  1.00  0.00    -0.269 OA
BRANCH  36  39
ATOM     39  C   UNL A   1      34.587  31.005  27.817  1.00  0.00     0.039 A 
ATOM     40  C   UNL A   1      35.629  31.936  27.910  1.00  0.00     0.014 A 
ATOM     41  C   UNL A   1      34.779  29.704  28.295  1.00  0.00     0.014 A 
ATOM     42  C   UNL A   1      36.840  31.580  28.510  1.00  0.00     0.010 A 
ATOM     43  C   UNL A   1      35.977  29.360  28.931  1.00  0.00     0.010 A 
ATOM     44  C   UNL A   1      37.021  30.292  29.036  1.00  0.00    -0.014 A 
BRANCH  44  45
ATOM     45  C   UNL A   1      38.301  29.921  29.693  1.00  0.00     0.031 A 
ATOM     46  C   UNL A   1      38.655  30.471  31.048  1.00  0.00     0.074 A 
ATOM     47  C   UNL A   1      39.169  29.112  29.055  1.00  0.00     0.049 A 
ATOM     48  N   UNL A   1      39.707  30.224  31.786  1.00  0.00    -0.248 NA
ATOM     49  C   UNL A   1      37.714  31.431  31.646  1.00  0.00     0.031 C 
ATOM     50  C   UNL A   1      38.981  28.570  27.709  1.00  0.00     0.029 A 
ATOM     51  N   UNL A   1      40.387  28.617  29.448  1.00  0.00    -0.354 N 
ATOM     52  C   UNL A   1      39.571  31.014  32.920  1.00  0.00     0.074 A 
ATOM     53  C   UNL A   1      38.342  31.763  32.767  1.00  0.00     0.031 C 
ATOM     54  C   UNL A   1      40.044  27.813  27.389  1.00  0.00     0.029 A 
ATOM     55  C   UNL A   1      40.985  27.814  28.506  1.00  0.00     0.049 A 
ATOM     56  H   UNL A   1      40.794  28.818  30.322  1.00  0.00     0.167 HD
ATOM     57  C   UNL A   1      40.377  31.087  34.005  1.00  0.00     0.034 A 
ATOM     58  C   UNL A   1      42.150  27.135  28.545  1.00  0.00     0.034 A 
ATOM     59  C   UNL A   1      41.568  30.303  34.190  1.00  0.00     0.049 A 
ATOM     60  C   UNL A   1      42.980  27.163  29.799  1.00  0.00     0.074 A 
ATOM     61  C   UNL A   1      42.411  30.263  35.288  1.00  0.00     0.029 A 
ATOM     62  N   UNL A   1      42.079  29.413  33.261  1.00  0.00    -0.354 N 
ATOM     63  N   UNL A   1      42.749  27.791  30.926  1.00  0.00    -0.248 NA
ATOM     64  C   UNL A   1      44.209  26.353  29.803  1.00  0.00     0.031 C 
ATOM     65  C   UNL A   1      43.425  29.332  35.027  1.00  0.00     0.029 A 
ATOM     66  C   UNL A   1      43.220  28.808  33.762  1.00  0.00     0.049 A 
ATOM     67  H   UNL A   1      41.689  29.236  32.374  1.00  0.00     0.167 HD
ATOM     68  C   UNL A   1      43.782  27.431  31.782  1.00  0.00     0.074 A 
ATOM     69  C   UNL A   1      44.634  26.515  31.050  1.00  0.00     0.031 C 
ATOM     70  C   UNL A   1      44.015  27.841  33.052  1.00  0.00     0.034 A 
BRANCH  57  71
ATOM     71  C   UNL A   1      39.947  31.992  35.124  1.00  0.00     0.023 A 
ATOM     72  C   UNL A   1      40.380  33.333  35.116  1.00  0.00     0.012 A 
ATOM     73  C   UNL A   1      39.087  31.548  36.146  1.00  0.00     0.148 A 
ATOM     74  C   UNL A   1      39.976  34.215  36.117  1.00  0.00     0.002 A 
ATOM     75  C   UNL A   1      38.670  32.440  37.129  1.00  0.00     0.091 A 
ATOM     76  F   UNL A   1      38.710  30.261  36.159  1.00  0.00    -0.205 F 
ATOM     77  C   UNL A   1      39.115  33.773  37.118  1.00  0.00     0.022 A 
BRANCH  75  78
ATOM     78  S   UNL A   1      37.520  31.938  38.415  1.00  0.00     0.127 S 
ATOM     79  O   UNL A   1      38.320  32.128  39.623  1.00  0.00    -0.237 OA
ATOM     80  O   UNL A   1      36.420  32.891  38.259  1.00  0.00    -0.237 OA
ATOM     81  O   UNL A   1      37.167  30.564  38.086  1.00  0.00    -0.744 OA
ENDBRANCH  75  78
ENDBRANCH  57  71
BRANCH  58  82
ATOM     82  C   UNL A   1      42.530  26.272  27.394  1.00  0.00     0.023 A 
ATOM     83  C   UNL A   1      43.338  26.813  26.375  1.00  0.00     0.012 A 
ATOM     84  C   UNL A   1      42.155  24.919  27.328  1.00  0.00     0.148 A 
ATOM     85  C   UNL A   1      43.753  26.024  25.303  1.00  0.00     0.002 A 
ATOM     86  C   UNL A   1      42.609  24.126  26.278  1.00  0.00     0.091 A 
ATOM     87  F   UNL A   1      41.370  24.421  28.293  1.00  0.00    -0.205 F 
ATOM     88  C   UNL A   1      43.399  24.677  25.258  1.00  0.00     0.022 A 
BRANCH  86  89
ATOM     89  S   UNL A   1      42.279  22.360  26.254  1.00  0.00     0.127 S 
ATOM     90  O   UNL A   1      42.829  21.928  27.536  1.00  0.00    -0.237 OA
ATOM     91  O   UNL A   1      40.819  22.302  26.162  1.00  0.00    -0.237 OA
ATOM     92  O   UNL A   1      42.965  21.883  25.059  1.00  0.00    -0.744 OA
ENDBRANCH  86  89
ENDBRANCH  58  82
BRANCH  70  93
ATOM     93  C   UNL A   1      45.232  27.298  33.748  1.00  0.00     0.023 A 
ATOM     94  C   UNL A   1      46.449  27.998  33.645  1.00  0.00     0.012 A 
ATOM     95  C   UNL A   1      45.159  26.153  34.563  1.00  0.00     0.148 A 
ATOM     96  C   UNL A   1      47.580  27.557  34.333  1.00  0.00     0.002 A 
ATOM     97  C   UNL A   1      46.284  25.735  35.266  1.00  0.00     0.091 A 
ATOM     98  F   UNL A   1      43.999  25.482  34.634  1.00  0.00    -0.205 F 
ATOM     99  C   UNL A   1      47.496  26.433  35.151  1.00  0.00     0.022 A 
BRANCH  97 100
ATOM    100  S   UNL A   1      46.193  24.328  36.379  1.00  0.00     0.127 S 
ATOM    101  O   UNL A   1      45.710  23.268  35.498  1.00  0.00    -0.237 OA
ATOM    102  O   UNL A   1      47.580  24.163  36.820  1.00  0.00    -0.237 OA
ATOM    103  O   UNL A   1      45.283  24.755  37.435  1.00  0.00    -0.744 OA
ENDBRANCH  97 100
ENDBRANCH  70  93
ENDBRANCH  44  45
ENDBRANCH  36  39
ENDBRANCH  34  35
ENDBRANCH  33  34
ENDBRANCH   1  33
TORSDOF 20
ENDMDL
MODEL 2
REMARK VINA RESULT:     -12.1      2.489      2.942
REMARK SMILES CC(=O)NS(=O)(=O)c1ccc(-c2ccn(C(F)F)c(=O)c2)cc1C(=O)NCCCCCCNC(=O)c1ccc(-c2c3nc(c(-c4cccc(S(=O)(=O)[O-])c4F)c4ccc([nH]4)c(-c4cccc(S(=O)(=O)[O-])c4F)c4nc(c(-c5cccc(S(=O)(=O)[O-])c5F)c5ccc2[nH]5)C=C4)C=C3)cc1
REMARK SMILES IDX 30 1 29 2 28 3 27 4 26 5 24 6 25 7 23 9 8 10 9 11 10 12
REMARK SMILES IDX 22 13 11 14 5 15 6 16 7 17 4 18 1 19 2 20 3 21 12 23 13 24
REMARK SMILES IDX 21 25 14 26 19 27 15 28 20 29 16 30 17 31 18 32 31 33 32 34
REMARK SMILES IDX 33 35 34 36 35 38 36 39 37 40 98 41 38 42 97 43 39 44 40 45
REMARK SMILES IDX 41 46 91 47 42 48 96 49 90 50 92 51 43 52 95 53 89 54 88 55
REMARK SMILES IDX 44 57 76 58 56 59 75 60 57 61 60 62 74 63 93 64 58 65 59 66
REMARK SMILES IDX 73 68 94 69 61 70 45 71 46 72 54 73 47 74 49 75 55 76 48 77
REMARK SMILES IDX 50 78 51 79 52 80 53 81 77 82 78 83 86 84 79 85 81 86 87 87
REMARK SMILES IDX 80 88 82 89 83 90 84 91 85 92 62 93 63 94 71 95 64 96 66 97
REMARK SMILES IDX 72 98 65 99 67 100 68 101 69 102 70 103
REMARK H PARENT 26 8 4 22 33 37 92 56 60 67
REMARK Flexibility Score: inf
ROOT
ATOM      1  C   UNL A   1      32.126  26.654  26.306  1.00  0.00     0.002 C 
ENDROOT
BRANCH   1   2
ATOM      2  C   UNL A   1      30.617  26.400  26.265  1.00  0.00     0.002 C 
BRANCH   2   3
ATOM      3  C   UNL A   1      30.211  24.929  26.359  1.00  0.00     0.021 C 
BRANCH   3   4
ATOM      4  C   UNL A   1      31.381  23.933  26.368  1.00  0.00     0.116 C 
BRANCH   4   5
ATOM      5  N   UNL A   1      31.266  23.061  25.207  1.00  0.00    -0.352 N 
ATOM      6  C   UNL A   1      31.390  23.255  23.862  1.00  0.00     0.252 C 
ATOM      7  O   UNL A   1      31.109  22.319  23.109  1.00  0.00    -0.269 OA
ATOM      8  H   UNL A   1      31.054  22.129  25.443  1.00  0.00     0.163 HD
BRANCH   6   9
ATOM      9  C   UNL A   1      31.981  24.464  23.239  1.00  0.00     0.060 A 
ATOM     10  C   UNL A   1      33.332  24.780  23.091  1.00  0.00     0.100 A 
ATOM     11  C   UNL A   1      33.711  26.023  22.547  1.00  0.00     0.024 A 
ATOM     12  C   UNL A   1      32.755  27.013  22.302  1.00  0.00     0.010 A 
ATOM     13  C   UNL A   1      31.031  25.473  22.967  1.00  0.00     0.024 A 
ATOM     14  C   UNL A   1      31.408  26.764  22.567  1.00  0.00    -0.017 A 
BRANCH  10  15
ATOM     15  S   UNL A   1      34.608  23.781  23.797  1.00  0.00     0.264 S 
ATOM     16  O   UNL A   1      34.657  24.115  25.202  1.00  0.00    -0.201 OA
ATOM     17  O   UNL A   1      35.773  23.827  22.948  1.00  0.00    -0.201 OA
BRANCH  15  18
ATOM     18  N   UNL A   1      34.015  22.229  23.725  1.00  0.00    -0.249 N 
ATOM     19  C   UNL A   1      35.789  21.013  25.000  1.00  0.00     0.115 C 
ATOM     20  C   UNL A   1      34.358  21.159  24.563  1.00  0.00     0.230 C 
ATOM     21  O   UNL A   1      33.528  20.285  24.773  1.00  0.00    -0.274 OA
ATOM     22  H   UNL A   1      33.355  22.042  23.019  1.00  0.00     0.183 HD
ENDBRANCH  15  18
ENDBRANCH  10  15
BRANCH  14  23
ATOM     23  C   UNL A   1      30.414  27.861  22.624  1.00  0.00    -0.011 A 
ATOM     24  C   UNL A   1      30.763  29.205  22.188  1.00  0.00     0.027 A 
ATOM     25  C   UNL A   1      29.153  27.624  23.026  1.00  0.00     0.080 A 
ATOM     26  C   UNL A   1      29.856  30.187  22.185  1.00  0.00     0.095 A 
ATOM     27  C   UNL A   1      28.129  28.712  23.031  1.00  0.00     0.255 A 
ATOM     28  N   UNL A   1      28.559  29.956  22.597  1.00  0.00    -0.258 N 
ATOM     29  O   UNL A   1      26.991  28.444  23.403  1.00  0.00    -0.269 OA
BRANCH  28  30
ATOM     30  C   UNL A   1      27.591  31.022  22.575  1.00  0.00     0.451 C 
ATOM     31  F   UNL A   1      27.289  31.435  23.830  1.00  0.00    -0.185 F 
ATOM     32  F   UNL A   1      28.052  32.091  21.882  1.00  0.00    -0.185 F 
ENDBRANCH  28  30
ENDBRANCH  14  23
ENDBRANCH   6   9
ENDBRANCH   4   5
ENDBRANCH   3   4
ENDBRANCH   2   3
ENDBRANCH   1   2
BRANCH   1  33
ATOM     33  C   UNL A   1      32.603  28.031  25.818  1.00  0.00     0.021 C 
BRANCH  33  34
ATOM     34  C   UNL A   1      33.900  28.569  26.429  1.00  0.00     0.116 C 
BRANCH  34  35
ATOM     35  N   UNL A   1      33.837  29.989  26.723  1.00  0.00    -0.352 N 
ATOM     36  C   UNL A   1      34.658  30.779  27.486  1.00  0.00     0.251 C 
ATOM     37  H   UNL A   1      33.080  30.463  26.305  1.00  0.00     0.163 HD
ATOM     38  O   UNL A   1      34.331  31.946  27.697  1.00  0.00    -0.269 OA
BRANCH  36  39
ATOM     39  C   UNL A   1      35.914  30.257  28.077  1.00  0.00     0.039 A 
ATOM     40  C   UNL A   1      37.075  30.296  27.294  1.00  0.00     0.014 A 
ATOM     41  C   UNL A   1      35.956  29.667  29.344  1.00  0.00     0.014 A 
ATOM     42  C   UNL A   1      38.277  29.783  27.790  1.00  0.00     0.010 A 
ATOM     43  C   UNL A   1      37.168  29.189  29.856  1.00  0.00     0.010 A 
ATOM     44  C   UNL A   1      38.336  29.235  29.081  1.00  0.00    -0.014 A 
BRANCH  44  45
ATOM     45  C   UNL A   1      39.619  28.709  29.616  1.00  0.00     0.031 A 
ATOM     46  C   UNL A   1      40.242  29.313  30.844  1.00  0.00     0.074 A 
ATOM     47  C   UNL A   1      40.248  27.705  28.974  1.00  0.00     0.049 A 
ATOM     48  N   UNL A   1      41.334  28.956  31.473  1.00  0.00    -0.248 NA
ATOM     49  C   UNL A   1      39.561  30.475  31.437  1.00  0.00     0.031 C 
ATOM     50  C   UNL A   1      39.790  27.081  27.733  1.00  0.00     0.029 A 
ATOM     51  N   UNL A   1      41.413  27.044  29.271  1.00  0.00    -0.354 N 
ATOM     52  C   UNL A   1      41.486  29.860  32.515  1.00  0.00     0.074 A 
ATOM     53  C   UNL A   1      40.384  30.795  32.427  1.00  0.00     0.031 C 
ATOM     54  C   UNL A   1      40.661  26.123  27.376  1.00  0.00     0.029 A 
ATOM     55  C   UNL A   1      41.737  26.064  28.363  1.00  0.00     0.049 A 
ATOM     56  H   UNL A   1      41.965  27.251  30.060  1.00  0.00     0.167 HD
ATOM     57  C   UNL A   1      42.437  29.893  33.478  1.00  0.00     0.034 A 
ATOM     58  C   UNL A   1      42.771  25.199  28.338  1.00  0.00     0.034 A 
ATOM     59  C   UNL A   1      43.500  28.933  33.607  1.00  0.00     0.049 A 
ATOM     60  C   UNL A   1      43.762  25.198  29.470  1.00  0.00     0.074 A 
ATOM     61  C   UNL A   1      44.470  28.850  34.591  1.00  0.00     0.029 A 
ATOM     62  N   UNL A   1      43.726  27.885  32.732  1.00  0.00    -0.354 N 
ATOM     63  N   UNL A   1      43.794  25.960  30.536  1.00  0.00    -0.248 NA
ATOM     64  C   UNL A   1      44.833  24.190  29.419  1.00  0.00     0.031 C 
ATOM     65  C   UNL A   1      45.275  27.736  34.318  1.00  0.00     0.029 A 
ATOM     66  C   UNL A   1      44.813  27.140  33.157  1.00  0.00     0.049 A 
ATOM     67  H   UNL A   1      43.193  27.696  31.925  1.00  0.00     0.167 HD
ATOM     68  C   UNL A   1      44.865  25.506  31.296  1.00  0.00     0.074 A 
ATOM     69  C   UNL A   1      45.448  24.391  30.577  1.00  0.00     0.031 C 
ATOM     70  C   UNL A   1      45.336  25.986  32.472  1.00  0.00     0.034 A 
BRANCH  57  71
ATOM     71  C   UNL A   1      42.318  30.960  34.530  1.00  0.00     0.023 A 
ATOM     72  C   UNL A   1      41.610  30.669  35.712  1.00  0.00     0.012 A 
ATOM     73  C   UNL A   1      42.936  32.215  34.382  1.00  0.00     0.148 A 
ATOM     74  C   UNL A   1      41.504  31.619  36.727  1.00  0.00     0.002 A 
ATOM     75  C   UNL A   1      42.846  33.150  35.409  1.00  0.00     0.091 A 
ATOM     76  F   UNL A   1      43.578  32.489  33.237  1.00  0.00    -0.205 F 
ATOM     77  C   UNL A   1      42.129  32.855  36.581  1.00  0.00     0.022 A 
BRANCH  75  78
ATOM     78  S   UNL A   1      43.673  34.741  35.296  1.00  0.00     0.127 S 
ATOM     79  O   UNL A   1      42.956  35.374  34.192  1.00  0.00    -0.237 OA
ATOM     80  O   UNL A   1      43.414  35.336  36.608  1.00  0.00    -0.237 OA
ATOM     81  O   UNL A   1      45.073  34.419  35.056  1.00  0.00    -0.744 OA
ENDBRANCH  75  78
ENDBRANCH  57  71
BRANCH  58  82
ATOM     82  C   UNL A   1      42.844  24.179  27.257  1.00  0.00     0.023 A 
ATOM     83  C   UNL A   1      43.661  24.429  26.138  1.00  0.00     0.012 A 
ATOM     84  C   UNL A   1      42.167  22.951  27.352  1.00  0.00     0.148 A 
ATOM     85  C   UNL A   1      43.791  23.479  25.125  1.00  0.00     0.002 A 
ATOM     86  C   UNL A   1      42.334  21.989  26.359  1.00  0.00     0.091 A 
ATOM     87  F   UNL A   1      41.376  22.732  28.412  1.00  0.00    -0.205 F 
ATOM     88  C   UNL A   1      43.137  22.253  25.240  1.00  0.00     0.022 A 
BRANCH  86  89
ATOM     89  S   UNL A   1      41.611  20.354  26.535  1.00  0.00     0.127 S 
ATOM     90  O   UNL A   1      40.181  20.644  26.492  1.00  0.00    -0.237 OA
ATOM     91  O   UNL A   1      42.129  19.641  25.366  1.00  0.00    -0.237 OA
ATOM     92  O   UNL A   1      42.137  19.864  27.804  1.00  0.00    -0.744 OA
ENDBRANCH  86  89
ENDBRANCH  58  82
BRANCH  70  93
ATOM     93  C   UNL A   1      46.534  25.307  33.073  1.00  0.00     0.023 A 
ATOM     94  C   UNL A   1      46.339  24.296  34.034  1.00  0.00     0.012 A 
ATOM     95  C   UNL A   1      47.839  25.602  32.636  1.00  0.00     0.148 A 
ATOM     96  C   UNL A   1      47.426  23.600  34.561  1.00  0.00     0.002 A 
ATOM     97  C   UNL A   1      48.917  24.886  33.147  1.00  0.00     0.091 A 
ATOM     98  F   UNL A   1      48.014  26.583  31.738  1.00  0.00    -0.205 F 
ATOM     99  C   UNL A   1      48.713  23.887  34.112  1.00  0.00     0.022 A 
BRANCH  97 100
ATOM    100  S   UNL A   1      50.581  25.186  32.543  1.00  0.00     0.127 S 
ATOM    101  O   UNL A   1      50.485  24.757  31.150  1.00  0.00    -0.237 OA
ATOM    102  O   UNL A   1      50.744  26.631  32.721  1.00  0.00    -0.237 OA
ATOM    103  O   UNL A   1      51.435  24.383  33.409  1.00  0.00    -0.744 OA
ENDBRANCH  97 100
ENDBRANCH  70  93
ENDBRANCH  44  45
ENDBRANCH  36  39
ENDBRANCH  34  35
ENDBRANCH  33  34
ENDBRANCH   1  33
TORSDOF 20
ENDMDL
MODEL 3
REMARK VINA RESULT:     -12.0      5.217     10.392
REMARK SMILES CC(=O)NS(=O)(=O)c1ccc(-c2ccn(C(F)F)c(=O)c2)cc1C(=O)NCCCCCCNC(=O)c1ccc(-c2c3nc(c(-c4cccc(S(=O)(=O)[O-])c4F)c4ccc([nH]4)c(-c4cccc(S(=O)(=O)[O-])c4F)c4nc(c(-c5cccc(S(=O)(=O)[O-])c5F)c5ccc2[nH]5)C=C4)C=C3)cc1
REMARK SMILES IDX 30 1 29 2 28 3 27 4 26 5 24 6 25 7 23 9 8 10 9 11 10 12
REMARK SMILES IDX 22 13 11 14 5 15 6 16 7 17 4 18 1 19 2 20 3 21 12 23 13 24
REMARK SMILES IDX 21 25 14 26 19 27 15 28 20 29 16 30 17 31 18 32 31 33 32 34
REMARK SMILES IDX 33 35 34 36 35 38 36 39 37 40 98 41 38 42 97 43 39 44 40 45
REMARK SMILES IDX 41 46 91 47 42 48 96 49 90 50 92 51 43 52 95 53 89 54 88 55
REMARK SMILES IDX 44 57 76 58 56 59 75 60 57 61 60 62 74 63 93 64 58 65 59 66
REMARK SMILES IDX 73 68 94 69 61 70 45 71 46 72 54 73 47 74 49 75 55 76 48 77
REMARK SMILES IDX 50 78 51 79 52 80 53 81 77 82 78 83 86 84 79 85 81 86 87 87
REMARK SMILES IDX 80 88 82 89 83 90 84 91 85 92 62 93 63 94 71 95 64 96 66 97
REMARK SMILES IDX 72 98 65 99 67 100 68 101 69 102 70 103
REMARK H PARENT 26 8 4 22 33 37 92 56 60 67
REMARK Flexibility Score: inf
ROOT
ATOM      1  C   UNL A   1      35.415  24.122  25.059  1.00  0.00     0.002 C 
ENDROOT
BRANCH   1   2
ATOM      2  C   UNL A   1      34.986  23.888  23.608  1.00  0.00     0.002 C 
BRANCH   2   3
ATOM      3  C   UNL A   1      34.038  24.946  23.042  1.00  0.00     0.021 C 
BRANCH   3   4
ATOM      4  C   UNL A   1      33.144  24.464  21.888  1.00  0.00     0.116 C 
BRANCH   4   5
ATOM      5  N   UNL A   1      31.757  24.778  22.205  1.00  0.00    -0.352 N 
ATOM      6  C   UNL A   1      30.927  24.457  23.240  1.00  0.00     0.252 C 
ATOM      7  O   UNL A   1      29.741  24.786  23.159  1.00  0.00    -0.269 OA
ATOM      8  H   UNL A   1      31.325  25.345  21.526  1.00  0.00     0.163 HD
BRANCH   6   9
ATOM      9  C   UNL A   1      31.376  23.873  24.526  1.00  0.00     0.060 A 
ATOM     10  C   UNL A   1      31.671  24.539  25.716  1.00  0.00     0.100 A 
ATOM     11  C   UNL A   1      32.171  23.823  26.821  1.00  0.00     0.024 A 
ATOM     12  C   UNL A   1      32.530  22.478  26.694  1.00  0.00     0.010 A 
ATOM     13  C   UNL A   1      31.729  22.509  24.426  1.00  0.00     0.024 A 
ATOM     14  C   UNL A   1      32.365  21.824  25.472  1.00  0.00    -0.017 A 
BRANCH  10  15
ATOM     15  S   UNL A   1      31.685  26.304  25.819  1.00  0.00     0.264 S 
ATOM     16  O   UNL A   1      32.929  26.737  25.224  1.00  0.00    -0.201 OA
ATOM     17  O   UNL A   1      31.277  26.707  27.143  1.00  0.00    -0.201 OA
BRANCH  15  18
ATOM     18  N   UNL A   1      30.491  26.796  24.772  1.00  0.00    -0.249 N 
ATOM     19  C   UNL A   1      30.985  29.244  24.649  1.00  0.00     0.115 C 
ATOM     20  C   UNL A   1      30.468  27.980  24.021  1.00  0.00     0.230 C 
ATOM     21  O   UNL A   1      29.874  27.987  22.951  1.00  0.00    -0.274 OA
ATOM     22  H   UNL A   1      29.720  26.193  24.669  1.00  0.00     0.183 HD
ENDBRANCH  15  18
ENDBRANCH  10  15
BRANCH  14  23
ATOM     23  C   UNL A   1      33.008  20.517  25.201  1.00  0.00    -0.011 A 
ATOM     24  C   UNL A   1      32.204  19.331  24.944  1.00  0.00     0.027 A 
ATOM     25  C   UNL A   1      34.346  20.413  25.131  1.00  0.00     0.080 A 
ATOM     26  C   UNL A   1      32.777  18.162  24.645  1.00  0.00     0.095 A 
ATOM     27  C   UNL A   1      35.001  19.112  24.801  1.00  0.00     0.255 A 
ATOM     28  N   UNL A   1      34.150  18.042  24.572  1.00  0.00    -0.258 N 
ATOM     29  O   UNL A   1      36.226  19.069  24.746  1.00  0.00    -0.269 OA
BRANCH  28  30
ATOM     30  C   UNL A   1      34.751  16.777  24.236  1.00  0.00     0.451 C 
ATOM     31  F   UNL A   1      34.719  15.924  25.289  1.00  0.00    -0.185 F 
ATOM     32  F   UNL A   1      34.108  16.187  23.199  1.00  0.00    -0.185 F 
ENDBRANCH  28  30
ENDBRANCH  14  23
ENDBRANCH   6   9
ENDBRANCH   4   5
ENDBRANCH   3   4
ENDBRANCH   2   3
ENDBRANCH   1   2
BRANCH   1  33
ATOM     33  C   UNL A   1      36.294  23.035  25.698  1.00  0.00     0.021 C 
BRANCH  33  34
ATOM     34  C   UNL A   1      37.481  22.533  24.871  1.00  0.00     0.116 C 
BRANCH  34  35
ATOM     35  N   UNL A   1      38.217  21.470  25.532  1.00  0.00    -0.352 N 
ATOM     36  C   UNL A   1      39.311  21.523  26.357  1.00  0.00     0.251 C 
ATOM     37  H   UNL A   1      37.873  20.563  25.361  1.00  0.00     0.163 HD
ATOM     38  O   UNL A   1      39.847  20.470  26.702  1.00  0.00    -0.269 OA
BRANCH  36  39
ATOM     39  C   UNL A   1      39.874  22.813  26.825  1.00  0.00     0.039 A 
ATOM     40  C   UNL A   1      39.501  23.979  26.145  1.00  0.00     0.014 A 
ATOM     41  C   UNL A   1      40.810  22.889  27.861  1.00  0.00     0.014 A 
ATOM     42  C   UNL A   1      40.031  25.216  26.523  1.00  0.00     0.010 A 
ATOM     43  C   UNL A   1      41.311  24.132  28.265  1.00  0.00     0.010 A 
ATOM     44  C   UNL A   1      40.932  25.305  27.594  1.00  0.00    -0.014 A 
BRANCH  44  45
ATOM     45  C   UNL A   1      41.479  26.622  28.009  1.00  0.00     0.031 A 
ATOM     46  C   UNL A   1      42.908  26.987  27.715  1.00  0.00     0.074 A 
ATOM     47  C   UNL A   1      40.697  27.486  28.686  1.00  0.00     0.049 A 
ATOM     48  N   UNL A   1      43.540  28.105  27.967  1.00  0.00    -0.248 NA
ATOM     49  C   UNL A   1      43.740  25.960  27.067  1.00  0.00     0.031 C 
ATOM     50  C   UNL A   1      39.317  27.227  29.099  1.00  0.00     0.029 A 
ATOM     51  N   UNL A   1      40.955  28.749  29.157  1.00  0.00    -0.354 N 
ATOM     52  C   UNL A   1      44.846  27.911  27.535  1.00  0.00     0.074 A 
ATOM     53  C   UNL A   1      44.922  26.560  27.020  1.00  0.00     0.031 C 
ATOM     54  C   UNL A   1      38.848  28.300  29.757  1.00  0.00     0.029 A 
ATOM     55  C   UNL A   1      39.890  29.322  29.811  1.00  0.00     0.049 A 
ATOM     56  H   UNL A   1      41.821  29.203  29.036  1.00  0.00     0.167 HD
ATOM     57  C   UNL A   1      45.879  28.785  27.536  1.00  0.00     0.034 A 
ATOM     58  C   UNL A   1      39.759  30.541  30.370  1.00  0.00     0.034 A 
ATOM     59  C   UNL A   1      45.794  30.147  27.992  1.00  0.00     0.049 A 
ATOM     60  C   UNL A   1      40.893  31.524  30.277  1.00  0.00     0.074 A 
ATOM     61  C   UNL A   1      46.774  31.125  27.969  1.00  0.00     0.029 A 
ATOM     62  N   UNL A   1      44.663  30.726  28.541  1.00  0.00    -0.354 N 
ATOM     63  N   UNL A   1      42.069  31.374  29.716  1.00  0.00    -0.248 NA
ATOM     64  C   UNL A   1      40.668  32.860  30.852  1.00  0.00     0.031 C 
ATOM     65  C   UNL A   1      46.226  32.304  28.491  1.00  0.00     0.029 A 
ATOM     66  C   UNL A   1      44.914  32.052  28.852  1.00  0.00     0.049 A 
ATOM     67  H   UNL A   1      43.807  30.263  28.691  1.00  0.00     0.167 HD
ATOM     68  C   UNL A   1      42.711  32.599  29.843  1.00  0.00     0.074 A 
ATOM     69  C   UNL A   1      41.789  33.489  30.519  1.00  0.00     0.031 C 
ATOM     70  C   UNL A   1      43.962  32.948  29.455  1.00  0.00     0.034 A 
BRANCH  57  71
ATOM     71  C   UNL A   1      47.178  28.319  26.943  1.00  0.00     0.023 A 
ATOM     72  C   UNL A   1      48.270  28.086  27.803  1.00  0.00     0.012 A 
ATOM     73  C   UNL A   1      47.313  28.063  25.567  1.00  0.00     0.148 A 
ATOM     74  C   UNL A   1      49.483  27.621  27.299  1.00  0.00     0.002 A 
ATOM     75  C   UNL A   1      48.520  27.576  25.074  1.00  0.00     0.091 A 
ATOM     76  F   UNL A   1      46.276  28.320  24.756  1.00  0.00    -0.205 F 
ATOM     77  C   UNL A   1      49.607  27.357  25.937  1.00  0.00     0.022 A 
BRANCH  75  78
ATOM     78  S   UNL A   1      48.721  27.171  23.335  1.00  0.00     0.127 S 
ATOM     79  O   UNL A   1      48.131  28.339  22.685  1.00  0.00    -0.237 OA
ATOM     80  O   UNL A   1      50.174  27.064  23.191  1.00  0.00    -0.237 OA
ATOM     81  O   UNL A   1      48.012  25.910  23.159  1.00  0.00    -0.744 OA
ENDBRANCH  75  78
ENDBRANCH  57  71
BRANCH  58  82
ATOM     82  C   UNL A   1      38.451  30.936  30.962  1.00  0.00     0.023 A 
ATOM     83  C   UNL A   1      38.234  30.725  32.337  1.00  0.00     0.012 A 
ATOM     84  C   UNL A   1      37.454  31.565  30.198  1.00  0.00     0.148 A 
ATOM     85  C   UNL A   1      37.040  31.123  32.937  1.00  0.00     0.002 A 
ATOM     86  C   UNL A   1      36.282  31.998  30.811  1.00  0.00     0.091 A 
ATOM     87  F   UNL A   1      37.664  31.742  28.886  1.00  0.00    -0.205 F 
ATOM     88  C   UNL A   1      36.067  31.770  32.178  1.00  0.00     0.022 A 
BRANCH  86  89
ATOM     89  S   UNL A   1      35.063  32.947  29.894  1.00  0.00     0.127 S 
ATOM     90  O   UNL A   1      34.116  33.323  30.938  1.00  0.00    -0.237 OA
ATOM     91  O   UNL A   1      35.853  34.056  29.354  1.00  0.00    -0.237 OA
ATOM     92  O   UNL A   1      34.578  32.021  28.878  1.00  0.00    -0.744 OA
ENDBRANCH  86  89
ENDBRANCH  58  82
BRANCH  70  93
ATOM     93  C   UNL A   1      44.412  34.354  29.735  1.00  0.00     0.023 A 
ATOM     94  C   UNL A   1      45.021  34.645  30.970  1.00  0.00     0.012 A 
ATOM     95  C   UNL A   1      44.312  35.362  28.758  1.00  0.00     0.148 A 
ATOM     96  C   UNL A   1      45.511  35.924  31.235  1.00  0.00     0.002 A 
ATOM     97  C   UNL A   1      44.826  36.629  29.019  1.00  0.00     0.091 A 
ATOM     98  F   UNL A   1      43.709  35.078  27.594  1.00  0.00    -0.205 F 
ATOM     99  C   UNL A   1      45.422  36.913  30.257  1.00  0.00     0.022 A 
BRANCH  97 100
ATOM    100  S   UNL A   1      44.787  37.907  27.758  1.00  0.00     0.127 S 
ATOM    101  O   UNL A   1      45.411  39.036  28.444  1.00  0.00    -0.237 OA
ATOM    102  O   UNL A   1      45.594  37.333  26.679  1.00  0.00    -0.237 OA
ATOM    103  O   UNL A   1      43.374  38.052  27.428  1.00  0.00    -0.744 OA
ENDBRANCH  97 100
ENDBRANCH  70  93
ENDBRANCH  44  45
ENDBRANCH  36  39
ENDBRANCH  34  35
ENDBRANCH  33  34
ENDBRANCH   1  33
TORSDOF 20
ENDMDL
