MODEL 1
REMARK VINA RESULT:     -13.0      0.000      0.000
REMARK SMILES Cc1ccccc1NC(=O)CSc1nc(C(=O)NCCCCCCNC(=O)c2ccc(-c3c4nc(c(-c5cccc(S(=O)(=O)[O-])c5F)c5ccc([nH]5)c(-c5cccc(S(=O)(=O)[O-])c5F)c5nc(c(-c6cccc(S(=O)(=O)[O-])c6F)c6ccc3[nH]6)C=C5)C=C4)cc2)c2ccccc2n1
REMARK SMILES IDX 21 1 20 2 19 3 18 4 16 5 17 6 15 8 13 9 14 10 97 11 96 12
REMARK SMILES IDX 91 13 95 14 92 15 94 16 93 17 12 18 11 19 9 20 8 21 10 23
REMARK SMILES IDX 7 24 1 25 2 26 3 27 4 28 6 29 5 30 22 31 23 32 24 33 25 34
REMARK SMILES IDX 26 35 27 37 28 38 29 39 90 40 30 41 89 42 31 43 32 44 33 45
REMARK SMILES IDX 83 46 34 47 88 48 82 49 84 50 35 51 87 52 81 53 80 54 36 56
REMARK SMILES IDX 68 57 48 58 67 59 49 60 52 61 66 62 85 63 50 64 51 65 65 67
REMARK SMILES IDX 86 68 53 69 37 70 38 71 46 72 39 73 41 74 47 75 40 76 42 77
REMARK SMILES IDX 43 78 44 79 45 80 69 81 70 82 78 83 71 84 73 85 79 86 72 87
REMARK SMILES IDX 74 88 75 89 76 90 77 91 54 92 55 93 63 94 56 95 58 96 64 97
REMARK SMILES IDX 57 98 59 99 60 100 61 101 62 102
REMARK H PARENT 18 7 8 22 25 36 84 55 52 66
REMARK Flexibility Score: inf
ROOT
ATOM      1  C   UNL A   1      32.630  28.612  27.494  1.00  0.00     0.002 C 
ENDROOT
BRANCH   1   2
ATOM      2  C   UNL A   1      31.656  29.027  26.383  1.00  0.00     0.021 C 
BRANCH   2   3
ATOM      3  C   UNL A   1      32.061  30.112  25.392  1.00  0.00     0.116 C 
BRANCH   3   4
ATOM      4  N   UNL A   1      32.859  29.703  24.255  1.00  0.00    -0.351 N 
ATOM      5  C   UNL A   1      32.515  28.900  23.178  1.00  0.00     0.270 C 
ATOM      6  O   UNL A   1      33.332  28.784  22.262  1.00  0.00    -0.267 OA
ATOM      7  H   UNL A   1      33.782  30.045  24.245  1.00  0.00     0.163 HD
BRANCH   5   8
ATOM      8  C   UNL A   1      31.244  28.090  23.142  1.00  0.00     0.140 A 
ATOM      9  C   UNL A   1      30.377  26.036  23.610  1.00  0.00     0.189 A 
ATOM     10  N   UNL A   1      31.460  26.791  23.464  1.00  0.00    -0.217 NA
ATOM     11  N   UNL A   1      29.118  26.483  23.563  1.00  0.00    -0.222 NA
ATOM     12  C   UNL A   1      28.925  27.758  23.222  1.00  0.00     0.076 A 
ATOM     13  C   UNL A   1      29.971  28.620  22.887  1.00  0.00     0.032 A 
ATOM     14  C   UNL A   1      27.624  28.247  23.216  1.00  0.00     0.029 A 
ATOM     15  C   UNL A   1      29.656  29.896  22.352  1.00  0.00     0.013 A 
ATOM     16  C   UNL A   1      27.331  29.557  22.830  1.00  0.00     0.002 A 
ATOM     17  C   UNL A   1      28.348  30.374  22.361  1.00  0.00     0.001 A 
BRANCH   9  18
ATOM     18  S   UNL A   1      30.592  24.333  24.020  1.00  0.00    -0.076 SA
BRANCH  18  19
ATOM     19  C   UNL A   1      31.116  24.483  25.752  1.00  0.00     0.178 C 
BRANCH  19  20
ATOM     20  C   UNL A   1      30.701  23.329  26.639  1.00  0.00     0.234 C 
ATOM     21  N   UNL A   1      31.291  22.102  26.677  1.00  0.00    -0.325 N 
ATOM     22  H   UNL A   1      30.825  21.488  27.289  1.00  0.00     0.169 HD
ATOM     23  O   UNL A   1      29.711  23.460  27.376  1.00  0.00    -0.274 OA
BRANCH  21  24
ATOM     24  C   UNL A   1      32.402  21.492  26.063  1.00  0.00     0.044 A 
ATOM     25  C   UNL A   1      33.985  22.440  27.893  1.00  0.00     0.046 C 
ATOM     26  C   UNL A   1      33.693  21.714  26.603  1.00  0.00    -0.027 A 
ATOM     27  C   UNL A   1      34.827  21.255  25.898  1.00  0.00     0.005 A 
ATOM     28  C   UNL A   1      34.699  20.545  24.711  1.00  0.00     0.000 A 
ATOM     29  C   UNL A   1      32.300  20.691  24.922  1.00  0.00     0.026 A 
ATOM     30  C   UNL A   1      33.433  20.240  24.239  1.00  0.00     0.002 A 
ENDBRANCH  21  24
ENDBRANCH  19  20
ENDBRANCH  18  19
ENDBRANCH   9  18
ENDBRANCH   5   8
ENDBRANCH   3   4
ENDBRANCH   2   3
ENDBRANCH   1   2
BRANCH   1  31
ATOM     31  C   UNL A   1      34.143  28.552  27.238  1.00  0.00     0.002 C 
BRANCH  31  32
ATOM     32  C   UNL A   1      34.936  29.850  27.115  1.00  0.00     0.021 C 
BRANCH  32  33
ATOM     33  C   UNL A   1      34.605  30.945  28.119  1.00  0.00     0.116 C 
BRANCH  33  34
ATOM     34  N   UNL A   1      35.648  31.959  28.240  1.00  0.00    -0.352 N 
ATOM     35  C   UNL A   1      36.995  31.799  28.512  1.00  0.00     0.251 C 
ATOM     36  H   UNL A   1      35.350  32.888  28.108  1.00  0.00     0.163 HD
ATOM     37  O   UNL A   1      37.703  32.791  28.681  1.00  0.00    -0.269 OA
BRANCH  35  38
ATOM     38  C   UNL A   1      37.581  30.441  28.473  1.00  0.00     0.039 A 
ATOM     39  C   UNL A   1      37.530  29.672  29.642  1.00  0.00     0.014 A 
ATOM     40  C   UNL A   1      38.388  30.053  27.408  1.00  0.00     0.014 A 
ATOM     41  C   UNL A   1      38.492  28.691  29.857  1.00  0.00     0.010 A 
ATOM     42  C   UNL A   1      39.394  29.142  27.647  1.00  0.00     0.010 A 
ATOM     43  C   UNL A   1      39.492  28.533  28.903  1.00  0.00    -0.014 A 
BRANCH  43  44
ATOM     44  C   UNL A   1      40.735  27.819  29.128  1.00  0.00     0.031 A 
ATOM     45  C   UNL A   1      40.802  26.365  28.940  1.00  0.00     0.074 A 
ATOM     46  C   UNL A   1      41.862  28.544  29.306  1.00  0.00     0.049 A 
ATOM     47  N   UNL A   1      41.830  25.655  29.247  1.00  0.00    -0.248 NA
ATOM     48  C   UNL A   1      39.681  25.585  28.436  1.00  0.00     0.031 C 
ATOM     49  C   UNL A   1      43.242  28.116  29.116  1.00  0.00     0.029 A 
ATOM     50  N   UNL A   1      41.977  29.785  29.940  1.00  0.00    -0.354 N 
ATOM     51  C   UNL A   1      41.645  24.414  28.685  1.00  0.00     0.074 A 
ATOM     52  C   UNL A   1      40.245  24.376  28.345  1.00  0.00     0.031 C 
ATOM     53  C   UNL A   1      44.040  28.901  29.856  1.00  0.00     0.029 A 
ATOM     54  C   UNL A   1      43.172  29.718  30.684  1.00  0.00     0.049 A 
ATOM     55  H   UNL A   1      41.353  30.545  29.881  1.00  0.00     0.167 HD
ATOM     56  C   UNL A   1      42.749  23.655  28.437  1.00  0.00     0.034 A 
ATOM     57  C   UNL A   1      43.202  29.777  32.050  1.00  0.00     0.034 A 
ATOM     58  C   UNL A   1      43.925  24.200  29.147  1.00  0.00     0.049 A 
ATOM     59  C   UNL A   1      43.826  28.543  32.698  1.00  0.00     0.074 A 
ATOM     60  C   UNL A   1      45.081  24.870  28.778  1.00  0.00     0.029 A 
ATOM     61  N   UNL A   1      43.863  24.295  30.531  1.00  0.00    -0.354 N 
ATOM     62  N   UNL A   1      44.372  27.546  32.055  1.00  0.00    -0.248 NA
ATOM     63  C   UNL A   1      43.781  28.302  34.140  1.00  0.00     0.031 C 
ATOM     64  C   UNL A   1      45.683  25.408  29.961  1.00  0.00     0.029 A 
ATOM     65  C   UNL A   1      44.916  25.033  31.048  1.00  0.00     0.049 A 
ATOM     66  H   UNL A   1      43.156  23.886  31.079  1.00  0.00     0.167 HD
ATOM     67  C   UNL A   1      44.586  26.496  32.917  1.00  0.00     0.074 A 
ATOM     68  C   UNL A   1      44.231  27.039  34.220  1.00  0.00     0.031 C 
ATOM     69  C   UNL A   1      44.956  25.242  32.494  1.00  0.00     0.034 A 
BRANCH  56  70
ATOM     70  C   UNL A   1      42.845  22.534  27.406  1.00  0.00     0.023 A 
ATOM     71  C   UNL A   1      42.036  21.395  27.616  1.00  0.00     0.012 A 
ATOM     72  C   UNL A   1      43.740  22.449  26.309  1.00  0.00     0.148 A 
ATOM     73  C   UNL A   1      42.138  20.237  26.831  1.00  0.00     0.002 A 
ATOM     74  C   UNL A   1      43.830  21.305  25.510  1.00  0.00     0.091 A 
ATOM     75  F   UNL A   1      44.559  23.456  26.025  1.00  0.00    -0.205 F 
ATOM     76  C   UNL A   1      43.039  20.189  25.778  1.00  0.00     0.022 A 
BRANCH  74  77
ATOM     77  S   UNL A   1      44.985  21.177  24.127  1.00  0.00     0.127 S 
ATOM     78  O   UNL A   1      46.279  21.308  24.799  1.00  0.00    -0.237 OA
ATOM     79  O   UNL A   1      44.702  19.841  23.606  1.00  0.00    -0.237 OA
ATOM     80  O   UNL A   1      44.665  22.267  23.213  1.00  0.00    -0.744 OA
ENDBRANCH  74  77
ENDBRANCH  56  70
BRANCH  57  81
ATOM     81  C   UNL A   1      42.080  30.589  32.620  1.00  0.00     0.023 A 
ATOM     82  C   UNL A   1      42.040  31.962  32.270  1.00  0.00     0.012 A 
ATOM     83  C   UNL A   1      40.909  29.988  33.113  1.00  0.00     0.148 A 
ATOM     84  C   UNL A   1      40.835  32.665  32.254  1.00  0.00     0.002 A 
ATOM     85  C   UNL A   1      39.714  30.706  33.119  1.00  0.00     0.091 A 
ATOM     86  F   UNL A   1      40.949  28.705  33.491  1.00  0.00    -0.205 F 
ATOM     87  C   UNL A   1      39.664  32.025  32.644  1.00  0.00     0.022 A 
BRANCH  85  88
ATOM     88  S   UNL A   1      38.172  29.926  33.617  1.00  0.00     0.127 S 
ATOM     89  O   UNL A   1      38.242  30.047  35.070  1.00  0.00    -0.237 OA
ATOM     90  O   UNL A   1      37.166  30.770  32.976  1.00  0.00    -0.237 OA
ATOM     91  O   UNL A   1      38.251  28.578  33.072  1.00  0.00    -0.744 OA
ENDBRANCH  85  88
ENDBRANCH  57  81
BRANCH  69  92
ATOM     92  C   UNL A   1      45.274  24.061  33.413  1.00  0.00     0.023 A 
ATOM     93  C   UNL A   1      44.280  23.158  33.836  1.00  0.00     0.012 A 
ATOM     94  C   UNL A   1      46.570  23.857  33.967  1.00  0.00     0.148 A 
ATOM     95  C   UNL A   1      44.573  22.036  34.624  1.00  0.00     0.002 A 
ATOM     96  C   UNL A   1      46.860  22.753  34.767  1.00  0.00     0.091 A 
ATOM     97  F   UNL A   1      47.532  24.764  33.773  1.00  0.00    -0.205 F 
ATOM     98  C   UNL A   1      45.869  21.820  35.070  1.00  0.00     0.022 A 
BRANCH  96  99
ATOM     99  S   UNL A   1      48.493  22.474  35.469  1.00  0.00     0.127 S 
ATOM    100  O   UNL A   1      48.281  21.240  36.224  1.00  0.00    -0.237 OA
ATOM    101  O   UNL A   1      49.317  22.322  34.270  1.00  0.00    -0.237 OA
ATOM    102  O   UNL A   1      48.799  23.651  36.269  1.00  0.00    -0.744 OA
ENDBRANCH  96  99
ENDBRANCH  69  92
ENDBRANCH  43  44
ENDBRANCH  35  38
ENDBRANCH  33  34
ENDBRANCH  32  33
ENDBRANCH  31  32
ENDBRANCH   1  31
TORSDOF 20
ENDMDL
MODEL 2
REMARK VINA RESULT:     -12.7      4.297      9.810
REMARK SMILES Cc1ccccc1NC(=O)CSc1nc(C(=O)NCCCCCCNC(=O)c2ccc(-c3c4nc(c(-c5cccc(S(=O)(=O)[O-])c5F)c5ccc([nH]5)c(-c5cccc(S(=O)(=O)[O-])c5F)c5nc(c(-c6cccc(S(=O)(=O)[O-])c6F)c6ccc3[nH]6)C=C5)C=C4)cc2)c2ccccc2n1
REMARK SMILES IDX 21 1 20 2 19 3 18 4 16 5 17 6 15 8 13 9 14 10 97 11 96 12
REMARK SMILES IDX 91 13 95 14 92 15 94 16 93 17 12 18 11 19 9 20 8 21 10 23
REMARK SMILES IDX 7 24 1 25 2 26 3 27 4 28 6 29 5 30 22 31 23 32 24 33 25 34
REMARK SMILES IDX 26 35 27 37 28 38 29 39 90 40 30 41 89 42 31 43 32 44 33 45
REMARK SMILES IDX 83 46 34 47 88 48 82 49 84 50 35 51 87 52 81 53 80 54 36 56
REMARK SMILES IDX 68 57 48 58 67 59 49 60 52 61 66 62 85 63 50 64 51 65 65 67
REMARK SMILES IDX 86 68 53 69 37 70 38 71 46 72 39 73 41 74 47 75 40 76 42 77
REMARK SMILES IDX 43 78 44 79 45 80 69 81 70 82 78 83 71 84 73 85 79 86 72 87
REMARK SMILES IDX 74 88 75 89 76 90 77 91 54 92 55 93 63 94 56 95 58 96 64 97
REMARK SMILES IDX 57 98 59 99 60 100 61 101 62 102
REMARK H PARENT 18 7 8 22 25 36 84 55 52 66
REMARK Flexibility Score: inf
ROOT
ATOM      1  C   UNL A   1      36.350  20.507  25.113  1.00  0.00     0.002 C 
ENDROOT
BRANCH   1   2
ATOM      2  C   UNL A   1      35.095  19.703  24.745  1.00  0.00     0.021 C 
BRANCH   2   3
ATOM      3  C   UNL A   1      33.724  20.361  24.838  1.00  0.00     0.116 C 
BRANCH   3   4
ATOM      4  N   UNL A   1      32.827  20.179  23.715  1.00  0.00    -0.351 N 
ATOM      5  C   UNL A   1      32.141  21.126  22.971  1.00  0.00     0.270 C 
ATOM      6  O   UNL A   1      31.522  20.740  21.977  1.00  0.00    -0.267 OA
ATOM      7  H   UNL A   1      32.684  19.245  23.440  1.00  0.00     0.163 HD
BRANCH   5   8
ATOM      8  C   UNL A   1      32.038  22.571  23.390  1.00  0.00     0.140 A 
ATOM      9  C   UNL A   1      32.331  24.708  22.658  1.00  0.00     0.189 A 
ATOM     10  N   UNL A   1      32.522  23.411  22.443  1.00  0.00    -0.217 NA
ATOM     11  N   UNL A   1      31.621  25.222  23.667  1.00  0.00    -0.222 NA
ATOM     12  C   UNL A   1      31.172  24.382  24.601  1.00  0.00     0.076 A 
ATOM     13  C   UNL A   1      31.439  23.012  24.580  1.00  0.00     0.032 A 
ATOM     14  C   UNL A   1      30.393  24.898  25.629  1.00  0.00     0.029 A 
ATOM     15  C   UNL A   1      31.088  22.232  25.712  1.00  0.00     0.013 A 
ATOM     16  C   UNL A   1      29.920  24.095  26.670  1.00  0.00     0.002 A 
ATOM     17  C   UNL A   1      30.300  22.763  26.730  1.00  0.00     0.001 A 
BRANCH   9  18
ATOM     18  S   UNL A   1      32.947  25.854  21.465  1.00  0.00    -0.076 SA
BRANCH  18  19
ATOM     19  C   UNL A   1      32.574  27.420  22.302  1.00  0.00     0.178 C 
BRANCH  19  20
ATOM     20  C   UNL A   1      33.791  28.216  22.723  1.00  0.00     0.234 C 
ATOM     21  N   UNL A   1      33.989  28.779  23.947  1.00  0.00    -0.325 N 
ATOM     22  H   UNL A   1      34.826  29.295  23.984  1.00  0.00     0.169 HD
ATOM     23  O   UNL A   1      34.688  28.433  21.892  1.00  0.00    -0.274 OA
BRANCH  21  24
ATOM     24  C   UNL A   1      33.297  28.808  25.174  1.00  0.00     0.044 A 
ATOM     25  C   UNL A   1      34.039  26.373  25.694  1.00  0.00     0.046 C 
ATOM     26  C   UNL A   1      33.263  27.637  25.969  1.00  0.00    -0.027 A 
ATOM     27  C   UNL A   1      32.432  27.599  27.110  1.00  0.00     0.005 A 
ATOM     28  C   UNL A   1      31.685  28.706  27.496  1.00  0.00     0.000 A 
ATOM     29  C   UNL A   1      32.616  29.936  25.640  1.00  0.00     0.026 A 
ATOM     30  C   UNL A   1      31.801  29.883  26.775  1.00  0.00     0.002 A 
ENDBRANCH  21  24
ENDBRANCH  19  20
ENDBRANCH  18  19
ENDBRANCH   9  18
ENDBRANCH   5   8
ENDBRANCH   3   4
ENDBRANCH   2   3
ENDBRANCH   1   2
BRANCH   1  31
ATOM     31  C   UNL A   1      36.770  21.736  24.295  1.00  0.00     0.002 C 
BRANCH  31  32
ATOM     32  C   UNL A   1      37.781  22.718  24.879  1.00  0.00     0.021 C 
BRANCH  32  33
ATOM     33  C   UNL A   1      38.305  22.402  26.273  1.00  0.00     0.116 C 
BRANCH  33  34
ATOM     34  N   UNL A   1      39.762  22.391  26.360  1.00  0.00    -0.352 N 
ATOM     35  C   UNL A   1      40.636  23.453  26.513  1.00  0.00     0.251 C 
ATOM     36  H   UNL A   1      40.181  21.503  26.300  1.00  0.00     0.163 HD
ATOM     37  O   UNL A   1      41.849  23.255  26.458  1.00  0.00    -0.269 OA
BRANCH  35  38
ATOM     38  C   UNL A   1      40.095  24.785  26.865  1.00  0.00     0.039 A 
ATOM     39  C   UNL A   1      40.645  25.903  26.227  1.00  0.00     0.014 A 
ATOM     40  C   UNL A   1      39.274  24.940  27.977  1.00  0.00     0.014 A 
ATOM     41  C   UNL A   1      40.612  27.139  26.866  1.00  0.00     0.010 A 
ATOM     42  C   UNL A   1      39.308  26.139  28.654  1.00  0.00     0.010 A 
ATOM     43  C   UNL A   1      40.052  27.205  28.137  1.00  0.00    -0.014 A 
BRANCH  43  44
ATOM     44  C   UNL A   1      40.244  28.307  29.062  1.00  0.00     0.031 A 
ATOM     45  C   UNL A   1      39.416  29.515  28.961  1.00  0.00     0.074 A 
ATOM     46  C   UNL A   1      41.047  28.108  30.131  1.00  0.00     0.049 A 
ATOM     47  N   UNL A   1      39.619  30.576  29.660  1.00  0.00    -0.248 NA
ATOM     48  C   UNL A   1      38.316  29.638  28.015  1.00  0.00     0.031 C 
ATOM     49  C   UNL A   1      41.065  28.846  31.387  1.00  0.00     0.029 A 
ATOM     50  N   UNL A   1      42.197  27.315  30.188  1.00  0.00    -0.354 N 
ATOM     51  C   UNL A   1      38.511  31.375  29.510  1.00  0.00     0.074 A 
ATOM     52  C   UNL A   1      37.823  30.829  28.367  1.00  0.00     0.031 C 
ATOM     53  C   UNL A   1      42.275  28.706  31.949  1.00  0.00     0.029 A 
ATOM     54  C   UNL A   1      43.117  28.041  30.971  1.00  0.00     0.049 A 
ATOM     55  H   UNL A   1      42.337  26.435  29.768  1.00  0.00     0.167 HD
ATOM     56  C   UNL A   1      38.247  32.289  30.486  1.00  0.00     0.034 A 
ATOM     57  C   UNL A   1      44.295  28.526  30.476  1.00  0.00     0.034 A 
ATOM     58  C   UNL A   1      39.423  32.466  31.364  1.00  0.00     0.049 A 
ATOM     59  C   UNL A   1      44.425  30.043  30.589  1.00  0.00     0.074 A 
ATOM     60  C   UNL A   1      39.750  32.114  32.664  1.00  0.00     0.029 A 
ATOM     61  N   UNL A   1      40.609  32.898  30.784  1.00  0.00    -0.354 N 
ATOM     62  N   UNL A   1      43.565  30.833  31.175  1.00  0.00    -0.248 NA
ATOM     63  C   UNL A   1      45.504  30.794  29.949  1.00  0.00     0.031 C 
ATOM     64  C   UNL A   1      41.160  32.296  32.835  1.00  0.00     0.029 A 
ATOM     65  C   UNL A   1      41.681  32.794  31.656  1.00  0.00     0.049 A 
ATOM     66  H   UNL A   1      40.679  33.237  29.863  1.00  0.00     0.167 HD
ATOM     67  C   UNL A   1      43.847  32.143  30.864  1.00  0.00     0.074 A 
ATOM     68  C   UNL A   1      45.096  32.062  30.122  1.00  0.00     0.031 C 
ATOM     69  C   UNL A   1      43.000  33.183  31.162  1.00  0.00     0.034 A 
BRANCH  56  70
ATOM     70  C   UNL A   1      36.880  32.893  30.794  1.00  0.00     0.023 A 
ATOM     71  C   UNL A   1      36.367  32.695  32.095  1.00  0.00     0.012 A 
ATOM     72  C   UNL A   1      36.004  33.543  29.888  1.00  0.00     0.148 A 
ATOM     73  C   UNL A   1      35.065  33.066  32.461  1.00  0.00     0.002 A 
ATOM     74  C   UNL A   1      34.712  33.934  30.254  1.00  0.00     0.091 A 
ATOM     75  F   UNL A   1      36.375  33.769  28.632  1.00  0.00    -0.205 F 
ATOM     76  C   UNL A   1      34.233  33.683  31.539  1.00  0.00     0.022 A 
BRANCH  74  77
ATOM     77  S   UNL A   1      33.579  34.738  29.100  1.00  0.00     0.127 S 
ATOM     78  O   UNL A   1      32.480  35.136  29.981  1.00  0.00    -0.237 OA
ATOM     79  O   UNL A   1      34.384  35.847  28.592  1.00  0.00    -0.237 OA
ATOM     80  O   UNL A   1      33.221  33.738  28.100  1.00  0.00    -0.744 OA
ENDBRANCH  74  77
ENDBRANCH  56  70
BRANCH  57  81
ATOM     81  C   UNL A   1      44.848  27.684  29.367  1.00  0.00     0.023 A 
ATOM     82  C   UNL A   1      45.280  26.378  29.709  1.00  0.00     0.012 A 
ATOM     83  C   UNL A   1      44.581  27.972  28.017  1.00  0.00     0.148 A 
ATOM     84  C   UNL A   1      45.284  25.352  28.762  1.00  0.00     0.002 A 
ATOM     85  C   UNL A   1      44.613  26.946  27.073  1.00  0.00     0.091 A 
ATOM     86  F   UNL A   1      44.219  29.215  27.679  1.00  0.00    -0.205 F 
ATOM     87  C   UNL A   1      44.915  25.629  27.451  1.00  0.00     0.022 A 
BRANCH  85  88
ATOM     88  S   UNL A   1      44.147  27.252  25.363  1.00  0.00     0.127 S 
ATOM     89  O   UNL A   1      45.401  27.750  24.806  1.00  0.00    -0.237 OA
ATOM     90  O   UNL A   1      43.749  25.924  24.899  1.00  0.00    -0.237 OA
ATOM     91  O   UNL A   1      43.050  28.205  25.448  1.00  0.00    -0.744 OA
ENDBRANCH  85  88
ENDBRANCH  57  81
BRANCH  69  92
ATOM     92  C   UNL A   1      43.297  34.662  30.902  1.00  0.00     0.023 A 
ATOM     93  C   UNL A   1      43.400  35.182  29.598  1.00  0.00     0.012 A 
ATOM     94  C   UNL A   1      43.576  35.578  31.956  1.00  0.00     0.148 A 
ATOM     95  C   UNL A   1      43.606  36.546  29.350  1.00  0.00     0.002 A 
ATOM     96  C   UNL A   1      43.801  36.931  31.711  1.00  0.00     0.091 A 
ATOM     97  F   UNL A   1      43.684  35.139  33.214  1.00  0.00    -0.205 F 
ATOM     98  C   UNL A   1      43.783  37.426  30.408  1.00  0.00     0.022 A 
BRANCH  96  99
ATOM     99  S   UNL A   1      44.147  38.105  33.031  1.00  0.00     0.127 S 
ATOM    100  O   UNL A   1      44.407  39.328  32.274  1.00  0.00    -0.237 OA
ATOM    101  O   UNL A   1      42.887  38.104  33.775  1.00  0.00    -0.237 OA
ATOM    102  O   UNL A   1      45.284  37.569  33.764  1.00  0.00    -0.744 OA
ENDBRANCH  96  99
ENDBRANCH  69  92
ENDBRANCH  43  44
ENDBRANCH  35  38
ENDBRANCH  33  34
ENDBRANCH  32  33
ENDBRANCH  31  32
ENDBRANCH   1  31
TORSDOF 20
ENDMDL
MODEL 3
REMARK VINA RESULT:     -12.6      2.931      4.119
REMARK SMILES Cc1ccccc1NC(=O)CSc1nc(C(=O)NCCCCCCNC(=O)c2ccc(-c3c4nc(c(-c5cccc(S(=O)(=O)[O-])c5F)c5ccc([nH]5)c(-c5cccc(S(=O)(=O)[O-])c5F)c5nc(c(-c6cccc(S(=O)(=O)[O-])c6F)c6ccc3[nH]6)C=C5)C=C4)cc2)c2ccccc2n1
REMARK SMILES IDX 21 1 20 2 19 3 18 4 16 5 17 6 15 8 13 9 14 10 97 11 96 12
REMARK SMILES IDX 91 13 95 14 92 15 94 16 93 17 12 18 11 19 9 20 8 21 10 23
REMARK SMILES IDX 7 24 1 25 2 26 3 27 4 28 6 29 5 30 22 31 23 32 24 33 25 34
REMARK SMILES IDX 26 35 27 37 28 38 29 39 90 40 30 41 89 42 31 43 32 44 33 45
REMARK SMILES IDX 83 46 34 47 88 48 82 49 84 50 35 51 87 52 81 53 80 54 36 56
REMARK SMILES IDX 68 57 48 58 67 59 49 60 52 61 66 62 85 63 50 64 51 65 65 67
REMARK SMILES IDX 86 68 53 69 37 70 38 71 46 72 39 73 41 74 47 75 40 76 42 77
REMARK SMILES IDX 43 78 44 79 45 80 69 81 70 82 78 83 71 84 73 85 79 86 72 87
REMARK SMILES IDX 74 88 75 89 76 90 77 91 54 92 55 93 63 94 56 95 58 96 64 97
REMARK SMILES IDX 57 98 59 99 60 100 61 101 62 102
REMARK H PARENT 18 7 8 22 25 36 84 55 52 66
REMARK Flexibility Score: inf
ROOT
ATOM      1  C   UNL A   1      34.235  28.876  27.447  1.00  0.00     0.002 C 
ENDROOT
BRANCH   1   2
ATOM      2  C   UNL A   1      33.564  28.392  26.154  1.00  0.00     0.021 C 
BRANCH   2   3
ATOM      3  C   UNL A   1      33.430  29.345  24.973  1.00  0.00     0.116 C 
BRANCH   3   4
ATOM      4  N   UNL A   1      33.970  28.903  23.703  1.00  0.00    -0.351 N 
ATOM      5  C   UNL A   1      33.352  28.208  22.675  1.00  0.00     0.270 C 
ATOM      6  O   UNL A   1      33.985  28.042  21.630  1.00  0.00    -0.267 OA
ATOM      7  H   UNL A   1      34.916  29.129  23.548  1.00  0.00     0.163 HD
BRANCH   5   8
ATOM      8  C   UNL A   1      31.997  27.564  22.828  1.00  0.00     0.140 A 
ATOM      9  C   UNL A   1      30.947  25.678  23.553  1.00  0.00     0.189 A 
ATOM     10  N   UNL A   1      32.091  26.276  23.242  1.00  0.00    -0.217 NA
ATOM     11  N   UNL A   1      29.751  26.275  23.584  1.00  0.00    -0.222 NA
ATOM     12  C   UNL A   1      29.676  27.534  23.153  1.00  0.00     0.076 A 
ATOM     13  C   UNL A   1      30.777  28.230  22.647  1.00  0.00     0.032 A 
ATOM     14  C   UNL A   1      28.449  28.183  23.225  1.00  0.00     0.029 A 
ATOM     15  C   UNL A   1      30.562  29.492  22.034  1.00  0.00     0.013 A 
ATOM     16  C   UNL A   1      28.273  29.486  22.754  1.00  0.00     0.002 A 
ATOM     17  C   UNL A   1      29.327  30.130  22.123  1.00  0.00     0.001 A 
BRANCH   9  18
ATOM     18  S   UNL A   1      31.001  23.997  24.089  1.00  0.00    -0.076 SA
BRANCH  18  19
ATOM     19  C   UNL A   1      32.743  23.873  24.584  1.00  0.00     0.178 C 
BRANCH  19  20
ATOM     20  C   UNL A   1      32.962  23.425  26.013  1.00  0.00     0.234 C 
ATOM     21  N   UNL A   1      34.101  22.860  26.503  1.00  0.00    -0.325 N 
ATOM     22  H   UNL A   1      34.004  22.598  27.447  1.00  0.00     0.169 HD
ATOM     23  O   UNL A   1      32.031  23.522  26.827  1.00  0.00    -0.274 OA
BRANCH  21  24
ATOM     24  C   UNL A   1      35.381  22.557  26.000  1.00  0.00     0.044 A 
ATOM     25  C   UNL A   1      34.517  20.298  25.051  1.00  0.00     0.046 C 
ATOM     26  C   UNL A   1      35.593  21.305  25.372  1.00  0.00    -0.027 A 
ATOM     27  C   UNL A   1      36.905  20.920  25.022  1.00  0.00     0.005 A 
ATOM     28  C   UNL A   1      37.987  21.766  25.235  1.00  0.00     0.000 A 
ATOM     29  C   UNL A   1      36.470  23.426  26.110  1.00  0.00     0.026 A 
ATOM     30  C   UNL A   1      37.763  23.031  25.753  1.00  0.00     0.002 A 
ENDBRANCH  21  24
ENDBRANCH  19  20
ENDBRANCH  18  19
ENDBRANCH   9  18
ENDBRANCH   5   8
ENDBRANCH   3   4
ENDBRANCH   2   3
ENDBRANCH   1   2
BRANCH   1  31
ATOM     31  C   UNL A   1      35.497  29.749  27.404  1.00  0.00     0.002 C 
BRANCH  31  32
ATOM     32  C   UNL A   1      35.396  31.233  27.745  1.00  0.00     0.021 C 
BRANCH  32  33
ATOM     33  C   UNL A   1      34.813  31.576  29.109  1.00  0.00     0.116 C 
BRANCH  33  34
ATOM     34  N   UNL A   1      34.291  32.936  29.194  1.00  0.00    -0.352 N 
ATOM     35  C   UNL A   1      34.835  34.044  29.821  1.00  0.00     0.251 C 
ATOM     36  H   UNL A   1      33.430  33.087  28.741  1.00  0.00     0.163 HD
ATOM     37  O   UNL A   1      34.191  35.090  29.874  1.00  0.00    -0.269 OA
BRANCH  35  38
ATOM     38  C   UNL A   1      36.233  33.982  30.304  1.00  0.00     0.039 A 
ATOM     39  C   UNL A   1      37.257  34.175  29.369  1.00  0.00     0.014 A 
ATOM     40  C   UNL A   1      36.518  33.482  31.571  1.00  0.00     0.014 A 
ATOM     41  C   UNL A   1      38.505  33.603  29.596  1.00  0.00     0.010 A 
ATOM     42  C   UNL A   1      37.722  32.843  31.766  1.00  0.00     0.010 A 
ATOM     43  C   UNL A   1      38.675  32.831  30.741  1.00  0.00    -0.014 A 
BRANCH  43  44
ATOM     44  C   UNL A   1      39.770  31.903  30.950  1.00  0.00     0.031 A 
ATOM     45  C   UNL A   1      39.728  30.559  30.362  1.00  0.00     0.074 A 
ATOM     46  C   UNL A   1      40.906  32.375  31.513  1.00  0.00     0.049 A 
ATOM     47  N   UNL A   1      40.599  29.646  30.613  1.00  0.00    -0.248 NA
ATOM     48  C   UNL A   1      38.659  30.122  29.476  1.00  0.00     0.031 C 
ATOM     49  C   UNL A   1      42.246  31.809  31.436  1.00  0.00     0.029 A 
ATOM     50  N   UNL A   1      41.014  33.370  32.490  1.00  0.00    -0.354 N 
ATOM     51  C   UNL A   1      40.407  28.642  29.694  1.00  0.00     0.074 A 
ATOM     52  C   UNL A   1      39.106  28.910  29.132  1.00  0.00     0.031 C 
ATOM     53  C   UNL A   1      42.954  32.238  32.492  1.00  0.00     0.029 A 
ATOM     54  C   UNL A   1      42.024  32.927  33.367  1.00  0.00     0.049 A 
ATOM     55  H   UNL A   1      40.493  34.203  32.553  1.00  0.00     0.167 HD
ATOM     56  C   UNL A   1      41.457  27.819  29.421  1.00  0.00     0.034 A 
ATOM     57  C   UNL A   1      41.786  32.614  34.677  1.00  0.00     0.034 A 
ATOM     58  C   UNL A   1      42.516  27.970  30.441  1.00  0.00     0.049 A 
ATOM     59  C   UNL A   1      42.141  31.172  35.033  1.00  0.00     0.074 A 
ATOM     60  C   UNL A   1      43.783  28.530  30.476  1.00  0.00     0.029 A 
ATOM     61  N   UNL A   1      42.188  27.700  31.763  1.00  0.00    -0.354 N 
ATOM     62  N   UNL A   1      42.703  30.312  34.227  1.00  0.00    -0.248 NA
ATOM     63  C   UNL A   1      41.785  30.565  36.315  1.00  0.00     0.031 C 
ATOM     64  C   UNL A   1      44.187  28.636  31.846  1.00  0.00     0.029 A 
ATOM     65  C   UNL A   1      43.185  28.105  32.638  1.00  0.00     0.049 A 
ATOM     66  H   UNL A   1      41.348  27.273  32.045  1.00  0.00     0.167 HD
ATOM     67  C   UNL A   1      42.634  29.050  34.770  1.00  0.00     0.074 A 
ATOM     68  C   UNL A   1      42.082  29.273  36.097  1.00  0.00     0.031 C 
ATOM     69  C   UNL A   1      42.955  27.913  34.067  1.00  0.00     0.034 A 
BRANCH  56  70
ATOM     70  C   UNL A   1      41.645  27.012  28.139  1.00  0.00     0.023 A 
ATOM     71  C   UNL A   1      41.332  27.655  26.921  1.00  0.00     0.012 A 
ATOM     72  C   UNL A   1      41.997  25.642  28.029  1.00  0.00     0.148 A 
ATOM     73  C   UNL A   1      41.317  26.982  25.690  1.00  0.00     0.002 A 
ATOM     74  C   UNL A   1      42.004  24.972  26.801  1.00  0.00     0.091 A 
ATOM     75  F   UNL A   1      42.298  24.932  29.111  1.00  0.00    -0.205 F 
ATOM     76  C   UNL A   1      41.650  25.638  25.629  1.00  0.00     0.022 A 
BRANCH  74  77
ATOM     77  S   UNL A   1      42.424  23.222  26.655  1.00  0.00     0.127 S 
ATOM     78  O   UNL A   1      41.149  22.576  26.970  1.00  0.00    -0.237 OA
ATOM     79  O   UNL A   1      42.831  23.114  25.255  1.00  0.00    -0.237 OA
ATOM     80  O   UNL A   1      43.488  22.965  27.619  1.00  0.00    -0.744 OA
ENDBRANCH  74  77
ENDBRANCH  56  70
BRANCH  57  81
ATOM     81  C   UNL A   1      40.658  33.405  35.266  1.00  0.00     0.023 A 
ATOM     82  C   UNL A   1      39.353  32.878  35.103  1.00  0.00     0.012 A 
ATOM     83  C   UNL A   1      40.874  34.367  36.268  1.00  0.00     0.148 A 
ATOM     84  C   UNL A   1      38.339  33.175  36.015  1.00  0.00     0.002 A 
ATOM     85  C   UNL A   1      39.848  34.678  37.159  1.00  0.00     0.091 A 
ATOM     86  F   UNL A   1      42.092  34.905  36.398  1.00  0.00    -0.205 F 
ATOM     87  C   UNL A   1      38.598  34.048  37.065  1.00  0.00     0.022 A 
BRANCH  85  88
ATOM     88  S   UNL A   1      40.129  35.802  38.534  1.00  0.00     0.127 S 
ATOM     89  O   UNL A   1      39.422  36.996  38.081  1.00  0.00    -0.237 OA
ATOM     90  O   UNL A   1      39.503  35.101  39.653  1.00  0.00    -0.237 OA
ATOM     91  O   UNL A   1      41.578  35.903  38.633  1.00  0.00    -0.744 OA
ENDBRANCH  85  88
ENDBRANCH  57  81
BRANCH  69  92
ATOM     92  C   UNL A   1      42.964  26.495  34.643  1.00  0.00     0.023 A 
ATOM     93  C   UNL A   1      41.786  25.866  35.089  1.00  0.00     0.012 A 
ATOM     94  C   UNL A   1      44.169  25.765  34.848  1.00  0.00     0.148 A 
ATOM     95  C   UNL A   1      41.774  24.544  35.556  1.00  0.00     0.002 A 
ATOM     96  C   UNL A   1      44.162  24.459  35.332  1.00  0.00     0.091 A 
ATOM     97  F   UNL A   1      45.351  26.349  34.629  1.00  0.00    -0.205 F 
ATOM     98  C   UNL A   1      42.960  23.831  35.656  1.00  0.00     0.022 A 
BRANCH  96  99
ATOM     99  S   UNL A   1      45.675  23.518  35.589  1.00  0.00     0.127 S 
ATOM    100  O   UNL A   1      45.151  22.259  36.116  1.00  0.00    -0.237 OA
ATOM    101  O   UNL A   1      46.214  23.434  34.231  1.00  0.00    -0.237 OA
ATOM    102  O   UNL A   1      46.485  24.295  36.515  1.00  0.00    -0.744 OA
ENDBRANCH  96  99
ENDBRANCH  69  92
ENDBRANCH  43  44
ENDBRANCH  35  38
ENDBRANCH  33  34
ENDBRANCH  32  33
ENDBRANCH  31  32
ENDBRANCH   1  31
TORSDOF 20
ENDMDL
