MODEL 1
REMARK VINA RESULT:     -11.6      0.000      0.000
REMARK SMILES O=C(C[C@H]1C[C@H]2CC[C@@H](C1)N2C(=O)c1c[nH]c(=O)[nH]1)NCCCCCCNC(=O)c1ccc(-c2c3nc(c(-c4cccc(S(=O)(=O)[O-])c4F)c4ccc([nH]4)c(-c4cccc(S(=O)(=O)[O-])c4F)c4nc(c(-c5cccc(S(=O)(=O)[O-])c5F)c5ccc2[nH]5)C=C4)C=C3)cc1
REMARK SMILES IDX 23 1 22 2 21 3 20 4 1 5 2 6 3 8 4 9 5 10 10 11 6 12 9 13
REMARK SMILES IDX 7 14 11 15 8 16 12 17 13 18 14 19 15 20 19 21 16 22 17 23
REMARK SMILES IDX 18 26 24 27 25 28 26 29 27 30 28 31 29 33 30 34 31 35 92 36
REMARK SMILES IDX 32 37 91 38 33 39 34 40 35 41 85 42 36 43 90 44 84 45 86 46
REMARK SMILES IDX 37 47 89 48 83 49 82 50 38 52 70 53 50 54 69 55 51 56 54 57
REMARK SMILES IDX 68 58 87 59 52 60 53 61 67 63 88 64 55 65 39 66 40 67 48 68
REMARK SMILES IDX 41 69 43 70 49 71 42 72 44 73 45 74 46 75 47 76 71 77 72 78
REMARK SMILES IDX 80 79 73 80 75 81 81 82 74 83 76 84 77 85 78 86 79 87 56 88
REMARK SMILES IDX 57 89 65 90 58 91 60 92 66 93 59 94 61 95 62 96 63 97 64 98
REMARK H PARENT 20 7 19 24 16 25 27 32 86 51 54 62
REMARK Flexibility Score: inf
ROOT
ATOM      1  C   UNL A   1      30.283  29.376  23.812  1.00  0.00     0.002 C 
ENDROOT
BRANCH   1   2
ATOM      2  C   UNL A   1      30.129  27.918  23.342  1.00  0.00     0.021 C 
BRANCH   2   3
ATOM      3  C   UNL A   1      31.363  27.269  22.694  1.00  0.00     0.116 C 
BRANCH   3   4
ATOM      4  N   UNL A   1      32.084  26.465  23.660  1.00  0.00    -0.356 N 
ATOM      5  O   UNL A   1      33.998  27.693  23.866  1.00  0.00    -0.275 OA
ATOM      6  C   UNL A   1      33.334  26.707  24.168  1.00  0.00     0.220 C 
ATOM      7  H   UNL A   1      31.627  25.657  23.988  1.00  0.00     0.163 HD
BRANCH   6   8
ATOM      8  C   UNL A   1      33.940  25.570  25.016  1.00  0.00     0.103 C 
BRANCH   8   9
ATOM      9  C   UNL A   1      33.285  24.164  25.080  1.00  0.00     0.002 C 
ATOM     10  C   UNL A   1      33.511  23.227  23.891  1.00  0.00     0.029 C 
ATOM     11  C   UNL A   1      33.648  23.380  26.391  1.00  0.00     0.029 C 
ATOM     12  C   UNL A   1      34.852  22.481  23.965  1.00  0.00     0.086 C 
ATOM     13  C   UNL A   1      34.849  22.389  26.280  1.00  0.00     0.086 C 
ATOM     14  C   UNL A   1      36.111  23.252  24.430  1.00  0.00     0.027 C 
ATOM     15  N   UNL A   1      34.713  21.565  25.078  1.00  0.00    -0.331 N 
ATOM     16  C   UNL A   1      36.141  23.132  25.962  1.00  0.00     0.027 C 
BRANCH  15  17
ATOM     17  C   UNL A   1      34.984  20.234  24.859  1.00  0.00     0.272 C 
ATOM     18  O   UNL A   1      36.127  19.775  24.874  1.00  0.00    -0.267 OA
BRANCH  17  19
ATOM     19  C   UNL A   1      33.862  19.292  24.719  1.00  0.00     0.125 A 
ATOM     20  C   UNL A   1      32.833  19.291  23.862  1.00  0.00     0.119 A 
ATOM     21  N   UNL A   1      33.809  18.141  25.474  1.00  0.00    -0.302 N 
ATOM     22  N   UNL A   1      32.091  18.154  24.081  1.00  0.00    -0.312 N 
ATOM     23  C   UNL A   1      32.692  17.401  25.100  1.00  0.00     0.323 A 
ATOM     24  H   UNL A   1      34.458  17.883  26.167  1.00  0.00     0.172 HD
ATOM     25  H   UNL A   1      31.269  17.909  23.599  1.00  0.00     0.171 HD
ATOM     26  O   UNL A   1      32.315  16.329  25.548  1.00  0.00    -0.248 OA
ENDBRANCH  17  19
ENDBRANCH  15  17
ENDBRANCH   8   9
ENDBRANCH   6   8
ENDBRANCH   3   4
ENDBRANCH   2   3
ENDBRANCH   1   2
BRANCH   1  27
ATOM     27  C   UNL A   1      31.264  29.633  24.956  1.00  0.00     0.002 C 
BRANCH  27  28
ATOM     28  C   UNL A   1      31.029  30.934  25.716  1.00  0.00     0.021 C 
BRANCH  28  29
ATOM     29  C   UNL A   1      32.180  31.377  26.612  1.00  0.00     0.116 C 
BRANCH  29  30
ATOM     30  N   UNL A   1      32.106  32.779  27.007  1.00  0.00    -0.352 N 
ATOM     31  C   UNL A   1      33.008  33.506  27.750  1.00  0.00     0.251 C 
ATOM     32  H   UNL A   1      31.308  33.268  26.702  1.00  0.00     0.163 HD
ATOM     33  O   UNL A   1      32.759  34.660  28.085  1.00  0.00    -0.269 OA
BRANCH  31  34
ATOM     34  C   UNL A   1      34.269  32.862  28.177  1.00  0.00     0.039 A 
ATOM     35  C   UNL A   1      35.462  33.585  28.097  1.00  0.00     0.014 A 
ATOM     36  C   UNL A   1      34.255  31.579  28.730  1.00  0.00     0.014 A 
ATOM     37  C   UNL A   1      36.627  33.056  28.658  1.00  0.00     0.010 A 
ATOM     38  C   UNL A   1      35.397  31.088  29.353  1.00  0.00     0.010 A 
ATOM     39  C   UNL A   1      36.592  31.825  29.334  1.00  0.00    -0.014 A 
BRANCH  39  40
ATOM     40  C   UNL A   1      37.774  31.311  30.072  1.00  0.00     0.031 A 
ATOM     41  C   UNL A   1      38.659  30.264  29.454  1.00  0.00     0.074 A 
ATOM     42  C   UNL A   1      37.979  31.695  31.349  1.00  0.00     0.049 A 
ATOM     43  N   UNL A   1      39.675  29.630  29.979  1.00  0.00    -0.248 NA
ATOM     44  C   UNL A   1      38.338  29.851  28.078  1.00  0.00     0.031 C 
ATOM     45  C   UNL A   1      37.133  32.629  32.096  1.00  0.00     0.029 A 
ATOM     46  N   UNL A   1      38.938  31.317  32.256  1.00  0.00    -0.354 N 
ATOM     47  C   UNL A   1      40.094  28.721  29.016  1.00  0.00     0.074 A 
ATOM     48  C   UNL A   1      39.198  28.860  27.888  1.00  0.00     0.031 C 
ATOM     49  C   UNL A   1      37.602  32.742  33.348  1.00  0.00     0.029 A 
ATOM     50  C   UNL A   1      38.765  31.871  33.503  1.00  0.00     0.049 A 
ATOM     51  H   UNL A   1      39.679  30.707  32.035  1.00  0.00     0.167 HD
ATOM     52  C   UNL A   1      41.148  27.871  29.050  1.00  0.00     0.034 A 
ATOM     53  C   UNL A   1      39.454  31.692  34.647  1.00  0.00     0.034 A 
ATOM     54  C   UNL A   1      42.064  27.768  30.153  1.00  0.00     0.049 A 
ATOM     55  C   UNL A   1      40.654  30.784  34.646  1.00  0.00     0.074 A 
ATOM     56  C   UNL A   1      43.222  27.016  30.242  1.00  0.00     0.029 A 
ATOM     57  N   UNL A   1      41.923  28.430  31.363  1.00  0.00    -0.354 N 
ATOM     58  N   UNL A   1      41.143  30.068  33.662  1.00  0.00    -0.248 NA
ATOM     59  C   UNL A   1      41.417  30.686  35.898  1.00  0.00     0.031 C 
ATOM     60  C   UNL A   1      43.773  27.211  31.514  1.00  0.00     0.029 A 
ATOM     61  C   UNL A   1      42.966  28.096  32.211  1.00  0.00     0.049 A 
ATOM     62  H   UNL A   1      41.189  29.046  31.588  1.00  0.00     0.167 HD
ATOM     63  C   UNL A   1      42.283  29.455  34.167  1.00  0.00     0.074 A 
ATOM     64  C   UNL A   1      42.427  29.905  35.538  1.00  0.00     0.031 C 
ATOM     65  C   UNL A   1      43.125  28.585  33.557  1.00  0.00     0.034 A 
BRANCH  52  66
ATOM     66  C   UNL A   1      41.400  27.031  27.826  1.00  0.00     0.023 A 
ATOM     67  C   UNL A   1      41.976  27.628  26.686  1.00  0.00     0.012 A 
ATOM     68  C   UNL A   1      41.110  25.653  27.812  1.00  0.00     0.148 A 
ATOM     69  C   UNL A   1      42.221  26.879  25.537  1.00  0.00     0.002 A 
ATOM     70  C   UNL A   1      41.397  24.902  26.676  1.00  0.00     0.091 A 
ATOM     71  F   UNL A   1      40.540  25.106  28.894  1.00  0.00    -0.205 F 
ATOM     72  C   UNL A   1      41.941  25.515  25.535  1.00  0.00     0.022 A 
BRANCH  70  73
ATOM     73  S   UNL A   1      41.141  23.126  26.607  1.00  0.00     0.127 S 
ATOM     74  O   UNL A   1      41.939  22.757  25.439  1.00  0.00    -0.237 OA
ATOM     75  O   UNL A   1      41.694  22.681  27.887  1.00  0.00    -0.237 OA
ATOM     76  O   UNL A   1      39.703  22.938  26.475  1.00  0.00    -0.744 OA
ENDBRANCH  70  73
ENDBRANCH  52  66
BRANCH  53  77
ATOM     77  C   UNL A   1      39.054  32.441  35.872  1.00  0.00     0.023 A 
ATOM     78  C   UNL A   1      38.119  31.871  36.758  1.00  0.00     0.012 A 
ATOM     79  C   UNL A   1      39.635  33.683  36.193  1.00  0.00     0.148 A 
ATOM     80  C   UNL A   1      37.753  32.535  37.929  1.00  0.00     0.002 A 
ATOM     81  C   UNL A   1      39.308  34.314  37.387  1.00  0.00     0.091 A 
ATOM     82  F   UNL A   1      40.513  34.214  35.329  1.00  0.00    -0.205 F 
ATOM     83  C   UNL A   1      38.355  33.749  38.249  1.00  0.00     0.022 A 
BRANCH  81  84
ATOM     84  S   UNL A   1      40.137  35.806  37.946  1.00  0.00     0.127 S 
ATOM     85  O   UNL A   1      41.532  35.377  37.986  1.00  0.00    -0.237 OA
ATOM     86  O   UNL A   1      39.812  36.752  36.878  1.00  0.00    -0.237 OA
ATOM     87  O   UNL A   1      39.535  36.129  39.234  1.00  0.00    -0.744 OA
ENDBRANCH  81  84
ENDBRANCH  53  77
BRANCH  65  88
ATOM     88  C   UNL A   1      44.291  28.062  34.356  1.00  0.00     0.023 A 
ATOM     89  C   UNL A   1      45.508  28.770  34.353  1.00  0.00     0.012 A 
ATOM     90  C   UNL A   1      44.154  26.922  35.173  1.00  0.00     0.148 A 
ATOM     91  C   UNL A   1      46.582  28.338  35.130  1.00  0.00     0.002 A 
ATOM     92  C   UNL A   1      45.214  26.523  35.979  1.00  0.00     0.091 A 
ATOM     93  F   UNL A   1      42.993  26.252  35.148  1.00  0.00    -0.205 F 
ATOM     94  C   UNL A   1      46.431  27.223  35.952  1.00  0.00     0.022 A 
BRANCH  92  95
ATOM     95  S   UNL A   1      45.081  25.155  37.137  1.00  0.00     0.127 S 
ATOM     96  O   UNL A   1      45.244  24.001  36.253  1.00  0.00    -0.237 OA
ATOM     97  O   UNL A   1      46.209  25.398  38.036  1.00  0.00    -0.237 OA
ATOM     98  O   UNL A   1      43.772  25.284  37.762  1.00  0.00    -0.744 OA
ENDBRANCH  92  95
ENDBRANCH  65  88
ENDBRANCH  39  40
ENDBRANCH  31  34
ENDBRANCH  29  30
ENDBRANCH  28  29
ENDBRANCH  27  28
ENDBRANCH   1  27
TORSDOF 19
ENDMDL
MODEL 2
REMARK VINA RESULT:     -11.2      2.103      3.081
REMARK SMILES O=C(C[C@H]1C[C@H]2CC[C@@H](C1)N2C(=O)c1c[nH]c(=O)[nH]1)NCCCCCCNC(=O)c1ccc(-c2c3nc(c(-c4cccc(S(=O)(=O)[O-])c4F)c4ccc([nH]4)c(-c4cccc(S(=O)(=O)[O-])c4F)c4nc(c(-c5cccc(S(=O)(=O)[O-])c5F)c5ccc2[nH]5)C=C4)C=C3)cc1
REMARK SMILES IDX 23 1 22 2 21 3 20 4 1 5 2 6 3 8 4 9 5 10 10 11 6 12 9 13
REMARK SMILES IDX 7 14 11 15 8 16 12 17 13 18 14 19 15 20 19 21 16 22 17 23
REMARK SMILES IDX 18 26 24 27 25 28 26 29 27 30 28 31 29 33 30 34 31 35 92 36
REMARK SMILES IDX 32 37 91 38 33 39 34 40 35 41 85 42 36 43 90 44 84 45 86 46
REMARK SMILES IDX 37 47 89 48 83 49 82 50 38 52 70 53 50 54 69 55 51 56 54 57
REMARK SMILES IDX 68 58 87 59 52 60 53 61 67 63 88 64 55 65 39 66 40 67 48 68
REMARK SMILES IDX 41 69 43 70 49 71 42 72 44 73 45 74 46 75 47 76 71 77 72 78
REMARK SMILES IDX 80 79 73 80 75 81 81 82 74 83 76 84 77 85 78 86 79 87 56 88
REMARK SMILES IDX 57 89 65 90 58 91 60 92 66 93 59 94 61 95 62 96 63 97 64 98
REMARK H PARENT 20 7 19 24 16 25 27 32 86 51 54 62
REMARK Flexibility Score: inf
ROOT
ATOM      1  C   UNL A   1      31.122  30.183  25.041  1.00  0.00     0.002 C 
ENDROOT
BRANCH   1   2
ATOM      2  C   UNL A   1      30.984  28.937  24.147  1.00  0.00     0.021 C 
BRANCH   2   3
ATOM      3  C   UNL A   1      32.119  27.903  24.228  1.00  0.00     0.116 C 
BRANCH   3   4
ATOM      4  N   UNL A   1      31.581  26.558  24.281  1.00  0.00    -0.356 N 
ATOM      5  O   UNL A   1      31.026  26.428  26.491  1.00  0.00    -0.275 OA
ATOM      6  C   UNL A   1      31.091  25.906  25.383  1.00  0.00     0.220 C 
ATOM      7  H   UNL A   1      31.566  26.057  23.433  1.00  0.00     0.163 HD
BRANCH   6   8
ATOM      8  C   UNL A   1      30.785  24.408  25.189  1.00  0.00     0.103 C 
BRANCH   8   9
ATOM      9  C   UNL A   1      31.503  23.315  26.027  1.00  0.00     0.002 C 
ATOM     10  C   UNL A   1      31.607  21.915  25.417  1.00  0.00     0.029 C 
ATOM     11  C   UNL A   1      32.936  23.748  26.497  1.00  0.00     0.029 C 
ATOM     12  C   UNL A   1      32.784  21.778  24.438  1.00  0.00     0.086 C 
ATOM     13  C   UNL A   1      34.118  23.280  25.591  1.00  0.00     0.086 C 
ATOM     14  C   UNL A   1      33.078  22.937  23.455  1.00  0.00     0.027 C 
ATOM     15  N   UNL A   1      33.971  21.862  25.263  1.00  0.00    -0.331 N 
ATOM     16  C   UNL A   1      34.017  23.898  24.201  1.00  0.00     0.027 C 
BRANCH  15  17
ATOM     17  C   UNL A   1      34.905  20.856  25.157  1.00  0.00     0.272 C 
ATOM     18  O   UNL A   1      34.610  19.701  24.849  1.00  0.00    -0.267 OA
BRANCH  17  19
ATOM     19  C   UNL A   1      36.332  21.192  25.299  1.00  0.00     0.125 A 
ATOM     20  C   UNL A   1      37.401  20.725  24.643  1.00  0.00     0.119 A 
ATOM     21  N   UNL A   1      36.738  22.202  26.143  1.00  0.00    -0.302 N 
ATOM     22  N   UNL A   1      38.510  21.408  25.084  1.00  0.00    -0.312 N 
ATOM     23  C   UNL A   1      38.116  22.358  26.037  1.00  0.00     0.323 A 
ATOM     24  H   UNL A   1      36.147  22.728  26.728  1.00  0.00     0.172 HD
ATOM     25  H   UNL A   1      39.432  21.254  24.779  1.00  0.00     0.171 HD
ATOM     26  O   UNL A   1      38.832  23.149  26.632  1.00  0.00    -0.248 OA
ENDBRANCH  17  19
ENDBRANCH  15  17
ENDBRANCH   8   9
ENDBRANCH   6   8
ENDBRANCH   3   4
ENDBRANCH   2   3
ENDBRANCH   1   2
BRANCH   1  27
ATOM     27  C   UNL A   1      32.352  30.252  25.946  1.00  0.00     0.002 C 
BRANCH  27  28
ATOM     28  C   UNL A   1      32.184  31.128  27.183  1.00  0.00     0.021 C 
BRANCH  28  29
ATOM     29  C   UNL A   1      33.281  32.167  27.392  1.00  0.00     0.116 C 
BRANCH  29  30
ATOM     30  N   UNL A   1      32.772  33.517  27.604  1.00  0.00    -0.352 N 
ATOM     31  C   UNL A   1      33.202  34.460  28.510  1.00  0.00     0.251 C 
ATOM     32  H   UNL A   1      32.025  33.789  27.023  1.00  0.00     0.163 HD
ATOM     33  O   UNL A   1      32.606  35.526  28.637  1.00  0.00    -0.269 OA
BRANCH  31  34
ATOM     34  C   UNL A   1      34.370  34.154  29.363  1.00  0.00     0.039 A 
ATOM     35  C   UNL A   1      34.169  33.496  30.579  1.00  0.00     0.014 A 
ATOM     36  C   UNL A   1      35.663  34.444  28.921  1.00  0.00     0.014 A 
ATOM     37  C   UNL A   1      35.272  33.046  31.309  1.00  0.00     0.010 A 
ATOM     38  C   UNL A   1      36.756  33.930  29.611  1.00  0.00     0.010 A 
ATOM     39  C   UNL A   1      36.573  33.216  30.805  1.00  0.00    -0.014 A 
BRANCH  39  40
ATOM     40  C   UNL A   1      37.752  32.614  31.479  1.00  0.00     0.031 A 
ATOM     41  C   UNL A   1      38.477  31.457  30.850  1.00  0.00     0.074 A 
ATOM     42  C   UNL A   1      38.092  33.027  32.717  1.00  0.00     0.049 A 
ATOM     43  N   UNL A   1      39.463  30.744  31.330  1.00  0.00    -0.248 NA
ATOM     44  C   UNL A   1      38.012  31.023  29.522  1.00  0.00     0.031 C 
ATOM     45  C   UNL A   1      37.403  34.072  33.478  1.00  0.00     0.029 A 
ATOM     46  N   UNL A   1      39.075  32.589  33.570  1.00  0.00    -0.354 N 
ATOM     47  C   UNL A   1      39.714  29.758  30.383  1.00  0.00     0.074 A 
ATOM     48  C   UNL A   1      38.751  29.943  29.319  1.00  0.00     0.031 C 
ATOM     49  C   UNL A   1      37.976  34.187  34.686  1.00  0.00     0.029 A 
ATOM     50  C   UNL A   1      39.055  33.208  34.798  1.00  0.00     0.049 A 
ATOM     51  H   UNL A   1      39.732  31.897  33.325  1.00  0.00     0.167 HD
ATOM     52  C   UNL A   1      40.677  28.806  30.382  1.00  0.00     0.034 A 
ATOM     53  C   UNL A   1      39.809  33.005  35.897  1.00  0.00     0.034 A 
ATOM     54  C   UNL A   1      41.661  28.654  31.420  1.00  0.00     0.049 A 
ATOM     55  C   UNL A   1      40.908  31.979  35.852  1.00  0.00     0.074 A 
ATOM     56  C   UNL A   1      42.741  27.791  31.460  1.00  0.00     0.029 A 
ATOM     57  N   UNL A   1      41.680  29.375  32.603  1.00  0.00    -0.354 N 
ATOM     58  N   UNL A   1      41.246  31.178  34.871  1.00  0.00    -0.248 NA
ATOM     59  C   UNL A   1      41.752  31.854  37.049  1.00  0.00     0.031 C 
ATOM     60  C   UNL A   1      43.405  27.980  32.678  1.00  0.00     0.029 A 
ATOM     61  C   UNL A   1      42.747  28.971  33.388  1.00  0.00     0.049 A 
ATOM     62  H   UNL A   1      41.031  30.073  32.851  1.00  0.00     0.167 HD
ATOM     63  C   UNL A   1      42.356  30.471  35.321  1.00  0.00     0.074 A 
ATOM     64  C   UNL A   1      42.648  30.959  36.654  1.00  0.00     0.031 C 
ATOM     65  C   UNL A   1      43.057  29.495  34.694  1.00  0.00     0.034 A 
BRANCH  52  66
ATOM     66  C   UNL A   1      40.749  27.895  29.185  1.00  0.00     0.023 A 
ATOM     67  C   UNL A   1      39.905  26.767  29.124  1.00  0.00     0.012 A 
ATOM     68  C   UNL A   1      41.614  28.169  28.109  1.00  0.00     0.148 A 
ATOM     69  C   UNL A   1      39.948  25.903  28.031  1.00  0.00     0.002 A 
ATOM     70  C   UNL A   1      41.621  27.326  27.001  1.00  0.00     0.091 A 
ATOM     71  F   UNL A   1      42.428  29.230  28.193  1.00  0.00    -0.205 F 
ATOM     72  C   UNL A   1      40.799  26.188  26.966  1.00  0.00     0.022 A 
BRANCH  70  73
ATOM     73  S   UNL A   1      42.628  27.653  25.550  1.00  0.00     0.127 S 
ATOM     74  O   UNL A   1      42.353  26.476  24.729  1.00  0.00    -0.237 OA
ATOM     75  O   UNL A   1      42.049  28.897  25.043  1.00  0.00    -0.237 OA
ATOM     76  O   UNL A   1      43.995  27.778  26.036  1.00  0.00    -0.744 OA
ENDBRANCH  70  73
ENDBRANCH  52  66
BRANCH  53  77
ATOM     77  C   UNL A   1      39.581  33.841  37.109  1.00  0.00     0.023 A 
ATOM     78  C   UNL A   1      39.988  35.189  37.107  1.00  0.00     0.012 A 
ATOM     79  C   UNL A   1      38.916  33.326  38.239  1.00  0.00     0.148 A 
ATOM     80  C   UNL A   1      39.755  36.003  38.216  1.00  0.00     0.002 A 
ATOM     81  C   UNL A   1      38.638  34.157  39.318  1.00  0.00     0.091 A 
ATOM     82  F   UNL A   1      38.548  32.036  38.226  1.00  0.00    -0.205 F 
ATOM     83  C   UNL A   1      39.071  35.491  39.315  1.00  0.00     0.022 A 
BRANCH  81  84
ATOM     84  S   UNL A   1      37.641  33.622  40.713  1.00  0.00     0.127 S 
ATOM     85  O   UNL A   1      37.339  34.891  41.369  1.00  0.00    -0.237 OA
ATOM     86  O   UNL A   1      36.504  32.985  40.047  1.00  0.00    -0.237 OA
ATOM     87  O   UNL A   1      38.484  32.702  41.467  1.00  0.00    -0.744 OA
ENDBRANCH  81  84
ENDBRANCH  53  77
BRANCH  65  88
ATOM     88  C   UNL A   1      44.222  28.888  35.431  1.00  0.00     0.023 A 
ATOM     89  C   UNL A   1      45.511  29.429  35.258  1.00  0.00     0.012 A 
ATOM     90  C   UNL A   1      44.028  27.841  36.355  1.00  0.00     0.148 A 
ATOM     91  C   UNL A   1      46.595  28.921  35.973  1.00  0.00     0.002 A 
ATOM     92  C   UNL A   1      45.105  27.371  37.097  1.00  0.00     0.091 A 
ATOM     93  F   UNL A   1      42.797  27.328  36.491  1.00  0.00    -0.205 F 
ATOM     94  C   UNL A   1      46.390  27.902  36.901  1.00  0.00     0.022 A 
BRANCH  92  95
ATOM     95  S   UNL A   1      44.921  26.124  38.378  1.00  0.00     0.127 S 
ATOM     96  O   UNL A   1      43.769  26.631  39.123  1.00  0.00    -0.237 OA
ATOM     97  O   UNL A   1      44.657  24.914  37.598  1.00  0.00    -0.237 OA
ATOM     98  O   UNL A   1      46.181  26.109  39.107  1.00  0.00    -0.744 OA
ENDBRANCH  92  95
ENDBRANCH  65  88
ENDBRANCH  39  40
ENDBRANCH  31  34
ENDBRANCH  29  30
ENDBRANCH  28  29
ENDBRANCH  27  28
ENDBRANCH   1  27
TORSDOF 19
ENDMDL
MODEL 3
REMARK VINA RESULT:     -11.2      5.258      9.288
REMARK SMILES O=C(C[C@H]1C[C@H]2CC[C@@H](C1)N2C(=O)c1c[nH]c(=O)[nH]1)NCCCCCCNC(=O)c1ccc(-c2c3nc(c(-c4cccc(S(=O)(=O)[O-])c4F)c4ccc([nH]4)c(-c4cccc(S(=O)(=O)[O-])c4F)c4nc(c(-c5cccc(S(=O)(=O)[O-])c5F)c5ccc2[nH]5)C=C4)C=C3)cc1
REMARK SMILES IDX 23 1 22 2 21 3 20 4 1 5 2 6 3 8 4 9 5 10 10 11 6 12 9 13
REMARK SMILES IDX 7 14 11 15 8 16 12 17 13 18 14 19 15 20 19 21 16 22 17 23
REMARK SMILES IDX 18 26 24 27 25 28 26 29 27 30 28 31 29 33 30 34 31 35 92 36
REMARK SMILES IDX 32 37 91 38 33 39 34 40 35 41 85 42 36 43 90 44 84 45 86 46
REMARK SMILES IDX 37 47 89 48 83 49 82 50 38 52 70 53 50 54 69 55 51 56 54 57
REMARK SMILES IDX 68 58 87 59 52 60 53 61 67 63 88 64 55 65 39 66 40 67 48 68
REMARK SMILES IDX 41 69 43 70 49 71 42 72 44 73 45 74 46 75 47 76 71 77 72 78
REMARK SMILES IDX 80 79 73 80 75 81 81 82 74 83 76 84 77 85 78 86 79 87 56 88
REMARK SMILES IDX 57 89 65 90 58 91 60 92 66 93 59 94 61 95 62 96 63 97 64 98
REMARK H PARENT 20 7 19 24 16 25 27 32 86 51 54 62
REMARK Flexibility Score: inf
ROOT
ATOM      1  C   UNL A   1      36.757  22.807  24.660  1.00  0.00     0.002 C 
ENDROOT
BRANCH   1   2
ATOM      2  C   UNL A   1      36.182  23.657  25.808  1.00  0.00     0.021 C 
BRANCH   2   3
ATOM      3  C   UNL A   1      35.408  24.924  25.408  1.00  0.00     0.116 C 
BRANCH   3   4
ATOM      4  N   UNL A   1      34.023  24.606  25.121  1.00  0.00    -0.356 N 
ATOM      5  O   UNL A   1      34.117  24.389  22.850  1.00  0.00    -0.275 OA
ATOM      6  C   UNL A   1      33.466  24.378  23.890  1.00  0.00     0.220 C 
ATOM      7  H   UNL A   1      33.417  24.550  25.894  1.00  0.00     0.163 HD
BRANCH   6   8
ATOM      8  C   UNL A   1      31.928  24.276  23.863  1.00  0.00     0.103 C 
BRANCH   8   9
ATOM      9  C   UNL A   1      31.081  25.013  22.791  1.00  0.00     0.002 C 
ATOM     10  C   UNL A   1      29.563  25.041  22.989  1.00  0.00     0.029 C 
ATOM     11  C   UNL A   1      31.564  26.485  22.535  1.00  0.00     0.029 C 
ATOM     12  C   UNL A   1      29.107  26.151  23.948  1.00  0.00     0.086 C 
ATOM     13  C   UNL A   1      30.811  27.596  23.333  1.00  0.00     0.086 C 
ATOM     14  C   UNL A   1      29.933  26.417  25.231  1.00  0.00     0.027 C 
ATOM     15  N   UNL A   1      29.365  27.389  23.243  1.00  0.00    -0.331 N 
ATOM     16  C   UNL A   1      31.021  27.426  24.833  1.00  0.00     0.027 C 
BRANCH  15  17
ATOM     17  C   UNL A   1      28.331  28.287  23.110  1.00  0.00     0.272 C 
ATOM     18  O   UNL A   1      27.204  28.077  23.560  1.00  0.00    -0.267 OA
BRANCH  17  19
ATOM     19  C   UNL A   1      28.603  29.604  22.512  1.00  0.00     0.125 A 
ATOM     20  C   UNL A   1      29.598  30.470  22.739  1.00  0.00     0.119 A 
ATOM     21  N   UNL A   1      27.831  30.082  21.475  1.00  0.00    -0.302 N 
ATOM     22  N   UNL A   1      29.456  31.528  21.873  1.00  0.00    -0.312 N 
ATOM     23  C   UNL A   1      28.340  31.305  21.053  1.00  0.00     0.323 A 
ATOM     24  H   UNL A   1      27.045  29.629  21.095  1.00  0.00     0.172 HD
ATOM     25  H   UNL A   1      30.043  32.317  21.836  1.00  0.00     0.171 HD
ATOM     26  O   UNL A   1      27.921  32.028  20.163  1.00  0.00    -0.248 OA
ENDBRANCH  17  19
ENDBRANCH  15  17
ENDBRANCH   8   9
ENDBRANCH   6   8
ENDBRANCH   3   4
ENDBRANCH   2   3
ENDBRANCH   1   2
BRANCH   1  27
ATOM     27  C   UNL A   1      36.366  21.330  24.631  1.00  0.00     0.002 C 
BRANCH  27  28
ATOM     28  C   UNL A   1      37.473  20.370  25.053  1.00  0.00     0.021 C 
BRANCH  28  29
ATOM     29  C   UNL A   1      38.827  21.021  25.317  1.00  0.00     0.116 C 
BRANCH  29  30
ATOM     30  N   UNL A   1      39.768  20.148  26.008  1.00  0.00    -0.352 N 
ATOM     31  C   UNL A   1      40.761  20.495  26.896  1.00  0.00     0.251 C 
ATOM     32  H   UNL A   1      39.682  19.187  25.814  1.00  0.00     0.163 HD
ATOM     33  O   UNL A   1      41.543  19.651  27.324  1.00  0.00    -0.269 OA
BRANCH  31  34
ATOM     34  C   UNL A   1      40.902  21.911  27.296  1.00  0.00     0.039 A 
ATOM     35  C   UNL A   1      41.713  22.231  28.389  1.00  0.00     0.014 A 
ATOM     36  C   UNL A   1      40.299  22.922  26.543  1.00  0.00     0.014 A 
ATOM     37  C   UNL A   1      41.994  23.570  28.669  1.00  0.00     0.010 A 
ATOM     38  C   UNL A   1      40.641  24.249  26.778  1.00  0.00     0.010 A 
ATOM     39  C   UNL A   1      41.500  24.588  27.835  1.00  0.00    -0.014 A 
BRANCH  39  40
ATOM     40  C   UNL A   1      41.907  26.005  28.015  1.00  0.00     0.031 A 
ATOM     41  C   UNL A   1      43.297  26.448  27.649  1.00  0.00     0.074 A 
ATOM     42  C   UNL A   1      41.067  26.865  28.625  1.00  0.00     0.049 A 
ATOM     43  N   UNL A   1      43.861  27.615  27.821  1.00  0.00    -0.248 NA
ATOM     44  C   UNL A   1      44.178  25.438  27.041  1.00  0.00     0.031 C 
ATOM     45  C   UNL A   1      39.728  26.532  29.119  1.00  0.00     0.029 A 
ATOM     46  N   UNL A   1      41.229  28.184  28.970  1.00  0.00    -0.354 N 
ATOM     47  C   UNL A   1      45.170  27.472  27.378  1.00  0.00     0.074 A 
ATOM     48  C   UNL A   1      45.326  26.095  26.963  1.00  0.00     0.031 C 
ATOM     49  C   UNL A   1      39.197  27.612  29.713  1.00  0.00     0.029 A 
ATOM     50  C   UNL A   1      40.164  28.706  29.666  1.00  0.00     0.049 A 
ATOM     51  H   UNL A   1      42.032  28.706  28.742  1.00  0.00     0.167 HD
ATOM     52  C   UNL A   1      46.145  28.408  27.291  1.00  0.00     0.034 A 
ATOM     53  C   UNL A   1      39.986  29.923  30.218  1.00  0.00     0.034 A 
ATOM     54  C   UNL A   1      45.973  29.787  27.661  1.00  0.00     0.049 A 
ATOM     55  C   UNL A   1      41.061  30.964  30.060  1.00  0.00     0.074 A 
ATOM     56  C   UNL A   1      46.864  30.835  27.511  1.00  0.00     0.029 A 
ATOM     57  N   UNL A   1      44.838  30.310  28.261  1.00  0.00    -0.354 N 
ATOM     58  N   UNL A   1      42.228  30.858  29.471  1.00  0.00    -0.248 NA
ATOM     59  C   UNL A   1      40.784  32.298  30.610  1.00  0.00     0.031 C 
ATOM     60  C   UNL A   1      46.273  31.990  28.037  1.00  0.00     0.029 A 
ATOM     61  C   UNL A   1      45.008  31.663  28.500  1.00  0.00     0.049 A 
ATOM     62  H   UNL A   1      44.029  29.795  28.485  1.00  0.00     0.167 HD
ATOM     63  C   UNL A   1      42.813  32.116  29.557  1.00  0.00     0.074 A 
ATOM     64  C   UNL A   1      41.860  32.975  30.232  1.00  0.00     0.031 C 
ATOM     65  C   UNL A   1      44.036  32.519  29.131  1.00  0.00     0.034 A 
BRANCH  52  66
ATOM     66  C   UNL A   1      47.468  27.979  26.713  1.00  0.00     0.023 A 
ATOM     67  C   UNL A   1      48.525  27.644  27.584  1.00  0.00     0.012 A 
ATOM     68  C   UNL A   1      47.657  27.868  25.322  1.00  0.00     0.148 A 
ATOM     69  C   UNL A   1      49.762  27.245  27.081  1.00  0.00     0.002 A 
ATOM     70  C   UNL A   1      48.881  27.428  24.829  1.00  0.00     0.091 A 
ATOM     71  F   UNL A   1      46.651  28.214  24.508  1.00  0.00    -0.205 F 
ATOM     72  C   UNL A   1      49.937  27.127  25.705  1.00  0.00     0.022 A 
BRANCH  70  73
ATOM     73  S   UNL A   1      49.176  27.173  23.075  1.00  0.00     0.127 S 
ATOM     74  O   UNL A   1      50.630  27.038  23.036  1.00  0.00    -0.237 OA
ATOM     75  O   UNL A   1      48.442  25.935  22.812  1.00  0.00    -0.237 OA
ATOM     76  O   UNL A   1      48.632  28.348  22.407  1.00  0.00    -0.744 OA
ENDBRANCH  70  73
ENDBRANCH  52  66
BRANCH  53  77
ATOM     77  C   UNL A   1      38.707  30.235  30.915  1.00  0.00     0.023 A 
ATOM     78  C   UNL A   1      38.529  29.826  32.252  1.00  0.00     0.012 A 
ATOM     79  C   UNL A   1      37.692  30.981  30.286  1.00  0.00     0.148 A 
ATOM     80  C   UNL A   1      37.356  30.135  32.939  1.00  0.00     0.002 A 
ATOM     81  C   UNL A   1      36.549  31.333  30.994  1.00  0.00     0.091 A 
ATOM     82  F   UNL A   1      37.875  31.349  29.009  1.00  0.00    -0.205 F 
ATOM     83  C   UNL A   1      36.372  30.897  32.315  1.00  0.00     0.022 A 
BRANCH  81  84
ATOM     84  S   UNL A   1      35.296  32.428  30.317  1.00  0.00     0.127 S 
ATOM     85  O   UNL A   1      34.829  31.670  29.159  1.00  0.00    -0.237 OA
ATOM     86  O   UNL A   1      34.342  32.517  31.422  1.00  0.00    -0.237 OA
ATOM     87  O   UNL A   1      35.987  33.677  30.022  1.00  0.00    -0.744 OA
ENDBRANCH  81  84
ENDBRANCH  53  77
BRANCH  65  88
ATOM     88  C   UNL A   1      44.420  33.956  29.367  1.00  0.00     0.023 A 
ATOM     89  C   UNL A   1      44.970  34.333  30.608  1.00  0.00     0.012 A 
ATOM     90  C   UNL A   1      44.318  34.911  28.336  1.00  0.00     0.148 A 
ATOM     91  C   UNL A   1      45.386  35.645  30.830  1.00  0.00     0.002 A 
ATOM     92  C   UNL A   1      44.777  36.206  28.550  1.00  0.00     0.091 A 
ATOM     93  F   UNL A   1      43.775  34.537  27.169  1.00  0.00    -0.205 F 
ATOM     94  C   UNL A   1      45.302  36.577  29.798  1.00  0.00     0.022 A 
BRANCH  92  95
ATOM     95  S   UNL A   1      44.792  37.449  27.251  1.00  0.00     0.127 S 
ATOM     96  O   UNL A   1      45.713  36.856  26.282  1.00  0.00    -0.237 OA
ATOM     97  O   UNL A   1      43.392  37.472  26.827  1.00  0.00    -0.237 OA
ATOM     98  O   UNL A   1      45.252  38.679  27.880  1.00  0.00    -0.744 OA
ENDBRANCH  92  95
ENDBRANCH  65  88
ENDBRANCH  39  40
ENDBRANCH  31  34
ENDBRANCH  29  30
ENDBRANCH  28  29
ENDBRANCH  27  28
ENDBRANCH   1  27
TORSDOF 19
ENDMDL
