MODEL 1
REMARK VINA RESULT:     -11.6      0.000      0.000
REMARK SMILES O=C(CCC(=O)N1Cc2[nH]cnc2C[C@H]1C(=O)NCc1ccccc1)NCCCCCCNC(=O)c1ccc(-c2c3nc(c(-c4cccc(S(=O)(=O)[O-])c4F)c4ccc([nH]4)c(-c4cccc(S(=O)(=O)[O-])c4F)c4nc(c(-c5cccc(S(=O)(=O)[O-])c5F)c5ccc2[nH]5)C=C4)C=C3)cc1
REMARK SMILES IDX 28 1 27 2 26 3 1 4 2 5 3 7 4 8 5 9 6 10 7 11 8 12 15 13 9 14
REMARK SMILES IDX 14 15 10 16 13 17 11 18 12 20 16 21 17 22 18 23 19 25 20 26
REMARK SMILES IDX 21 27 25 28 22 29 24 30 23 31 29 32 30 33 31 34 32 35 33 36
REMARK SMILES IDX 34 37 35 39 36 40 37 41 98 42 38 43 97 44 39 45 40 46 41 47
REMARK SMILES IDX 91 48 42 49 96 50 90 51 92 52 43 53 95 54 89 55 88 56 44 58
REMARK SMILES IDX 76 59 56 60 75 61 57 62 60 63 74 64 93 65 58 66 59 67 73 69
REMARK SMILES IDX 94 70 61 71 45 72 46 73 54 74 47 75 49 76 55 77 48 78 50 79
REMARK SMILES IDX 51 80 52 81 53 82 77 83 78 84 86 85 79 86 81 87 87 88 80 89
REMARK SMILES IDX 82 90 83 91 84 92 85 93 62 94 63 95 71 96 64 97 66 98 72 99
REMARK SMILES IDX 65 100 67 101 68 102 69 103 70 104
REMARK H PARENT 26 6 10 19 18 24 33 38 92 57 60 68
REMARK Flexibility Score: inf
ROOT
ATOM      1  C   UNL A   1      32.220  31.208  26.753  1.00  0.00     0.021 C 
ENDROOT
BRANCH   1   2
ATOM      2  C   UNL A   1      31.463  30.313  25.742  1.00  0.00     0.116 C 
BRANCH   2   3
ATOM      3  N   UNL A   1      32.183  29.834  24.556  1.00  0.00    -0.356 N 
ATOM      4  O   UNL A   1      31.170  27.762  24.563  1.00  0.00    -0.275 OA
ATOM      5  C   UNL A   1      31.886  28.586  24.001  1.00  0.00     0.220 C 
ATOM      6  H   UNL A   1      32.880  30.397  24.149  1.00  0.00     0.163 HD
BRANCH   5   7
ATOM      7  C   UNL A   1      32.389  28.349  22.556  1.00  0.00     0.110 C 
BRANCH   7   8
ATOM      8  C   UNL A   1      33.553  27.314  22.471  1.00  0.00     0.110 C 
BRANCH   8   9
ATOM      9  C   UNL A   1      33.243  25.868  21.977  1.00  0.00     0.224 C 
ATOM     10  O   UNL A   1      33.259  25.619  20.767  1.00  0.00    -0.275 OA
BRANCH   9  11
ATOM     11  N   UNL A   1      33.004  24.858  22.905  1.00  0.00    -0.324 N 
ATOM     12  C   UNL A   1      31.644  24.289  23.122  1.00  0.00     0.176 C 
ATOM     13  C   UNL A   1      34.005  24.552  23.930  1.00  0.00     0.180 C 
ATOM     14  C   UNL A   1      31.385  24.204  24.595  1.00  0.00     0.058 A 
ATOM     15  C   UNL A   1      33.549  25.179  25.243  1.00  0.00     0.093 C 
ATOM     16  N   UNL A   1      30.378  23.582  25.284  1.00  0.00    -0.347 N 
ATOM     17  C   UNL A   1      32.237  24.639  25.579  1.00  0.00     0.066 A 
ATOM     18  C   UNL A   1      30.647  23.735  26.625  1.00  0.00     0.197 A 
ATOM     19  H   UNL A   1      29.606  23.113  24.893  1.00  0.00     0.167 HD
ATOM     20  N   UNL A   1      31.775  24.376  26.827  1.00  0.00    -0.242 NA
BRANCH  13  21
ATOM     21  C   UNL A   1      34.881  23.295  23.715  1.00  0.00     0.243 C 
ATOM     22  O   UNL A   1      35.848  23.368  22.941  1.00  0.00    -0.273 OA
ATOM     23  N   UNL A   1      34.685  22.064  24.218  1.00  0.00    -0.350 N 
ATOM     24  H   UNL A   1      35.504  21.520  24.276  1.00  0.00     0.163 HD
BRANCH  23  25
ATOM     25  C   UNL A   1      33.505  21.394  24.684  1.00  0.00     0.151 C 
BRANCH  25  26
ATOM     26  C   UNL A   1      33.608  19.904  24.468  1.00  0.00    -0.029 A 
ATOM     27  C   UNL A   1      32.485  19.177  24.052  1.00  0.00     0.005 A 
ATOM     28  C   UNL A   1      34.818  19.216  24.651  1.00  0.00     0.005 A 
ATOM     29  C   UNL A   1      32.578  17.805  23.809  1.00  0.00     0.000 A 
ATOM     30  C   UNL A   1      34.917  17.851  24.388  1.00  0.00     0.000 A 
ATOM     31  C   UNL A   1      33.797  17.146  23.963  1.00  0.00     0.000 A 
ENDBRANCH  25  26
ENDBRANCH  23  25
ENDBRANCH  13  21
ENDBRANCH   9  11
ENDBRANCH   8   9
ENDBRANCH   7   8
ENDBRANCH   5   7
ENDBRANCH   2   3
ENDBRANCH   1   2
BRANCH   1  32
ATOM     32  C   UNL A   1      33.533  30.757  27.448  1.00  0.00     0.002 C 
BRANCH  32  33
ATOM     33  C   UNL A   1      34.629  31.814  27.699  1.00  0.00     0.002 C 
BRANCH  33  34
ATOM     34  C   UNL A   1      35.115  32.100  29.118  1.00  0.00     0.021 C 
BRANCH  34  35
ATOM     35  C   UNL A   1      36.226  33.138  29.234  1.00  0.00     0.116 C 
BRANCH  35  36
ATOM     36  N   UNL A   1      36.586  33.531  30.605  1.00  0.00    -0.352 N 
ATOM     37  C   UNL A   1      37.409  32.814  31.480  1.00  0.00     0.251 C 
ATOM     38  H   UNL A   1      36.213  34.379  30.938  1.00  0.00     0.163 HD
ATOM     39  O   UNL A   1      37.415  32.976  32.667  1.00  0.00    -0.269 OA
BRANCH  37  40
ATOM     40  C   UNL A   1      38.331  31.866  30.816  1.00  0.00     0.039 A 
ATOM     41  C   UNL A   1      39.588  32.269  30.365  1.00  0.00     0.014 A 
ATOM     42  C   UNL A   1      37.999  30.525  30.987  1.00  0.00     0.014 A 
ATOM     43  C   UNL A   1      40.577  31.297  30.216  1.00  0.00     0.010 A 
ATOM     44  C   UNL A   1      39.017  29.602  30.981  1.00  0.00     0.010 A 
ATOM     45  C   UNL A   1      40.308  29.968  30.589  1.00  0.00    -0.014 A 
BRANCH  45  46
ATOM     46  C   UNL A   1      41.404  29.004  30.746  1.00  0.00     0.031 A 
ATOM     47  C   UNL A   1      41.925  28.835  32.137  1.00  0.00     0.074 A 
ATOM     48  C   UNL A   1      41.777  28.131  29.783  1.00  0.00     0.049 A 
ATOM     49  N   UNL A   1      43.070  29.218  32.603  1.00  0.00    -0.248 NA
ATOM     50  C   UNL A   1      41.032  28.273  33.163  1.00  0.00     0.031 C 
ATOM     51  C   UNL A   1      41.127  27.898  28.485  1.00  0.00     0.029 A 
ATOM     52  N   UNL A   1      42.732  27.157  29.817  1.00  0.00    -0.354 N 
ATOM     53  C   UNL A   1      43.141  28.709  33.903  1.00  0.00     0.074 A 
ATOM     54  C   UNL A   1      41.798  28.337  34.257  1.00  0.00     0.031 C 
ATOM     55  C   UNL A   1      41.503  26.698  27.999  1.00  0.00     0.029 A 
ATOM     56  C   UNL A   1      42.589  26.201  28.818  1.00  0.00     0.049 A 
ATOM     57  H   UNL A   1      43.455  27.134  30.484  1.00  0.00     0.167 HD
ATOM     58  C   UNL A   1      44.341  28.369  34.458  1.00  0.00     0.034 A 
ATOM     59  C   UNL A   1      43.319  25.080  28.642  1.00  0.00     0.034 A 
ATOM     60  C   UNL A   1      45.429  28.813  33.625  1.00  0.00     0.049 A 
ATOM     61  C   UNL A   1      44.627  25.294  29.291  1.00  0.00     0.074 A 
ATOM     62  C   UNL A   1      46.098  29.983  33.351  1.00  0.00     0.029 A 
ATOM     63  N   UNL A   1      45.746  27.913  32.643  1.00  0.00    -0.354 N 
ATOM     64  N   UNL A   1      45.473  26.210  28.906  1.00  0.00    -0.248 NA
ATOM     65  C   UNL A   1      44.902  24.688  30.587  1.00  0.00     0.031 C 
ATOM     66  C   UNL A   1      46.694  29.805  32.065  1.00  0.00     0.029 A 
ATOM     67  C   UNL A   1      46.396  28.522  31.607  1.00  0.00     0.049 A 
ATOM     68  H   UNL A   1      45.533  26.953  32.678  1.00  0.00     0.167 HD
ATOM     69  C   UNL A   1      46.088  26.602  30.078  1.00  0.00     0.074 A 
ATOM     70  C   UNL A   1      45.855  25.516  31.020  1.00  0.00     0.031 C 
ATOM     71  C   UNL A   1      46.422  27.905  30.297  1.00  0.00     0.034 A 
BRANCH  58  72
ATOM     72  C   UNL A   1      44.610  27.258  35.467  1.00  0.00     0.023 A 
ATOM     73  C   UNL A   1      45.259  27.634  36.672  1.00  0.00     0.012 A 
ATOM     74  C   UNL A   1      44.546  25.876  35.195  1.00  0.00     0.148 A 
ATOM     75  C   UNL A   1      45.862  26.695  37.519  1.00  0.00     0.002 A 
ATOM     76  C   UNL A   1      45.087  24.939  36.075  1.00  0.00     0.091 A 
ATOM     77  F   UNL A   1      44.083  25.446  34.019  1.00  0.00    -0.205 F 
ATOM     78  C   UNL A   1      45.773  25.344  37.223  1.00  0.00     0.022 A 
BRANCH  76  79
ATOM     79  S   UNL A   1      44.968  23.172  35.766  1.00  0.00     0.127 S 
ATOM     80  O   UNL A   1      43.545  23.022  35.473  1.00  0.00    -0.237 OA
ATOM     81  O   UNL A   1      45.858  23.008  34.617  1.00  0.00    -0.237 OA
ATOM     82  O   UNL A   1      45.444  22.532  36.985  1.00  0.00    -0.744 OA
ENDBRANCH  76  79
ENDBRANCH  58  72
BRANCH  59  83
ATOM     83  C   UNL A   1      42.927  23.786  28.052  1.00  0.00     0.023 A 
ATOM     84  C   UNL A   1      41.623  23.296  28.242  1.00  0.00     0.012 A 
ATOM     85  C   UNL A   1      43.745  23.178  27.075  1.00  0.00     0.148 A 
ATOM     86  C   UNL A   1      41.126  22.260  27.444  1.00  0.00     0.002 A 
ATOM     87  C   UNL A   1      43.245  22.152  26.281  1.00  0.00     0.091 A 
ATOM     88  F   UNL A   1      44.977  23.667  26.873  1.00  0.00    -0.205 F 
ATOM     89  C   UNL A   1      41.930  21.700  26.453  1.00  0.00     0.022 A 
BRANCH  87  90
ATOM     90  S   UNL A   1      44.205  21.402  24.958  1.00  0.00     0.127 S 
ATOM     91  O   UNL A   1      45.549  21.376  25.538  1.00  0.00    -0.237 OA
ATOM     92  O   UNL A   1      43.568  20.094  24.831  1.00  0.00    -0.237 OA
ATOM     93  O   UNL A   1      44.064  22.290  23.811  1.00  0.00    -0.744 OA
ENDBRANCH  87  90
ENDBRANCH  59  83
BRANCH  71  94
ATOM     94  C   UNL A   1      46.626  28.795  29.109  1.00  0.00     0.023 A 
ATOM     95  C   UNL A   1      47.794  28.773  28.322  1.00  0.00     0.012 A 
ATOM     96  C   UNL A   1      45.550  29.603  28.710  1.00  0.00     0.148 A 
ATOM     97  C   UNL A   1      47.888  29.554  27.167  1.00  0.00     0.002 A 
ATOM     98  C   UNL A   1      45.628  30.343  27.540  1.00  0.00     0.091 A 
ATOM     99  F   UNL A   1      44.451  29.619  29.482  1.00  0.00    -0.205 F 
ATOM    100  C   UNL A   1      46.798  30.329  26.768  1.00  0.00     0.022 A 
BRANCH  98 101
ATOM    101  S   UNL A   1      44.215  31.260  26.923  1.00  0.00     0.127 S 
ATOM    102  O   UNL A   1      43.821  32.041  28.093  1.00  0.00    -0.237 OA
ATOM    103  O   UNL A   1      44.799  32.042  25.832  1.00  0.00    -0.237 OA
ATOM    104  O   UNL A   1      43.252  30.257  26.483  1.00  0.00    -0.744 OA
ENDBRANCH  98 101
ENDBRANCH  71  94
ENDBRANCH  45  46
ENDBRANCH  37  40
ENDBRANCH  35  36
ENDBRANCH  34  35
ENDBRANCH  33  34
ENDBRANCH  32  33
ENDBRANCH   1  32
TORSDOF 22
ENDMDL
MODEL 2
REMARK VINA RESULT:     -11.4      2.279      3.880
REMARK SMILES O=C(CCC(=O)N1Cc2[nH]cnc2C[C@H]1C(=O)NCc1ccccc1)NCCCCCCNC(=O)c1ccc(-c2c3nc(c(-c4cccc(S(=O)(=O)[O-])c4F)c4ccc([nH]4)c(-c4cccc(S(=O)(=O)[O-])c4F)c4nc(c(-c5cccc(S(=O)(=O)[O-])c5F)c5ccc2[nH]5)C=C4)C=C3)cc1
REMARK SMILES IDX 28 1 27 2 26 3 1 4 2 5 3 7 4 8 5 9 6 10 7 11 8 12 15 13 9 14
REMARK SMILES IDX 14 15 10 16 13 17 11 18 12 20 16 21 17 22 18 23 19 25 20 26
REMARK SMILES IDX 21 27 25 28 22 29 24 30 23 31 29 32 30 33 31 34 32 35 33 36
REMARK SMILES IDX 34 37 35 39 36 40 37 41 98 42 38 43 97 44 39 45 40 46 41 47
REMARK SMILES IDX 91 48 42 49 96 50 90 51 92 52 43 53 95 54 89 55 88 56 44 58
REMARK SMILES IDX 76 59 56 60 75 61 57 62 60 63 74 64 93 65 58 66 59 67 73 69
REMARK SMILES IDX 94 70 61 71 45 72 46 73 54 74 47 75 49 76 55 77 48 78 50 79
REMARK SMILES IDX 51 80 52 81 53 82 77 83 78 84 86 85 79 86 81 87 87 88 80 89
REMARK SMILES IDX 82 90 83 91 84 92 85 93 62 94 63 95 71 96 64 97 66 98 72 99
REMARK SMILES IDX 65 100 67 101 68 102 69 103 70 104
REMARK H PARENT 26 6 10 19 18 24 33 38 92 57 60 68
REMARK Flexibility Score: inf
ROOT
ATOM      1  C   UNL A   1      35.089  29.793  27.510  1.00  0.00     0.021 C 
ENDROOT
BRANCH   1   2
ATOM      2  C   UNL A   1      33.727  29.139  27.169  1.00  0.00     0.116 C 
BRANCH   2   3
ATOM      3  N   UNL A   1      33.725  27.781  26.612  1.00  0.00    -0.356 N 
ATOM      4  O   UNL A   1      33.448  28.485  24.434  1.00  0.00    -0.275 OA
ATOM      5  C   UNL A   1      33.678  27.579  25.230  1.00  0.00     0.220 C 
ATOM      6  H   UNL A   1      33.756  27.006  27.218  1.00  0.00     0.163 HD
BRANCH   5   7
ATOM      7  C   UNL A   1      34.084  26.170  24.735  1.00  0.00     0.110 C 
BRANCH   7   8
ATOM      8  C   UNL A   1      33.937  25.067  25.828  1.00  0.00     0.110 C 
BRANCH   8   9
ATOM      9  C   UNL A   1      32.613  24.245  25.898  1.00  0.00     0.224 C 
ATOM     10  O   UNL A   1      31.654  24.684  26.539  1.00  0.00    -0.275 OA
BRANCH   9  11
ATOM     11  N   UNL A   1      32.506  23.049  25.191  1.00  0.00    -0.324 N 
ATOM     12  C   UNL A   1      31.888  21.832  25.787  1.00  0.00     0.176 C 
ATOM     13  C   UNL A   1      33.288  22.847  23.969  1.00  0.00     0.180 C 
ATOM     14  C   UNL A   1      32.768  20.654  25.500  1.00  0.00     0.058 A 
ATOM     15  C   UNL A   1      34.480  21.959  24.308  1.00  0.00     0.093 C 
ATOM     16  N   UNL A   1      32.539  19.314  25.667  1.00  0.00    -0.347 N 
ATOM     17  C   UNL A   1      33.977  20.702  24.851  1.00  0.00     0.066 A 
ATOM     18  C   UNL A   1      33.638  18.648  25.174  1.00  0.00     0.197 A 
ATOM     19  H   UNL A   1      31.737  18.904  26.065  1.00  0.00     0.167 HD
ATOM     20  N   UNL A   1      34.525  19.475  24.671  1.00  0.00    -0.242 NA
BRANCH  13  21
ATOM     21  C   UNL A   1      32.546  22.993  22.619  1.00  0.00     0.243 C 
ATOM     22  O   UNL A   1      32.465  22.004  21.874  1.00  0.00    -0.273 OA
ATOM     23  N   UNL A   1      32.018  24.111  22.090  1.00  0.00    -0.350 N 
ATOM     24  H   UNL A   1      31.298  23.944  21.440  1.00  0.00     0.163 HD
BRANCH  23  25
ATOM     25  C   UNL A   1      32.310  25.500  22.297  1.00  0.00     0.151 C 
BRANCH  25  26
ATOM     26  C   UNL A   1      31.070  26.257  22.705  1.00  0.00    -0.029 A 
ATOM     27  C   UNL A   1      30.139  25.662  23.568  1.00  0.00     0.005 A 
ATOM     28  C   UNL A   1      30.826  27.566  22.261  1.00  0.00     0.005 A 
ATOM     29  C   UNL A   1      29.008  26.366  23.986  1.00  0.00     0.000 A 
ATOM     30  C   UNL A   1      29.708  28.277  22.695  1.00  0.00     0.000 A 
ATOM     31  C   UNL A   1      28.801  27.678  23.561  1.00  0.00     0.000 A 
ENDBRANCH  25  26
ENDBRANCH  23  25
ENDBRANCH  13  21
ENDBRANCH   9  11
ENDBRANCH   8   9
ENDBRANCH   7   8
ENDBRANCH   5   7
ENDBRANCH   2   3
ENDBRANCH   1   2
BRANCH   1  32
ATOM     32  C   UNL A   1      35.239  31.312  27.791  1.00  0.00     0.002 C 
BRANCH  32  33
ATOM     33  C   UNL A   1      33.961  32.176  27.854  1.00  0.00     0.002 C 
BRANCH  33  34
ATOM     34  C   UNL A   1      33.833  33.289  28.891  1.00  0.00     0.021 C 
BRANCH  34  35
ATOM     35  C   UNL A   1      35.135  33.716  29.559  1.00  0.00     0.116 C 
BRANCH  35  36
ATOM     36  N   UNL A   1      35.235  33.427  30.997  1.00  0.00    -0.352 N 
ATOM     37  C   UNL A   1      35.862  32.316  31.574  1.00  0.00     0.251 C 
ATOM     38  H   UNL A   1      34.823  34.075  31.613  1.00  0.00     0.163 HD
ATOM     39  O   UNL A   1      35.644  31.937  32.690  1.00  0.00    -0.269 OA
BRANCH  37  40
ATOM     40  C   UNL A   1      36.873  31.667  30.711  1.00  0.00     0.039 A 
ATOM     41  C   UNL A   1      37.992  32.363  30.251  1.00  0.00     0.014 A 
ATOM     42  C   UNL A   1      36.803  30.277  30.688  1.00  0.00     0.014 A 
ATOM     43  C   UNL A   1      39.120  31.629  29.888  1.00  0.00     0.010 A 
ATOM     44  C   UNL A   1      37.965  29.575  30.470  1.00  0.00     0.010 A 
ATOM     45  C   UNL A   1      39.128  30.233  30.061  1.00  0.00    -0.014 A 
BRANCH  45  46
ATOM     46  C   UNL A   1      40.388  29.483  29.993  1.00  0.00     0.031 A 
ATOM     47  C   UNL A   1      41.045  29.199  31.306  1.00  0.00     0.074 A 
ATOM     48  C   UNL A   1      40.829  28.859  28.878  1.00  0.00     0.049 A 
ATOM     49  N   UNL A   1      42.138  29.715  31.769  1.00  0.00    -0.248 NA
ATOM     50  C   UNL A   1      40.356  28.323  32.267  1.00  0.00     0.031 C 
ATOM     51  C   UNL A   1      40.125  28.714  27.595  1.00  0.00     0.029 A 
ATOM     52  N   UNL A   1      41.942  28.092  28.694  1.00  0.00    -0.354 N 
ATOM     53  C   UNL A   1      42.408  29.031  32.958  1.00  0.00     0.074 A 
ATOM     54  C   UNL A   1      41.188  28.359  33.314  1.00  0.00     0.031 C 
ATOM     55  C   UNL A   1      40.668  27.699  26.893  1.00  0.00     0.029 A 
ATOM     56  C   UNL A   1      41.890  27.296  27.557  1.00  0.00     0.049 A 
ATOM     57  H   UNL A   1      42.712  28.102  29.309  1.00  0.00     0.167 HD
ATOM     58  C   UNL A   1      43.692  28.842  33.382  1.00  0.00     0.034 A 
ATOM     59  C   UNL A   1      42.791  26.376  27.154  1.00  0.00     0.034 A 
ATOM     60  C   UNL A   1      44.609  29.611  32.580  1.00  0.00     0.049 A 
ATOM     61  C   UNL A   1      44.089  26.730  27.760  1.00  0.00     0.074 A 
ATOM     62  C   UNL A   1      45.032  30.914  32.474  1.00  0.00     0.029 A 
ATOM     63  N   UNL A   1      44.998  28.953  31.445  1.00  0.00    -0.354 N 
ATOM     64  N   UNL A   1      44.722  27.839  27.492  1.00  0.00    -0.248 NA
ATOM     65  C   UNL A   1      44.576  25.991  28.918  1.00  0.00     0.031 C 
ATOM     66  C   UNL A   1      45.541  31.058  31.148  1.00  0.00     0.029 A 
ATOM     67  C   UNL A   1      45.440  29.830  30.495  1.00  0.00     0.049 A 
ATOM     68  H   UNL A   1      44.965  27.977  31.327  1.00  0.00     0.167 HD
ATOM     69  C   UNL A   1      45.353  28.151  28.679  1.00  0.00     0.074 A 
ATOM     70  C   UNL A   1      45.398  26.907  29.434  1.00  0.00     0.031 C 
ATOM     71  C   UNL A   1      45.466  29.443  29.099  1.00  0.00     0.034 A 
BRANCH  58  72
ATOM     72  C   UNL A   1      44.238  27.658  34.172  1.00  0.00     0.023 A 
ATOM     73  C   UNL A   1      44.680  26.538  33.420  1.00  0.00     0.012 A 
ATOM     74  C   UNL A   1      44.070  27.455  35.558  1.00  0.00     0.148 A 
ATOM     75  C   UNL A   1      44.880  25.280  34.003  1.00  0.00     0.002 A 
ATOM     76  C   UNL A   1      44.337  26.219  36.146  1.00  0.00     0.091 A 
ATOM     77  F   UNL A   1      43.522  28.410  36.313  1.00  0.00    -0.205 F 
ATOM     78  C   UNL A   1      44.712  25.120  35.369  1.00  0.00     0.022 A 
BRANCH  76  79
ATOM     79  S   UNL A   1      44.176  25.961  37.918  1.00  0.00     0.127 S 
ATOM     80  O   UNL A   1      44.621  24.577  38.053  1.00  0.00    -0.237 OA
ATOM     81  O   UNL A   1      45.099  26.964  38.451  1.00  0.00    -0.237 OA
ATOM     82  O   UNL A   1      42.775  26.219  38.222  1.00  0.00    -0.744 OA
ENDBRANCH  76  79
ENDBRANCH  58  72
BRANCH  59  83
ATOM     83  C   UNL A   1      42.589  25.140  26.374  1.00  0.00     0.023 A 
ATOM     84  C   UNL A   1      43.492  24.801  25.351  1.00  0.00     0.012 A 
ATOM     85  C   UNL A   1      41.674  24.162  26.823  1.00  0.00     0.148 A 
ATOM     86  C   UNL A   1      43.521  23.507  24.824  1.00  0.00     0.002 A 
ATOM     87  C   UNL A   1      41.710  22.875  26.298  1.00  0.00     0.091 A 
ATOM     88  F   UNL A   1      40.835  24.477  27.819  1.00  0.00    -0.205 F 
ATOM     89  C   UNL A   1      42.643  22.540  25.308  1.00  0.00     0.022 A 
BRANCH  87  90
ATOM     90  S   UNL A   1      40.636  21.561  26.894  1.00  0.00     0.127 S 
ATOM     91  O   UNL A   1      39.312  22.063  26.522  1.00  0.00    -0.237 OA
ATOM     92  O   UNL A   1      41.100  20.418  26.114  1.00  0.00    -0.237 OA
ATOM     93  O   UNL A   1      40.864  21.482  28.332  1.00  0.00    -0.744 OA
ENDBRANCH  87  90
ENDBRANCH  59  83
BRANCH  71  94
ATOM     94  C   UNL A   1      45.408  30.532  28.071  1.00  0.00     0.023 A 
ATOM     95  C   UNL A   1      44.204  30.977  27.489  1.00  0.00     0.012 A 
ATOM     96  C   UNL A   1      46.602  31.205  27.768  1.00  0.00     0.148 A 
ATOM     97  C   UNL A   1      44.200  32.064  26.610  1.00  0.00     0.002 A 
ATOM     98  C   UNL A   1      46.588  32.311  26.932  1.00  0.00     0.091 A 
ATOM     99  F   UNL A   1      47.739  30.756  28.324  1.00  0.00    -0.205 F 
ATOM    100  C   UNL A   1      45.390  32.740  26.342  1.00  0.00     0.022 A 
BRANCH  98 101
ATOM    101  S   UNL A   1      48.069  33.284  26.652  1.00  0.00     0.127 S 
ATOM    102  O   UNL A   1      49.049  32.257  26.304  1.00  0.00    -0.237 OA
ATOM    103  O   UNL A   1      47.670  34.151  25.542  1.00  0.00    -0.237 OA
ATOM    104  O   UNL A   1      48.318  33.996  27.899  1.00  0.00    -0.744 OA
ENDBRANCH  98 101
ENDBRANCH  71  94
ENDBRANCH  45  46
ENDBRANCH  37  40
ENDBRANCH  35  36
ENDBRANCH  34  35
ENDBRANCH  33  34
ENDBRANCH  32  33
ENDBRANCH   1  32
TORSDOF 22
ENDMDL
MODEL 3
REMARK VINA RESULT:     -11.1      2.044      2.793
REMARK SMILES O=C(CCC(=O)N1Cc2[nH]cnc2C[C@H]1C(=O)NCc1ccccc1)NCCCCCCNC(=O)c1ccc(-c2c3nc(c(-c4cccc(S(=O)(=O)[O-])c4F)c4ccc([nH]4)c(-c4cccc(S(=O)(=O)[O-])c4F)c4nc(c(-c5cccc(S(=O)(=O)[O-])c5F)c5ccc2[nH]5)C=C4)C=C3)cc1
REMARK SMILES IDX 28 1 27 2 26 3 1 4 2 5 3 7 4 8 5 9 6 10 7 11 8 12 15 13 9 14
REMARK SMILES IDX 14 15 10 16 13 17 11 18 12 20 16 21 17 22 18 23 19 25 20 26
REMARK SMILES IDX 21 27 25 28 22 29 24 30 23 31 29 32 30 33 31 34 32 35 33 36
REMARK SMILES IDX 34 37 35 39 36 40 37 41 98 42 38 43 97 44 39 45 40 46 41 47
REMARK SMILES IDX 91 48 42 49 96 50 90 51 92 52 43 53 95 54 89 55 88 56 44 58
REMARK SMILES IDX 76 59 56 60 75 61 57 62 60 63 74 64 93 65 58 66 59 67 73 69
REMARK SMILES IDX 94 70 61 71 45 72 46 73 54 74 47 75 49 76 55 77 48 78 50 79
REMARK SMILES IDX 51 80 52 81 53 82 77 83 78 84 86 85 79 86 81 87 87 88 80 89
REMARK SMILES IDX 82 90 83 91 84 92 85 93 62 94 63 95 71 96 64 97 66 98 72 99
REMARK SMILES IDX 65 100 67 101 68 102 69 103 70 104
REMARK H PARENT 26 6 10 19 18 24 33 38 92 57 60 68
REMARK Flexibility Score: inf
ROOT
ATOM      1  C   UNL A   1      35.206  30.276  27.853  1.00  0.00     0.021 C 
ENDROOT
BRANCH   1   2
ATOM      2  C   UNL A   1      34.756  28.996  27.107  1.00  0.00     0.116 C 
BRANCH   2   3
ATOM      3  N   UNL A   1      33.855  29.139  25.956  1.00  0.00    -0.356 N 
ATOM      4  O   UNL A   1      31.954  28.631  27.160  1.00  0.00    -0.275 OA
ATOM      5  C   UNL A   1      32.471  29.030  26.120  1.00  0.00     0.220 C 
ATOM      6  H   UNL A   1      34.230  29.312  25.063  1.00  0.00     0.163 HD
BRANCH   5   7
ATOM      7  C   UNL A   1      31.605  29.587  24.964  1.00  0.00     0.110 C 
BRANCH   7   8
ATOM      8  C   UNL A   1      32.008  29.023  23.566  1.00  0.00     0.110 C 
BRANCH   8   9
ATOM      9  C   UNL A   1      31.092  27.958  22.890  1.00  0.00     0.224 C 
ATOM     10  O   UNL A   1      30.256  28.313  22.053  1.00  0.00    -0.275 OA
BRANCH   9  11
ATOM     11  N   UNL A   1      31.261  26.609  23.195  1.00  0.00    -0.324 N 
ATOM     12  C   UNL A   1      30.199  25.813  23.871  1.00  0.00     0.176 C 
ATOM     13  C   UNL A   1      32.599  26.013  23.166  1.00  0.00     0.180 C 
ATOM     14  C   UNL A   1      30.822  25.017  24.977  1.00  0.00     0.058 A 
ATOM     15  C   UNL A   1      33.094  25.885  24.603  1.00  0.00     0.093 C 
ATOM     16  N   UNL A   1      30.304  24.007  25.743  1.00  0.00    -0.347 N 
ATOM     17  C   UNL A   1      32.143  25.065  25.345  1.00  0.00     0.066 A 
ATOM     18  C   UNL A   1      31.316  23.558  26.563  1.00  0.00     0.197 A 
ATOM     19  H   UNL A   1      29.381  23.665  25.714  1.00  0.00     0.167 HD
ATOM     20  N   UNL A   1      32.444  24.188  26.336  1.00  0.00    -0.242 NA
BRANCH  13  21
ATOM     21  C   UNL A   1      32.962  25.143  21.940  1.00  0.00     0.243 C 
ATOM     22  O   UNL A   1      33.279  25.707  20.881  1.00  0.00    -0.273 OA
ATOM     23  N   UNL A   1      32.909  23.803  21.841  1.00  0.00    -0.350 N 
ATOM     24  H   UNL A   1      33.504  23.428  21.152  1.00  0.00     0.163 HD
BRANCH  23  25
ATOM     25  C   UNL A   1      32.147  22.817  22.553  1.00  0.00     0.151 C 
BRANCH  25  26
ATOM     26  C   UNL A   1      33.026  22.035  23.498  1.00  0.00    -0.029 A 
ATOM     27  C   UNL A   1      32.561  20.837  24.059  1.00  0.00     0.005 A 
ATOM     28  C   UNL A   1      34.324  22.463  23.821  1.00  0.00     0.005 A 
ATOM     29  C   UNL A   1      33.379  20.084  24.902  1.00  0.00     0.000 A 
ATOM     30  C   UNL A   1      35.149  21.700  24.646  1.00  0.00     0.000 A 
ATOM     31  C   UNL A   1      34.677  20.507  25.183  1.00  0.00     0.000 A 
ENDBRANCH  25  26
ENDBRANCH  23  25
ENDBRANCH  13  21
ENDBRANCH   9  11
ENDBRANCH   8   9
ENDBRANCH   7   8
ENDBRANCH   5   7
ENDBRANCH   2   3
ENDBRANCH   1   2
BRANCH   1  32
ATOM     32  C   UNL A   1      36.246  30.250  29.005  1.00  0.00     0.002 C 
BRANCH  32  33
ATOM     33  C   UNL A   1      37.542  31.071  28.842  1.00  0.00     0.002 C 
BRANCH  33  34
ATOM     34  C   UNL A   1      37.588  32.534  29.277  1.00  0.00     0.021 C 
BRANCH  34  35
ATOM     35  C   UNL A   1      38.125  32.784  30.682  1.00  0.00     0.116 C 
BRANCH  35  36
ATOM     36  N   UNL A   1      37.112  33.080  31.705  1.00  0.00    -0.352 N 
ATOM     37  C   UNL A   1      36.656  32.201  32.694  1.00  0.00     0.251 C 
ATOM     38  H   UNL A   1      36.718  33.982  31.694  1.00  0.00     0.163 HD
ATOM     39  O   UNL A   1      35.621  32.345  33.282  1.00  0.00    -0.269 OA
BRANCH  37  40
ATOM     40  C   UNL A   1      37.586  31.094  33.006  1.00  0.00     0.039 A 
ATOM     41  C   UNL A   1      37.387  29.811  32.495  1.00  0.00     0.014 A 
ATOM     42  C   UNL A   1      38.807  31.500  33.537  1.00  0.00     0.014 A 
ATOM     43  C   UNL A   1      38.490  28.965  32.392  1.00  0.00     0.010 A 
ATOM     44  C   UNL A   1      39.909  30.715  33.295  1.00  0.00     0.010 A 
ATOM     45  C   UNL A   1      39.768  29.444  32.733  1.00  0.00    -0.014 A 
BRANCH  45  46
ATOM     46  C   UNL A   1      40.970  28.698  32.339  1.00  0.00     0.031 A 
ATOM     47  C   UNL A   1      41.650  27.939  33.433  1.00  0.00     0.074 A 
ATOM     48  C   UNL A   1      41.328  28.480  31.054  1.00  0.00     0.049 A 
ATOM     49  N   UNL A   1      42.792  28.201  33.984  1.00  0.00    -0.248 NA
ATOM     50  C   UNL A   1      40.935  26.821  34.069  1.00  0.00     0.031 C 
ATOM     51  C   UNL A   1      40.572  28.830  29.842  1.00  0.00     0.029 A 
ATOM     52  N   UNL A   1      42.378  27.767  30.554  1.00  0.00    -0.354 N 
ATOM     53  C   UNL A   1      43.053  27.132  34.845  1.00  0.00     0.074 A 
ATOM     54  C   UNL A   1      41.802  26.445  35.015  1.00  0.00     0.031 C 
ATOM     55  C   UNL A   1      41.019  28.096  28.803  1.00  0.00     0.029 A 
ATOM     56  C   UNL A   1      42.232  27.422  29.216  1.00  0.00     0.049 A 
ATOM     57  H   UNL A   1      43.167  27.521  31.090  1.00  0.00     0.167 HD
ATOM     58  C   UNL A   1      44.335  26.739  35.105  1.00  0.00     0.034 A 
ATOM     59  C   UNL A   1      43.052  26.653  28.470  1.00  0.00     0.034 A 
ATOM     60  C   UNL A   1      45.275  27.689  34.569  1.00  0.00     0.049 A 
ATOM     61  C   UNL A   1      44.392  26.703  29.086  1.00  0.00     0.074 A 
ATOM     62  C   UNL A   1      45.784  28.923  34.897  1.00  0.00     0.029 A 
ATOM     63  N   UNL A   1      45.579  27.449  33.256  1.00  0.00    -0.354 N 
ATOM     64  N   UNL A   1      45.091  27.801  29.184  1.00  0.00    -0.248 NA
ATOM     65  C   UNL A   1      44.865  25.582  29.888  1.00  0.00     0.031 C 
ATOM     66  C   UNL A   1      46.256  29.492  33.676  1.00  0.00     0.029 A 
ATOM     67  C   UNL A   1      46.048  28.577  32.645  1.00  0.00     0.049 A 
ATOM     68  H   UNL A   1      45.473  26.579  32.810  1.00  0.00     0.167 HD
ATOM     69  C   UNL A   1      45.782  27.645  30.369  1.00  0.00     0.074 A 
ATOM     70  C   UNL A   1      45.766  26.215  30.642  1.00  0.00     0.031 C 
ATOM     71  C   UNL A   1      45.999  28.701  31.202  1.00  0.00     0.034 A 
BRANCH  58  72
ATOM     72  C   UNL A   1      44.823  25.326  35.405  1.00  0.00     0.023 A 
ATOM     73  C   UNL A   1      44.521  24.329  34.441  1.00  0.00     0.012 A 
ATOM     74  C   UNL A   1      45.274  24.868  36.661  1.00  0.00     0.148 A 
ATOM     75  C   UNL A   1      44.602  22.961  34.732  1.00  0.00     0.002 A 
ATOM     76  C   UNL A   1      45.419  23.506  36.924  1.00  0.00     0.091 A 
ATOM     77  F   UNL A   1      45.441  25.729  37.667  1.00  0.00    -0.205 F 
ATOM     78  C   UNL A   1      45.056  22.548  35.975  1.00  0.00     0.022 A 
BRANCH  76  79
ATOM     79  S   UNL A   1      46.041  22.910  38.502  1.00  0.00     0.127 S 
ATOM     80  O   UNL A   1      45.063  23.469  39.431  1.00  0.00    -0.237 OA
ATOM     81  O   UNL A   1      45.970  21.460  38.324  1.00  0.00    -0.237 OA
ATOM     82  O   UNL A   1      47.398  23.432  38.606  1.00  0.00    -0.744 OA
ENDBRANCH  76  79
ENDBRANCH  58  72
BRANCH  59  83
ATOM     83  C   UNL A   1      42.738  25.780  27.323  1.00  0.00     0.023 A 
ATOM     84  C   UNL A   1      43.391  25.976  26.093  1.00  0.00     0.012 A 
ATOM     85  C   UNL A   1      42.008  24.587  27.521  1.00  0.00     0.148 A 
ATOM     86  C   UNL A   1      43.363  24.988  25.105  1.00  0.00     0.002 A 
ATOM     87  C   UNL A   1      41.988  23.606  26.537  1.00  0.00     0.091 A 
ATOM     88  F   UNL A   1      41.412  24.388  28.705  1.00  0.00    -0.205 F 
ATOM     89  C   UNL A   1      42.677  23.797  25.332  1.00  0.00     0.022 A 
BRANCH  87  90
ATOM     90  S   UNL A   1      41.157  22.028  26.767  1.00  0.00     0.127 S 
ATOM     91  O   UNL A   1      41.869  21.172  25.817  1.00  0.00    -0.237 OA
ATOM     92  O   UNL A   1      41.434  21.745  28.172  1.00  0.00    -0.237 OA
ATOM     93  O   UNL A   1      39.758  22.261  26.431  1.00  0.00    -0.744 OA
ENDBRANCH  87  90
ENDBRANCH  59  83
BRANCH  71  94
ATOM     94  C   UNL A   1      45.982  30.082  30.620  1.00  0.00     0.023 A 
ATOM     95  C   UNL A   1      46.999  30.575  29.779  1.00  0.00     0.012 A 
ATOM     96  C   UNL A   1      44.838  30.866  30.840  1.00  0.00     0.148 A 
ATOM     97  C   UNL A   1      46.880  31.834  29.184  1.00  0.00     0.002 A 
ATOM     98  C   UNL A   1      44.703  32.095  30.213  1.00  0.00     0.091 A 
ATOM     99  F   UNL A   1      43.888  30.381  31.655  1.00  0.00    -0.205 F 
ATOM    100  C   UNL A   1      45.725  32.589  29.390  1.00  0.00     0.022 A 
BRANCH  98 101
ATOM    101  S   UNL A   1      43.188  33.047  30.350  1.00  0.00     0.127 S 
ATOM    102  O   UNL A   1      43.529  34.271  29.627  1.00  0.00    -0.237 OA
ATOM    103  O   UNL A   1      42.214  32.187  29.675  1.00  0.00    -0.237 OA
ATOM    104  O   UNL A   1      42.947  33.206  31.779  1.00  0.00    -0.744 OA
ENDBRANCH  98 101
ENDBRANCH  71  94
ENDBRANCH  45  46
ENDBRANCH  37  40
ENDBRANCH  35  36
ENDBRANCH  34  35
ENDBRANCH  33  34
ENDBRANCH  32  33
ENDBRANCH   1  32
TORSDOF 22
ENDMDL
