MODEL 1
REMARK VINA RESULT:     -12.0      0.000      0.000
REMARK SMILES Cc1c(/C=C/C(=O)NCCCCCCNC(=O)c2ccc(-c3c4nc(c(-c5cccc(S(=O)(=O)[O-])c5F)c5ccc([nH]5)c(-c5cccc(S(=O)(=O)[O-])c5F)c5nc(c(-c6cccc(S(=O)(=O)[O-])c6F)c6ccc3[nH]6)C=C5)C=C4)cc2)cccc1C(=O)N1C[C@@H](C)[C@@H](C)C1
REMARK SMILES IDX 11 1 10 2 9 3 8 4 6 5 7 6 5 8 4 9 3 10 1 11 2 12 84 13 81 14
REMARK SMILES IDX 83 15 82 16 85 17 86 18 87 19 88 20 93 21 89 22 91 23 90 24
REMARK SMILES IDX 92 25 12 26 13 27 14 28 15 29 16 30 17 32 18 33 19 34 80 35
REMARK SMILES IDX 20 36 79 37 21 38 22 39 23 40 73 41 24 42 78 43 72 44 74 45
REMARK SMILES IDX 25 46 77 47 71 48 70 49 26 51 58 52 38 53 57 54 39 55 42 56
REMARK SMILES IDX 56 57 75 58 40 59 41 60 55 62 76 63 43 64 27 65 28 66 36 67
REMARK SMILES IDX 29 68 31 69 37 70 30 71 32 72 33 73 34 74 35 75 59 76 60 77
REMARK SMILES IDX 68 78 61 79 63 80 69 81 62 82 64 83 65 84 66 85 67 86 44 87
REMARK SMILES IDX 45 88 53 89 46 90 48 91 54 92 47 93 49 94 50 95 51 96 52 97
REMARK H PARENT 8 7 15 31 74 50 42 61
REMARK Flexibility Score: inf
ROOT
ATOM      1  C   UNL A   1      40.860  20.132  26.034  1.00  0.00     0.002 C 
ENDROOT
BRANCH   1   2
ATOM      2  C   UNL A   1      39.513  19.451  25.755  1.00  0.00     0.021 C 
BRANCH   2   3
ATOM      3  C   UNL A   1      38.388  20.416  25.385  1.00  0.00     0.116 C 
BRANCH   3   4
ATOM      4  N   UNL A   1      38.787  21.801  25.564  1.00  0.00    -0.353 N 
ATOM      5  C   UNL A   1      38.013  22.912  25.716  1.00  0.00     0.243 C 
ATOM      6  O   UNL A   1      38.514  23.988  26.025  1.00  0.00    -0.270 OA
ATOM      7  H   UNL A   1      39.758  21.960  25.576  1.00  0.00     0.163 HD
BRANCH   5   8
ATOM      8  C   UNL A   1      36.544  22.784  25.611  1.00  0.00     0.072 C 
ATOM      9  C   UNL A   1      35.710  23.509  26.371  1.00  0.00     0.014 C 
BRANCH   9  10
ATOM     10  C   UNL A   1      34.241  23.470  26.228  1.00  0.00    -0.022 A 
ATOM     11  C   UNL A   1      34.386  24.717  24.027  1.00  0.00     0.046 C 
ATOM     12  C   UNL A   1      33.573  24.042  25.105  1.00  0.00    -0.031 A 
ATOM     13  C   UNL A   1      32.158  23.946  25.035  1.00  0.00     0.043 A 
ATOM     14  C   UNL A   1      33.497  22.895  27.273  1.00  0.00     0.008 A 
ATOM     15  C   UNL A   1      31.454  23.339  26.096  1.00  0.00     0.014 A 
ATOM     16  C   UNL A   1      32.113  22.826  27.208  1.00  0.00     0.001 A 
BRANCH  13  17
ATOM     17  C   UNL A   1      31.276  24.629  24.030  1.00  0.00     0.254 C 
ATOM     18  O   UNL A   1      30.552  23.922  23.326  1.00  0.00    -0.269 OA
BRANCH  17  19
ATOM     19  N   UNL A   1      31.223  26.007  23.953  1.00  0.00    -0.338 N 
ATOM     20  C   UNL A   1      31.774  26.800  25.039  1.00  0.00     0.123 C 
ATOM     21  C   UNL A   1      30.238  26.759  23.192  1.00  0.00     0.123 C 
ATOM     22  C   UNL A   1      30.938  28.073  25.084  1.00  0.00     0.010 C 
ATOM     23  C   UNL A   1      30.408  28.220  23.641  1.00  0.00     0.010 C 
ATOM     24  C   UNL A   1      31.731  29.245  25.646  1.00  0.00     0.010 C 
ATOM     25  C   UNL A   1      31.319  29.001  22.697  1.00  0.00     0.010 C 
ENDBRANCH  17  19
ENDBRANCH  13  17
ENDBRANCH   9  10
ENDBRANCH   5   8
ENDBRANCH   3   4
ENDBRANCH   2   3
ENDBRANCH   1   2
BRANCH   1  26
ATOM     26  C   UNL A   1      41.812  19.383  26.981  1.00  0.00     0.002 C 
BRANCH  26  27
ATOM     27  C   UNL A   1      42.847  18.476  26.313  1.00  0.00     0.021 C 
BRANCH  27  28
ATOM     28  C   UNL A   1      43.507  19.082  25.083  1.00  0.00     0.116 C 
BRANCH  28  29
ATOM     29  N   UNL A   1      44.840  19.583  25.368  1.00  0.00    -0.352 N 
ATOM     30  C   UNL A   1      45.334  20.869  25.294  1.00  0.00     0.251 C 
ATOM     31  H   UNL A   1      45.490  18.903  25.657  1.00  0.00     0.163 HD
ATOM     32  O   UNL A   1      46.552  21.036  25.241  1.00  0.00    -0.269 OA
BRANCH  30  33
ATOM     33  C   UNL A   1      44.414  22.016  25.477  1.00  0.00     0.039 A 
ATOM     34  C   UNL A   1      44.535  23.059  24.546  1.00  0.00     0.014 A 
ATOM     35  C   UNL A   1      43.725  22.216  26.668  1.00  0.00     0.014 A 
ATOM     36  C   UNL A   1      44.243  24.362  24.930  1.00  0.00     0.010 A 
ATOM     37  C   UNL A   1      43.499  23.509  27.080  1.00  0.00     0.010 A 
ATOM     38  C   UNL A   1      43.852  24.577  26.244  1.00  0.00    -0.014 A 
BRANCH  38  39
ATOM     39  C   UNL A   1      43.839  25.870  26.898  1.00  0.00     0.031 A 
ATOM     40  C   UNL A   1      42.613  26.679  26.893  1.00  0.00     0.074 A 
ATOM     41  C   UNL A   1      44.856  26.133  27.748  1.00  0.00     0.049 A 
ATOM     42  N   UNL A   1      42.532  27.871  27.370  1.00  0.00    -0.248 NA
ATOM     43  C   UNL A   1      41.373  26.208  26.283  1.00  0.00     0.031 C 
ATOM     44  C   UNL A   1      44.832  27.008  28.911  1.00  0.00     0.029 A 
ATOM     45  N   UNL A   1      46.205  25.785  27.606  1.00  0.00    -0.354 N 
ATOM     46  C   UNL A   1      41.193  28.179  27.447  1.00  0.00     0.074 A 
ATOM     47  C   UNL A   1      40.544  27.203  26.609  1.00  0.00     0.031 C 
ATOM     48  C   UNL A   1      46.092  27.341  29.225  1.00  0.00     0.029 A 
ATOM     49  C   UNL A   1      46.938  26.856  28.148  1.00  0.00     0.049 A 
ATOM     50  H   UNL A   1      46.567  24.959  27.209  1.00  0.00     0.167 HD
ATOM     51  C   UNL A   1      40.796  29.107  28.361  1.00  0.00     0.034 A 
ATOM     52  C   UNL A   1      47.800  27.628  27.423  1.00  0.00     0.034 A 
ATOM     53  C   UNL A   1      41.961  29.837  28.892  1.00  0.00     0.049 A 
ATOM     54  C   UNL A   1      47.412  29.098  27.403  1.00  0.00     0.074 A 
ATOM     55  C   UNL A   1      42.657  29.788  30.089  1.00  0.00     0.029 A 
ATOM     56  N   UNL A   1      42.745  30.586  28.019  1.00  0.00    -0.354 N 
ATOM     57  N   UNL A   1      46.313  29.575  27.920  1.00  0.00    -0.248 NA
ATOM     58  C   UNL A   1      48.216  30.145  26.776  1.00  0.00     0.031 C 
ATOM     59  C   UNL A   1      43.924  30.405  29.884  1.00  0.00     0.029 A 
ATOM     60  C   UNL A   1      43.982  30.872  28.580  1.00  0.00     0.049 A 
ATOM     61  H   UNL A   1      42.461  30.876  27.122  1.00  0.00     0.167 HD
ATOM     62  C   UNL A   1      46.169  30.895  27.586  1.00  0.00     0.074 A 
ATOM     63  C   UNL A   1      47.434  31.225  26.950  1.00  0.00     0.031 C 
ATOM     64  C   UNL A   1      44.997  31.575  27.796  1.00  0.00     0.034 A 
BRANCH  51  65
ATOM     65  C   UNL A   1      39.403  29.212  28.983  1.00  0.00     0.023 A 
ATOM     66  C   UNL A   1      38.313  29.330  28.091  1.00  0.00     0.012 A 
ATOM     67  C   UNL A   1      39.078  29.323  30.359  1.00  0.00     0.148 A 
ATOM     68  C   UNL A   1      37.005  29.590  28.523  1.00  0.00     0.002 A 
ATOM     69  C   UNL A   1      37.768  29.552  30.796  1.00  0.00     0.091 A 
ATOM     70  F   UNL A   1      40.029  29.260  31.287  1.00  0.00    -0.205 F 
ATOM     71  C   UNL A   1      36.731  29.703  29.878  1.00  0.00     0.022 A 
BRANCH  69  72
ATOM     72  S   UNL A   1      37.342  29.697  32.545  1.00  0.00     0.127 S 
ATOM     73  O   UNL A   1      37.387  28.303  32.987  1.00  0.00    -0.237 OA
ATOM     74  O   UNL A   1      38.425  30.535  33.061  1.00  0.00    -0.237 OA
ATOM     75  O   UNL A   1      36.021  30.311  32.604  1.00  0.00    -0.744 OA
ENDBRANCH  69  72
ENDBRANCH  51  65
BRANCH  52  76
ATOM     76  C   UNL A   1      48.480  26.887  26.319  1.00  0.00     0.023 A 
ATOM     77  C   UNL A   1      47.934  27.041  25.023  1.00  0.00     0.012 A 
ATOM     78  C   UNL A   1      49.805  26.436  26.450  1.00  0.00     0.148 A 
ATOM     79  C   UNL A   1      48.728  26.882  23.886  1.00  0.00     0.002 A 
ATOM     80  C   UNL A   1      50.596  26.294  25.311  1.00  0.00     0.091 A 
ATOM     81  F   UNL A   1      50.299  26.254  27.681  1.00  0.00    -0.205 F 
ATOM     82  C   UNL A   1      50.068  26.548  24.033  1.00  0.00     0.022 A 
BRANCH  80  83
ATOM     83  S   UNL A   1      52.360  25.958  25.412  1.00  0.00     0.127 S 
ATOM     84  O   UNL A   1      52.810  27.017  26.310  1.00  0.00    -0.237 OA
ATOM     85  O   UNL A   1      52.386  24.613  25.983  1.00  0.00    -0.237 OA
ATOM     86  O   UNL A   1      52.839  26.033  24.040  1.00  0.00    -0.744 OA
ENDBRANCH  80  83
ENDBRANCH  52  76
BRANCH  64  87
ATOM     87  C   UNL A   1      44.672  32.956  27.249  1.00  0.00     0.023 A 
ATOM     88  C   UNL A   1      44.371  33.184  25.892  1.00  0.00     0.012 A 
ATOM     89  C   UNL A   1      44.504  34.060  28.126  1.00  0.00     0.148 A 
ATOM     90  C   UNL A   1      43.981  34.442  25.417  1.00  0.00     0.002 A 
ATOM     91  C   UNL A   1      44.001  35.276  27.669  1.00  0.00     0.091 A 
ATOM     92  F   UNL A   1      44.845  33.945  29.419  1.00  0.00    -0.205 F 
ATOM     93  C   UNL A   1      43.771  35.484  26.310  1.00  0.00     0.022 A 
BRANCH  91  94
ATOM     94  S   UNL A   1      43.473  36.543  28.833  1.00  0.00     0.127 S 
ATOM     95  O   UNL A   1      44.693  37.325  29.012  1.00  0.00    -0.237 OA
ATOM     96  O   UNL A   1      42.412  37.232  28.095  1.00  0.00    -0.237 OA
ATOM     97  O   UNL A   1      43.001  35.802  29.995  1.00  0.00    -0.744 OA
ENDBRANCH  91  94
ENDBRANCH  64  87
ENDBRANCH  38  39
ENDBRANCH  30  33
ENDBRANCH  28  29
ENDBRANCH  27  28
ENDBRANCH  26  27
ENDBRANCH   1  26
TORSDOF 19
ENDMDL
MODEL 2
REMARK VINA RESULT:     -12.0      1.682      2.942
REMARK SMILES Cc1c(/C=C/C(=O)NCCCCCCNC(=O)c2ccc(-c3c4nc(c(-c5cccc(S(=O)(=O)[O-])c5F)c5ccc([nH]5)c(-c5cccc(S(=O)(=O)[O-])c5F)c5nc(c(-c6cccc(S(=O)(=O)[O-])c6F)c6ccc3[nH]6)C=C5)C=C4)cc2)cccc1C(=O)N1C[C@@H](C)[C@@H](C)C1
REMARK SMILES IDX 11 1 10 2 9 3 8 4 6 5 7 6 5 8 4 9 3 10 1 11 2 12 84 13 81 14
REMARK SMILES IDX 83 15 82 16 85 17 86 18 87 19 88 20 93 21 89 22 91 23 90 24
REMARK SMILES IDX 92 25 12 26 13 27 14 28 15 29 16 30 17 32 18 33 19 34 80 35
REMARK SMILES IDX 20 36 79 37 21 38 22 39 23 40 73 41 24 42 78 43 72 44 74 45
REMARK SMILES IDX 25 46 77 47 71 48 70 49 26 51 58 52 38 53 57 54 39 55 42 56
REMARK SMILES IDX 56 57 75 58 40 59 41 60 55 62 76 63 43 64 27 65 28 66 36 67
REMARK SMILES IDX 29 68 31 69 37 70 30 71 32 72 33 73 34 74 35 75 59 76 60 77
REMARK SMILES IDX 68 78 61 79 63 80 69 81 62 82 64 83 65 84 66 85 67 86 44 87
REMARK SMILES IDX 45 88 53 89 46 90 48 91 54 92 47 93 49 94 50 95 51 96 52 97
REMARK H PARENT 8 7 15 31 74 50 42 61
REMARK Flexibility Score: inf
ROOT
ATOM      1  C   UNL A   1      41.273  20.289  26.540  1.00  0.00     0.002 C 
ENDROOT
BRANCH   1   2
ATOM      2  C   UNL A   1      39.856  19.963  26.051  1.00  0.00     0.021 C 
BRANCH   2   3
ATOM      3  C   UNL A   1      39.011  21.191  25.712  1.00  0.00     0.116 C 
BRANCH   3   4
ATOM      4  N   UNL A   1      39.637  22.417  26.174  1.00  0.00    -0.353 N 
ATOM      5  C   UNL A   1      39.062  23.559  26.645  1.00  0.00     0.243 C 
ATOM      6  O   UNL A   1      39.745  24.443  27.152  1.00  0.00    -0.270 OA
ATOM      7  H   UNL A   1      40.621  22.424  26.143  1.00  0.00     0.163 HD
BRANCH   5   8
ATOM      8  C   UNL A   1      37.588  23.676  26.636  1.00  0.00     0.072 C 
ATOM      9  C   UNL A   1      36.880  23.674  25.496  1.00  0.00     0.014 C 
BRANCH   9  10
ATOM     10  C   UNL A   1      35.405  23.701  25.457  1.00  0.00    -0.022 A 
ATOM     11  C   UNL A   1      35.320  21.174  25.630  1.00  0.00     0.046 C 
ATOM     12  C   UNL A   1      34.623  22.509  25.524  1.00  0.00    -0.031 A 
ATOM     13  C   UNL A   1      33.208  22.623  25.498  1.00  0.00     0.043 A 
ATOM     14  C   UNL A   1      34.777  24.947  25.293  1.00  0.00     0.008 A 
ATOM     15  C   UNL A   1      32.621  23.898  25.355  1.00  0.00     0.014 A 
ATOM     16  C   UNL A   1      33.394  25.048  25.245  1.00  0.00     0.001 A 
BRANCH  13  17
ATOM     17  C   UNL A   1      32.234  21.486  25.386  1.00  0.00     0.254 C 
ATOM     18  O   UNL A   1      31.077  21.681  25.765  1.00  0.00    -0.269 OA
BRANCH  17  19
ATOM     19  N   UNL A   1      32.605  20.288  24.806  1.00  0.00    -0.338 N 
ATOM     20  C   UNL A   1      32.345  20.074  23.393  1.00  0.00     0.123 C 
ATOM     21  C   UNL A   1      32.743  19.028  25.519  1.00  0.00     0.123 C 
ATOM     22  C   UNL A   1      32.112  18.577  23.239  1.00  0.00     0.010 C 
ATOM     23  C   UNL A   1      32.885  17.958  24.423  1.00  0.00     0.010 C 
ATOM     24  C   UNL A   1      32.487  18.090  21.846  1.00  0.00     0.010 C 
ATOM     25  C   UNL A   1      34.349  17.631  24.137  1.00  0.00     0.010 C 
ENDBRANCH  17  19
ENDBRANCH  13  17
ENDBRANCH   9  10
ENDBRANCH   5   8
ENDBRANCH   3   4
ENDBRANCH   2   3
ENDBRANCH   1   2
BRANCH   1  26
ATOM     26  C   UNL A   1      42.040  19.134  27.205  1.00  0.00     0.002 C 
BRANCH  26  27
ATOM     27  C   UNL A   1      43.086  18.434  26.335  1.00  0.00     0.021 C 
BRANCH  27  28
ATOM     28  C   UNL A   1      43.539  19.245  25.129  1.00  0.00     0.116 C 
BRANCH  28  29
ATOM     29  N   UNL A   1      44.914  19.694  25.257  1.00  0.00    -0.352 N 
ATOM     30  C   UNL A   1      45.459  20.941  25.033  1.00  0.00     0.251 C 
ATOM     31  H   UNL A   1      45.554  19.005  25.548  1.00  0.00     0.163 HD
ATOM     32  O   UNL A   1      46.675  21.037  24.863  1.00  0.00    -0.269 OA
BRANCH  30  33
ATOM     33  C   UNL A   1      44.615  22.148  25.196  1.00  0.00     0.039 A 
ATOM     34  C   UNL A   1      44.905  23.223  24.342  1.00  0.00     0.014 A 
ATOM     35  C   UNL A   1      43.828  22.341  26.325  1.00  0.00     0.014 A 
ATOM     36  C   UNL A   1      44.675  24.524  24.772  1.00  0.00     0.010 A 
ATOM     37  C   UNL A   1      43.660  23.626  26.788  1.00  0.00     0.010 A 
ATOM     38  C   UNL A   1      44.173  24.703  26.053  1.00  0.00    -0.014 A 
BRANCH  38  39
ATOM     39  C   UNL A   1      44.192  25.958  26.777  1.00  0.00     0.031 A 
ATOM     40  C   UNL A   1      43.000  26.817  26.782  1.00  0.00     0.074 A 
ATOM     41  C   UNL A   1      45.193  26.131  27.670  1.00  0.00     0.049 A 
ATOM     42  N   UNL A   1      42.954  27.984  27.323  1.00  0.00    -0.248 NA
ATOM     43  C   UNL A   1      41.762  26.433  26.113  1.00  0.00     0.031 C 
ATOM     44  C   UNL A   1      45.168  26.942  28.878  1.00  0.00     0.029 A 
ATOM     45  N   UNL A   1      46.530  25.735  27.547  1.00  0.00    -0.354 N 
ATOM     46  C   UNL A   1      41.626  28.343  27.378  1.00  0.00     0.074 A 
ATOM     47  C   UNL A   1      40.964  27.442  26.470  1.00  0.00     0.031 C 
ATOM     48  C   UNL A   1      46.431  27.204  29.246  1.00  0.00     0.029 A 
ATOM     49  C   UNL A   1      47.289  26.743  28.168  1.00  0.00     0.049 A 
ATOM     50  H   UNL A   1      46.870  24.918  27.115  1.00  0.00     0.167 HD
ATOM     51  C   UNL A   1      41.239  29.236  28.331  1.00  0.00     0.034 A 
ATOM     52  C   UNL A   1      48.203  27.517  27.512  1.00  0.00     0.034 A 
ATOM     53  C   UNL A   1      42.416  29.887  28.935  1.00  0.00     0.049 A 
ATOM     54  C   UNL A   1      47.875  29.001  27.562  1.00  0.00     0.074 A 
ATOM     55  C   UNL A   1      43.072  29.743  30.146  1.00  0.00     0.029 A 
ATOM     56  N   UNL A   1      43.256  30.648  28.127  1.00  0.00    -0.354 N 
ATOM     57  N   UNL A   1      46.781  29.495  28.073  1.00  0.00    -0.248 NA
ATOM     58  C   UNL A   1      48.740  30.045  27.018  1.00  0.00     0.031 C 
ATOM     59  C   UNL A   1      44.368  30.317  30.012  1.00  0.00     0.029 A 
ATOM     60  C   UNL A   1      44.485  30.850  28.738  1.00  0.00     0.049 A 
ATOM     61  H   UNL A   1      43.012  30.998  27.239  1.00  0.00     0.167 HD
ATOM     62  C   UNL A   1      46.701  30.836  27.809  1.00  0.00     0.074 A 
ATOM     63  C   UNL A   1      47.998  31.146  27.229  1.00  0.00     0.031 C 
ATOM     64  C   UNL A   1      45.552  31.552  28.023  1.00  0.00     0.034 A 
BRANCH  51  65
ATOM     65  C   UNL A   1      39.833  29.365  28.917  1.00  0.00     0.023 A 
ATOM     66  C   UNL A   1      38.813  29.800  28.041  1.00  0.00     0.012 A 
ATOM     67  C   UNL A   1      39.446  29.213  30.273  1.00  0.00     0.148 A 
ATOM     68  C   UNL A   1      37.518  30.111  28.480  1.00  0.00     0.002 A 
ATOM     69  C   UNL A   1      38.146  29.493  30.710  1.00  0.00     0.091 A 
ATOM     70  F   UNL A   1      40.332  28.841  31.193  1.00  0.00    -0.205 F 
ATOM     71  C   UNL A   1      37.183  29.959  29.817  1.00  0.00     0.022 A 
BRANCH  69  72
ATOM     72  S   UNL A   1      37.642  29.305  32.434  1.00  0.00     0.127 S 
ATOM     73  O   UNL A   1      38.579  30.192  33.125  1.00  0.00    -0.237 OA
ATOM     74  O   UNL A   1      36.259  29.782  32.408  1.00  0.00    -0.237 OA
ATOM     75  O   UNL A   1      37.789  27.892  32.762  1.00  0.00    -0.744 OA
ENDBRANCH  69  72
ENDBRANCH  51  65
BRANCH  52  76
ATOM     76  C   UNL A   1      48.886  26.809  26.389  1.00  0.00     0.023 A 
ATOM     77  C   UNL A   1      48.355  27.016  25.094  1.00  0.00     0.012 A 
ATOM     78  C   UNL A   1      50.205  26.339  26.516  1.00  0.00     0.148 A 
ATOM     79  C   UNL A   1      49.158  26.889  23.960  1.00  0.00     0.002 A 
ATOM     80  C   UNL A   1      51.006  26.230  25.379  1.00  0.00     0.091 A 
ATOM     81  F   UNL A   1      50.684  26.106  27.744  1.00  0.00    -0.205 F 
ATOM     82  C   UNL A   1      50.493  26.535  24.107  1.00  0.00     0.022 A 
BRANCH  80  83
ATOM     83  S   UNL A   1      52.765  25.871  25.485  1.00  0.00     0.127 S 
ATOM     84  O   UNL A   1      53.170  25.970  24.086  1.00  0.00    -0.237 OA
ATOM     85  O   UNL A   1      53.250  26.949  26.345  1.00  0.00    -0.237 OA
ATOM     86  O   UNL A   1      52.846  24.547  26.085  1.00  0.00    -0.744 OA
ENDBRANCH  80  83
ENDBRANCH  52  76
BRANCH  64  87
ATOM     87  C   UNL A   1      45.300  32.973  27.545  1.00  0.00     0.023 A 
ATOM     88  C   UNL A   1      45.182  33.306  26.181  1.00  0.00     0.012 A 
ATOM     89  C   UNL A   1      45.014  34.009  28.474  1.00  0.00     0.148 A 
ATOM     90  C   UNL A   1      44.857  34.600  25.756  1.00  0.00     0.002 A 
ATOM     91  C   UNL A   1      44.574  35.260  28.048  1.00  0.00     0.091 A 
ATOM     92  F   UNL A   1      45.180  33.793  29.788  1.00  0.00    -0.205 F 
ATOM     93  C   UNL A   1      44.527  35.572  26.690  1.00  0.00     0.022 A 
BRANCH  91  94
ATOM     94  S   UNL A   1      43.893  36.440  29.224  1.00  0.00     0.127 S 
ATOM     95  O   UNL A   1      42.815  35.671  29.840  1.00  0.00    -0.237 OA
ATOM     96  O   UNL A   1      45.032  36.706  30.105  1.00  0.00    -0.237 OA
ATOM     97  O   UNL A   1      43.493  37.581  28.411  1.00  0.00    -0.744 OA
ENDBRANCH  91  94
ENDBRANCH  64  87
ENDBRANCH  38  39
ENDBRANCH  30  33
ENDBRANCH  28  29
ENDBRANCH  27  28
ENDBRANCH  26  27
ENDBRANCH   1  26
TORSDOF 19
ENDMDL
MODEL 3
REMARK VINA RESULT:     -11.7      5.150     11.209
REMARK SMILES Cc1c(/C=C/C(=O)NCCCCCCNC(=O)c2ccc(-c3c4nc(c(-c5cccc(S(=O)(=O)[O-])c5F)c5ccc([nH]5)c(-c5cccc(S(=O)(=O)[O-])c5F)c5nc(c(-c6cccc(S(=O)(=O)[O-])c6F)c6ccc3[nH]6)C=C5)C=C4)cc2)cccc1C(=O)N1C[C@@H](C)[C@@H](C)C1
REMARK SMILES IDX 11 1 10 2 9 3 8 4 6 5 7 6 5 8 4 9 3 10 1 11 2 12 84 13 81 14
REMARK SMILES IDX 83 15 82 16 85 17 86 18 87 19 88 20 93 21 89 22 91 23 90 24
REMARK SMILES IDX 92 25 12 26 13 27 14 28 15 29 16 30 17 32 18 33 19 34 80 35
REMARK SMILES IDX 20 36 79 37 21 38 22 39 23 40 73 41 24 42 78 43 72 44 74 45
REMARK SMILES IDX 25 46 77 47 71 48 70 49 26 51 58 52 38 53 57 54 39 55 42 56
REMARK SMILES IDX 56 57 75 58 40 59 41 60 55 62 76 63 43 64 27 65 28 66 36 67
REMARK SMILES IDX 29 68 31 69 37 70 30 71 32 72 33 73 34 74 35 75 59 76 60 77
REMARK SMILES IDX 68 78 61 79 63 80 69 81 62 82 64 83 65 84 66 85 67 86 44 87
REMARK SMILES IDX 45 88 53 89 46 90 48 91 54 92 47 93 49 94 50 95 51 96 52 97
REMARK H PARENT 8 7 15 31 74 50 42 61
REMARK Flexibility Score: inf
ROOT
ATOM      1  C   UNL A   1      31.927  29.893  26.250  1.00  0.00     0.002 C 
ENDROOT
BRANCH   1   2
ATOM      2  C   UNL A   1      31.455  28.603  25.565  1.00  0.00     0.021 C 
BRANCH   2   3
ATOM      3  C   UNL A   1      30.879  28.810  24.165  1.00  0.00     0.116 C 
BRANCH   3   4
ATOM      4  N   UNL A   1      29.643  28.070  23.978  1.00  0.00    -0.353 N 
ATOM      5  C   UNL A   1      29.459  26.751  23.693  1.00  0.00     0.243 C 
ATOM      6  O   UNL A   1      28.339  26.251  23.733  1.00  0.00    -0.270 OA
ATOM      7  H   UNL A   1      28.819  28.600  24.070  1.00  0.00     0.163 HD
BRANCH   5   8
ATOM      8  C   UNL A   1      30.640  25.899  23.439  1.00  0.00     0.072 C 
ATOM      9  C   UNL A   1      31.173  25.118  24.391  1.00  0.00     0.014 C 
BRANCH   9  10
ATOM     10  C   UNL A   1      32.295  24.191  24.146  1.00  0.00    -0.022 A 
ATOM     11  C   UNL A   1      31.589  22.759  26.114  1.00  0.00     0.046 C 
ATOM     12  C   UNL A   1      32.519  23.040  24.959  1.00  0.00    -0.031 A 
ATOM     13  C   UNL A   1      33.612  22.189  24.645  1.00  0.00     0.043 A 
ATOM     14  C   UNL A   1      33.188  24.505  23.107  1.00  0.00     0.008 A 
ATOM     15  C   UNL A   1      34.469  22.532  23.578  1.00  0.00     0.014 A 
ATOM     16  C   UNL A   1      34.267  23.681  22.821  1.00  0.00     0.001 A 
BRANCH  13  17
ATOM     17  C   UNL A   1      34.104  21.041  25.478  1.00  0.00     0.254 C 
ATOM     18  O   UNL A   1      34.803  21.300  26.459  1.00  0.00    -0.269 OA
BRANCH  17  19
ATOM     19  N   UNL A   1      33.718  19.745  25.196  1.00  0.00    -0.338 N 
ATOM     20  C   UNL A   1      34.671  18.840  24.574  1.00  0.00     0.123 C 
ATOM     21  C   UNL A   1      32.348  19.319  24.960  1.00  0.00     0.123 C 
ATOM     22  C   UNL A   1      33.839  17.886  23.726  1.00  0.00     0.010 C 
ATOM     23  C   UNL A   1      32.458  17.884  24.416  1.00  0.00     0.010 C 
ATOM     24  C   UNL A   1      34.525  16.538  23.561  1.00  0.00     0.010 C 
ATOM     25  C   UNL A   1      32.292  16.844  25.521  1.00  0.00     0.010 C 
ENDBRANCH  17  19
ENDBRANCH  13  17
ENDBRANCH   9  10
ENDBRANCH   5   8
ENDBRANCH   3   4
ENDBRANCH   2   3
ENDBRANCH   1   2
BRANCH   1  26
ATOM     26  C   UNL A   1      33.428  30.207  26.137  1.00  0.00     0.002 C 
BRANCH  26  27
ATOM     27  C   UNL A   1      34.314  29.654  27.255  1.00  0.00     0.021 C 
BRANCH  27  28
ATOM     28  C   UNL A   1      35.200  30.696  27.923  1.00  0.00     0.116 C 
BRANCH  28  29
ATOM     29  N   UNL A   1      34.520  31.968  28.089  1.00  0.00    -0.352 N 
ATOM     30  C   UNL A   1      34.598  32.883  29.118  1.00  0.00     0.251 C 
ATOM     31  H   UNL A   1      33.911  32.216  27.356  1.00  0.00     0.163 HD
ATOM     32  O   UNL A   1      33.703  33.718  29.241  1.00  0.00    -0.269 OA
BRANCH  30  33
ATOM     33  C   UNL A   1      35.838  32.971  29.926  1.00  0.00     0.039 A 
ATOM     34  C   UNL A   1      36.978  33.444  29.258  1.00  0.00     0.014 A 
ATOM     35  C   UNL A   1      35.960  32.317  31.146  1.00  0.00     0.014 A 
ATOM     36  C   UNL A   1      38.236  33.001  29.647  1.00  0.00     0.010 A 
ATOM     37  C   UNL A   1      37.195  31.818  31.495  1.00  0.00     0.010 A 
ATOM     38  C   UNL A   1      38.307  32.085  30.686  1.00  0.00    -0.014 A 
BRANCH  38  39
ATOM     39  C   UNL A   1      39.469  31.275  30.992  1.00  0.00     0.031 A 
ATOM     40  C   UNL A   1      39.605  29.939  30.397  1.00  0.00     0.074 A 
ATOM     41  C   UNL A   1      40.520  31.907  31.559  1.00  0.00     0.049 A 
ATOM     42  N   UNL A   1      40.556  29.117  30.677  1.00  0.00    -0.248 NA
ATOM     43  C   UNL A   1      38.624  29.401  29.460  1.00  0.00     0.031 C 
ATOM     44  C   UNL A   1      41.927  31.551  31.454  1.00  0.00     0.029 A 
ATOM     45  N   UNL A   1      40.493  32.924  32.522  1.00  0.00    -0.354 N 
ATOM     46  C   UNL A   1      40.509  28.119  29.731  1.00  0.00     0.074 A 
ATOM     47  C   UNL A   1      39.209  28.248  29.124  1.00  0.00     0.031 C 
ATOM     48  C   UNL A   1      42.593  32.123  32.467  1.00  0.00     0.029 A 
ATOM     49  C   UNL A   1      41.597  32.689  33.361  1.00  0.00     0.049 A 
ATOM     50  H   UNL A   1      39.835  33.654  32.597  1.00  0.00     0.167 HD
ATOM     51  C   UNL A   1      41.655  27.433  29.460  1.00  0.00     0.034 A 
ATOM     52  C   UNL A   1      41.490  32.406  34.692  1.00  0.00     0.034 A 
ATOM     53  C   UNL A   1      42.674  27.709  30.489  1.00  0.00     0.049 A 
ATOM     54  C   UNL A   1      42.079  31.054  35.064  1.00  0.00     0.074 A 
ATOM     55  C   UNL A   1      43.820  28.487  30.516  1.00  0.00     0.029 A 
ATOM     56  N   UNL A   1      42.413  27.356  31.810  1.00  0.00    -0.354 N 
ATOM     57  N   UNL A   1      42.539  30.190  34.201  1.00  0.00    -0.248 NA
ATOM     58  C   UNL A   1      42.174  30.555  36.434  1.00  0.00     0.031 C 
ATOM     59  C   UNL A   1      44.169  28.703  31.880  1.00  0.00     0.029 A 
ATOM     60  C   UNL A   1      43.267  28.020  32.680  1.00  0.00     0.049 A 
ATOM     61  H   UNL A   1      41.717  26.720  32.092  1.00  0.00     0.167 HD
ATOM     62  C   UNL A   1      42.833  29.008  34.827  1.00  0.00     0.074 A 
ATOM     63  C   UNL A   1      42.676  29.323  36.237  1.00  0.00     0.031 C 
ATOM     64  C   UNL A   1      43.106  27.862  34.126  1.00  0.00     0.034 A 
BRANCH  51  65
ATOM     65  C   UNL A   1      41.976  26.710  28.153  1.00  0.00     0.023 A 
ATOM     66  C   UNL A   1      41.878  27.467  26.963  1.00  0.00     0.012 A 
ATOM     67  C   UNL A   1      42.251  25.330  27.974  1.00  0.00     0.148 A 
ATOM     68  C   UNL A   1      41.990  26.893  25.688  1.00  0.00     0.002 A 
ATOM     69  C   UNL A   1      42.394  24.759  26.705  1.00  0.00     0.091 A 
ATOM     70  F   UNL A   1      42.333  24.515  29.022  1.00  0.00    -0.205 F 
ATOM     71  C   UNL A   1      42.247  25.537  25.557  1.00  0.00     0.022 A 
BRANCH  69  72
ATOM     72  S   UNL A   1      42.742  23.003  26.465  1.00  0.00     0.127 S 
ATOM     73  O   UNL A   1      44.008  22.842  27.179  1.00  0.00    -0.237 OA
ATOM     74  O   UNL A   1      41.593  22.367  27.111  1.00  0.00    -0.237 OA
ATOM     75  O   UNL A   1      42.824  22.785  25.026  1.00  0.00    -0.744 OA
ENDBRANCH  69  72
ENDBRANCH  51  65
BRANCH  52  76
ATOM     76  C   UNL A   1      40.321  33.061  35.349  1.00  0.00     0.023 A 
ATOM     77  C   UNL A   1      39.142  32.288  35.462  1.00  0.00     0.012 A 
ATOM     78  C   UNL A   1      40.486  34.176  36.190  1.00  0.00     0.148 A 
ATOM     79  C   UNL A   1      38.215  32.535  36.476  1.00  0.00     0.002 A 
ATOM     80  C   UNL A   1      39.564  34.408  37.210  1.00  0.00     0.091 A 
ATOM     81  F   UNL A   1      41.586  34.926  36.047  1.00  0.00    -0.205 F 
ATOM     82  C   UNL A   1      38.448  33.570  37.373  1.00  0.00     0.022 A 
BRANCH  80  83
ATOM     83  S   UNL A   1      39.834  35.662  38.471  1.00  0.00     0.127 S 
ATOM     84  O   UNL A   1      39.652  36.892  37.705  1.00  0.00    -0.237 OA
ATOM     85  O   UNL A   1      38.769  35.371  39.429  1.00  0.00    -0.237 OA
ATOM     86  O   UNL A   1      41.176  35.411  38.975  1.00  0.00    -0.744 OA
ENDBRANCH  80  83
ENDBRANCH  52  76
BRANCH  64  87
ATOM     87  C   UNL A   1      43.210  26.469  34.726  1.00  0.00     0.023 A 
ATOM     88  C   UNL A   1      42.079  25.687  35.029  1.00  0.00     0.012 A 
ATOM     89  C   UNL A   1      44.472  25.832  34.860  1.00  0.00     0.148 A 
ATOM     90  C   UNL A   1      42.187  24.370  35.493  1.00  0.00     0.002 A 
ATOM     91  C   UNL A   1      44.568  24.486  35.206  1.00  0.00     0.091 A 
ATOM     92  F   UNL A   1      45.599  26.533  34.666  1.00  0.00    -0.205 F 
ATOM     93  C   UNL A   1      43.432  23.759  35.558  1.00  0.00     0.022 A 
BRANCH  91  94
ATOM     94  S   UNL A   1      46.131  23.608  35.040  1.00  0.00     0.127 S 
ATOM     95  O   UNL A   1      46.899  24.132  36.165  1.00  0.00    -0.237 OA
ATOM     96  O   UNL A   1      45.726  22.208  35.178  1.00  0.00    -0.237 OA
ATOM     97  O   UNL A   1      46.610  23.957  33.709  1.00  0.00    -0.744 OA
ENDBRANCH  91  94
ENDBRANCH  64  87
ENDBRANCH  38  39
ENDBRANCH  30  33
ENDBRANCH  28  29
ENDBRANCH  27  28
ENDBRANCH  26  27
ENDBRANCH   1  26
TORSDOF 19
ENDMDL
