MODEL 1
REMARK VINA RESULT:      -8.6      0.000      0.000
REMARK SMILES O=C(CSc1nnc(-c2cccc(C(F)(F)F)c2F)o1)NCCCCCCNC(=O)c1ccc(-c2c3nc(c(-c4cccc(S(=O)(=O)[O-])c4F)c4ccc([nH]4)c(-c4cccc(S(=O)(=O)[O-])c4F)c4nc(c(-c5cccc(S(=O)(=O)[O-])c5F)c5ccc2[nH]5)C=C4)C=C3)cc1
REMARK SMILES IDX 24 1 23 2 22 3 21 4 1 5 2 6 3 8 4 9 5 10 6 11 20 12 7 13
REMARK SMILES IDX 8 14 9 15 10 16 18 17 11 18 13 19 19 20 12 21 14 22 15 23
REMARK SMILES IDX 16 24 17 25 25 26 26 27 27 28 28 29 29 30 30 32 31 33 32 34
REMARK SMILES IDX 93 35 33 36 92 37 34 38 35 39 36 40 86 41 37 42 91 43 85 44
REMARK SMILES IDX 87 45 38 46 90 47 84 48 83 49 39 51 71 52 51 53 70 54 52 55
REMARK SMILES IDX 55 56 69 57 88 58 53 59 54 60 68 62 89 63 56 64 40 65 41 66
REMARK SMILES IDX 49 67 42 68 44 69 50 70 43 71 45 72 46 73 47 74 48 75 72 76
REMARK SMILES IDX 73 77 81 78 74 79 76 80 82 81 75 82 77 83 78 84 79 85 80 86
REMARK SMILES IDX 57 87 58 88 66 89 59 90 61 91 67 92 60 93 62 94 63 95 64 96
REMARK SMILES IDX 65 97
REMARK H PARENT 21 7 28 31 87 50 55 61
REMARK Flexibility Score: inf
ROOT
ATOM      1  C   UNL A   1      45.285  21.340  25.533  1.00  0.00     0.002 C 
ENDROOT
BRANCH   1   2
ATOM      2  C   UNL A   1      45.877  22.719  25.210  1.00  0.00     0.021 C 
BRANCH   2   3
ATOM      3  C   UNL A   1      44.898  23.713  24.586  1.00  0.00     0.116 C 
BRANCH   3   4
ATOM      4  N   UNL A   1      45.191  25.078  24.981  1.00  0.00    -0.355 N 
ATOM      5  O   UNL A   1      43.045  25.873  24.782  1.00  0.00    -0.274 OA
ATOM      6  C   UNL A   1      44.224  26.057  25.066  1.00  0.00     0.230 C 
ATOM      7  H   UNL A   1      46.121  25.315  25.200  1.00  0.00     0.163 HD
BRANCH   6   8
ATOM      8  C   UNL A   1      44.734  27.440  25.428  1.00  0.00     0.179 C 
BRANCH   8   9
ATOM      9  S   UNL A   1      46.537  27.540  25.450  1.00  0.00    -0.055 SA
BRANCH   9  10
ATOM     10  C   UNL A   1      46.791  29.152  26.042  1.00  0.00     0.277 A 
ATOM     11  N   UNL A   1      47.987  29.596  26.371  1.00  0.00    -0.101 NA
ATOM     12  O   UNL A   1      45.832  30.134  26.100  1.00  0.00    -0.411 OA
ATOM     13  N   UNL A   1      47.851  30.936  26.646  1.00  0.00    -0.107 NA
ATOM     14  C   UNL A   1      46.575  31.222  26.486  1.00  0.00     0.251 A 
BRANCH  14  15
ATOM     15  C   UNL A   1      45.937  32.527  26.496  1.00  0.00     0.075 A 
ATOM     16  C   UNL A   1      44.535  32.589  26.427  1.00  0.00     0.017 A 
ATOM     17  C   UNL A   1      46.661  33.723  26.525  1.00  0.00     0.148 A 
ATOM     18  C   UNL A   1      43.873  33.815  26.400  1.00  0.00     0.002 A 
ATOM     19  C   UNL A   1      46.015  34.962  26.470  1.00  0.00     0.092 A 
ATOM     20  F   UNL A   1      48.000  33.680  26.581  1.00  0.00    -0.205 F 
ATOM     21  C   UNL A   1      44.610  34.997  26.416  1.00  0.00     0.016 A 
BRANCH  19  22
ATOM     22  C   UNL A   1      46.781  36.254  26.445  1.00  0.00     0.419 C 
ATOM     23  F   UNL A   1      45.991  37.320  26.757  1.00  0.00    -0.166 F 
ATOM     24  F   UNL A   1      47.780  36.265  27.376  1.00  0.00    -0.166 F 
ATOM     25  F   UNL A   1      47.375  36.561  25.265  1.00  0.00    -0.166 F 
ENDBRANCH  19  22
ENDBRANCH  14  15
ENDBRANCH   9  10
ENDBRANCH   8   9
ENDBRANCH   6   8
ENDBRANCH   3   4
ENDBRANCH   2   3
ENDBRANCH   1   2
BRANCH   1  26
ATOM     26  C   UNL A   1      45.024  20.428  24.330  1.00  0.00     0.002 C 
BRANCH  26  27
ATOM     27  C   UNL A   1      44.221  19.159  24.625  1.00  0.00     0.021 C 
BRANCH  27  28
ATOM     28  C   UNL A   1      43.485  19.150  25.961  1.00  0.00     0.116 C 
BRANCH  28  29
ATOM     29  N   UNL A   1      42.044  19.004  25.808  1.00  0.00    -0.352 N 
ATOM     30  C   UNL A   1      41.041  19.857  26.203  1.00  0.00     0.251 C 
ATOM     31  H   UNL A   1      41.747  18.179  25.360  1.00  0.00     0.163 HD
ATOM     32  O   UNL A   1      39.866  19.506  26.123  1.00  0.00    -0.269 OA
BRANCH  30  33
ATOM     33  C   UNL A   1      41.381  21.190  26.748  1.00  0.00     0.039 A 
ATOM     34  C   UNL A   1      41.524  21.345  28.129  1.00  0.00     0.014 A 
ATOM     35  C   UNL A   1      41.573  22.279  25.894  1.00  0.00     0.014 A 
ATOM     36  C   UNL A   1      41.928  22.579  28.650  1.00  0.00     0.010 A 
ATOM     37  C   UNL A   1      42.041  23.485  26.409  1.00  0.00     0.010 A 
ATOM     38  C   UNL A   1      42.224  23.648  27.791  1.00  0.00    -0.014 A 
BRANCH  38  39
ATOM     39  C   UNL A   1      42.744  24.942  28.302  1.00  0.00     0.031 A 
ATOM     40  C   UNL A   1      41.819  26.114  28.474  1.00  0.00     0.074 A 
ATOM     41  C   UNL A   1      44.067  25.096  28.508  1.00  0.00     0.049 A 
ATOM     42  N   UNL A   1      42.103  27.349  28.799  1.00  0.00    -0.248 NA
ATOM     43  C   UNL A   1      40.389  25.873  28.221  1.00  0.00     0.031 C 
ATOM     44  C   UNL A   1      45.078  24.055  28.314  1.00  0.00     0.029 A 
ATOM     45  N   UNL A   1      44.791  26.196  28.896  1.00  0.00    -0.354 N 
ATOM     46  C   UNL A   1      40.898  28.039  28.751  1.00  0.00     0.074 A 
ATOM     47  C   UNL A   1      39.886  27.094  28.333  1.00  0.00     0.031 C 
ATOM     48  C   UNL A   1      46.289  24.564  28.589  1.00  0.00     0.029 A 
ATOM     49  C   UNL A   1      46.147  25.973  28.944  1.00  0.00     0.049 A 
ATOM     50  H   UNL A   1      44.379  27.062  29.119  1.00  0.00     0.167 HD
ATOM     51  C   UNL A   1      40.649  29.335  29.060  1.00  0.00     0.034 A 
ATOM     52  C   UNL A   1      47.165  26.808  29.234  1.00  0.00     0.034 A 
ATOM     53  C   UNL A   1      41.649  30.261  29.519  1.00  0.00     0.049 A 
ATOM     54  C   UNL A   1      46.865  28.235  29.600  1.00  0.00     0.074 A 
ATOM     55  C   UNL A   1      41.481  31.571  29.932  1.00  0.00     0.029 A 
ATOM     56  N   UNL A   1      43.002  29.979  29.624  1.00  0.00    -0.354 N 
ATOM     57  N   UNL A   1      45.703  28.838  29.678  1.00  0.00    -0.248 NA
ATOM     58  C   UNL A   1      48.009  29.091  29.945  1.00  0.00     0.031 C 
ATOM     59  C   UNL A   1      42.736  32.086  30.271  1.00  0.00     0.029 A 
ATOM     60  C   UNL A   1      43.684  31.092  30.090  1.00  0.00     0.049 A 
ATOM     61  H   UNL A   1      43.418  29.115  29.401  1.00  0.00     0.167 HD
ATOM     62  C   UNL A   1      45.971  30.135  30.103  1.00  0.00     0.074 A 
ATOM     63  C   UNL A   1      47.406  30.223  30.287  1.00  0.00     0.031 C 
ATOM     64  C   UNL A   1      45.107  31.160  30.308  1.00  0.00     0.034 A 
BRANCH  51  65
ATOM     65  C   UNL A   1      39.220  29.809  28.969  1.00  0.00     0.023 A 
ATOM     66  C   UNL A   1      38.545  29.731  27.734  1.00  0.00     0.012 A 
ATOM     67  C   UNL A   1      38.533  30.283  30.102  1.00  0.00     0.148 A 
ATOM     68  C   UNL A   1      37.222  30.155  27.617  1.00  0.00     0.002 A 
ATOM     69  C   UNL A   1      37.198  30.661  29.989  1.00  0.00     0.091 A 
ATOM     70  F   UNL A   1      39.195  30.373  31.264  1.00  0.00    -0.205 F 
ATOM     71  C   UNL A   1      36.546  30.609  28.745  1.00  0.00     0.022 A 
BRANCH  69  72
ATOM     72  S   UNL A   1      36.219  31.180  31.402  1.00  0.00     0.127 S 
ATOM     73  O   UNL A   1      36.060  29.922  32.130  1.00  0.00    -0.237 OA
ATOM     74  O   UNL A   1      37.101  32.151  32.051  1.00  0.00    -0.237 OA
ATOM     75  O   UNL A   1      34.996  31.748  30.852  1.00  0.00    -0.744 OA
ENDBRANCH  69  72
ENDBRANCH  51  65
BRANCH  52  76
ATOM     76  C   UNL A   1      48.554  26.271  29.274  1.00  0.00     0.023 A 
ATOM     77  C   UNL A   1      49.376  26.421  28.140  1.00  0.00     0.012 A 
ATOM     78  C   UNL A   1      49.093  25.705  30.445  1.00  0.00     0.148 A 
ATOM     79  C   UNL A   1      50.709  26.011  28.169  1.00  0.00     0.002 A 
ATOM     80  C   UNL A   1      50.436  25.347  30.485  1.00  0.00     0.091 A 
ATOM     81  F   UNL A   1      48.291  25.570  31.511  1.00  0.00    -0.205 F 
ATOM     82  C   UNL A   1      51.242  25.487  29.344  1.00  0.00     0.022 A 
BRANCH  80  83
ATOM     83  S   UNL A   1      51.251  24.792  31.986  1.00  0.00     0.127 S 
ATOM     84  O   UNL A   1      50.629  25.644  32.997  1.00  0.00    -0.237 OA
ATOM     85  O   UNL A   1      50.855  23.386  32.036  1.00  0.00    -0.237 OA
ATOM     86  O   UNL A   1      52.674  25.015  31.772  1.00  0.00    -0.744 OA
ENDBRANCH  80  83
ENDBRANCH  52  76
BRANCH  64  87
ATOM     87  C   UNL A   1      45.674  32.481  30.762  1.00  0.00     0.023 A 
ATOM     88  C   UNL A   1      46.014  33.457  29.806  1.00  0.00     0.012 A 
ATOM     89  C   UNL A   1      45.768  32.794  32.133  1.00  0.00     0.148 A 
ATOM     90  C   UNL A   1      46.456  34.717  30.205  1.00  0.00     0.002 A 
ATOM     91  C   UNL A   1      46.164  34.069  32.524  1.00  0.00     0.091 A 
ATOM     92  F   UNL A   1      45.459  31.846  33.029  1.00  0.00    -0.205 F 
ATOM     93  C   UNL A   1      46.518  35.028  31.561  1.00  0.00     0.022 A 
BRANCH  91  94
ATOM     94  S   UNL A   1      46.176  34.591  34.244  1.00  0.00     0.127 S 
ATOM     95  O   UNL A   1      47.283  33.805  34.785  1.00  0.00    -0.237 OA
ATOM     96  O   UNL A   1      46.442  36.025  34.132  1.00  0.00    -0.237 OA
ATOM     97  O   UNL A   1      44.859  34.260  34.771  1.00  0.00    -0.744 OA
ENDBRANCH  91  94
ENDBRANCH  64  87
ENDBRANCH  38  39
ENDBRANCH  30  33
ENDBRANCH  28  29
ENDBRANCH  27  28
ENDBRANCH  26  27
ENDBRANCH   1  26
TORSDOF 20
ENDMDL
MODEL 2
REMARK VINA RESULT:      -8.5      1.838      7.790
REMARK SMILES O=C(CSc1nnc(-c2cccc(C(F)(F)F)c2F)o1)NCCCCCCNC(=O)c1ccc(-c2c3nc(c(-c4cccc(S(=O)(=O)[O-])c4F)c4ccc([nH]4)c(-c4cccc(S(=O)(=O)[O-])c4F)c4nc(c(-c5cccc(S(=O)(=O)[O-])c5F)c5ccc2[nH]5)C=C4)C=C3)cc1
REMARK SMILES IDX 24 1 23 2 22 3 21 4 1 5 2 6 3 8 4 9 5 10 6 11 20 12 7 13
REMARK SMILES IDX 8 14 9 15 10 16 18 17 11 18 13 19 19 20 12 21 14 22 15 23
REMARK SMILES IDX 16 24 17 25 25 26 26 27 27 28 28 29 29 30 30 32 31 33 32 34
REMARK SMILES IDX 93 35 33 36 92 37 34 38 35 39 36 40 86 41 37 42 91 43 85 44
REMARK SMILES IDX 87 45 38 46 90 47 84 48 83 49 39 51 71 52 51 53 70 54 52 55
REMARK SMILES IDX 55 56 69 57 88 58 53 59 54 60 68 62 89 63 56 64 40 65 41 66
REMARK SMILES IDX 49 67 42 68 44 69 50 70 43 71 45 72 46 73 47 74 48 75 72 76
REMARK SMILES IDX 73 77 81 78 74 79 76 80 82 81 75 82 77 83 78 84 79 85 80 86
REMARK SMILES IDX 57 87 58 88 66 89 59 90 61 91 67 92 60 93 62 94 63 95 64 96
REMARK SMILES IDX 65 97
REMARK H PARENT 21 7 28 31 87 50 55 61
REMARK Flexibility Score: inf
ROOT
ATOM      1  C   UNL A   1      45.180  22.115  26.040  1.00  0.00     0.002 C 
ENDROOT
BRANCH   1   2
ATOM      2  C   UNL A   1      46.063  23.369  25.968  1.00  0.00     0.021 C 
BRANCH   2   3
ATOM      3  C   UNL A   1      45.577  24.449  25.002  1.00  0.00     0.116 C 
BRANCH   3   4
ATOM      4  N   UNL A   1      46.345  25.673  25.132  1.00  0.00    -0.355 N 
ATOM      5  O   UNL A   1      44.550  27.108  25.118  1.00  0.00    -0.274 OA
ATOM      6  C   UNL A   1      45.760  26.920  25.198  1.00  0.00     0.230 C 
ATOM      7  H   UNL A   1      47.326  25.611  25.176  1.00  0.00     0.163 HD
BRANCH   6   8
ATOM      8  C   UNL A   1      46.729  28.086  25.263  1.00  0.00     0.179 C 
BRANCH   8   9
ATOM      9  S   UNL A   1      46.893  28.771  26.925  1.00  0.00    -0.055 SA
BRANCH   9  10
ATOM     10  C   UNL A   1      46.161  30.334  26.734  1.00  0.00     0.277 A 
ATOM     11  N   UNL A   1      45.981  30.883  25.550  1.00  0.00    -0.101 NA
ATOM     12  O   UNL A   1      45.597  31.073  27.746  1.00  0.00    -0.411 OA
ATOM     13  N   UNL A   1      45.249  32.028  25.750  1.00  0.00    -0.107 NA
ATOM     14  C   UNL A   1      45.046  32.119  27.049  1.00  0.00     0.251 A 
BRANCH  14  15
ATOM     15  C   UNL A   1      44.193  33.053  27.763  1.00  0.00     0.075 A 
ATOM     16  C   UNL A   1      43.434  32.576  28.844  1.00  0.00     0.017 A 
ATOM     17  C   UNL A   1      44.064  34.395  27.392  1.00  0.00     0.148 A 
ATOM     18  C   UNL A   1      42.574  33.422  29.544  1.00  0.00     0.002 A 
ATOM     19  C   UNL A   1      43.186  35.251  28.065  1.00  0.00     0.092 A 
ATOM     20  F   UNL A   1      44.775  34.863  26.357  1.00  0.00    -0.205 F 
ATOM     21  C   UNL A   1      42.447  34.751  29.153  1.00  0.00     0.016 A 
BRANCH  19  22
ATOM     22  C   UNL A   1      42.995  36.680  27.644  1.00  0.00     0.419 C 
ATOM     23  F   UNL A   1      42.449  36.776  26.399  1.00  0.00    -0.166 F 
ATOM     24  F   UNL A   1      42.126  37.336  28.468  1.00  0.00    -0.166 F 
ATOM     25  F   UNL A   1      44.120  37.440  27.619  1.00  0.00    -0.166 F 
ENDBRANCH  19  22
ENDBRANCH  14  15
ENDBRANCH   9  10
ENDBRANCH   8   9
ENDBRANCH   6   8
ENDBRANCH   3   4
ENDBRANCH   2   3
ENDBRANCH   1   2
BRANCH   1  26
ATOM     26  C   UNL A   1      45.155  21.245  24.779  1.00  0.00     0.002 C 
BRANCH  26  27
ATOM     27  C   UNL A   1      44.214  20.040  24.826  1.00  0.00     0.021 C 
BRANCH  27  28
ATOM     28  C   UNL A   1      43.331  19.952  26.068  1.00  0.00     0.116 C 
BRANCH  28  29
ATOM     29  N   UNL A   1      41.917  20.135  25.768  1.00  0.00    -0.352 N 
ATOM     30  C   UNL A   1      41.081  21.161  26.135  1.00  0.00     0.251 C 
ATOM     31  H   UNL A   1      41.504  19.425  25.225  1.00  0.00     0.163 HD
ATOM     32  O   UNL A   1      39.875  21.083  25.916  1.00  0.00    -0.269 OA
BRANCH  30  33
ATOM     33  C   UNL A   1      41.633  22.351  26.820  1.00  0.00     0.039 A 
ATOM     34  C   UNL A   1      41.883  23.510  26.079  1.00  0.00     0.014 A 
ATOM     35  C   UNL A   1      41.890  22.325  28.193  1.00  0.00     0.014 A 
ATOM     36  C   UNL A   1      42.324  24.666  26.729  1.00  0.00     0.010 A 
ATOM     37  C   UNL A   1      42.264  23.497  28.847  1.00  0.00     0.010 A 
ATOM     38  C   UNL A   1      42.484  24.679  28.123  1.00  0.00    -0.014 A 
BRANCH  38  39
ATOM     39  C   UNL A   1      42.862  25.914  28.857  1.00  0.00     0.031 A 
ATOM     40  C   UNL A   1      44.299  26.169  29.219  1.00  0.00     0.074 A 
ATOM     41  C   UNL A   1      41.901  26.752  29.293  1.00  0.00     0.049 A 
ATOM     42  N   UNL A   1      44.808  27.127  29.950  1.00  0.00    -0.248 NA
ATOM     43  C   UNL A   1      45.291  25.204  28.717  1.00  0.00     0.031 C 
ATOM     44  C   UNL A   1      40.466  26.583  29.064  1.00  0.00     0.029 A 
ATOM     45  N   UNL A   1      41.985  27.898  30.045  1.00  0.00    -0.354 N 
ATOM     46  C   UNL A   1      46.169  26.861  30.029  1.00  0.00     0.074 A 
ATOM     47  C   UNL A   1      46.401  25.632  29.300  1.00  0.00     0.031 C 
ATOM     48  C   UNL A   1      39.805  27.588  29.657  1.00  0.00     0.029 A 
ATOM     49  C   UNL A   1      40.763  28.455  30.337  1.00  0.00     0.049 A 
ATOM     50  H   UNL A   1      42.840  28.284  30.346  1.00  0.00     0.167 HD
ATOM     51  C   UNL A   1      47.144  27.589  30.624  1.00  0.00     0.034 A 
ATOM     52  C   UNL A   1      40.446  29.538  31.076  1.00  0.00     0.034 A 
ATOM     53  C   UNL A   1      46.917  28.833  31.309  1.00  0.00     0.049 A 
ATOM     54  C   UNL A   1      41.544  30.347  31.706  1.00  0.00     0.074 A 
ATOM     55  C   UNL A   1      47.849  29.684  31.875  1.00  0.00     0.029 A 
ATOM     56  N   UNL A   1      45.672  29.404  31.524  1.00  0.00    -0.354 N 
ATOM     57  N   UNL A   1      42.840  30.153  31.659  1.00  0.00    -0.248 NA
ATOM     58  C   UNL A   1      41.143  31.539  32.467  1.00  0.00     0.031 C 
ATOM     59  C   UNL A   1      47.166  30.761  32.447  1.00  0.00     0.029 A 
ATOM     60  C   UNL A   1      45.809  30.594  32.220  1.00  0.00     0.049 A 
ATOM     61  H   UNL A   1      44.816  29.020  31.225  1.00  0.00     0.167 HD
ATOM     62  C   UNL A   1      43.412  31.209  32.362  1.00  0.00     0.074 A 
ATOM     63  C   UNL A   1      42.320  32.052  32.806  1.00  0.00     0.031 C 
ATOM     64  C   UNL A   1      44.721  31.448  32.625  1.00  0.00     0.034 A 
BRANCH  51  65
ATOM     65  C   UNL A   1      48.560  27.084  30.504  1.00  0.00     0.023 A 
ATOM     66  C   UNL A   1      49.373  27.554  29.453  1.00  0.00     0.012 A 
ATOM     67  C   UNL A   1      49.100  26.189  31.446  1.00  0.00     0.148 A 
ATOM     68  C   UNL A   1      50.688  27.112  29.316  1.00  0.00     0.002 A 
ATOM     69  C   UNL A   1      50.427  25.787  31.331  1.00  0.00     0.091 A 
ATOM     70  F   UNL A   1      48.307  25.732  32.426  1.00  0.00    -0.205 F 
ATOM     71  C   UNL A   1      51.218  26.237  30.261  1.00  0.00     0.022 A 
BRANCH  69  72
ATOM     72  S   UNL A   1      51.224  24.729  32.544  1.00  0.00     0.127 S 
ATOM     73  O   UNL A   1      50.479  23.481  32.383  1.00  0.00    -0.237 OA
ATOM     74  O   UNL A   1      52.603  24.681  32.057  1.00  0.00    -0.237 OA
ATOM     75  O   UNL A   1      51.059  25.399  33.826  1.00  0.00    -0.744 OA
ENDBRANCH  69  72
ENDBRANCH  51  65
BRANCH  52  76
ATOM     76  C   UNL A   1      39.018  29.956  31.171  1.00  0.00     0.023 A 
ATOM     77  C   UNL A   1      38.195  29.354  32.143  1.00  0.00     0.012 A 
ATOM     78  C   UNL A   1      38.501  31.001  30.382  1.00  0.00     0.148 A 
ATOM     79  C   UNL A   1      36.879  29.781  32.322  1.00  0.00     0.002 A 
ATOM     80  C   UNL A   1      37.206  31.457  30.601  1.00  0.00     0.091 A 
ATOM     81  F   UNL A   1      39.303  31.557  29.462  1.00  0.00    -0.205 F 
ATOM     82  C   UNL A   1      36.389  30.840  31.562  1.00  0.00     0.022 A 
BRANCH  80  83
ATOM     83  S   UNL A   1      36.529  32.900  29.773  1.00  0.00     0.127 S 
ATOM     84  O   UNL A   1      35.166  32.933  30.296  1.00  0.00    -0.237 OA
ATOM     85  O   UNL A   1      37.405  33.962  30.267  1.00  0.00    -0.237 OA
ATOM     86  O   UNL A   1      36.645  32.632  28.347  1.00  0.00    -0.744 OA
ENDBRANCH  80  83
ENDBRANCH  52  76
BRANCH  64  87
ATOM     87  C   UNL A   1      45.067  32.675  33.430  1.00  0.00     0.023 A 
ATOM     88  C   UNL A   1      45.213  32.570  34.826  1.00  0.00     0.012 A 
ATOM     89  C   UNL A   1      45.352  33.899  32.794  1.00  0.00     0.148 A 
ATOM     90  C   UNL A   1      45.619  33.670  35.581  1.00  0.00     0.002 A 
ATOM     91  C   UNL A   1      45.803  34.979  33.547  1.00  0.00     0.091 A 
ATOM     92  F   UNL A   1      45.189  33.985  31.466  1.00  0.00    -0.205 F 
ATOM     93  C   UNL A   1      45.927  34.869  34.941  1.00  0.00     0.022 A 
BRANCH  91  94
ATOM     94  S   UNL A   1      46.320  36.528  32.798  1.00  0.00     0.127 S 
ATOM     95  O   UNL A   1      45.043  37.083  32.351  1.00  0.00    -0.237 OA
ATOM     96  O   UNL A   1      46.930  37.231  33.926  1.00  0.00    -0.237 OA
ATOM     97  O   UNL A   1      47.250  36.168  31.736  1.00  0.00    -0.744 OA
ENDBRANCH  91  94
ENDBRANCH  64  87
ENDBRANCH  38  39
ENDBRANCH  30  33
ENDBRANCH  28  29
ENDBRANCH  27  28
ENDBRANCH  26  27
ENDBRANCH   1  26
TORSDOF 20
ENDMDL
MODEL 3
REMARK VINA RESULT:      -8.2      6.936     13.210
REMARK SMILES O=C(CSc1nnc(-c2cccc(C(F)(F)F)c2F)o1)NCCCCCCNC(=O)c1ccc(-c2c3nc(c(-c4cccc(S(=O)(=O)[O-])c4F)c4ccc([nH]4)c(-c4cccc(S(=O)(=O)[O-])c4F)c4nc(c(-c5cccc(S(=O)(=O)[O-])c5F)c5ccc2[nH]5)C=C4)C=C3)cc1
REMARK SMILES IDX 24 1 23 2 22 3 21 4 1 5 2 6 3 8 4 9 5 10 6 11 20 12 7 13
REMARK SMILES IDX 8 14 9 15 10 16 18 17 11 18 13 19 19 20 12 21 14 22 15 23
REMARK SMILES IDX 16 24 17 25 25 26 26 27 27 28 28 29 29 30 30 32 31 33 32 34
REMARK SMILES IDX 93 35 33 36 92 37 34 38 35 39 36 40 86 41 37 42 91 43 85 44
REMARK SMILES IDX 87 45 38 46 90 47 84 48 83 49 39 51 71 52 51 53 70 54 52 55
REMARK SMILES IDX 55 56 69 57 88 58 53 59 54 60 68 62 89 63 56 64 40 65 41 66
REMARK SMILES IDX 49 67 42 68 44 69 50 70 43 71 45 72 46 73 47 74 48 75 72 76
REMARK SMILES IDX 73 77 81 78 74 79 76 80 82 81 75 82 77 83 78 84 79 85 80 86
REMARK SMILES IDX 57 87 58 88 66 89 59 90 61 91 67 92 60 93 62 94 63 95 64 96
REMARK SMILES IDX 65 97
REMARK H PARENT 21 7 28 31 87 50 55 61
REMARK Flexibility Score: inf
ROOT
ATOM      1  C   UNL A   1      35.607  30.359  28.421  1.00  0.00     0.002 C 
ENDROOT
BRANCH   1   2
ATOM      2  C   UNL A   1      35.496  29.113  27.532  1.00  0.00     0.021 C 
BRANCH   2   3
ATOM      3  C   UNL A   1      34.686  29.301  26.250  1.00  0.00     0.116 C 
BRANCH   3   4
ATOM      4  N   UNL A   1      33.804  28.177  25.999  1.00  0.00    -0.355 N 
ATOM      5  O   UNL A   1      32.427  29.254  24.508  1.00  0.00    -0.274 OA
ATOM      6  C   UNL A   1      32.742  28.239  25.123  1.00  0.00     0.230 C 
ATOM      7  H   UNL A   1      33.973  27.331  26.475  1.00  0.00     0.163 HD
BRANCH   6   8
ATOM      8  C   UNL A   1      31.892  26.984  25.046  1.00  0.00     0.179 C 
BRANCH   8   9
ATOM      9  S   UNL A   1      31.419  26.357  26.672  1.00  0.00    -0.055 SA
BRANCH   9  10
ATOM     10  C   UNL A   1      31.307  24.650  26.370  1.00  0.00     0.277 A 
ATOM     11  N   UNL A   1      30.427  23.887  26.984  1.00  0.00    -0.101 NA
ATOM     12  O   UNL A   1      32.008  23.970  25.403  1.00  0.00    -0.411 OA
ATOM     13  N   UNL A   1      30.508  22.643  26.405  1.00  0.00    -0.107 NA
ATOM     14  C   UNL A   1      31.449  22.719  25.487  1.00  0.00     0.251 A 
BRANCH  14  15
ATOM     15  C   UNL A   1      31.813  21.731  24.486  1.00  0.00     0.075 A 
ATOM     16  C   UNL A   1      31.562  22.022  23.135  1.00  0.00     0.017 A 
ATOM     17  C   UNL A   1      32.359  20.487  24.815  1.00  0.00     0.148 A 
ATOM     18  C   UNL A   1      31.860  21.097  22.136  1.00  0.00     0.002 A 
ATOM     19  C   UNL A   1      32.639  19.535  23.828  1.00  0.00     0.092 A 
ATOM     20  F   UNL A   1      32.594  20.191  26.101  1.00  0.00    -0.205 F 
ATOM     21  C   UNL A   1      32.391  19.857  22.481  1.00  0.00     0.016 A 
BRANCH  19  22
ATOM     22  C   UNL A   1      33.174  18.174  24.170  1.00  0.00     0.419 C 
ATOM     23  F   UNL A   1      33.332  17.396  23.062  1.00  0.00    -0.166 F 
ATOM     24  F   UNL A   1      34.415  18.249  24.735  1.00  0.00    -0.166 F 
ATOM     25  F   UNL A   1      32.420  17.447  25.033  1.00  0.00    -0.166 F 
ENDBRANCH  19  22
ENDBRANCH  14  15
ENDBRANCH   9  10
ENDBRANCH   8   9
ENDBRANCH   6   8
ENDBRANCH   3   4
ENDBRANCH   2   3
ENDBRANCH   1   2
BRANCH   1  26
ATOM     26  C   UNL A   1      35.405  31.702  27.713  1.00  0.00     0.002 C 
BRANCH  26  27
ATOM     27  C   UNL A   1      34.096  32.428  28.034  1.00  0.00     0.021 C 
BRANCH  27  28
ATOM     28  C   UNL A   1      34.118  33.938  27.811  1.00  0.00     0.116 C 
BRANCH  28  29
ATOM     29  N   UNL A   1      33.307  34.661  28.781  1.00  0.00    -0.352 N 
ATOM     30  C   UNL A   1      33.476  34.768  30.141  1.00  0.00     0.251 C 
ATOM     31  H   UNL A   1      32.531  35.140  28.411  1.00  0.00     0.163 HD
ATOM     32  O   UNL A   1      32.611  35.303  30.830  1.00  0.00    -0.269 OA
BRANCH  30  33
ATOM     33  C   UNL A   1      34.693  34.215  30.777  1.00  0.00     0.039 A 
ATOM     34  C   UNL A   1      34.566  33.172  31.698  1.00  0.00     0.014 A 
ATOM     35  C   UNL A   1      35.955  34.717  30.453  1.00  0.00     0.014 A 
ATOM     36  C   UNL A   1      35.712  32.584  32.242  1.00  0.00     0.010 A 
ATOM     37  C   UNL A   1      37.096  34.085  30.943  1.00  0.00     0.010 A 
ATOM     38  C   UNL A   1      36.986  33.013  31.841  1.00  0.00    -0.014 A 
BRANCH  38  39
ATOM     39  C   UNL A   1      38.225  32.350  32.327  1.00  0.00     0.031 A 
ATOM     40  C   UNL A   1      38.848  31.236  31.534  1.00  0.00     0.074 A 
ATOM     41  C   UNL A   1      38.727  32.679  33.533  1.00  0.00     0.049 A 
ATOM     42  N   UNL A   1      39.858  30.465  31.847  1.00  0.00    -0.248 NA
ATOM     43  C   UNL A   1      38.237  30.927  30.231  1.00  0.00     0.031 C 
ATOM     44  C   UNL A   1      38.177  33.698  34.428  1.00  0.00     0.029 A 
ATOM     45  N   UNL A   1      39.796  32.167  34.227  1.00  0.00    -0.354 N 
ATOM     46  C   UNL A   1      39.979  29.558  30.802  1.00  0.00     0.074 A 
ATOM     47  C   UNL A   1      38.918  29.852  29.862  1.00  0.00     0.031 C 
ATOM     48  C   UNL A   1      38.914  33.741  35.549  1.00  0.00     0.029 A 
ATOM     49  C   UNL A   1      39.966  32.731  35.469  1.00  0.00     0.049 A 
ATOM     50  H   UNL A   1      40.385  31.464  33.869  1.00  0.00     0.167 HD
ATOM     51  C   UNL A   1      40.909  28.589  30.621  1.00  0.00     0.034 A 
ATOM     52  C   UNL A   1      40.862  32.463  36.440  1.00  0.00     0.034 A 
ATOM     53  C   UNL A   1      41.989  28.329  31.534  1.00  0.00     0.049 A 
ATOM     54  C   UNL A   1      41.903  31.403  36.211  1.00  0.00     0.074 A 
ATOM     55  C   UNL A   1      43.027  27.423  31.401  1.00  0.00     0.029 A 
ATOM     56  N   UNL A   1      42.172  28.970  32.750  1.00  0.00    -0.354 N 
ATOM     57  N   UNL A   1      42.084  30.643  35.157  1.00  0.00    -0.248 NA
ATOM     58  C   UNL A   1      42.879  31.181  37.286  1.00  0.00     0.031 C 
ATOM     59  C   UNL A   1      43.827  27.506  32.545  1.00  0.00     0.029 A 
ATOM     60  C   UNL A   1      43.301  28.476  33.383  1.00  0.00     0.049 A 
ATOM     61  H   UNL A   1      41.584  29.673  33.112  1.00  0.00     0.167 HD
ATOM     62  C   UNL A   1      43.207  29.869  35.431  1.00  0.00     0.074 A 
ATOM     63  C   UNL A   1      43.677  30.269  36.743  1.00  0.00     0.031 C 
ATOM     64  C   UNL A   1      43.785  28.907  34.670  1.00  0.00     0.034 A 
BRANCH  51  65
ATOM     65  C   UNL A   1      40.832  27.779  29.352  1.00  0.00     0.023 A 
ATOM     66  C   UNL A   1      39.878  26.745  29.251  1.00  0.00     0.012 A 
ATOM     67  C   UNL A   1      41.660  28.064  28.250  1.00  0.00     0.148 A 
ATOM     68  C   UNL A   1      39.777  25.981  28.089  1.00  0.00     0.002 A 
ATOM     69  C   UNL A   1      41.521  27.328  27.078  1.00  0.00     0.091 A 
ATOM     70  F   UNL A   1      42.577  29.034  28.370  1.00  0.00    -0.205 F 
ATOM     71  C   UNL A   1      40.590  26.279  27.000  1.00  0.00     0.022 A 
BRANCH  69  72
ATOM     72  S   UNL A   1      42.465  27.691  25.593  1.00  0.00     0.127 S 
ATOM     73  O   UNL A   1      43.833  27.705  26.109  1.00  0.00    -0.237 OA
ATOM     74  O   UNL A   1      42.150  26.547  24.737  1.00  0.00    -0.237 OA
ATOM     75  O   UNL A   1      41.963  28.968  25.104  1.00  0.00    -0.744 OA
ENDBRANCH  69  72
ENDBRANCH  51  65
BRANCH  52  76
ATOM     76  C   UNL A   1      40.855  33.290  37.681  1.00  0.00     0.023 A 
ATOM     77  C   UNL A   1      41.846  34.276  37.849  1.00  0.00     0.012 A 
ATOM     78  C   UNL A   1      39.830  33.172  38.639  1.00  0.00     0.148 A 
ATOM     79  C   UNL A   1      41.821  35.128  38.953  1.00  0.00     0.002 A 
ATOM     80  C   UNL A   1      39.781  34.059  39.710  1.00  0.00     0.091 A 
ATOM     81  F   UNL A   1      38.899  32.224  38.459  1.00  0.00    -0.205 F 
ATOM     82  C   UNL A   1      40.783  35.028  39.875  1.00  0.00     0.022 A 
BRANCH  80  83
ATOM     83  S   UNL A   1      38.414  34.103  40.874  1.00  0.00     0.127 S 
ATOM     84  O   UNL A   1      37.385  33.355  40.156  1.00  0.00    -0.237 OA
ATOM     85  O   UNL A   1      38.985  33.412  42.029  1.00  0.00    -0.237 OA
ATOM     86  O   UNL A   1      38.123  35.513  41.092  1.00  0.00    -0.744 OA
ENDBRANCH  80  83
ENDBRANCH  52  76
BRANCH  64  87
ATOM     87  C   UNL A   1      45.001  28.207  35.221  1.00  0.00     0.023 A 
ATOM     88  C   UNL A   1      46.274  28.782  35.043  1.00  0.00     0.012 A 
ATOM     89  C   UNL A   1      44.872  27.042  36.004  1.00  0.00     0.148 A 
ATOM     90  C   UNL A   1      47.402  28.200  35.619  1.00  0.00     0.002 A 
ATOM     91  C   UNL A   1      45.995  26.494  36.615  1.00  0.00     0.091 A 
ATOM     92  F   UNL A   1      43.655  26.498  36.147  1.00  0.00    -0.205 F 
ATOM     93  C   UNL A   1      47.262  27.065  36.416  1.00  0.00     0.022 A 
BRANCH  91  94
ATOM     94  S   UNL A   1      45.895  25.095  37.739  1.00  0.00     0.127 S 
ATOM     95  O   UNL A   1      46.148  23.971  36.839  1.00  0.00    -0.237 OA
ATOM     96  O   UNL A   1      46.976  25.377  38.684  1.00  0.00    -0.237 OA
ATOM     97  O   UNL A   1      44.559  25.143  38.319  1.00  0.00    -0.744 OA
ENDBRANCH  91  94
ENDBRANCH  64  87
ENDBRANCH  38  39
ENDBRANCH  30  33
ENDBRANCH  28  29
ENDBRANCH  27  28
ENDBRANCH  26  27
ENDBRANCH   1  26
TORSDOF 20
ENDMDL
