MODEL 1
REMARK VINA RESULT:     -11.8      0.000      0.000
REMARK SMILES O=Cc1ccc2c(c1)C=C(C(=O)NCCCCCCNC(=O)c1ccc(-c3c4nc(c(-c5cccc(S(=O)(=O)[O-])c5F)c5ccc([nH]5)c(-c5cccc(S(=O)(=O)[O-])c5F)c5nc(c(-c6cccc(S(=O)(=O)[O-])c6F)c6ccc3[nH]6)C=C5)C=C4)cc1)[C@H](C(F)(F)F)O2
REMARK SMILES IDX 17 1 16 2 15 3 14 4 13 5 11 6 12 7 10 9 3 10 4 11 8 12 5 13
REMARK SMILES IDX 7 14 6 15 9 16 91 17 86 18 2 19 1 20 87 21 88 22 89 23 90 24
REMARK SMILES IDX 18 25 19 26 20 27 21 28 22 30 23 31 24 32 85 33 25 34 84 35
REMARK SMILES IDX 26 36 27 37 28 38 78 39 29 40 83 41 77 42 79 43 30 44 82 45
REMARK SMILES IDX 76 46 75 47 31 49 63 50 43 51 62 52 44 53 47 54 61 55 80 56
REMARK SMILES IDX 45 57 46 58 60 60 81 61 48 62 32 63 33 64 41 65 34 66 36 67
REMARK SMILES IDX 42 68 35 69 37 70 38 71 39 72 40 73 64 74 65 75 73 76 66 77
REMARK SMILES IDX 68 78 74 79 67 80 69 81 70 82 71 83 72 84 49 85 50 86 58 87
REMARK SMILES IDX 51 88 53 89 59 90 52 91 54 92 55 93 56 94 57 95
REMARK H PARENT 13 8 20 29 79 48 47 59
REMARK Flexibility Score: inf
ROOT
ATOM      1  C   UNL A   1      32.365  27.476  23.744  1.00  0.00     0.002 C 
ENDROOT
BRANCH   1   2
ATOM      2  C   UNL A   1      31.267  26.771  22.940  1.00  0.00     0.002 C 
BRANCH   2   3
ATOM      3  C   UNL A   1      31.589  25.320  22.553  1.00  0.00     0.021 C 
BRANCH   3   4
ATOM      4  C   UNL A   1      30.752  24.293  23.326  1.00  0.00     0.116 C 
BRANCH   4   5
ATOM      5  N   UNL A   1      30.843  24.570  24.750  1.00  0.00    -0.352 N 
ATOM      6  C   UNL A   1      31.366  23.877  25.792  1.00  0.00     0.251 C 
ATOM      7  O   UNL A   1      31.096  24.255  26.930  1.00  0.00    -0.270 OA
ATOM      8  H   UNL A   1      30.444  25.433  25.009  1.00  0.00     0.163 HD
BRANCH   6   9
ATOM      9  C   UNL A   1      32.318  22.749  25.617  1.00  0.00     0.067 C 
ATOM     10  C   UNL A   1      33.556  18.243  24.392  1.00  0.00     0.015 A 
ATOM     11  C   UNL A   1      34.908  18.580  24.497  1.00  0.00     0.015 A 
ATOM     12  C   UNL A   1      32.566  19.187  24.682  1.00  0.00     0.023 A 
ATOM     13  C   UNL A   1      35.271  19.873  24.871  1.00  0.00     0.048 A 
ATOM     14  C   UNL A   1      32.936  20.482  25.072  1.00  0.00     0.018 A 
ATOM     15  C   UNL A   1      34.286  20.821  25.153  1.00  0.00     0.128 A 
ATOM     16  C   UNL A   1      31.927  21.504  25.308  1.00  0.00     0.025 C 
ATOM     17  O   UNL A   1      34.727  22.077  25.436  1.00  0.00    -0.475 OA
ATOM     18  C   UNL A   1      33.776  23.046  25.964  1.00  0.00     0.314 C 
BRANCH  10  19
ATOM     19  C   UNL A   1      33.167  16.888  23.951  1.00  0.00     0.260 C 
ATOM     20  O   UNL A   1      33.899  16.214  23.236  1.00  0.00    -0.298 OA
ENDBRANCH  10  19
BRANCH  18  21
ATOM     21  C   UNL A   1      34.311  24.450  25.591  1.00  0.00     0.429 C 
ATOM     22  F   UNL A   1      35.649  24.561  25.749  1.00  0.00    -0.167 F 
ATOM     23  F   UNL A   1      34.084  24.721  24.276  1.00  0.00    -0.167 F 
ATOM     24  F   UNL A   1      33.717  25.438  26.299  1.00  0.00    -0.167 F 
ENDBRANCH  18  21
ENDBRANCH   6   9
ENDBRANCH   4   5
ENDBRANCH   3   4
ENDBRANCH   2   3
ENDBRANCH   1   2
BRANCH   1  25
ATOM     25  C   UNL A   1      31.964  28.830  24.337  1.00  0.00     0.021 C 
BRANCH  25  26
ATOM     26  C   UNL A   1      32.907  29.352  25.417  1.00  0.00     0.116 C 
BRANCH  26  27
ATOM     27  N   UNL A   1      32.533  30.687  25.855  1.00  0.00    -0.352 N 
ATOM     28  C   UNL A   1      33.023  31.430  26.900  1.00  0.00     0.251 C 
ATOM     29  H   UNL A   1      31.825  31.121  25.326  1.00  0.00     0.163 HD
ATOM     30  O   UNL A   1      32.425  32.436  27.267  1.00  0.00    -0.269 OA
BRANCH  28  31
ATOM     31  C   UNL A   1      34.269  31.015  27.583  1.00  0.00     0.039 A 
ATOM     32  C   UNL A   1      35.283  31.957  27.767  1.00  0.00     0.014 A 
ATOM     33  C   UNL A   1      34.449  29.696  28.009  1.00  0.00     0.014 A 
ATOM     34  C   UNL A   1      36.464  31.586  28.414  1.00  0.00     0.010 A 
ATOM     35  C   UNL A   1      35.598  29.345  28.715  1.00  0.00     0.010 A 
ATOM     36  C   UNL A   1      36.623  30.281  28.911  1.00  0.00    -0.014 A 
BRANCH  36  37
ATOM     37  C   UNL A   1      37.856  29.885  29.639  1.00  0.00     0.031 A 
ATOM     38  C   UNL A   1      38.136  30.427  31.014  1.00  0.00     0.074 A 
ATOM     39  C   UNL A   1      38.759  29.091  29.030  1.00  0.00     0.049 A 
ATOM     40  N   UNL A   1      39.166  30.209  31.792  1.00  0.00    -0.248 NA
ATOM     41  C   UNL A   1      37.144  31.355  31.583  1.00  0.00     0.031 C 
ATOM     42  C   UNL A   1      38.641  28.571  27.667  1.00  0.00     0.029 A 
ATOM     43  N   UNL A   1      39.961  28.601  29.471  1.00  0.00    -0.354 N 
ATOM     44  C   UNL A   1      38.963  30.992  32.921  1.00  0.00     0.074 A 
ATOM     45  C   UNL A   1      37.730  31.720  32.714  1.00  0.00     0.031 C 
ATOM     46  C   UNL A   1      39.724  27.828  27.385  1.00  0.00     0.029 A 
ATOM     47  C   UNL A   1      40.621  27.836  28.536  1.00  0.00     0.049 A 
ATOM     48  H   UNL A   1      40.320  28.780  30.370  1.00  0.00     0.167 HD
ATOM     49  C   UNL A   1      39.715  31.073  34.045  1.00  0.00     0.034 A 
ATOM     50  C   UNL A   1      41.812  27.211  28.602  1.00  0.00     0.034 A 
ATOM     51  C   UNL A   1      40.916  30.313  34.267  1.00  0.00     0.049 A 
ATOM     52  C   UNL A   1      42.601  27.273  29.881  1.00  0.00     0.074 A 
ATOM     53  C   UNL A   1      41.702  30.258  35.404  1.00  0.00     0.029 A 
ATOM     54  N   UNL A   1      41.506  29.476  33.333  1.00  0.00    -0.354 N 
ATOM     55  N   UNL A   1      42.309  27.889  31.001  1.00  0.00    -0.248 NA
ATOM     56  C   UNL A   1      43.863  26.521  29.920  1.00  0.00     0.031 C 
ATOM     57  C   UNL A   1      42.778  29.400  35.151  1.00  0.00     0.029 A 
ATOM     58  C   UNL A   1      42.650  28.904  33.863  1.00  0.00     0.049 A 
ATOM     59  H   UNL A   1      41.162  29.313  32.425  1.00  0.00     0.167 HD
ATOM     60  C   UNL A   1      43.330  27.571  31.888  1.00  0.00     0.074 A 
ATOM     61  C   UNL A   1      44.236  26.687  31.182  1.00  0.00     0.031 C 
ATOM     62  C   UNL A   1      43.513  27.986  33.167  1.00  0.00     0.034 A 
BRANCH  49  63
ATOM     63  C   UNL A   1      39.227  31.975  35.151  1.00  0.00     0.023 A 
ATOM     64  C   UNL A   1      38.243  31.504  36.044  1.00  0.00     0.012 A 
ATOM     65  C   UNL A   1      39.776  33.258  35.341  1.00  0.00     0.148 A 
ATOM     66  C   UNL A   1      37.787  32.307  37.089  1.00  0.00     0.002 A 
ATOM     67  C   UNL A   1      39.348  34.037  36.412  1.00  0.00     0.091 A 
ATOM     68  F   UNL A   1      40.694  33.699  34.470  1.00  0.00    -0.205 F 
ATOM     69  C   UNL A   1      38.347  33.568  37.279  1.00  0.00     0.022 A 
BRANCH  67  70
ATOM     70  S   UNL A   1      40.060  35.643  36.788  1.00  0.00     0.127 S 
ATOM     71  O   UNL A   1      39.594  36.443  35.657  1.00  0.00    -0.237 OA
ATOM     72  O   UNL A   1      39.429  35.968  38.067  1.00  0.00    -0.237 OA
ATOM     73  O   UNL A   1      41.500  35.436  36.856  1.00  0.00    -0.744 OA
ENDBRANCH  67  70
ENDBRANCH  49  63
BRANCH  50  74
ATOM     74  C   UNL A   1      42.290  26.402  27.445  1.00  0.00     0.023 A 
ATOM     75  C   UNL A   1      43.090  27.012  26.459  1.00  0.00     0.012 A 
ATOM     76  C   UNL A   1      41.988  25.031  27.332  1.00  0.00     0.148 A 
ATOM     77  C   UNL A   1      43.553  26.281  25.365  1.00  0.00     0.002 A 
ATOM     78  C   UNL A   1      42.499  24.295  26.270  1.00  0.00     0.091 A 
ATOM     79  F   UNL A   1      41.216  24.471  28.274  1.00  0.00    -0.205 F 
ATOM     80  C   UNL A   1      43.268  24.921  25.276  1.00  0.00     0.022 A 
BRANCH  78  81
ATOM     81  S   UNL A   1      42.298  22.514  26.151  1.00  0.00     0.127 S 
ATOM     82  O   UNL A   1      43.009  22.214  24.912  1.00  0.00    -0.237 OA
ATOM     83  O   UNL A   1      42.960  22.051  27.370  1.00  0.00    -0.237 OA
ATOM     84  O   UNL A   1      40.859  22.284  26.130  1.00  0.00    -0.744 OA
ENDBRANCH  78  81
ENDBRANCH  50  74
BRANCH  62  85
ATOM     85  C   UNL A   1      44.721  27.466  33.901  1.00  0.00     0.023 A 
ATOM     86  C   UNL A   1      45.937  28.177  33.839  1.00  0.00     0.012 A 
ATOM     87  C   UNL A   1      44.637  26.310  34.702  1.00  0.00     0.148 A 
ATOM     88  C   UNL A   1      47.058  27.726  34.534  1.00  0.00     0.002 A 
ATOM     89  C   UNL A   1      45.745  25.894  35.429  1.00  0.00     0.091 A 
ATOM     90  F   UNL A   1      43.478  25.635  34.733  1.00  0.00    -0.205 F 
ATOM     91  C   UNL A   1      46.959  26.592  35.337  1.00  0.00     0.022 A 
BRANCH  89  92
ATOM     92  S   UNL A   1      45.679  24.502  36.563  1.00  0.00     0.127 S 
ATOM     93  O   UNL A   1      44.908  25.059  37.674  1.00  0.00    -0.237 OA
ATOM     94  O   UNL A   1      44.972  23.490  35.777  1.00  0.00    -0.237 OA
ATOM     95  O   UNL A   1      47.064  24.168  36.865  1.00  0.00    -0.744 OA
ENDBRANCH  89  92
ENDBRANCH  62  85
ENDBRANCH  36  37
ENDBRANCH  28  31
ENDBRANCH  26  27
ENDBRANCH  25  26
ENDBRANCH   1  25
TORSDOF 18
ENDMDL
MODEL 2
REMARK VINA RESULT:     -11.8      5.126     10.269
REMARK SMILES O=Cc1ccc2c(c1)C=C(C(=O)NCCCCCCNC(=O)c1ccc(-c3c4nc(c(-c5cccc(S(=O)(=O)[O-])c5F)c5ccc([nH]5)c(-c5cccc(S(=O)(=O)[O-])c5F)c5nc(c(-c6cccc(S(=O)(=O)[O-])c6F)c6ccc3[nH]6)C=C5)C=C4)cc1)[C@H](C(F)(F)F)O2
REMARK SMILES IDX 17 1 16 2 15 3 14 4 13 5 11 6 12 7 10 9 3 10 4 11 8 12 5 13
REMARK SMILES IDX 7 14 6 15 9 16 91 17 86 18 2 19 1 20 87 21 88 22 89 23 90 24
REMARK SMILES IDX 18 25 19 26 20 27 21 28 22 30 23 31 24 32 85 33 25 34 84 35
REMARK SMILES IDX 26 36 27 37 28 38 78 39 29 40 83 41 77 42 79 43 30 44 82 45
REMARK SMILES IDX 76 46 75 47 31 49 63 50 43 51 62 52 44 53 47 54 61 55 80 56
REMARK SMILES IDX 45 57 46 58 60 60 81 61 48 62 32 63 33 64 41 65 34 66 36 67
REMARK SMILES IDX 42 68 35 69 37 70 38 71 39 72 40 73 64 74 65 75 73 76 66 77
REMARK SMILES IDX 68 78 74 79 67 80 69 81 70 82 71 83 72 84 49 85 50 86 58 87
REMARK SMILES IDX 51 88 53 89 59 90 52 91 54 92 55 93 56 94 57 95
REMARK H PARENT 13 8 20 29 79 48 47 59
REMARK Flexibility Score: inf
ROOT
ATOM      1  C   UNL A   1      33.396  22.083  25.550  1.00  0.00     0.002 C 
ENDROOT
BRANCH   1   2
ATOM      2  C   UNL A   1      32.251  21.935  24.540  1.00  0.00     0.002 C 
BRANCH   2   3
ATOM      3  C   UNL A   1      31.077  22.899  24.760  1.00  0.00     0.021 C 
BRANCH   3   4
ATOM      4  C   UNL A   1      30.729  23.717  23.510  1.00  0.00     0.116 C 
BRANCH   4   5
ATOM      5  N   UNL A   1      31.947  24.007  22.770  1.00  0.00    -0.352 N 
ATOM      6  C   UNL A   1      32.516  25.163  22.349  1.00  0.00     0.251 C 
ATOM      7  O   UNL A   1      33.439  25.092  21.540  1.00  0.00    -0.270 OA
ATOM      8  H   UNL A   1      32.460  23.202  22.526  1.00  0.00     0.163 HD
BRANCH   6   9
ATOM      9  C   UNL A   1      32.137  26.496  22.890  1.00  0.00     0.067 C 
ATOM     10  C   UNL A   1      29.245  30.332  23.392  1.00  0.00     0.015 A 
ATOM     11  C   UNL A   1      30.027  30.790  24.455  1.00  0.00     0.015 A 
ATOM     12  C   UNL A   1      29.594  29.163  22.707  1.00  0.00     0.023 A 
ATOM     13  C   UNL A   1      31.151  30.064  24.848  1.00  0.00     0.048 A 
ATOM     14  C   UNL A   1      30.733  28.446  23.097  1.00  0.00     0.018 A 
ATOM     15  C   UNL A   1      31.498  28.894  24.173  1.00  0.00     0.128 A 
ATOM     16  C   UNL A   1      31.077  27.189  22.449  1.00  0.00     0.025 C 
ATOM     17  O   UNL A   1      32.565  28.209  24.670  1.00  0.00    -0.475 OA
ATOM     18  C   UNL A   1      33.120  27.117  23.881  1.00  0.00     0.314 C 
BRANCH  10  19
ATOM     19  C   UNL A   1      28.027  31.071  23.003  1.00  0.00     0.260 C 
ATOM     20  O   UNL A   1      27.060  31.150  23.750  1.00  0.00    -0.298 OA
ENDBRANCH  10  19
BRANCH  18  21
ATOM     21  C   UNL A   1      33.815  26.154  24.873  1.00  0.00     0.429 C 
ATOM     22  F   UNL A   1      34.490  26.802  25.849  1.00  0.00    -0.167 F 
ATOM     23  F   UNL A   1      32.899  25.386  25.525  1.00  0.00    -0.167 F 
ATOM     24  F   UNL A   1      34.669  25.302  24.261  1.00  0.00    -0.167 F 
ENDBRANCH  18  21
ENDBRANCH   6   9
ENDBRANCH   4   5
ENDBRANCH   3   4
ENDBRANCH   2   3
ENDBRANCH   1   2
BRANCH   1  25
ATOM     25  C   UNL A   1      34.800  22.087  24.938  1.00  0.00     0.021 C 
BRANCH  25  26
ATOM     26  C   UNL A   1      35.929  22.281  25.947  1.00  0.00     0.116 C 
BRANCH  26  27
ATOM     27  N   UNL A   1      36.920  21.221  25.851  1.00  0.00    -0.352 N 
ATOM     28  C   UNL A   1      38.290  21.306  25.866  1.00  0.00     0.251 C 
ATOM     29  H   UNL A   1      36.556  20.310  25.761  1.00  0.00     0.163 HD
ATOM     30  O   UNL A   1      38.965  20.338  25.534  1.00  0.00    -0.269 OA
BRANCH  28  31
ATOM     31  C   UNL A   1      38.948  22.566  26.278  1.00  0.00     0.039 A 
ATOM     32  C   UNL A   1      40.005  22.507  27.190  1.00  0.00     0.014 A 
ATOM     33  C   UNL A   1      38.505  23.800  25.795  1.00  0.00     0.014 A 
ATOM     34  C   UNL A   1      40.642  23.685  27.587  1.00  0.00     0.010 A 
ATOM     35  C   UNL A   1      39.185  24.966  26.139  1.00  0.00     0.010 A 
ATOM     36  C   UNL A   1      40.251  24.922  27.050  1.00  0.00    -0.014 A 
BRANCH  36  37
ATOM     37  C   UNL A   1      40.949  26.177  27.431  1.00  0.00     0.031 A 
ATOM     38  C   UNL A   1      42.376  26.411  27.017  1.00  0.00     0.074 A 
ATOM     39  C   UNL A   1      40.317  27.076  28.212  1.00  0.00     0.049 A 
ATOM     40  N   UNL A   1      43.151  27.434  27.273  1.00  0.00    -0.248 NA
ATOM     41  C   UNL A   1      43.029  25.348  26.234  1.00  0.00     0.031 C 
ATOM     42  C   UNL A   1      38.963  26.923  28.749  1.00  0.00     0.029 A 
ATOM     43  N   UNL A   1      40.737  28.283  28.707  1.00  0.00    -0.354 N 
ATOM     44  C   UNL A   1      44.385  27.127  26.713  1.00  0.00     0.074 A 
ATOM     45  C   UNL A   1      44.269  25.806  26.135  1.00  0.00     0.031 C 
ATOM     46  C   UNL A   1      38.661  28.000  29.492  1.00  0.00     0.029 A 
ATOM     47  C   UNL A   1      39.805  28.908  29.503  1.00  0.00     0.049 A 
ATOM     48  H   UNL A   1      41.622  28.667  28.513  1.00  0.00     0.167 HD
ATOM     49  C   UNL A   1      45.505  27.887  26.654  1.00  0.00     0.034 A 
ATOM     50  C   UNL A   1      39.864  30.080  30.164  1.00  0.00     0.034 A 
ATOM     51  C   UNL A   1      45.602  29.219  27.189  1.00  0.00     0.049 A 
ATOM     52  C   UNL A   1      41.099  30.930  30.037  1.00  0.00     0.074 A 
ATOM     53  C   UNL A   1      46.662  30.105  27.105  1.00  0.00     0.029 A 
ATOM     54  N   UNL A   1      44.605  29.857  27.910  1.00  0.00    -0.354 N 
ATOM     55  N   UNL A   1      42.197  30.691  29.364  1.00  0.00    -0.248 NA
ATOM     56  C   UNL A   1      41.085  32.228  30.727  1.00  0.00     0.031 C 
ATOM     57  C   UNL A   1      46.310  31.274  27.791  1.00  0.00     0.029 A 
ATOM     58  C   UNL A   1      45.023  31.123  28.283  1.00  0.00     0.049 A 
ATOM     59  H   UNL A   1      43.727  29.467  28.125  1.00  0.00     0.167 HD
ATOM     60  C   UNL A   1      42.991  31.821  29.518  1.00  0.00     0.074 A 
ATOM     61  C   UNL A   1      42.236  32.754  30.330  1.00  0.00     0.031 C 
ATOM     62  C   UNL A   1      44.241  32.060  29.046  1.00  0.00     0.034 A 
BRANCH  49  63
ATOM     63  C   UNL A   1      46.699  27.319  25.932  1.00  0.00     0.023 A 
ATOM     64  C   UNL A   1      47.482  26.329  26.560  1.00  0.00     0.012 A 
ATOM     65  C   UNL A   1      47.015  27.719  24.618  1.00  0.00     0.148 A 
ATOM     66  C   UNL A   1      48.580  25.769  25.908  1.00  0.00     0.002 A 
ATOM     67  C   UNL A   1      48.085  27.125  23.957  1.00  0.00     0.091 A 
ATOM     68  F   UNL A   1      46.274  28.678  24.044  1.00  0.00    -0.205 F 
ATOM     69  C   UNL A   1      48.875  26.160  24.604  1.00  0.00     0.022 A 
BRANCH  67  70
ATOM     70  S   UNL A   1      48.501  27.503  22.251  1.00  0.00     0.127 S 
ATOM     71  O   UNL A   1      48.764  26.170  21.711  1.00  0.00    -0.237 OA
ATOM     72  O   UNL A   1      47.270  28.125  21.764  1.00  0.00    -0.237 OA
ATOM     73  O   UNL A   1      49.652  28.394  22.307  1.00  0.00    -0.744 OA
ENDBRANCH  67  70
ENDBRANCH  49  63
BRANCH  50  74
ATOM     74  C   UNL A   1      38.682  30.555  30.938  1.00  0.00     0.023 A 
ATOM     75  C   UNL A   1      38.628  30.326  32.327  1.00  0.00     0.012 A 
ATOM     76  C   UNL A   1      37.632  31.260  30.317  1.00  0.00     0.148 A 
ATOM     77  C   UNL A   1      37.536  30.761  33.078  1.00  0.00     0.002 A 
ATOM     78  C   UNL A   1      36.574  31.739  31.081  1.00  0.00     0.091 A 
ATOM     79  F   UNL A   1      37.696  31.457  28.993  1.00  0.00    -0.205 F 
ATOM     80  C   UNL A   1      36.515  31.476  32.458  1.00  0.00     0.022 A 
BRANCH  78  81
ATOM     81  S   UNL A   1      35.289  32.787  30.389  1.00  0.00     0.127 S 
ATOM     82  O   UNL A   1      34.724  31.924  29.356  1.00  0.00    -0.237 OA
ATOM     83  O   UNL A   1      34.423  33.011  31.547  1.00  0.00    -0.237 OA
ATOM     84  O   UNL A   1      35.973  33.982  29.916  1.00  0.00    -0.744 OA
ENDBRANCH  78  81
ENDBRANCH  50  74
BRANCH  62  85
ATOM     85  C   UNL A   1      44.863  33.394  29.367  1.00  0.00     0.023 A 
ATOM     86  C   UNL A   1      45.555  33.570  30.582  1.00  0.00     0.012 A 
ATOM     87  C   UNL A   1      44.816  34.453  28.438  1.00  0.00     0.148 A 
ATOM     88  C   UNL A   1      46.159  34.790  30.884  1.00  0.00     0.002 A 
ATOM     89  C   UNL A   1      45.461  35.650  28.726  1.00  0.00     0.091 A 
ATOM     90  F   UNL A   1      44.135  34.275  27.297  1.00  0.00    -0.205 F 
ATOM     91  C   UNL A   1      46.122  35.824  29.952  1.00  0.00     0.022 A 
BRANCH  89  92
ATOM     92  S   UNL A   1      45.546  37.000  27.543  1.00  0.00     0.127 S 
ATOM     93  O   UNL A   1      46.194  36.355  26.402  1.00  0.00    -0.237 OA
ATOM     94  O   UNL A   1      44.135  37.327  27.339  1.00  0.00    -0.237 OA
ATOM     95  O   UNL A   1      46.319  38.050  28.193  1.00  0.00    -0.744 OA
ENDBRANCH  89  92
ENDBRANCH  62  85
ENDBRANCH  36  37
ENDBRANCH  28  31
ENDBRANCH  26  27
ENDBRANCH  25  26
ENDBRANCH   1  25
TORSDOF 18
ENDMDL
MODEL 3
REMARK VINA RESULT:     -11.3      2.680      3.605
REMARK SMILES O=Cc1ccc2c(c1)C=C(C(=O)NCCCCCCNC(=O)c1ccc(-c3c4nc(c(-c5cccc(S(=O)(=O)[O-])c5F)c5ccc([nH]5)c(-c5cccc(S(=O)(=O)[O-])c5F)c5nc(c(-c6cccc(S(=O)(=O)[O-])c6F)c6ccc3[nH]6)C=C5)C=C4)cc1)[C@H](C(F)(F)F)O2
REMARK SMILES IDX 17 1 16 2 15 3 14 4 13 5 11 6 12 7 10 9 3 10 4 11 8 12 5 13
REMARK SMILES IDX 7 14 6 15 9 16 91 17 86 18 2 19 1 20 87 21 88 22 89 23 90 24
REMARK SMILES IDX 18 25 19 26 20 27 21 28 22 30 23 31 24 32 85 33 25 34 84 35
REMARK SMILES IDX 26 36 27 37 28 38 78 39 29 40 83 41 77 42 79 43 30 44 82 45
REMARK SMILES IDX 76 46 75 47 31 49 63 50 43 51 62 52 44 53 47 54 61 55 80 56
REMARK SMILES IDX 45 57 46 58 60 60 81 61 48 62 32 63 33 64 41 65 34 66 36 67
REMARK SMILES IDX 42 68 35 69 37 70 38 71 39 72 40 73 64 74 65 75 73 76 66 77
REMARK SMILES IDX 68 78 74 79 67 80 69 81 70 82 71 83 72 84 49 85 50 86 58 87
REMARK SMILES IDX 51 88 53 89 59 90 52 91 54 92 55 93 56 94 57 95
REMARK H PARENT 13 8 20 29 79 48 47 59
REMARK Flexibility Score: inf
ROOT
ATOM      1  C   UNL A   1      33.308  28.182  26.672  1.00  0.00     0.002 C 
ENDROOT
BRANCH   1   2
ATOM      2  C   UNL A   1      32.743  28.046  25.254  1.00  0.00     0.002 C 
BRANCH   2   3
ATOM      3  C   UNL A   1      31.218  28.193  25.156  1.00  0.00     0.021 C 
BRANCH   3   4
ATOM      4  C   UNL A   1      30.516  26.899  24.726  1.00  0.00     0.116 C 
BRANCH   4   5
ATOM      5  N   UNL A   1      30.445  25.990  25.858  1.00  0.00    -0.352 N 
ATOM      6  C   UNL A   1      31.115  24.853  26.170  1.00  0.00     0.251 C 
ATOM      7  O   UNL A   1      30.684  24.163  27.092  1.00  0.00    -0.270 OA
ATOM      8  H   UNL A   1      29.777  26.253  26.533  1.00  0.00     0.163 HD
BRANCH   6   9
ATOM      9  C   UNL A   1      32.389  24.458  25.512  1.00  0.00     0.067 C 
ATOM     10  C   UNL A   1      37.132  23.550  25.390  1.00  0.00     0.015 A 
ATOM     11  C   UNL A   1      36.999  22.993  24.116  1.00  0.00     0.015 A 
ATOM     12  C   UNL A   1      36.022  24.092  26.047  1.00  0.00     0.023 A 
ATOM     13  C   UNL A   1      35.745  22.956  23.506  1.00  0.00     0.048 A 
ATOM     14  C   UNL A   1      34.767  24.066  25.422  1.00  0.00     0.018 A 
ATOM     15  C   UNL A   1      34.634  23.488  24.161  1.00  0.00     0.128 A 
ATOM     16  C   UNL A   1      33.583  24.557  26.113  1.00  0.00     0.025 C 
ATOM     17  O   UNL A   1      33.438  23.343  23.526  1.00  0.00    -0.475 OA
ATOM     18  C   UNL A   1      32.286  24.075  24.037  1.00  0.00     0.314 C 
BRANCH  10  19
ATOM     19  C   UNL A   1      38.448  23.549  26.060  1.00  0.00     0.260 C 
ATOM     20  O   UNL A   1      39.022  24.593  26.344  1.00  0.00    -0.298 OA
ENDBRANCH  10  19
BRANCH  18  21
ATOM     21  C   UNL A   1      31.026  23.285  23.606  1.00  0.00     0.429 C 
ATOM     22  F   UNL A   1      31.292  22.335  22.682  1.00  0.00    -0.167 F 
ATOM     23  F   UNL A   1      30.491  22.613  24.662  1.00  0.00    -0.167 F 
ATOM     24  F   UNL A   1      30.050  24.086  23.121  1.00  0.00    -0.167 F 
ENDBRANCH  18  21
ENDBRANCH   6   9
ENDBRANCH   4   5
ENDBRANCH   3   4
ENDBRANCH   2   3
ENDBRANCH   1   2
BRANCH   1  25
ATOM     25  C   UNL A   1      33.050  29.534  27.345  1.00  0.00     0.021 C 
BRANCH  25  26
ATOM     26  C   UNL A   1      34.244  30.483  27.334  1.00  0.00     0.116 C 
BRANCH  26  27
ATOM     27  N   UNL A   1      34.031  31.621  28.214  1.00  0.00    -0.352 N 
ATOM     28  C   UNL A   1      34.719  31.990  29.343  1.00  0.00     0.251 C 
ATOM     29  H   UNL A   1      33.284  32.213  27.964  1.00  0.00     0.163 HD
ATOM     30  O   UNL A   1      34.251  32.842  30.092  1.00  0.00    -0.269 OA
BRANCH  28  31
ATOM     31  C   UNL A   1      36.020  31.358  29.656  1.00  0.00     0.039 A 
ATOM     32  C   UNL A   1      37.166  31.813  29.001  1.00  0.00     0.014 A 
ATOM     33  C   UNL A   1      36.104  30.300  30.566  1.00  0.00     0.014 A 
ATOM     34  C   UNL A   1      38.403  31.233  29.287  1.00  0.00     0.010 A 
ATOM     35  C   UNL A   1      37.347  29.769  30.901  1.00  0.00     0.010 A 
ATOM     36  C   UNL A   1      38.508  30.219  30.255  1.00  0.00    -0.014 A 
BRANCH  36  37
ATOM     37  C   UNL A   1      39.824  29.623  30.600  1.00  0.00     0.031 A 
ATOM     38  C   UNL A   1      40.649  30.195  31.720  1.00  0.00     0.074 A 
ATOM     39  C   UNL A   1      40.307  28.608  29.856  1.00  0.00     0.049 A 
ATOM     40  N   UNL A   1      41.827  29.820  32.151  1.00  0.00    -0.248 NA
ATOM     41  C   UNL A   1      40.093  31.356  32.436  1.00  0.00     0.031 C 
ATOM     42  C   UNL A   1      39.640  28.023  28.692  1.00  0.00     0.029 A 
ATOM     43  N   UNL A   1      41.481  27.906  29.955  1.00  0.00    -0.354 N 
ATOM     44  C   UNL A   1      42.165  30.712  33.161  1.00  0.00     0.074 A 
ATOM     45  C   UNL A   1      41.086  31.672  33.255  1.00  0.00     0.031 C 
ATOM     46  C   UNL A   1      40.411  27.045  28.189  1.00  0.00     0.029 A 
ATOM     47  C   UNL A   1      41.634  26.947  28.980  1.00  0.00     0.049 A 
ATOM     48  H   UNL A   1      42.151  28.071  30.657  1.00  0.00     0.167 HD
ATOM     49  C   UNL A   1      43.258  30.715  33.961  1.00  0.00     0.034 A 
ATOM     50  C   UNL A   1      42.645  26.086  28.751  1.00  0.00     0.034 A 
ATOM     51  C   UNL A   1      44.307  29.733  33.895  1.00  0.00     0.049 A 
ATOM     52  C   UNL A   1      43.821  26.075  29.689  1.00  0.00     0.074 A 
ATOM     53  C   UNL A   1      45.411  29.597  34.717  1.00  0.00     0.029 A 
ATOM     54  N   UNL A   1      44.383  28.719  32.953  1.00  0.00    -0.354 N 
ATOM     55  N   UNL A   1      44.044  26.823  30.741  1.00  0.00    -0.248 NA
ATOM     56  C   UNL A   1      44.865  25.073  29.430  1.00  0.00     0.031 C 
ATOM     57  C   UNL A   1      46.165  28.509  34.260  1.00  0.00     0.029 A 
ATOM     58  C   UNL A   1      45.518  27.956  33.167  1.00  0.00     0.049 A 
ATOM     59  H   UNL A   1      43.726  28.565  32.236  1.00  0.00     0.167 HD
ATOM     60  C   UNL A   1      45.233  26.360  31.292  1.00  0.00     0.074 A 
ATOM     61  C   UNL A   1      45.671  25.251  30.469  1.00  0.00     0.031 C 
ATOM     62  C   UNL A   1      45.913  26.823  32.371  1.00  0.00     0.034 A 
BRANCH  49  63
ATOM     63  C   UNL A   1      43.346  31.783  35.022  1.00  0.00     0.023 A 
ATOM     64  C   UNL A   1      44.057  32.970  34.753  1.00  0.00     0.012 A 
ATOM     65  C   UNL A   1      42.682  31.640  36.257  1.00  0.00     0.148 A 
ATOM     66  C   UNL A   1      44.138  33.984  35.706  1.00  0.00     0.002 A 
ATOM     67  C   UNL A   1      42.730  32.674  37.186  1.00  0.00     0.091 A 
ATOM     68  F   UNL A   1      42.028  30.497  36.505  1.00  0.00    -0.205 F 
ATOM     69  C   UNL A   1      43.466  33.840  36.917  1.00  0.00     0.022 A 
BRANCH  67  70
ATOM     70  S   UNL A   1      41.836  32.620  38.744  1.00  0.00     0.127 S 
ATOM     71  O   UNL A   1      40.484  32.293  38.295  1.00  0.00    -0.237 OA
ATOM     72  O   UNL A   1      42.521  31.539  39.454  1.00  0.00    -0.237 OA
ATOM     73  O   UNL A   1      41.996  33.937  39.343  1.00  0.00    -0.744 OA
ENDBRANCH  67  70
ENDBRANCH  49  63
BRANCH  50  74
ATOM     74  C   UNL A   1      42.546  25.107  27.632  1.00  0.00     0.023 A 
ATOM     75  C   UNL A   1      42.925  25.501  26.334  1.00  0.00     0.012 A 
ATOM     76  C   UNL A   1      42.113  23.785  27.849  1.00  0.00     0.148 A 
ATOM     77  C   UNL A   1      42.846  24.607  25.266  1.00  0.00     0.002 A 
ATOM     78  C   UNL A   1      42.089  22.883  26.791  1.00  0.00     0.091 A 
ATOM     79  F   UNL A   1      41.744  23.432  29.088  1.00  0.00    -0.205 F 
ATOM     80  C   UNL A   1      42.438  23.296  25.497  1.00  0.00     0.022 A 
BRANCH  78  81
ATOM     81  S   UNL A   1      41.712  21.142  27.024  1.00  0.00     0.127 S 
ATOM     82  O   UNL A   1      40.344  21.198  27.533  1.00  0.00    -0.237 OA
ATOM     83  O   UNL A   1      41.843  20.617  25.665  1.00  0.00    -0.237 OA
ATOM     84  O   UNL A   1      42.716  20.645  27.954  1.00  0.00    -0.744 OA
ENDBRANCH  78  81
ENDBRANCH  50  74
BRANCH  62  85
ATOM     85  C   UNL A   1      47.187  26.113  32.748  1.00  0.00     0.023 A 
ATOM     86  C   UNL A   1      48.419  26.570  32.240  1.00  0.00     0.012 A 
ATOM     87  C   UNL A   1      47.170  25.033  33.653  1.00  0.00     0.148 A 
ATOM     88  C   UNL A   1      49.611  25.942  32.599  1.00  0.00     0.002 A 
ATOM     89  C   UNL A   1      48.366  24.442  34.043  1.00  0.00     0.091 A 
ATOM     90  F   UNL A   1      45.986  24.598  34.110  1.00  0.00    -0.205 F 
ATOM     91  C   UNL A   1      49.586  24.887  33.509  1.00  0.00     0.022 A 
BRANCH  89  92
ATOM     92  S   UNL A   1      48.433  23.143  35.282  1.00  0.00     0.127 S 
ATOM     93  O   UNL A   1      49.867  22.865  35.345  1.00  0.00    -0.237 OA
ATOM     94  O   UNL A   1      47.888  23.809  36.465  1.00  0.00    -0.237 OA
ATOM     95  O   UNL A   1      47.606  22.060  34.768  1.00  0.00    -0.744 OA
ENDBRANCH  89  92
ENDBRANCH  62  85
ENDBRANCH  36  37
ENDBRANCH  28  31
ENDBRANCH  26  27
ENDBRANCH  25  26
ENDBRANCH   1  25
TORSDOF 18
ENDMDL
