MODEL 1
REMARK VINA RESULT:     -11.7      0.000      0.000
REMARK SMILES Cc1cc2c(c(C)c1Br)C=C(C(=O)NCCCCCCNC(=O)c1ccc(-c3c4nc(c(-c5cccc(S(=O)(=O)[O-])c5F)c5ccc([nH]5)c(-c5cccc(S(=O)(=O)[O-])c5F)c5nc(c(-c6cccc(S(=O)(=O)[O-])c6F)c6ccc3[nH]6)C=C5)C=C4)cc1)[C@@H](C(F)(F)F)O2
REMARK SMILES IDX 18 1 17 2 16 3 15 4 14 5 12 6 13 7 11 9 1 10 2 11 3 12 8 13
REMARK SMILES IDX 4 14 6 15 9 16 5 17 92 18 7 19 10 20 87 21 88 22 89 23 90 24
REMARK SMILES IDX 91 25 19 26 20 27 21 28 22 29 23 31 24 32 25 33 86 34 26 35
REMARK SMILES IDX 85 36 27 37 28 38 29 39 79 40 30 41 84 42 78 43 80 44 31 45
REMARK SMILES IDX 83 46 77 47 76 48 32 50 64 51 44 52 63 53 45 54 48 55 62 56
REMARK SMILES IDX 81 57 46 58 47 59 61 61 82 62 49 63 33 64 34 65 42 66 35 67
REMARK SMILES IDX 37 68 43 69 36 70 38 71 39 72 40 73 41 74 65 75 66 76 74 77
REMARK SMILES IDX 67 78 69 79 75 80 68 81 70 82 71 83 72 84 73 85 50 86 51 87
REMARK SMILES IDX 59 88 52 89 54 90 60 91 53 92 55 93 56 94 57 95 58 96
REMARK H PARENT 14 8 21 30 80 49 48 60
REMARK Flexibility Score: inf
ROOT
ATOM      1  C   UNL A   1      31.399  30.529  26.161  1.00  0.00     0.002 C 
ENDROOT
BRANCH   1   2
ATOM      2  C   UNL A   1      32.110  29.623  27.175  1.00  0.00     0.002 C 
BRANCH   2   3
ATOM      3  C   UNL A   1      32.583  28.279  26.620  1.00  0.00     0.021 C 
BRANCH   3   4
ATOM      4  C   UNL A   1      33.971  28.330  25.989  1.00  0.00     0.116 C 
BRANCH   4   5
ATOM      5  N   UNL A   1      33.912  28.182  24.545  1.00  0.00    -0.352 N 
ATOM      6  C   UNL A   1      33.650  27.190  23.663  1.00  0.00     0.251 C 
ATOM      7  O   UNL A   1      33.682  27.522  22.472  1.00  0.00    -0.270 OA
ATOM      8  H   UNL A   1      34.117  29.028  24.087  1.00  0.00     0.163 HD
BRANCH   6   9
ATOM      9  C   UNL A   1      33.340  25.773  24.025  1.00  0.00     0.067 C 
ATOM     10  C   UNL A   1      33.292  19.495  25.725  1.00  0.00     0.046 C 
ATOM     11  C   UNL A   1      33.662  20.859  25.208  1.00  0.00    -0.033 A 
ATOM     12  C   UNL A   1      32.673  21.842  25.273  1.00  0.00     0.051 A 
ATOM     13  C   UNL A   1      34.943  21.218  24.737  1.00  0.00     0.024 A 
ATOM     14  C   UNL A   1      32.933  23.143  24.863  1.00  0.00     0.128 A 
ATOM     15  C   UNL A   1      35.217  22.542  24.298  1.00  0.00    -0.026 A 
ATOM     16  Br  UNL A   1      36.321  19.889  24.740  1.00  0.00    -0.050 Br
ATOM     17  C   UNL A   1      34.190  23.516  24.384  1.00  0.00     0.021 A 
ATOM     18  O   UNL A   1      31.891  24.005  25.016  1.00  0.00    -0.475 OA
ATOM     19  C   UNL A   1      36.568  22.953  23.757  1.00  0.00     0.046 C 
ATOM     20  C   UNL A   1      34.390  24.931  24.052  1.00  0.00     0.026 C 
ATOM     21  C   UNL A   1      31.959  25.266  24.314  1.00  0.00     0.314 C 
BRANCH  21  22
ATOM     22  C   UNL A   1      31.078  25.193  23.055  1.00  0.00     0.429 C 
ATOM     23  F   UNL A   1      30.403  26.354  22.877  1.00  0.00    -0.167 F 
ATOM     24  F   UNL A   1      31.798  24.991  21.927  1.00  0.00    -0.167 F 
ATOM     25  F   UNL A   1      30.167  24.194  23.123  1.00  0.00    -0.167 F 
ENDBRANCH  21  22
ENDBRANCH   6   9
ENDBRANCH   4   5
ENDBRANCH   3   4
ENDBRANCH   2   3
ENDBRANCH   1   2
BRANCH   1  26
ATOM     26  C   UNL A   1      31.409  32.024  26.499  1.00  0.00     0.021 C 
BRANCH  26  27
ATOM     27  C   UNL A   1      32.767  32.570  26.926  1.00  0.00     0.116 C 
BRANCH  27  28
ATOM     28  N   UNL A   1      32.664  33.932  27.428  1.00  0.00    -0.352 N 
ATOM     29  C   UNL A   1      33.283  34.503  28.507  1.00  0.00     0.251 C 
ATOM     30  H   UNL A   1      32.065  34.525  26.921  1.00  0.00     0.163 HD
ATOM     31  O   UNL A   1      32.908  35.603  28.919  1.00  0.00    -0.269 OA
BRANCH  29  32
ATOM     32  C   UNL A   1      34.395  33.800  29.176  1.00  0.00     0.039 A 
ATOM     33  C   UNL A   1      34.105  32.749  30.050  1.00  0.00     0.014 A 
ATOM     34  C   UNL A   1      35.719  34.192  28.955  1.00  0.00     0.014 A 
ATOM     35  C   UNL A   1      35.148  32.061  30.671  1.00  0.00     0.010 A 
ATOM     36  C   UNL A   1      36.758  33.466  29.525  1.00  0.00     0.010 A 
ATOM     37  C   UNL A   1      36.482  32.400  30.394  1.00  0.00    -0.014 A 
BRANCH  37  38
ATOM     38  C   UNL A   1      37.613  31.653  30.996  1.00  0.00     0.031 A 
ATOM     39  C   UNL A   1      38.062  31.967  32.395  1.00  0.00     0.074 A 
ATOM     40  C   UNL A   1      38.286  30.756  30.249  1.00  0.00     0.049 A 
ATOM     41  N   UNL A   1      39.087  31.500  33.056  1.00  0.00    -0.248 NA
ATOM     42  C   UNL A   1      37.265  32.954  33.144  1.00  0.00     0.031 C 
ATOM     43  C   UNL A   1      37.968  30.404  28.864  1.00  0.00     0.029 A 
ATOM     44  N   UNL A   1      39.392  29.999  30.539  1.00  0.00    -0.354 N 
ATOM     45  C   UNL A   1      39.077  32.149  34.285  1.00  0.00     0.074 A 
ATOM     46  C   UNL A   1      37.961  33.071  34.265  1.00  0.00     0.031 C 
ATOM     47  C   UNL A   1      38.856  29.499  28.426  1.00  0.00     0.029 A 
ATOM     48  C   UNL A   1      39.829  29.235  29.482  1.00  0.00     0.049 A 
ATOM     49  H   UNL A   1      39.833  30.002  31.421  1.00  0.00     0.167 HD
ATOM     50  C   UNL A   1      39.904  31.973  35.341  1.00  0.00     0.034 A 
ATOM     51  C   UNL A   1      40.897  28.420  29.373  1.00  0.00     0.034 A 
ATOM     52  C   UNL A   1      40.993  31.033  35.360  1.00  0.00     0.049 A 
ATOM     53  C   UNL A   1      41.796  28.236  30.566  1.00  0.00     0.074 A 
ATOM     54  C   UNL A   1      41.861  30.746  36.398  1.00  0.00     0.029 A 
ATOM     55  N   UNL A   1      41.363  30.226  34.294  1.00  0.00    -0.354 N 
ATOM     56  N   UNL A   1      41.708  28.781  31.757  1.00  0.00    -0.248 NA
ATOM     57  C   UNL A   1      42.919  27.302  30.415  1.00  0.00     0.031 C 
ATOM     58  C   UNL A   1      42.770  29.782  35.952  1.00  0.00     0.029 A 
ATOM     59  C   UNL A   1      42.447  29.441  34.649  1.00  0.00     0.049 A 
ATOM     60  H   UNL A   1      40.920  30.213  33.415  1.00  0.00     0.167 HD
ATOM     61  C   UNL A   1      42.736  28.224  32.508  1.00  0.00     0.074 A 
ATOM     62  C   UNL A   1      43.423  27.287  31.641  1.00  0.00     0.031 C 
ATOM     63  C   UNL A   1      43.088  28.475  33.793  1.00  0.00     0.034 A 
BRANCH  50  64
ATOM     64  C   UNL A   1      39.632  32.768  36.594  1.00  0.00     0.023 A 
ATOM     65  C   UNL A   1      40.246  34.027  36.761  1.00  0.00     0.012 A 
ATOM     66  C   UNL A   1      38.707  32.319  37.556  1.00  0.00     0.148 A 
ATOM     67  C   UNL A   1      39.963  34.814  37.877  1.00  0.00     0.002 A 
ATOM     68  C   UNL A   1      38.393  33.130  38.641  1.00  0.00     0.091 A 
ATOM     69  F   UNL A   1      38.150  31.110  37.393  1.00  0.00    -0.205 F 
ATOM     70  C   UNL A   1      39.027  34.372  38.808  1.00  0.00     0.022 A 
BRANCH  68  71
ATOM     71  S   UNL A   1      37.137  32.696  39.849  1.00  0.00     0.127 S 
ATOM     72  O   UNL A   1      37.234  33.813  40.790  1.00  0.00    -0.237 OA
ATOM     73  O   UNL A   1      35.919  32.687  39.038  1.00  0.00    -0.237 OA
ATOM     74  O   UNL A   1      37.524  31.398  40.385  1.00  0.00    -0.744 OA
ENDBRANCH  68  71
ENDBRANCH  50  64
BRANCH  51  75
ATOM     75  C   UNL A   1      41.120  27.660  28.110  1.00  0.00     0.023 A 
ATOM     76  C   UNL A   1      41.664  28.327  26.995  1.00  0.00     0.012 A 
ATOM     77  C   UNL A   1      40.857  26.279  28.024  1.00  0.00     0.148 A 
ATOM     78  C   UNL A   1      41.922  27.638  25.810  1.00  0.00     0.002 A 
ATOM     79  C   UNL A   1      41.173  25.586  26.861  1.00  0.00     0.091 A 
ATOM     80  F   UNL A   1      40.329  25.666  29.092  1.00  0.00    -0.205 F 
ATOM     81  C   UNL A   1      41.690  26.267  25.747  1.00  0.00     0.022 A 
BRANCH  79  82
ATOM     82  S   UNL A   1      41.046  23.799  26.736  1.00  0.00     0.127 S 
ATOM     83  O   UNL A   1      41.514  23.373  28.053  1.00  0.00    -0.237 OA
ATOM     84  O   UNL A   1      39.614  23.616  26.501  1.00  0.00    -0.237 OA
ATOM     85  O   UNL A   1      41.893  23.420  25.613  1.00  0.00    -0.744 OA
ENDBRANCH  79  82
ENDBRANCH  51  75
BRANCH  63  86
ATOM     86  C   UNL A   1      44.249  27.703  34.368  1.00  0.00     0.023 A 
ATOM     87  C   UNL A   1      45.549  28.242  34.312  1.00  0.00     0.012 A 
ATOM     88  C   UNL A   1      44.035  26.483  35.042  1.00  0.00     0.148 A 
ATOM     89  C   UNL A   1      46.624  27.565  34.887  1.00  0.00     0.002 A 
ATOM     90  C   UNL A   1      45.102  25.842  35.660  1.00  0.00     0.091 A 
ATOM     91  F   UNL A   1      42.795  25.976  35.070  1.00  0.00    -0.205 F 
ATOM     92  C   UNL A   1      46.398  26.373  35.572  1.00  0.00     0.022 A 
BRANCH  90  93
ATOM     93  S   UNL A   1      44.886  24.362  36.657  1.00  0.00     0.127 S 
ATOM     94  O   UNL A   1      44.010  24.846  37.722  1.00  0.00    -0.237 OA
ATOM     95  O   UNL A   1      44.249  23.443  35.714  1.00  0.00    -0.237 OA
ATOM     96  O   UNL A   1      46.222  23.964  37.078  1.00  0.00    -0.744 OA
ENDBRANCH  90  93
ENDBRANCH  63  86
ENDBRANCH  37  38
ENDBRANCH  29  32
ENDBRANCH  27  28
ENDBRANCH  26  27
ENDBRANCH   1  26
TORSDOF 17
ENDMDL
MODEL 2
REMARK VINA RESULT:     -11.7      1.737      7.732
REMARK SMILES Cc1cc2c(c(C)c1Br)C=C(C(=O)NCCCCCCNC(=O)c1ccc(-c3c4nc(c(-c5cccc(S(=O)(=O)[O-])c5F)c5ccc([nH]5)c(-c5cccc(S(=O)(=O)[O-])c5F)c5nc(c(-c6cccc(S(=O)(=O)[O-])c6F)c6ccc3[nH]6)C=C5)C=C4)cc1)[C@@H](C(F)(F)F)O2
REMARK SMILES IDX 18 1 17 2 16 3 15 4 14 5 12 6 13 7 11 9 1 10 2 11 3 12 8 13
REMARK SMILES IDX 4 14 6 15 9 16 5 17 92 18 7 19 10 20 87 21 88 22 89 23 90 24
REMARK SMILES IDX 91 25 19 26 20 27 21 28 22 29 23 31 24 32 25 33 86 34 26 35
REMARK SMILES IDX 85 36 27 37 28 38 29 39 79 40 30 41 84 42 78 43 80 44 31 45
REMARK SMILES IDX 83 46 77 47 76 48 32 50 64 51 44 52 63 53 45 54 48 55 62 56
REMARK SMILES IDX 81 57 46 58 47 59 61 61 82 62 49 63 33 64 34 65 42 66 35 67
REMARK SMILES IDX 37 68 43 69 36 70 38 71 39 72 40 73 41 74 65 75 66 76 74 77
REMARK SMILES IDX 67 78 69 79 75 80 68 81 70 82 71 83 72 84 73 85 50 86 51 87
REMARK SMILES IDX 59 88 52 89 54 90 60 91 53 92 55 93 56 94 57 95 58 96
REMARK H PARENT 14 8 21 30 80 49 48 60
REMARK Flexibility Score: inf
ROOT
ATOM      1  C   UNL A   1      31.772  30.020  26.290  1.00  0.00     0.002 C 
ENDROOT
BRANCH   1   2
ATOM      2  C   UNL A   1      31.997  29.575  24.839  1.00  0.00     0.002 C 
BRANCH   2   3
ATOM      3  C   UNL A   1      33.251  28.730  24.610  1.00  0.00     0.021 C 
BRANCH   3   4
ATOM      4  C   UNL A   1      32.958  27.259  24.336  1.00  0.00     0.116 C 
BRANCH   4   5
ATOM      5  N   UNL A   1      32.109  26.678  25.363  1.00  0.00    -0.352 N 
ATOM      6  C   UNL A   1      31.953  25.469  25.949  1.00  0.00     0.251 C 
ATOM      7  O   UNL A   1      31.096  25.421  26.839  1.00  0.00    -0.270 OA
ATOM      8  H   UNL A   1      31.482  27.341  25.730  1.00  0.00     0.163 HD
BRANCH   6   9
ATOM      9  C   UNL A   1      32.720  24.234  25.598  1.00  0.00     0.067 C 
ATOM     10  C   UNL A   1      36.989  19.386  24.841  1.00  0.00     0.046 C 
ATOM     11  C   UNL A   1      36.325  20.714  25.086  1.00  0.00    -0.033 A 
ATOM     12  C   UNL A   1      34.939  20.760  24.921  1.00  0.00     0.051 A 
ATOM     13  C   UNL A   1      36.992  21.874  25.534  1.00  0.00     0.024 A 
ATOM     14  C   UNL A   1      34.231  21.928  25.168  1.00  0.00     0.128 A 
ATOM     15  C   UNL A   1      36.281  23.081  25.774  1.00  0.00    -0.026 A 
ATOM     16  Br  UNL A   1      38.878  21.776  25.850  1.00  0.00    -0.050 Br
ATOM     17  C   UNL A   1      34.873  23.089  25.602  1.00  0.00     0.021 A 
ATOM     18  O   UNL A   1      32.884  21.820  25.002  1.00  0.00    -0.475 OA
ATOM     19  C   UNL A   1      36.967  24.350  26.223  1.00  0.00     0.046 C 
ATOM     20  C   UNL A   1      34.028  24.248  25.915  1.00  0.00     0.026 C 
ATOM     21  C   UNL A   1      32.123  23.045  24.907  1.00  0.00     0.314 C 
BRANCH  21  22
ATOM     22  C   UNL A   1      31.791  23.322  23.431  1.00  0.00     0.429 C 
ATOM     23  F   UNL A   1      32.129  22.262  22.658  1.00  0.00    -0.167 F 
ATOM     24  F   UNL A   1      30.471  23.540  23.227  1.00  0.00    -0.167 F 
ATOM     25  F   UNL A   1      32.446  24.405  22.952  1.00  0.00    -0.167 F 
ENDBRANCH  21  22
ENDBRANCH   6   9
ENDBRANCH   4   5
ENDBRANCH   3   4
ENDBRANCH   2   3
ENDBRANCH   1   2
BRANCH   1  26
ATOM     26  C   UNL A   1      31.693  31.536  26.506  1.00  0.00     0.021 C 
BRANCH  26  27
ATOM     27  C   UNL A   1      32.830  32.119  27.338  1.00  0.00     0.116 C 
BRANCH  27  28
ATOM     28  N   UNL A   1      32.626  33.533  27.611  1.00  0.00    -0.352 N 
ATOM     29  C   UNL A   1      33.208  34.320  28.568  1.00  0.00     0.251 C 
ATOM     30  H   UNL A   1      31.978  33.987  27.026  1.00  0.00     0.163 HD
ATOM     31  O   UNL A   1      32.752  35.441  28.800  1.00  0.00    -0.269 OA
BRANCH  29  32
ATOM     32  C   UNL A   1      34.377  33.824  29.319  1.00  0.00     0.039 A 
ATOM     33  C   UNL A   1      34.175  32.944  30.385  1.00  0.00     0.014 A 
ATOM     34  C   UNL A   1      35.668  34.244  28.983  1.00  0.00     0.014 A 
ATOM     35  C   UNL A   1      35.274  32.450  31.089  1.00  0.00     0.010 A 
ATOM     36  C   UNL A   1      36.764  33.702  29.644  1.00  0.00     0.010 A 
ATOM     37  C   UNL A   1      36.577  32.807  30.708  1.00  0.00    -0.014 A 
BRANCH  37  38
ATOM     38  C   UNL A   1      37.767  32.256  31.401  1.00  0.00     0.031 A 
ATOM     39  C   UNL A   1      38.528  31.113  30.792  1.00  0.00     0.074 A 
ATOM     40  C   UNL A   1      38.103  32.730  32.616  1.00  0.00     0.049 A 
ATOM     41  N   UNL A   1      39.525  30.430  31.289  1.00  0.00    -0.248 NA
ATOM     42  C   UNL A   1      38.098  30.661  29.457  1.00  0.00     0.031 C 
ATOM     43  C   UNL A   1      37.408  33.807  33.324  1.00  0.00     0.029 A 
ATOM     44  N   UNL A   1      39.096  32.350  33.482  1.00  0.00    -0.354 N 
ATOM     45  C   UNL A   1      39.827  29.456  30.345  1.00  0.00     0.074 A 
ATOM     46  C   UNL A   1      38.884  29.614  29.259  1.00  0.00     0.031 C 
ATOM     47  C   UNL A   1      37.996  34.002  34.514  1.00  0.00     0.029 A 
ATOM     48  C   UNL A   1      39.084  33.041  34.671  1.00  0.00     0.049 A 
ATOM     49  H   UNL A   1      39.755  31.648  33.273  1.00  0.00     0.167 HD
ATOM     50  C   UNL A   1      40.818  28.534  30.369  1.00  0.00     0.034 A 
ATOM     51  C   UNL A   1      39.856  32.910  35.768  1.00  0.00     0.034 A 
ATOM     52  C   UNL A   1      41.769  28.405  31.441  1.00  0.00     0.049 A 
ATOM     53  C   UNL A   1      40.955  31.882  35.765  1.00  0.00     0.074 A 
ATOM     54  C   UNL A   1      42.838  27.533  31.540  1.00  0.00     0.029 A 
ATOM     55  N   UNL A   1      41.767  29.168  32.599  1.00  0.00    -0.354 N 
ATOM     56  N   UNL A   1      41.293  31.039  34.818  1.00  0.00    -0.248 NA
ATOM     57  C   UNL A   1      41.801  31.809  36.963  1.00  0.00     0.031 C 
ATOM     58  C   UNL A   1      43.469  27.754  32.767  1.00  0.00     0.029 A 
ATOM     59  C   UNL A   1      42.817  28.788  33.418  1.00  0.00     0.049 A 
ATOM     60  H   UNL A   1      41.116  29.877  32.807  1.00  0.00     0.167 HD
ATOM     61  C   UNL A   1      42.414  30.366  35.288  1.00  0.00     0.074 A 
ATOM     62  C   UNL A   1      42.707  30.913  36.598  1.00  0.00     0.031 C 
ATOM     63  C   UNL A   1      43.128  29.377  34.696  1.00  0.00     0.034 A 
BRANCH  50  64
ATOM     64  C   UNL A   1      40.968  27.626  29.174  1.00  0.00     0.023 A 
ATOM     65  C   UNL A   1      40.189  26.453  29.094  1.00  0.00     0.012 A 
ATOM     66  C   UNL A   1      41.806  27.973  28.096  1.00  0.00     0.148 A 
ATOM     67  C   UNL A   1      40.259  25.627  27.972  1.00  0.00     0.002 A 
ATOM     68  C   UNL A   1      41.833  27.171  26.960  1.00  0.00     0.091 A 
ATOM     69  F   UNL A   1      42.556  29.079  28.198  1.00  0.00    -0.205 F 
ATOM     70  C   UNL A   1      41.068  25.994  26.901  1.00  0.00     0.022 A 
BRANCH  68  71
ATOM     71  S   UNL A   1      42.772  27.598  25.490  1.00  0.00     0.127 S 
ATOM     72  O   UNL A   1      42.577  26.410  24.659  1.00  0.00    -0.237 OA
ATOM     73  O   UNL A   1      42.074  28.794  25.016  1.00  0.00    -0.237 OA
ATOM     74  O   UNL A   1      44.139  27.826  25.937  1.00  0.00    -0.744 OA
ENDBRANCH  68  71
ENDBRANCH  50  64
BRANCH  51  75
ATOM     75  C   UNL A   1      39.661  33.833  36.922  1.00  0.00     0.023 A 
ATOM     76  C   UNL A   1      40.036  35.185  36.791  1.00  0.00     0.012 A 
ATOM     77  C   UNL A   1      39.057  33.401  38.119  1.00  0.00     0.148 A 
ATOM     78  C   UNL A   1      39.831  36.085  37.837  1.00  0.00     0.002 A 
ATOM     79  C   UNL A   1      38.801  34.316  39.134  1.00  0.00     0.091 A 
ATOM     80  F   UNL A   1      38.718  32.109  38.228  1.00  0.00    -0.205 F 
ATOM     81  C   UNL A   1      39.204  35.654  39.002  1.00  0.00     0.022 A 
BRANCH  79  82
ATOM     82  S   UNL A   1      37.867  33.888  40.608  1.00  0.00     0.127 S 
ATOM     83  O   UNL A   1      38.836  33.088  41.354  1.00  0.00    -0.237 OA
ATOM     84  O   UNL A   1      37.587  35.206  41.177  1.00  0.00    -0.237 OA
ATOM     85  O   UNL A   1      36.689  33.173  40.136  1.00  0.00    -0.744 OA
ENDBRANCH  79  82
ENDBRANCH  51  75
BRANCH  63  86
ATOM     86  C   UNL A   1      44.326  28.834  35.435  1.00  0.00     0.023 A 
ATOM     87  C   UNL A   1      45.596  29.410  35.232  1.00  0.00     0.012 A 
ATOM     88  C   UNL A   1      44.175  27.812  36.393  1.00  0.00     0.148 A 
ATOM     89  C   UNL A   1      46.703  28.954  35.947  1.00  0.00     0.002 A 
ATOM     90  C   UNL A   1      45.273  27.402  37.141  1.00  0.00     0.091 A 
ATOM     91  F   UNL A   1      42.964  27.264  36.560  1.00  0.00    -0.205 F 
ATOM     92  C   UNL A   1      46.539  27.961  36.910  1.00  0.00     0.022 A 
BRANCH  90  93
ATOM     93  S   UNL A   1      45.133  26.208  38.478  1.00  0.00     0.127 S 
ATOM     94  O   UNL A   1      44.163  26.859  39.357  1.00  0.00    -0.237 OA
ATOM     95  O   UNL A   1      44.628  25.024  37.784  1.00  0.00    -0.237 OA
ATOM     96  O   UNL A   1      46.474  26.061  39.026  1.00  0.00    -0.744 OA
ENDBRANCH  90  93
ENDBRANCH  63  86
ENDBRANCH  37  38
ENDBRANCH  29  32
ENDBRANCH  27  28
ENDBRANCH  26  27
ENDBRANCH   1  26
TORSDOF 17
ENDMDL
MODEL 3
REMARK VINA RESULT:     -11.7      3.427      4.614
REMARK SMILES Cc1cc2c(c(C)c1Br)C=C(C(=O)NCCCCCCNC(=O)c1ccc(-c3c4nc(c(-c5cccc(S(=O)(=O)[O-])c5F)c5ccc([nH]5)c(-c5cccc(S(=O)(=O)[O-])c5F)c5nc(c(-c6cccc(S(=O)(=O)[O-])c6F)c6ccc3[nH]6)C=C5)C=C4)cc1)[C@@H](C(F)(F)F)O2
REMARK SMILES IDX 18 1 17 2 16 3 15 4 14 5 12 6 13 7 11 9 1 10 2 11 3 12 8 13
REMARK SMILES IDX 4 14 6 15 9 16 5 17 92 18 7 19 10 20 87 21 88 22 89 23 90 24
REMARK SMILES IDX 91 25 19 26 20 27 21 28 22 29 23 31 24 32 25 33 86 34 26 35
REMARK SMILES IDX 85 36 27 37 28 38 29 39 79 40 30 41 84 42 78 43 80 44 31 45
REMARK SMILES IDX 83 46 77 47 76 48 32 50 64 51 44 52 63 53 45 54 48 55 62 56
REMARK SMILES IDX 81 57 46 58 47 59 61 61 82 62 49 63 33 64 34 65 42 66 35 67
REMARK SMILES IDX 37 68 43 69 36 70 38 71 39 72 40 73 41 74 65 75 66 76 74 77
REMARK SMILES IDX 67 78 69 79 75 80 68 81 70 82 71 83 72 84 73 85 50 86 51 87
REMARK SMILES IDX 59 88 52 89 54 90 60 91 53 92 55 93 56 94 57 95 58 96
REMARK H PARENT 14 8 21 30 80 49 48 60
REMARK Flexibility Score: inf
ROOT
ATOM      1  C   UNL A   1      33.151  26.901  25.388  1.00  0.00     0.002 C 
ENDROOT
BRANCH   1   2
ATOM      2  C   UNL A   1      31.936  26.678  24.478  1.00  0.00     0.002 C 
BRANCH   2   3
ATOM      3  C   UNL A   1      32.149  25.660  23.356  1.00  0.00     0.021 C 
BRANCH   3   4
ATOM      4  C   UNL A   1      30.933  24.779  23.088  1.00  0.00     0.116 C 
BRANCH   4   5
ATOM      5  N   UNL A   1      30.468  24.121  24.296  1.00  0.00    -0.352 N 
ATOM      6  C   UNL A   1      30.909  23.146  25.124  1.00  0.00     0.251 C 
ATOM      7  O   UNL A   1      30.181  22.909  26.095  1.00  0.00    -0.270 OA
ATOM      8  H   UNL A   1      29.601  24.480  24.592  1.00  0.00     0.163 HD
BRANCH   6   9
ATOM      9  C   UNL A   1      32.172  22.366  24.941  1.00  0.00     0.067 C 
ATOM     10  C   UNL A   1      38.168  19.847  24.990  1.00  0.00     0.046 C 
ATOM     11  C   UNL A   1      36.972  20.756  25.075  1.00  0.00    -0.033 A 
ATOM     12  C   UNL A   1      35.737  20.197  24.742  1.00  0.00     0.051 A 
ATOM     13  C   UNL A   1      37.010  22.091  25.531  1.00  0.00     0.024 A 
ATOM     14  C   UNL A   1      34.569  20.943  24.833  1.00  0.00     0.128 A 
ATOM     15  C   UNL A   1      35.823  22.870  25.612  1.00  0.00    -0.026 A 
ATOM     16  Br  UNL A   1      38.693  22.821  26.077  1.00  0.00    -0.050 Br
ATOM     17  C   UNL A   1      34.586  22.267  25.271  1.00  0.00     0.021 A 
ATOM     18  O   UNL A   1      33.435  20.261  24.513  1.00  0.00    -0.475 OA
ATOM     19  C   UNL A   1      35.831  24.313  26.065  1.00  0.00     0.046 C 
ATOM     20  C   UNL A   1      33.292  22.945  25.412  1.00  0.00     0.026 C 
ATOM     21  C   UNL A   1      32.242  21.035  24.255  1.00  0.00     0.314 C 
BRANCH  21  22
ATOM     22  C   UNL A   1      32.024  21.138  22.736  1.00  0.00     0.429 C 
ATOM     23  F   UNL A   1      32.890  22.024  22.188  1.00  0.00    -0.167 F 
ATOM     24  F   UNL A   1      32.226  19.961  22.099  1.00  0.00    -0.167 F 
ATOM     25  F   UNL A   1      30.771  21.542  22.423  1.00  0.00    -0.167 F 
ENDBRANCH  21  22
ENDBRANCH   6   9
ENDBRANCH   4   5
ENDBRANCH   3   4
ENDBRANCH   2   3
ENDBRANCH   1   2
BRANCH   1  26
ATOM     26  C   UNL A   1      33.475  28.367  25.699  1.00  0.00     0.021 C 
BRANCH  26  27
ATOM     27  C   UNL A   1      33.661  28.675  27.181  1.00  0.00     0.116 C 
BRANCH  27  28
ATOM     28  N   UNL A   1      33.652  30.107  27.437  1.00  0.00    -0.352 N 
ATOM     29  C   UNL A   1      34.551  30.864  28.141  1.00  0.00     0.251 C 
ATOM     30  H   UNL A   1      32.895  30.601  27.050  1.00  0.00     0.163 HD
ATOM     31  O   UNL A   1      34.269  32.024  28.446  1.00  0.00    -0.269 OA
BRANCH  29  32
ATOM     32  C   UNL A   1      35.851  30.288  28.534  1.00  0.00     0.039 A 
ATOM     33  C   UNL A   1      36.924  30.365  27.643  1.00  0.00     0.014 A 
ATOM     34  C   UNL A   1      36.003  29.655  29.772  1.00  0.00     0.014 A 
ATOM     35  C   UNL A   1      38.166  29.846  28.012  1.00  0.00     0.010 A 
ATOM     36  C   UNL A   1      37.255  29.195  30.162  1.00  0.00     0.010 A 
ATOM     37  C   UNL A   1      38.345  29.278  29.283  1.00  0.00    -0.014 A 
BRANCH  37  38
ATOM     38  C   UNL A   1      39.665  28.767  29.725  1.00  0.00     0.031 A 
ATOM     39  C   UNL A   1      40.436  29.497  30.788  1.00  0.00     0.074 A 
ATOM     40  C   UNL A   1      40.201  27.698  29.106  1.00  0.00     0.049 A 
ATOM     41  N   UNL A   1      41.643  29.269  31.234  1.00  0.00    -0.248 NA
ATOM     42  C   UNL A   1      39.773  30.651  31.419  1.00  0.00     0.031 C 
ATOM     43  C   UNL A   1      39.563  26.938  28.030  1.00  0.00     0.029 A 
ATOM     44  N   UNL A   1      41.416  27.082  29.272  1.00  0.00    -0.354 N 
ATOM     45  C   UNL A   1      41.895  30.259  32.176  1.00  0.00     0.074 A 
ATOM     46  C   UNL A   1      40.727  31.113  32.213  1.00  0.00     0.031 C 
ATOM     47  C   UNL A   1      40.389  25.957  27.634  1.00  0.00     0.029 A 
ATOM     48  C   UNL A   1      41.629  26.041  28.399  1.00  0.00     0.049 A 
ATOM     49  H   UNL A   1      42.072  27.358  29.953  1.00  0.00     0.167 HD
ATOM     50  C   UNL A   1      42.987  30.424  32.958  1.00  0.00     0.034 A 
ATOM     51  C   UNL A   1      42.706  25.249  28.228  1.00  0.00     0.034 A 
ATOM     52  C   UNL A   1      44.132  29.551  32.933  1.00  0.00     0.049 A 
ATOM     53  C   UNL A   1      43.905  25.449  29.116  1.00  0.00     0.074 A 
ATOM     54  C   UNL A   1      45.269  29.606  33.718  1.00  0.00     0.029 A 
ATOM     55  N   UNL A   1      44.283  28.467  32.083  1.00  0.00    -0.354 N 
ATOM     56  N   UNL A   1      44.083  26.327  30.075  1.00  0.00    -0.248 NA
ATOM     57  C   UNL A   1      45.035  24.532  28.924  1.00  0.00     0.031 C 
ATOM     58  C   UNL A   1      46.119  28.568  33.326  1.00  0.00     0.029 A 
ATOM     59  C   UNL A   1      45.496  27.844  32.323  1.00  0.00     0.049 A 
ATOM     60  H   UNL A   1      43.625  28.181  31.408  1.00  0.00     0.167 HD
ATOM     61  C   UNL A   1      45.326  26.041  30.629  1.00  0.00     0.074 A 
ATOM     62  C   UNL A   1      45.847  24.897  29.907  1.00  0.00     0.031 C 
ATOM     63  C   UNL A   1      45.980  26.674  31.632  1.00  0.00     0.034 A 
BRANCH  50  64
ATOM     64  C   UNL A   1      42.980  31.556  33.954  1.00  0.00     0.023 A 
ATOM     65  C   UNL A   1      43.501  32.812  33.578  1.00  0.00     0.012 A 
ATOM     66  C   UNL A   1      42.381  31.409  35.221  1.00  0.00     0.148 A 
ATOM     67  C   UNL A   1      43.450  33.895  34.455  1.00  0.00     0.002 A 
ATOM     68  C   UNL A   1      42.288  32.506  36.070  1.00  0.00     0.091 A 
ATOM     69  F   UNL A   1      41.911  30.203  35.570  1.00  0.00    -0.205 F 
ATOM     70  C   UNL A   1      42.831  33.746  35.693  1.00  0.00     0.022 A 
BRANCH  68  71
ATOM     71  S   UNL A   1      41.434  32.445  37.648  1.00  0.00     0.127 S 
ATOM     72  O   UNL A   1      40.124  31.925  37.256  1.00  0.00    -0.237 OA
ATOM     73  O   UNL A   1      42.260  31.505  38.408  1.00  0.00    -0.237 OA
ATOM     74  O   UNL A   1      41.434  33.808  38.160  1.00  0.00    -0.744 OA
ENDBRANCH  68  71
ENDBRANCH  50  64
BRANCH  51  75
ATOM     75  C   UNL A   1      42.660  24.147  27.226  1.00  0.00     0.023 A 
ATOM     76  C   UNL A   1      43.217  24.356  25.949  1.00  0.00     0.012 A 
ATOM     77  C   UNL A   1      42.129  22.882  27.544  1.00  0.00     0.148 A 
ATOM     78  C   UNL A   1      43.226  23.333  25.000  1.00  0.00     0.002 A 
ATOM     79  C   UNL A   1      42.196  21.849  26.615  1.00  0.00     0.091 A 
ATOM     80  F   UNL A   1      41.594  22.706  28.761  1.00  0.00    -0.205 F 
ATOM     81  C   UNL A   1      42.728  22.078  25.337  1.00  0.00     0.022 A 
BRANCH  79  82
ATOM     82  S   UNL A   1      41.715  20.163  27.008  1.00  0.00     0.127 S 
ATOM     83  O   UNL A   1      42.837  19.716  27.829  1.00  0.00    -0.237 OA
ATOM     84  O   UNL A   1      40.462  20.372  27.734  1.00  0.00    -0.237 OA
ATOM     85  O   UNL A   1      41.562  19.487  25.727  1.00  0.00    -0.744 OA
ENDBRANCH  79  82
ENDBRANCH  51  75
BRANCH  63  86
ATOM     86  C   UNL A   1      47.324  26.131  32.049  1.00  0.00     0.023 A 
ATOM     87  C   UNL A   1      47.414  25.228  33.126  1.00  0.00     0.012 A 
ATOM     88  C   UNL A   1      48.485  26.451  31.316  1.00  0.00     0.148 A 
ATOM     89  C   UNL A   1      48.642  24.677  33.489  1.00  0.00     0.002 A 
ATOM     90  C   UNL A   1      49.696  25.854  31.649  1.00  0.00     0.091 A 
ATOM     91  F   UNL A   1      48.384  27.325  30.306  1.00  0.00    -0.205 F 
ATOM     92  C   UNL A   1      49.779  24.979  32.743  1.00  0.00     0.022 A 
BRANCH  90  93
ATOM     93  S   UNL A   1      51.187  26.099  30.676  1.00  0.00     0.127 S 
ATOM     94  O   UNL A   1      50.777  25.587  29.370  1.00  0.00    -0.237 OA
ATOM     95  O   UNL A   1      51.361  27.550  30.735  1.00  0.00    -0.237 OA
ATOM     96  O   UNL A   1      52.232  25.338  31.346  1.00  0.00    -0.744 OA
ENDBRANCH  90  93
ENDBRANCH  63  86
ENDBRANCH  37  38
ENDBRANCH  29  32
ENDBRANCH  27  28
ENDBRANCH  26  27
ENDBRANCH   1  26
TORSDOF 17
ENDMDL
