MODEL 1
REMARK VINA RESULT:      -7.9      0.000      0.000
REMARK SMILES CC(C)C[C@H](NC(=O)[C@@H](NC(=O)[C@H](C)NC(=O)CNC(=O)OCc1ccccc1)C(C)C)C(=O)NCCCCCCNC(=O)c1ccc(-c2c3nc(c(-c4cccc(S(=O)(=O)[O-])c4F)c4ccc([nH]4)c(-c4cccc(S(=O)(=O)[O-])c4F)c4nc(c(-c5cccc(S(=O)(=O)[O-])c5F)c5ccc2[nH]5)C=C4)C=C3)cc1
REMARK SMILES IDX 33 1 34 2 35 3 5 5 4 6 2 7 1 8 3 9 6 10 7 11 8 13 9 14 10 15
REMARK SMILES IDX 11 16 12 18 13 19 14 20 15 21 16 22 17 24 18 25 19 26 20 27
REMARK SMILES IDX 21 29 22 30 23 31 24 32 25 33 29 34 26 35 28 36 27 37 30 38
REMARK SMILES IDX 31 39 32 40 36 41 37 42 38 43 39 44 40 45 41 46 42 47 43 48
REMARK SMILES IDX 44 50 45 51 46 52 107 53 47 54 106 55 48 56 49 57 50 58
REMARK SMILES IDX 100 59 51 60 105 61 99 62 101 63 52 64 104 65 98 66 97 67
REMARK SMILES IDX 53 69 85 70 65 71 84 72 66 73 69 74 83 75 102 76 67 77 68 78
REMARK SMILES IDX 82 80 103 81 70 82 54 83 55 84 63 85 56 86 58 87 64 88 57 89
REMARK SMILES IDX 59 90 60 91 61 92 62 93 86 94 87 95 95 96 88 97 90 98 96 99
REMARK SMILES IDX 89 100 91 101 92 102 93 103 94 104 71 105 72 106 80 107
REMARK SMILES IDX 73 108 75 109 81 110 74 111 76 112 77 113 78 114 79 115
REMARK H PARENT 35 4 6 12 10 17 15 23 19 28 42 49 101 68 69 79
REMARK Flexibility Score: inf
ROOT
ATOM      1  C   UNL A   1      34.918  33.173  32.781  1.00  0.00     0.242 C 
ATOM      2  O   UNL A   1      33.726  33.089  33.096  1.00  0.00    -0.273 OA
ATOM      3  N   UNL A   1      35.707  33.861  33.648  1.00  0.00    -0.354 N 
ATOM      4  H   UNL A   1      35.283  34.624  34.102  1.00  0.00     0.163 HD
ENDROOT
BRANCH   1   5
ATOM      5  C   UNL A   1      35.457  32.443  31.530  1.00  0.00     0.171 C 
BRANCH   5   6
ATOM      6  C   UNL A   1      34.536  32.713  30.305  1.00  0.00     0.038 C 
BRANCH   6   7
ATOM      7  C   UNL A   1      34.946  33.856  29.336  1.00  0.00    -0.015 C 
ATOM      8  C   UNL A   1      36.250  33.583  28.574  1.00  0.00     0.007 C 
ATOM      9  C   UNL A   1      33.850  34.090  28.286  1.00  0.00     0.007 C 
ENDBRANCH   6   7
ENDBRANCH   5   6
BRANCH   5  10
ATOM     10  N   UNL A   1      35.729  31.017  31.699  1.00  0.00    -0.343 N 
ATOM     11  C   UNL A   1      36.575  30.148  31.092  1.00  0.00     0.243 C 
ATOM     12  H   UNL A   1      35.182  30.598  32.402  1.00  0.00     0.164 HD
ATOM     13  O   UNL A   1      36.787  29.097  31.714  1.00  0.00    -0.273 OA
BRANCH  11  14
ATOM     14  C   UNL A   1      37.295  30.366  29.733  1.00  0.00     0.174 C 
BRANCH  14  15
ATOM     15  N   UNL A   1      38.717  30.703  29.944  1.00  0.00    -0.342 N 
ATOM     16  C   UNL A   1      39.932  30.145  30.124  1.00  0.00     0.242 C 
ATOM     17  H   UNL A   1      38.813  31.682  29.957  1.00  0.00     0.164 HD
ATOM     18  O   UNL A   1      40.843  30.988  30.180  1.00  0.00    -0.273 OA
BRANCH  16  19
ATOM     19  C   UNL A   1      40.252  28.669  30.498  1.00  0.00     0.168 C 
ATOM     20  C   UNL A   1      40.075  28.479  32.013  1.00  0.00     0.041 C 
BRANCH  19  21
ATOM     21  N   UNL A   1      41.538  28.063  30.164  1.00  0.00    -0.343 N 
ATOM     22  C   UNL A   1      41.819  27.094  29.237  1.00  0.00     0.240 C 
ATOM     23  H   UNL A   1      42.310  28.396  30.676  1.00  0.00     0.164 HD
ATOM     24  O   UNL A   1      42.922  26.544  29.264  1.00  0.00    -0.273 OA
BRANCH  22  25
ATOM     25  C   UNL A   1      40.748  26.688  28.238  1.00  0.00     0.219 C 
BRANCH  25  26
ATOM     26  N   UNL A   1      41.156  27.135  26.927  1.00  0.00    -0.312 N 
ATOM     27  C   UNL A   1      41.649  26.342  25.936  1.00  0.00     0.407 C 
ATOM     28  H   UNL A   1      41.072  28.096  26.733  1.00  0.00     0.167 HD
ATOM     29  O   UNL A   1      42.228  26.817  24.971  1.00  0.00    -0.225 OA
BRANCH  27  30
ATOM     30  O   UNL A   1      41.414  25.025  26.149  1.00  0.00    -0.445 OA
BRANCH  30  31
ATOM     31  C   UNL A   1      42.419  24.311  26.881  1.00  0.00     0.270 C 
BRANCH  31  32
ATOM     32  C   UNL A   1      43.608  23.880  26.051  1.00  0.00    -0.011 A 
ATOM     33  C   UNL A   1      44.926  23.936  26.529  1.00  0.00     0.007 A 
ATOM     34  C   UNL A   1      43.383  23.346  24.774  1.00  0.00     0.007 A 
ATOM     35  C   UNL A   1      45.981  23.416  25.781  1.00  0.00     0.000 A 
ATOM     36  C   UNL A   1      44.443  22.843  24.016  1.00  0.00     0.000 A 
ATOM     37  C   UNL A   1      45.739  22.863  24.527  1.00  0.00     0.000 A 
ENDBRANCH  31  32
ENDBRANCH  30  31
ENDBRANCH  27  30
ENDBRANCH  25  26
ENDBRANCH  22  25
ENDBRANCH  19  21
ENDBRANCH  16  19
ENDBRANCH  14  15
BRANCH  14  38
ATOM     38  C   UNL A   1      36.921  29.461  28.558  1.00  0.00     0.015 C 
ATOM     39  C   UNL A   1      35.653  29.867  27.801  1.00  0.00     0.010 C 
ATOM     40  C   UNL A   1      38.066  29.447  27.524  1.00  0.00     0.010 C 
ENDBRANCH  14  38
ENDBRANCH  11  14
ENDBRANCH   5  10
ENDBRANCH   1   5
BRANCH   3  41
ATOM     41  C   UNL A   1      37.092  33.613  33.990  1.00  0.00     0.116 C 
BRANCH  41  42
ATOM     42  C   UNL A   1      38.054  34.575  33.312  1.00  0.00     0.021 C 
BRANCH  42  43
ATOM     43  C   UNL A   1      39.540  34.281  33.529  1.00  0.00     0.002 C 
BRANCH  43  44
ATOM     44  C   UNL A   1      40.322  35.290  34.375  1.00  0.00     0.002 C 
BRANCH  44  45
ATOM     45  C   UNL A   1      39.770  35.579  35.772  1.00  0.00     0.021 C 
BRANCH  45  46
ATOM     46  C   UNL A   1      40.744  35.369  36.922  1.00  0.00     0.116 C 
BRANCH  46  47
ATOM     47  N   UNL A   1      40.268  34.406  37.898  1.00  0.00    -0.352 N 
ATOM     48  C   UNL A   1      40.320  33.035  37.846  1.00  0.00     0.251 C 
ATOM     49  H   UNL A   1      39.853  34.787  38.706  1.00  0.00     0.163 HD
ATOM     50  O   UNL A   1      39.758  32.365  38.707  1.00  0.00    -0.269 OA
BRANCH  48  51
ATOM     51  C   UNL A   1      41.030  32.375  36.729  1.00  0.00     0.039 A 
ATOM     52  C   UNL A   1      40.279  31.702  35.762  1.00  0.00     0.014 A 
ATOM     53  C   UNL A   1      42.422  32.440  36.622  1.00  0.00     0.014 A 
ATOM     54  C   UNL A   1      40.922  31.139  34.658  1.00  0.00     0.010 A 
ATOM     55  C   UNL A   1      43.051  31.946  35.482  1.00  0.00     0.010 A 
ATOM     56  C   UNL A   1      42.310  31.282  34.493  1.00  0.00    -0.014 A 
BRANCH  56  57
ATOM     57  C   UNL A   1      43.002  30.749  33.292  1.00  0.00     0.031 A 
ATOM     58  C   UNL A   1      43.492  29.325  33.274  1.00  0.00     0.074 A 
ATOM     59  C   UNL A   1      43.265  31.569  32.254  1.00  0.00     0.049 A 
ATOM     60  N   UNL A   1      44.166  28.699  32.347  1.00  0.00    -0.248 NA
ATOM     61  C   UNL A   1      43.211  28.503  34.465  1.00  0.00     0.031 C 
ATOM     62  C   UNL A   1      42.905  32.987  32.183  1.00  0.00     0.029 A 
ATOM     63  N   UNL A   1      43.923  31.336  31.072  1.00  0.00    -0.354 N 
ATOM     64  C   UNL A   1      44.432  27.434  32.856  1.00  0.00     0.074 A 
ATOM     65  C   UNL A   1      43.862  27.384  34.184  1.00  0.00     0.031 C 
ATOM     66  C   UNL A   1      43.341  33.495  31.019  1.00  0.00     0.029 A 
ATOM     67  C   UNL A   1      44.045  32.453  30.278  1.00  0.00     0.049 A 
ATOM     68  H   UNL A   1      44.274  30.452  30.815  1.00  0.00     0.167 HD
ATOM     69  C   UNL A   1      45.076  26.401  32.264  1.00  0.00     0.034 A 
ATOM     70  C   UNL A   1      44.668  32.623  29.095  1.00  0.00     0.034 A 
ATOM     71  C   UNL A   1      45.594  26.438  30.924  1.00  0.00     0.049 A 
ATOM     72  C   UNL A   1      45.343  31.443  28.449  1.00  0.00     0.074 A 
ATOM     73  C   UNL A   1      46.159  25.406  30.196  1.00  0.00     0.029 A 
ATOM     74  N   UNL A   1      45.628  27.564  30.119  1.00  0.00    -0.354 N 
ATOM     75  N   UNL A   1      45.428  30.206  28.874  1.00  0.00    -0.248 NA
ATOM     76  C   UNL A   1      45.983  31.673  27.145  1.00  0.00     0.031 C 
ATOM     77  C   UNL A   1      46.575  25.920  28.964  1.00  0.00     0.029 A 
ATOM     78  C   UNL A   1      46.227  27.260  28.909  1.00  0.00     0.049 A 
ATOM     79  H   UNL A   1      45.278  28.449  30.370  1.00  0.00     0.167 HD
ATOM     80  C   UNL A   1      46.085  29.503  27.871  1.00  0.00     0.074 A 
ATOM     81  C   UNL A   1      46.362  30.447  26.810  1.00  0.00     0.031 C 
ATOM     82  C   UNL A   1      46.439  28.195  27.836  1.00  0.00     0.034 A 
BRANCH  69  83
ATOM     83  C   UNL A   1      45.237  25.122  33.043  1.00  0.00     0.023 A 
ATOM     84  C   UNL A   1      44.266  24.105  32.936  1.00  0.00     0.012 A 
ATOM     85  C   UNL A   1      46.403  24.889  33.800  1.00  0.00     0.148 A 
ATOM     86  C   UNL A   1      44.442  22.887  33.591  1.00  0.00     0.002 A 
ATOM     87  C   UNL A   1      46.593  23.657  34.409  1.00  0.00     0.091 A 
ATOM     88  F   UNL A   1      47.304  25.877  33.903  1.00  0.00    -0.205 F 
ATOM     89  C   UNL A   1      45.610  22.658  34.315  1.00  0.00     0.022 A 
BRANCH  87  90
ATOM     90  S   UNL A   1      48.098  23.232  35.292  1.00  0.00     0.127 S 
ATOM     91  O   UNL A   1      49.103  23.354  34.237  1.00  0.00    -0.237 OA
ATOM     92  O   UNL A   1      48.158  24.277  36.315  1.00  0.00    -0.237 OA
ATOM     93  O   UNL A   1      47.899  21.884  35.805  1.00  0.00    -0.744 OA
ENDBRANCH  87  90
ENDBRANCH  69  83
BRANCH  70  94
ATOM     94  C   UNL A   1      44.652  33.951  28.412  1.00  0.00     0.023 A 
ATOM     95  C   UNL A   1      43.610  34.257  27.515  1.00  0.00     0.012 A 
ATOM     96  C   UNL A   1      45.667  34.901  28.634  1.00  0.00     0.148 A 
ATOM     97  C   UNL A   1      43.606  35.462  26.812  1.00  0.00     0.002 A 
ATOM     98  C   UNL A   1      45.625  36.124  27.975  1.00  0.00     0.091 A 
ATOM     99  F   UNL A   1      46.658  34.590  29.482  1.00  0.00    -0.205 F 
ATOM    100  C   UNL A   1      44.609  36.398  27.047  1.00  0.00     0.022 A 
BRANCH  98 101
ATOM    101  S   UNL A   1      46.804  37.437  28.315  1.00  0.00     0.127 S 
ATOM    102  O   UNL A   1      48.035  36.887  27.752  1.00  0.00    -0.237 OA
ATOM    103  O   UNL A   1      46.232  38.558  27.568  1.00  0.00    -0.237 OA
ATOM    104  O   UNL A   1      46.789  37.613  29.760  1.00  0.00    -0.744 OA
ENDBRANCH  98 101
ENDBRANCH  70  94
BRANCH  82 105
ATOM    105  C   UNL A   1      47.113  27.680  26.591  1.00  0.00     0.023 A 
ATOM    106  C   UNL A   1      46.345  27.137  25.543  1.00  0.00     0.012 A 
ATOM    107  C   UNL A   1      48.507  27.814  26.431  1.00  0.00     0.148 A 
ATOM    108  C   UNL A   1      46.958  26.704  24.368  1.00  0.00     0.002 A 
ATOM    109  C   UNL A   1      49.103  27.432  25.236  1.00  0.00     0.091 A 
ATOM    110  F   UNL A   1      49.221  28.318  27.448  1.00  0.00    -0.205 F 
ATOM    111  C   UNL A   1      48.333  26.864  24.209  1.00  0.00     0.022 A 
BRANCH 109 112
ATOM    112  S   UNL A   1      50.848  27.697  24.903  1.00  0.00     0.127 S 
ATOM    113  O   UNL A   1      51.476  26.923  25.972  1.00  0.00    -0.237 OA
ATOM    114  O   UNL A   1      50.998  27.124  23.565  1.00  0.00    -0.237 OA
ATOM    115  O   UNL A   1      51.058  29.137  24.971  1.00  0.00    -0.744 OA
ENDBRANCH 109 112
ENDBRANCH  82 105
ENDBRANCH  56  57
ENDBRANCH  48  51
ENDBRANCH  46  47
ENDBRANCH  45  46
ENDBRANCH  44  45
ENDBRANCH  43  44
ENDBRANCH  42  43
ENDBRANCH  41  42
ENDBRANCH   3  41
TORSDOF 29
ENDMDL
MODEL 2
REMARK VINA RESULT:      -6.6      1.519      7.090
REMARK SMILES CC(C)C[C@H](NC(=O)[C@@H](NC(=O)[C@H](C)NC(=O)CNC(=O)OCc1ccccc1)C(C)C)C(=O)NCCCCCCNC(=O)c1ccc(-c2c3nc(c(-c4cccc(S(=O)(=O)[O-])c4F)c4ccc([nH]4)c(-c4cccc(S(=O)(=O)[O-])c4F)c4nc(c(-c5cccc(S(=O)(=O)[O-])c5F)c5ccc2[nH]5)C=C4)C=C3)cc1
REMARK SMILES IDX 33 1 34 2 35 3 5 5 4 6 2 7 1 8 3 9 6 10 7 11 8 13 9 14 10 15
REMARK SMILES IDX 11 16 12 18 13 19 14 20 15 21 16 22 17 24 18 25 19 26 20 27
REMARK SMILES IDX 21 29 22 30 23 31 24 32 25 33 29 34 26 35 28 36 27 37 30 38
REMARK SMILES IDX 31 39 32 40 36 41 37 42 38 43 39 44 40 45 41 46 42 47 43 48
REMARK SMILES IDX 44 50 45 51 46 52 107 53 47 54 106 55 48 56 49 57 50 58
REMARK SMILES IDX 100 59 51 60 105 61 99 62 101 63 52 64 104 65 98 66 97 67
REMARK SMILES IDX 53 69 85 70 65 71 84 72 66 73 69 74 83 75 102 76 67 77 68 78
REMARK SMILES IDX 82 80 103 81 70 82 54 83 55 84 63 85 56 86 58 87 64 88 57 89
REMARK SMILES IDX 59 90 60 91 61 92 62 93 86 94 87 95 95 96 88 97 90 98 96 99
REMARK SMILES IDX 89 100 91 101 92 102 93 103 94 104 71 105 72 106 80 107
REMARK SMILES IDX 73 108 75 109 81 110 74 111 76 112 77 113 78 114 79 115
REMARK H PARENT 35 4 6 12 10 17 15 23 19 28 42 49 101 68 69 79
REMARK Flexibility Score: inf
ROOT
ATOM      1  C   UNL A   1      34.862  33.197  32.585  1.00  0.00     0.242 C 
ATOM      2  O   UNL A   1      33.707  33.118  33.016  1.00  0.00    -0.273 OA
ATOM      3  N   UNL A   1      35.774  33.730  33.441  1.00  0.00    -0.354 N 
ATOM      4  H   UNL A   1      35.441  34.441  34.035  1.00  0.00     0.163 HD
ENDROOT
BRANCH   1   5
ATOM      5  C   UNL A   1      35.227  32.623  31.197  1.00  0.00     0.171 C 
BRANCH   5   6
ATOM      6  C   UNL A   1      34.136  32.996  30.151  1.00  0.00     0.038 C 
BRANCH   6   7
ATOM      7  C   UNL A   1      34.549  33.938  28.988  1.00  0.00    -0.015 C 
ATOM      8  C   UNL A   1      33.867  35.312  29.032  1.00  0.00     0.007 C 
ATOM      9  C   UNL A   1      36.065  34.187  29.009  1.00  0.00     0.007 C 
ENDBRANCH   6   7
ENDBRANCH   5   6
BRANCH   5  10
ATOM     10  N   UNL A   1      35.541  31.196  31.166  1.00  0.00    -0.343 N 
ATOM     11  C   UNL A   1      36.508  30.464  30.560  1.00  0.00     0.243 C 
ATOM     12  H   UNL A   1      34.917  30.650  31.697  1.00  0.00     0.164 HD
ATOM     13  O   UNL A   1      36.677  29.327  31.024  1.00  0.00    -0.273 OA
BRANCH  11  14
ATOM     14  C   UNL A   1      37.408  30.929  29.384  1.00  0.00     0.174 C 
BRANCH  14  15
ATOM     15  N   UNL A   1      38.728  31.370  29.878  1.00  0.00    -0.342 N 
ATOM     16  C   UNL A   1      39.857  30.917  30.462  1.00  0.00     0.242 C 
ATOM     17  H   UNL A   1      38.815  32.339  29.728  1.00  0.00     0.164 HD
ATOM     18  O   UNL A   1      40.721  31.802  30.585  1.00  0.00    -0.273 OA
BRANCH  16  19
ATOM     19  C   UNL A   1      40.072  29.553  31.178  1.00  0.00     0.168 C 
ATOM     20  C   UNL A   1      39.699  29.695  32.663  1.00  0.00     0.041 C 
BRANCH  19  21
ATOM     21  N   UNL A   1      41.366  28.877  31.151  1.00  0.00    -0.343 N 
ATOM     22  C   UNL A   1      41.781  27.841  30.357  1.00  0.00     0.240 C 
ATOM     23  H   UNL A   1      42.034  29.213  31.792  1.00  0.00     0.164 HD
ATOM     24  O   UNL A   1      42.825  27.251  30.642  1.00  0.00    -0.273 OA
BRANCH  22  25
ATOM     25  C   UNL A   1      40.915  27.412  29.183  1.00  0.00     0.219 C 
BRANCH  25  26
ATOM     26  N   UNL A   1      41.569  27.824  27.963  1.00  0.00    -0.312 N 
ATOM     27  C   UNL A   1      42.485  27.094  27.268  1.00  0.00     0.407 C 
ATOM     28  H   UNL A   1      41.334  28.709  27.603  1.00  0.00     0.167 HD
ATOM     29  O   UNL A   1      43.193  27.608  26.417  1.00  0.00    -0.225 OA
BRANCH  27  30
ATOM     30  O   UNL A   1      42.494  25.786  27.622  1.00  0.00    -0.445 OA
BRANCH  30  31
ATOM     31  C   UNL A   1      42.452  24.838  26.547  1.00  0.00     0.270 C 
BRANCH  31  32
ATOM     32  C   UNL A   1      41.234  23.940  26.555  1.00  0.00    -0.011 A 
ATOM     33  C   UNL A   1      39.926  24.439  26.631  1.00  0.00     0.007 A 
ATOM     34  C   UNL A   1      41.414  22.555  26.419  1.00  0.00     0.007 A 
ATOM     35  C   UNL A   1      38.827  23.589  26.512  1.00  0.00     0.000 A 
ATOM     36  C   UNL A   1      40.314  21.702  26.319  1.00  0.00     0.000 A 
ATOM     37  C   UNL A   1      39.021  22.221  26.349  1.00  0.00     0.000 A 
ENDBRANCH  31  32
ENDBRANCH  30  31
ENDBRANCH  27  30
ENDBRANCH  25  26
ENDBRANCH  22  25
ENDBRANCH  19  21
ENDBRANCH  16  19
ENDBRANCH  14  15
BRANCH  14  38
ATOM     38  C   UNL A   1      37.339  30.156  28.065  1.00  0.00     0.015 C 
ATOM     39  C   UNL A   1      37.995  28.772  28.087  1.00  0.00     0.010 C 
ATOM     40  C   UNL A   1      35.865  29.939  27.665  1.00  0.00     0.010 C 
ENDBRANCH  14  38
ENDBRANCH  11  14
ENDBRANCH   5  10
ENDBRANCH   1   5
BRANCH   3  41
ATOM     41  C   UNL A   1      37.172  33.384  33.591  1.00  0.00     0.116 C 
BRANCH  41  42
ATOM     42  C   UNL A   1      38.097  34.585  33.481  1.00  0.00     0.021 C 
BRANCH  42  43
ATOM     43  C   UNL A   1      39.469  34.420  34.138  1.00  0.00     0.002 C 
BRANCH  43  44
ATOM     44  C   UNL A   1      39.900  35.523  35.109  1.00  0.00     0.002 C 
BRANCH  44  45
ATOM     45  C   UNL A   1      39.206  35.539  36.472  1.00  0.00     0.021 C 
BRANCH  45  46
ATOM     46  C   UNL A   1      40.126  35.453  37.682  1.00  0.00     0.116 C 
BRANCH  46  47
ATOM     47  N   UNL A   1      39.726  34.424  38.624  1.00  0.00    -0.352 N 
ATOM     48  C   UNL A   1      39.973  33.075  38.577  1.00  0.00     0.251 C 
ATOM     49  H   UNL A   1      39.210  34.736  39.403  1.00  0.00     0.163 HD
ATOM     50  O   UNL A   1      39.455  32.325  39.398  1.00  0.00    -0.269 OA
BRANCH  48  51
ATOM     51  C   UNL A   1      40.840  32.531  37.509  1.00  0.00     0.039 A 
ATOM     52  C   UNL A   1      40.241  31.916  36.407  1.00  0.00     0.014 A 
ATOM     53  C   UNL A   1      42.231  32.646  37.583  1.00  0.00     0.014 A 
ATOM     54  C   UNL A   1      41.036  31.465  35.351  1.00  0.00     0.010 A 
ATOM     55  C   UNL A   1      43.014  32.267  36.496  1.00  0.00     0.010 A 
ATOM     56  C   UNL A   1      42.427  31.664  35.373  1.00  0.00    -0.014 A 
BRANCH  56  57
ATOM     57  C   UNL A   1      43.282  31.252  34.231  1.00  0.00     0.031 A 
ATOM     58  C   UNL A   1      43.505  32.194  33.077  1.00  0.00     0.074 A 
ATOM     59  C   UNL A   1      43.787  30.002  34.192  1.00  0.00     0.049 A 
ATOM     60  N   UNL A   1      44.167  31.994  31.968  1.00  0.00    -0.248 NA
ATOM     61  C   UNL A   1      42.880  33.526  33.167  1.00  0.00     0.031 C 
ATOM     62  C   UNL A   1      43.583  28.974  35.215  1.00  0.00     0.029 A 
ATOM     63  N   UNL A   1      44.551  29.373  33.241  1.00  0.00    -0.354 N 
ATOM     64  C   UNL A   1      44.000  33.147  31.211  1.00  0.00     0.074 A 
ATOM     65  C   UNL A   1      43.159  34.039  31.978  1.00  0.00     0.031 C 
ATOM     66  C   UNL A   1      44.209  27.847  34.840  1.00  0.00     0.029 A 
ATOM     67  C   UNL A   1      44.825  28.057  33.534  1.00  0.00     0.049 A 
ATOM     68  H   UNL A   1      44.874  29.821  32.426  1.00  0.00     0.167 HD
ATOM     69  C   UNL A   1      44.517  33.444  29.996  1.00  0.00     0.034 A 
ATOM     70  C   UNL A   1      45.485  27.120  32.824  1.00  0.00     0.034 A 
ATOM     71  C   UNL A   1      45.395  32.576  29.262  1.00  0.00     0.049 A 
ATOM     72  C   UNL A   1      46.077  27.497  31.491  1.00  0.00     0.074 A 
ATOM     73  C   UNL A   1      46.062  32.834  28.077  1.00  0.00     0.029 A 
ATOM     74  N   UNL A   1      45.716  31.279  29.628  1.00  0.00    -0.354 N 
ATOM     75  N   UNL A   1      46.055  28.653  30.876  1.00  0.00    -0.248 NA
ATOM     76  C   UNL A   1      46.812  26.447  30.769  1.00  0.00     0.031 C 
ATOM     77  C   UNL A   1      46.751  31.678  27.704  1.00  0.00     0.029 A 
ATOM     78  C   UNL A   1      46.552  30.715  28.680  1.00  0.00     0.049 A 
ATOM     79  H   UNL A   1      45.397  30.827  30.442  1.00  0.00     0.167 HD
ATOM     80  C   UNL A   1      46.811  28.484  29.721  1.00  0.00     0.074 A 
ATOM     81  C   UNL A   1      47.291  27.119  29.731  1.00  0.00     0.031 C 
ATOM     82  C   UNL A   1      47.074  29.376  28.734  1.00  0.00     0.034 A 
BRANCH  69  83
ATOM     83  C   UNL A   1      44.176  34.777  29.383  1.00  0.00     0.023 A 
ATOM     84  C   UNL A   1      43.038  34.904  28.560  1.00  0.00     0.012 A 
ATOM     85  C   UNL A   1      44.928  35.924  29.706  1.00  0.00     0.148 A 
ATOM     86  C   UNL A   1      42.669  36.147  28.048  1.00  0.00     0.002 A 
ATOM     87  C   UNL A   1      44.527  37.166  29.233  1.00  0.00     0.091 A 
ATOM     88  F   UNL A   1      46.017  35.777  30.475  1.00  0.00    -0.205 F 
ATOM     89  C   UNL A   1      43.404  37.279  28.396  1.00  0.00     0.022 A 
BRANCH  87  90
ATOM     90  S   UNL A   1      45.353  38.693  29.691  1.00  0.00     0.127 S 
ATOM     91  O   UNL A   1      46.734  38.409  29.303  1.00  0.00    -0.237 OA
ATOM     92  O   UNL A   1      44.672  39.675  28.847  1.00  0.00    -0.237 OA
ATOM     93  O   UNL A   1      45.132  38.858  31.121  1.00  0.00    -0.744 OA
ENDBRANCH  87  90
ENDBRANCH  69  83
BRANCH  70  94
ATOM     94  C   UNL A   1      45.665  25.742  33.368  1.00  0.00     0.023 A 
ATOM     95  C   UNL A   1      44.679  24.765  33.123  1.00  0.00     0.012 A 
ATOM     96  C   UNL A   1      46.793  25.398  34.137  1.00  0.00     0.148 A 
ATOM     97  C   UNL A   1      44.788  23.489  33.676  1.00  0.00     0.002 A 
ATOM     98  C   UNL A   1      46.924  24.107  34.635  1.00  0.00     0.091 A 
ATOM     99  F   UNL A   1      47.716  26.342  34.370  1.00  0.00    -0.205 F 
ATOM    100  C   UNL A   1      45.913  23.158  34.426  1.00  0.00     0.022 A 
BRANCH  98 101
ATOM    101  S   UNL A   1      48.400  23.560  35.500  1.00  0.00     0.127 S 
ATOM    102  O   UNL A   1      49.440  23.799  34.502  1.00  0.00    -0.237 OA
ATOM    103  O   UNL A   1      48.431  24.465  36.651  1.00  0.00    -0.237 OA
ATOM    104  O   UNL A   1      48.158  22.166  35.845  1.00  0.00    -0.744 OA
ENDBRANCH  98 101
ENDBRANCH  70  94
BRANCH  82 105
ATOM    105  C   UNL A   1      47.969  28.934  27.606  1.00  0.00     0.023 A 
ATOM    106  C   UNL A   1      49.368  29.035  27.731  1.00  0.00     0.012 A 
ATOM    107  C   UNL A   1      47.417  28.340  26.453  1.00  0.00     0.148 A 
ATOM    108  C   UNL A   1      50.203  28.582  26.710  1.00  0.00     0.002 A 
ATOM    109  C   UNL A   1      48.256  27.842  25.465  1.00  0.00     0.091 A 
ATOM    110  F   UNL A   1      46.082  28.270  26.347  1.00  0.00    -0.205 F 
ATOM    111  C   UNL A   1      49.649  27.975  25.585  1.00  0.00     0.022 A 
BRANCH 109 112
ATOM    112  S   UNL A   1      47.637  26.951  24.034  1.00  0.00     0.127 S 
ATOM    113  O   UNL A   1      47.224  28.046  23.158  1.00  0.00    -0.237 OA
ATOM    114  O   UNL A   1      48.825  26.225  23.584  1.00  0.00    -0.237 OA
ATOM    115  O   UNL A   1      46.558  26.103  24.523  1.00  0.00    -0.744 OA
ENDBRANCH 109 112
ENDBRANCH  82 105
ENDBRANCH  56  57
ENDBRANCH  48  51
ENDBRANCH  46  47
ENDBRANCH  45  46
ENDBRANCH  44  45
ENDBRANCH  43  44
ENDBRANCH  42  43
ENDBRANCH  41  42
ENDBRANCH   3  41
TORSDOF 29
ENDMDL
MODEL 3
REMARK VINA RESULT:      -5.4      5.459     12.469
REMARK SMILES CC(C)C[C@H](NC(=O)[C@@H](NC(=O)[C@H](C)NC(=O)CNC(=O)OCc1ccccc1)C(C)C)C(=O)NCCCCCCNC(=O)c1ccc(-c2c3nc(c(-c4cccc(S(=O)(=O)[O-])c4F)c4ccc([nH]4)c(-c4cccc(S(=O)(=O)[O-])c4F)c4nc(c(-c5cccc(S(=O)(=O)[O-])c5F)c5ccc2[nH]5)C=C4)C=C3)cc1
REMARK SMILES IDX 33 1 34 2 35 3 5 5 4 6 2 7 1 8 3 9 6 10 7 11 8 13 9 14 10 15
REMARK SMILES IDX 11 16 12 18 13 19 14 20 15 21 16 22 17 24 18 25 19 26 20 27
REMARK SMILES IDX 21 29 22 30 23 31 24 32 25 33 29 34 26 35 28 36 27 37 30 38
REMARK SMILES IDX 31 39 32 40 36 41 37 42 38 43 39 44 40 45 41 46 42 47 43 48
REMARK SMILES IDX 44 50 45 51 46 52 107 53 47 54 106 55 48 56 49 57 50 58
REMARK SMILES IDX 100 59 51 60 105 61 99 62 101 63 52 64 104 65 98 66 97 67
REMARK SMILES IDX 53 69 85 70 65 71 84 72 66 73 69 74 83 75 102 76 67 77 68 78
REMARK SMILES IDX 82 80 103 81 70 82 54 83 55 84 63 85 56 86 58 87 64 88 57 89
REMARK SMILES IDX 59 90 60 91 61 92 62 93 86 94 87 95 95 96 88 97 90 98 96 99
REMARK SMILES IDX 89 100 91 101 92 102 93 103 94 104 71 105 72 106 80 107
REMARK SMILES IDX 73 108 75 109 81 110 74 111 76 112 77 113 78 114 79 115
REMARK H PARENT 35 4 6 12 10 17 15 23 19 28 42 49 101 68 69 79
REMARK Flexibility Score: inf
ROOT
ATOM      1  C   UNL A   1      41.109  30.719  30.810  1.00  0.00     0.242 C 
ATOM      2  O   UNL A   1      42.012  30.012  31.270  1.00  0.00    -0.273 OA
ATOM      3  N   UNL A   1      40.947  31.928  31.409  1.00  0.00    -0.354 N 
ATOM      4  H   UNL A   1      41.121  31.954  32.378  1.00  0.00     0.163 HD
ENDROOT
BRANCH   1   5
ATOM      5  C   UNL A   1      40.307  30.265  29.569  1.00  0.00     0.171 C 
BRANCH   5   6
ATOM      6  C   UNL A   1      38.843  30.785  29.649  1.00  0.00     0.038 C 
BRANCH   6   7
ATOM      7  C   UNL A   1      37.753  29.981  28.889  1.00  0.00    -0.015 C 
ATOM      8  C   UNL A   1      36.830  29.169  29.808  1.00  0.00     0.007 C 
ATOM      9  C   UNL A   1      36.858  30.925  28.072  1.00  0.00     0.007 C 
ENDBRANCH   6   7
ENDBRANCH   5   6
BRANCH   5  10
ATOM     10  N   UNL A   1      40.358  28.835  29.272  1.00  0.00    -0.343 N 
ATOM     11  C   UNL A   1      41.366  27.975  28.979  1.00  0.00     0.243 C 
ATOM     12  H   UNL A   1      39.473  28.404  29.287  1.00  0.00     0.164 HD
ATOM     13  O   UNL A   1      41.092  26.775  29.120  1.00  0.00    -0.273 OA
BRANCH  11  14
ATOM     14  C   UNL A   1      42.797  28.363  28.518  1.00  0.00     0.174 C 
BRANCH  14  15
ATOM     15  N   UNL A   1      43.734  27.241  28.723  1.00  0.00    -0.342 N 
ATOM     16  C   UNL A   1      44.332  26.217  28.081  1.00  0.00     0.242 C 
ATOM     17  H   UNL A   1      44.027  27.240  29.663  1.00  0.00     0.164 HD
ATOM     18  O   UNL A   1      45.136  25.602  28.802  1.00  0.00    -0.273 OA
BRANCH  16  19
ATOM     19  C   UNL A   1      43.953  25.614  26.698  1.00  0.00     0.168 C 
ATOM     20  C   UNL A   1      42.681  24.763  26.846  1.00  0.00     0.041 C 
BRANCH  19  21
ATOM     21  N   UNL A   1      44.897  24.798  25.940  1.00  0.00    -0.343 N 
ATOM     22  C   UNL A   1      46.029  25.185  25.271  1.00  0.00     0.240 C 
ATOM     23  H   UNL A   1      44.693  23.835  25.905  1.00  0.00     0.164 HD
ATOM     24  O   UNL A   1      46.565  24.390  24.496  1.00  0.00    -0.273 OA
BRANCH  22  25
ATOM     25  C   UNL A   1      46.558  26.597  25.461  1.00  0.00     0.219 C 
BRANCH  25  26
ATOM     26  N   UNL A   1      47.061  27.068  24.192  1.00  0.00    -0.312 N 
ATOM     27  C   UNL A   1      48.312  27.554  23.965  1.00  0.00     0.407 C 
ATOM     28  H   UNL A   1      46.445  27.036  23.424  1.00  0.00     0.167 HD
ATOM     29  O   UNL A   1      48.575  28.184  22.953  1.00  0.00    -0.225 OA
BRANCH  27  30
ATOM     30  O   UNL A   1      49.183  27.250  24.957  1.00  0.00    -0.445 OA
BRANCH  30  31
ATOM     31  C   UNL A   1      50.220  26.315  24.627  1.00  0.00     0.270 C 
BRANCH  31  32
ATOM     32  C   UNL A   1      51.355  26.264  25.625  1.00  0.00    -0.011 A 
ATOM     33  C   UNL A   1      52.220  25.165  25.733  1.00  0.00     0.007 A 
ATOM     34  C   UNL A   1      51.594  27.383  26.436  1.00  0.00     0.007 A 
ATOM     35  C   UNL A   1      53.327  25.205  26.579  1.00  0.00     0.000 A 
ATOM     36  C   UNL A   1      52.692  27.416  27.298  1.00  0.00     0.000 A 
ATOM     37  C   UNL A   1      53.568  26.334  27.356  1.00  0.00     0.000 A 
ENDBRANCH  31  32
ENDBRANCH  30  31
ENDBRANCH  27  30
ENDBRANCH  25  26
ENDBRANCH  22  25
ENDBRANCH  19  21
ENDBRANCH  16  19
ENDBRANCH  14  15
BRANCH  14  38
ATOM     38  C   UNL A   1      42.947  29.226  27.263  1.00  0.00     0.015 C 
ATOM     39  C   UNL A   1      44.384  29.405  26.765  1.00  0.00     0.010 C 
ATOM     40  C   UNL A   1      42.152  28.597  26.100  1.00  0.00     0.010 C 
ENDBRANCH  14  38
ENDBRANCH  11  14
ENDBRANCH   5  10
ENDBRANCH   1   5
BRANCH   3  41
ATOM     41  C   UNL A   1      40.550  33.182  30.805  1.00  0.00     0.116 C 
BRANCH  41  42
ATOM     42  C   UNL A   1      41.625  33.778  29.911  1.00  0.00     0.021 C 
BRANCH  42  43
ATOM     43  C   UNL A   1      42.105  35.178  30.303  1.00  0.00     0.002 C 
BRANCH  43  44
ATOM     44  C   UNL A   1      43.590  35.321  30.648  1.00  0.00     0.002 C 
BRANCH  44  45
ATOM     45  C   UNL A   1      44.267  36.622  30.214  1.00  0.00     0.021 C 
BRANCH  45  46
ATOM     46  C   UNL A   1      45.735  36.759  30.593  1.00  0.00     0.116 C 
BRANCH  46  47
ATOM     47  N   UNL A   1      46.118  38.128  30.886  1.00  0.00    -0.352 N 
ATOM     48  C   UNL A   1      45.780  38.899  31.970  1.00  0.00     0.251 C 
ATOM     49  H   UNL A   1      46.698  38.561  30.218  1.00  0.00     0.163 HD
ATOM     50  O   UNL A   1      46.092  40.086  32.002  1.00  0.00    -0.269 OA
BRANCH  48  51
ATOM     51  C   UNL A   1      45.011  38.298  33.080  1.00  0.00     0.039 A 
ATOM     52  C   UNL A   1      43.718  38.766  33.332  1.00  0.00     0.014 A 
ATOM     53  C   UNL A   1      45.549  37.265  33.853  1.00  0.00     0.014 A 
ATOM     54  C   UNL A   1      42.945  38.159  34.324  1.00  0.00     0.010 A 
ATOM     55  C   UNL A   1      44.749  36.612  34.787  1.00  0.00     0.010 A 
ATOM     56  C   UNL A   1      43.443  37.057  35.039  1.00  0.00    -0.014 A 
BRANCH  56  57
ATOM     57  C   UNL A   1      42.612  36.356  36.051  1.00  0.00     0.031 A 
ATOM     58  C   UNL A   1      41.529  35.408  35.612  1.00  0.00     0.074 A 
ATOM     59  C   UNL A   1      42.776  36.639  37.360  1.00  0.00     0.049 A 
ATOM     60  N   UNL A   1      40.665  34.752  36.340  1.00  0.00    -0.248 NA
ATOM     61  C   UNL A   1      41.377  35.187  34.162  1.00  0.00     0.031 C 
ATOM     62  C   UNL A   1      43.743  37.593  37.906  1.00  0.00     0.029 A 
ATOM     63  N   UNL A   1      42.111  36.173  38.468  1.00  0.00    -0.354 N 
ATOM     64  C   UNL A   1      39.841  34.082  35.444  1.00  0.00     0.074 A 
ATOM     65  C   UNL A   1      40.294  34.424  34.114  1.00  0.00     0.031 C 
ATOM     66  C   UNL A   1      43.613  37.638  39.242  1.00  0.00     0.029 A 
ATOM     67  C   UNL A   1      42.530  36.748  39.646  1.00  0.00     0.049 A 
ATOM     68  H   UNL A   1      41.403  35.490  38.424  1.00  0.00     0.167 HD
ATOM     69  C   UNL A   1      38.811  33.243  35.705  1.00  0.00     0.034 A 
ATOM     70  C   UNL A   1      42.080  36.588  40.906  1.00  0.00     0.034 A 
ATOM     71  C   UNL A   1      38.398  32.865  37.029  1.00  0.00     0.049 A 
ATOM     72  C   UNL A   1      40.956  35.620  41.163  1.00  0.00     0.074 A 
ATOM     73  C   UNL A   1      37.442  31.933  37.394  1.00  0.00     0.029 A 
ATOM     74  N   UNL A   1      38.899  33.407  38.201  1.00  0.00    -0.354 N 
ATOM     75  N   UNL A   1      40.308  34.862  40.312  1.00  0.00    -0.248 NA
ATOM     76  C   UNL A   1      40.522  35.459  42.560  1.00  0.00     0.031 C 
ATOM     77  C   UNL A   1      37.334  31.944  38.787  1.00  0.00     0.029 A 
ATOM     78  C   UNL A   1      38.255  32.848  39.290  1.00  0.00     0.049 A 
ATOM     79  H   UNL A   1      39.607  34.088  38.250  1.00  0.00     0.167 HD
ATOM     80  C   UNL A   1      39.426  34.103  41.074  1.00  0.00     0.074 A 
ATOM     81  C   UNL A   1      39.634  34.480  42.456  1.00  0.00     0.031 C 
ATOM     82  C   UNL A   1      38.516  33.186  40.664  1.00  0.00     0.034 A 
BRANCH  69  83
ATOM     83  C   UNL A   1      38.067  32.644  34.541  1.00  0.00     0.023 A 
ATOM     84  C   UNL A   1      38.449  31.385  34.034  1.00  0.00     0.012 A 
ATOM     85  C   UNL A   1      36.927  33.285  34.017  1.00  0.00     0.148 A 
ATOM     86  C   UNL A   1      37.721  30.785  33.006  1.00  0.00     0.002 A 
ATOM     87  C   UNL A   1      36.179  32.659  33.028  1.00  0.00     0.091 A 
ATOM     88  F   UNL A   1      36.593  34.490  34.501  1.00  0.00    -0.205 F 
ATOM     89  C   UNL A   1      36.580  31.415  32.514  1.00  0.00     0.022 A 
BRANCH  87  90
ATOM     90  S   UNL A   1      34.648  33.346  32.388  1.00  0.00     0.127 S 
ATOM     91  O   UNL A   1      35.077  34.675  31.958  1.00  0.00    -0.237 OA
ATOM     92  O   UNL A   1      34.332  32.423  31.297  1.00  0.00    -0.237 OA
ATOM     93  O   UNL A   1      33.703  33.328  33.496  1.00  0.00    -0.744 OA
ENDBRANCH  87  90
ENDBRANCH  69  83
BRANCH  70  94
ATOM     94  C   UNL A   1      42.714  37.327  42.037  1.00  0.00     0.023 A 
ATOM     95  C   UNL A   1      42.225  38.598  42.397  1.00  0.00     0.012 A 
ATOM     96  C   UNL A   1      43.805  36.788  42.745  1.00  0.00     0.148 A 
ATOM     97  C   UNL A   1      42.842  39.340  43.405  1.00  0.00     0.002 A 
ATOM     98  C   UNL A   1      44.378  37.507  43.788  1.00  0.00     0.091 A 
ATOM     99  F   UNL A   1      44.266  35.582  42.383  1.00  0.00    -0.205 F 
ATOM    100  C   UNL A   1      43.912  38.792  44.105  1.00  0.00     0.022 A 
BRANCH  98 101
ATOM    101  S   UNL A   1      45.675  36.824  44.825  1.00  0.00     0.127 S 
ATOM    102  O   UNL A   1      45.889  37.901  45.788  1.00  0.00    -0.237 OA
ATOM    103  O   UNL A   1      45.029  35.629  45.371  1.00  0.00    -0.237 OA
ATOM    104  O   UNL A   1      46.787  36.543  43.928  1.00  0.00    -0.744 OA
ENDBRANCH  98 101
ENDBRANCH  70  94
BRANCH  82 105
ATOM    105  C   UNL A   1      37.711  32.473  41.719  1.00  0.00     0.023 A 
ATOM    106  C   UNL A   1      38.249  31.355  42.385  1.00  0.00     0.012 A 
ATOM    107  C   UNL A   1      36.449  32.968  42.106  1.00  0.00     0.148 A 
ATOM    108  C   UNL A   1      37.529  30.720  43.397  1.00  0.00     0.002 A 
ATOM    109  C   UNL A   1      35.763  32.366  43.151  1.00  0.00     0.091 A 
ATOM    110  F   UNL A   1      35.949  34.024  41.447  1.00  0.00    -0.205 F 
ATOM    111  C   UNL A   1      36.294  31.233  43.788  1.00  0.00     0.022 A 
BRANCH 109 112
ATOM    112  S   UNL A   1      34.218  33.019  43.792  1.00  0.00     0.127 S 
ATOM    113  O   UNL A   1      34.560  34.422  44.020  1.00  0.00    -0.237 OA
ATOM    114  O   UNL A   1      33.298  32.788  42.677  1.00  0.00    -0.237 OA
ATOM    115  O   UNL A   1      33.921  32.248  44.992  1.00  0.00    -0.744 OA
ENDBRANCH 109 112
ENDBRANCH  82 105
ENDBRANCH  56  57
ENDBRANCH  48  51
ENDBRANCH  46  47
ENDBRANCH  45  46
ENDBRANCH  44  45
ENDBRANCH  43  44
ENDBRANCH  42  43
ENDBRANCH  41  42
ENDBRANCH   3  41
TORSDOF 29
ENDMDL
