MODEL 1
REMARK VINA RESULT:     -10.8      0.000      0.000
REMARK SMILES COc1c(C(=O)NCCCCCCNC(=O)c2ccc(-c3c4nc(c(-c5cccc(S(=O)(=O)[O-])c5F)c5ccc([nH]5)c(-c5cccc(S(=O)(=O)[O-])c5F)c5nc(c(-c6cccc(S(=O)(=O)[O-])c6F)c6ccc3[nH]6)C=C5)C=C4)cc2)ccc(F)c1F
REMARK SMILES IDX 11 1 10 2 9 3 8 4 7 5 5 6 6 7 4 9 3 10 84 11 80 12 82 13
REMARK SMILES IDX 85 14 81 15 83 16 2 17 1 18 12 19 13 20 14 21 15 22 16 24
REMARK SMILES IDX 17 25 18 26 79 27 19 28 78 29 20 30 21 31 22 32 72 33 23 34
REMARK SMILES IDX 77 35 71 36 73 37 24 38 76 39 70 40 69 41 25 43 57 44 37 45
REMARK SMILES IDX 56 46 38 47 41 48 55 49 74 50 39 51 40 52 54 54 75 55 42 56
REMARK SMILES IDX 26 57 27 58 35 59 28 60 30 61 36 62 29 63 31 64 32 65 33 66
REMARK SMILES IDX 34 67 58 68 59 69 67 70 60 71 62 72 68 73 61 74 63 75 64 76
REMARK SMILES IDX 65 77 66 78 43 79 44 80 52 81 45 82 47 83 53 84 46 85 48 86
REMARK SMILES IDX 49 87 50 88 51 89
REMARK H PARENT 7 8 14 23 73 42 41 53
REMARK Flexibility Score: inf
ROOT
ATOM      1  C   UNL A   1      36.406  20.417  24.844  1.00  0.00     0.002 C 
ENDROOT
BRANCH   1   2
ATOM      2  C   UNL A   1      36.640  21.841  24.320  1.00  0.00     0.002 C 
BRANCH   2   3
ATOM      3  C   UNL A   1      35.764  22.923  24.975  1.00  0.00     0.021 C 
BRANCH   3   4
ATOM      4  C   UNL A   1      35.424  22.620  26.434  1.00  0.00     0.116 C 
BRANCH   4   5
ATOM      5  N   UNL A   1      34.001  22.753  26.658  1.00  0.00    -0.352 N 
ATOM      6  C   UNL A   1      32.859  22.177  26.176  1.00  0.00     0.255 C 
ATOM      7  O   UNL A   1      31.831  22.629  26.686  1.00  0.00    -0.269 OA
ATOM      8  H   UNL A   1      33.802  23.438  27.338  1.00  0.00     0.163 HD
BRANCH   6   9
ATOM      9  C   UNL A   1      32.786  21.066  25.162  1.00  0.00     0.085 A 
ATOM     10  C   UNL A   1      32.564  21.381  23.801  1.00  0.00     0.170 A 
ATOM     11  C   UNL A   1      32.270  20.377  22.867  1.00  0.00     0.201 A 
ATOM     12  C   UNL A   1      32.879  19.702  25.483  1.00  0.00     0.021 A 
ATOM     13  C   UNL A   1      32.264  19.045  23.247  1.00  0.00     0.162 A 
ATOM     14  F   UNL A   1      32.016  20.699  21.590  1.00  0.00    -0.200 F 
ATOM     15  C   UNL A   1      32.597  18.698  24.543  1.00  0.00     0.043 A 
ATOM     16  F   UNL A   1      31.975  18.086  22.358  1.00  0.00    -0.204 F 
BRANCH  10  17
ATOM     17  O   UNL A   1      32.597  22.662  23.302  1.00  0.00    -0.493 OA
ATOM     18  C   UNL A   1      31.278  23.218  23.279  1.00  0.00     0.278 C 
ENDBRANCH  10  17
ENDBRANCH   6   9
ENDBRANCH   4   5
ENDBRANCH   3   4
ENDBRANCH   2   3
ENDBRANCH   1   2
BRANCH   1  19
ATOM     19  C   UNL A   1      37.673  19.569  24.985  1.00  0.00     0.021 C 
BRANCH  19  20
ATOM     20  C   UNL A   1      38.878  20.340  25.511  1.00  0.00     0.116 C 
BRANCH  20  21
ATOM     21  N   UNL A   1      39.919  19.441  25.983  1.00  0.00    -0.352 N 
ATOM     22  C   UNL A   1      41.193  19.738  26.400  1.00  0.00     0.251 C 
ATOM     23  H   UNL A   1      39.678  18.487  26.006  1.00  0.00     0.163 HD
ATOM     24  O   UNL A   1      42.022  18.845  26.529  1.00  0.00    -0.269 OA
BRANCH  22  25
ATOM     25  C   UNL A   1      41.555  21.143  26.685  1.00  0.00     0.039 A 
ATOM     26  C   UNL A   1      42.033  21.476  27.954  1.00  0.00     0.014 A 
ATOM     27  C   UNL A   1      41.411  22.127  25.703  1.00  0.00     0.014 A 
ATOM     28  C   UNL A   1      42.409  22.793  28.223  1.00  0.00     0.010 A 
ATOM     29  C   UNL A   1      41.862  23.420  25.949  1.00  0.00     0.010 A 
ATOM     30  C   UNL A   1      42.350  23.770  27.216  1.00  0.00    -0.014 A 
BRANCH  30  31
ATOM     31  C   UNL A   1      42.790  25.164  27.473  1.00  0.00     0.031 A 
ATOM     32  C   UNL A   1      41.855  26.149  28.121  1.00  0.00     0.074 A 
ATOM     33  C   UNL A   1      44.008  25.562  27.054  1.00  0.00     0.049 A 
ATOM     34  N   UNL A   1      42.056  27.409  28.407  1.00  0.00    -0.248 NA
ATOM     35  C   UNL A   1      40.508  25.666  28.467  1.00  0.00     0.031 C 
ATOM     36  C   UNL A   1      44.973  24.724  26.341  1.00  0.00     0.029 A 
ATOM     37  N   UNL A   1      44.633  26.781  27.148  1.00  0.00    -0.354 N 
ATOM     38  C   UNL A   1      40.855  27.878  28.925  1.00  0.00     0.074 A 
ATOM     39  C   UNL A   1      39.918  26.777  28.884  1.00  0.00     0.031 C 
ATOM     40  C   UNL A   1      46.075  25.444  26.080  1.00  0.00     0.029 A 
ATOM     41  C   UNL A   1      45.883  26.804  26.575  1.00  0.00     0.049 A 
ATOM     42  H   UNL A   1      44.226  27.563  27.585  1.00  0.00     0.167 HD
ATOM     43  C   UNL A   1      40.564  29.106  29.418  1.00  0.00     0.034 A 
ATOM     44  C   UNL A   1      46.774  27.809  26.461  1.00  0.00     0.034 A 
ATOM     45  C   UNL A   1      41.513  30.183  29.497  1.00  0.00     0.049 A 
ATOM     46  C   UNL A   1      46.440  29.151  27.052  1.00  0.00     0.074 A 
ATOM     47  C   UNL A   1      41.351  31.430  30.076  1.00  0.00     0.029 A 
ATOM     48  N   UNL A   1      42.794  30.150  28.969  1.00  0.00    -0.354 N 
ATOM     49  N   UNL A   1      45.361  29.525  27.696  1.00  0.00    -0.248 NA
ATOM     50  C   UNL A   1      47.461  30.202  26.930  1.00  0.00     0.031 C 
ATOM     51  C   UNL A   1      42.522  32.163  29.864  1.00  0.00     0.029 A 
ATOM     52  C   UNL A   1      43.428  31.361  29.189  1.00  0.00     0.049 A 
ATOM     53  H   UNL A   1      43.194  29.379  28.507  1.00  0.00     0.167 HD
ATOM     54  C   UNL A   1      45.588  30.838  28.091  1.00  0.00     0.074 A 
ATOM     55  C   UNL A   1      46.916  31.188  27.630  1.00  0.00     0.031 C 
ATOM     56  C   UNL A   1      44.767  31.681  28.765  1.00  0.00     0.034 A 
BRANCH  43  57
ATOM     57  C   UNL A   1      39.170  29.340  29.941  1.00  0.00     0.023 A 
ATOM     58  C   UNL A   1      38.826  28.912  31.240  1.00  0.00     0.012 A 
ATOM     59  C   UNL A   1      38.217  30.031  29.168  1.00  0.00     0.148 A 
ATOM     60  C   UNL A   1      37.545  29.131  31.745  1.00  0.00     0.002 A 
ATOM     61  C   UNL A   1      36.957  30.289  29.696  1.00  0.00     0.091 A 
ATOM     62  F   UNL A   1      38.553  30.412  27.927  1.00  0.00    -0.205 F 
ATOM     63  C   UNL A   1      36.615  29.828  30.978  1.00  0.00     0.022 A 
BRANCH  61  64
ATOM     64  S   UNL A   1      35.719  31.250  28.821  1.00  0.00     0.127 S 
ATOM     65  O   UNL A   1      36.536  32.300  28.212  1.00  0.00    -0.237 OA
ATOM     66  O   UNL A   1      35.182  30.270  27.874  1.00  0.00    -0.237 OA
ATOM     67  O   UNL A   1      34.771  31.701  29.830  1.00  0.00    -0.744 OA
ENDBRANCH  61  64
ENDBRANCH  43  57
BRANCH  44  68
ATOM     68  C   UNL A   1      48.098  27.562  25.822  1.00  0.00     0.023 A 
ATOM     69  C   UNL A   1      49.197  27.203  26.627  1.00  0.00     0.012 A 
ATOM     70  C   UNL A   1      48.270  27.655  24.427  1.00  0.00     0.148 A 
ATOM     71  C   UNL A   1      50.451  26.976  26.060  1.00  0.00     0.002 A 
ATOM     72  C   UNL A   1      49.507  27.372  23.863  1.00  0.00     0.091 A 
ATOM     73  F   UNL A   1      47.213  28.004  23.681  1.00  0.00    -0.205 F 
ATOM     74  C   UNL A   1      50.604  27.051  24.678  1.00  0.00     0.022 A 
BRANCH  72  75
ATOM     75  S   UNL A   1      49.767  27.317  22.086  1.00  0.00     0.127 S 
ATOM     76  O   UNL A   1      48.797  26.306  21.674  1.00  0.00    -0.237 OA
ATOM     77  O   UNL A   1      49.436  28.687  21.692  1.00  0.00    -0.237 OA
ATOM     78  O   UNL A   1      51.167  26.962  21.902  1.00  0.00    -0.744 OA
ENDBRANCH  72  75
ENDBRANCH  44  68
BRANCH  56  79
ATOM     79  C   UNL A   1      45.289  33.058  29.084  1.00  0.00     0.023 A 
ATOM     80  C   UNL A   1      45.981  33.289  30.290  1.00  0.00     0.012 A 
ATOM     81  C   UNL A   1      45.157  34.106  28.151  1.00  0.00     0.148 A 
ATOM     82  C   UNL A   1      46.501  34.550  30.577  1.00  0.00     0.002 A 
ATOM     83  C   UNL A   1      45.725  35.345  28.420  1.00  0.00     0.091 A 
ATOM     84  F   UNL A   1      44.481  33.871  27.017  1.00  0.00    -0.205 F 
ATOM     85  C   UNL A   1      46.384  35.573  29.639  1.00  0.00     0.022 A 
BRANCH  83  86
ATOM     86  S   UNL A   1      45.713  36.689  27.229  1.00  0.00     0.127 S 
ATOM     87  O   UNL A   1      44.282  36.957  27.096  1.00  0.00    -0.237 OA
ATOM     88  O   UNL A   1      46.466  37.730  27.931  1.00  0.00    -0.237 OA
ATOM     89  O   UNL A   1      46.366  36.174  26.034  1.00  0.00    -0.744 OA
ENDBRANCH  83  86
ENDBRANCH  56  79
ENDBRANCH  30  31
ENDBRANCH  22  25
ENDBRANCH  20  21
ENDBRANCH  19  20
ENDBRANCH   1  19
TORSDOF 17
ENDMDL
MODEL 2
REMARK VINA RESULT:     -10.7      5.485      8.614
REMARK SMILES COc1c(C(=O)NCCCCCCNC(=O)c2ccc(-c3c4nc(c(-c5cccc(S(=O)(=O)[O-])c5F)c5ccc([nH]5)c(-c5cccc(S(=O)(=O)[O-])c5F)c5nc(c(-c6cccc(S(=O)(=O)[O-])c6F)c6ccc3[nH]6)C=C5)C=C4)cc2)ccc(F)c1F
REMARK SMILES IDX 11 1 10 2 9 3 8 4 7 5 5 6 6 7 4 9 3 10 84 11 80 12 82 13
REMARK SMILES IDX 85 14 81 15 83 16 2 17 1 18 12 19 13 20 14 21 15 22 16 24
REMARK SMILES IDX 17 25 18 26 79 27 19 28 78 29 20 30 21 31 22 32 72 33 23 34
REMARK SMILES IDX 77 35 71 36 73 37 24 38 76 39 70 40 69 41 25 43 57 44 37 45
REMARK SMILES IDX 56 46 38 47 41 48 55 49 74 50 39 51 40 52 54 54 75 55 42 56
REMARK SMILES IDX 26 57 27 58 35 59 28 60 30 61 36 62 29 63 31 64 32 65 33 66
REMARK SMILES IDX 34 67 58 68 59 69 67 70 60 71 62 72 68 73 61 74 63 75 64 76
REMARK SMILES IDX 65 77 66 78 43 79 44 80 52 81 45 82 47 83 53 84 46 85 48 86
REMARK SMILES IDX 49 87 50 88 51 89
REMARK H PARENT 7 8 14 23 73 42 41 53
REMARK Flexibility Score: inf
ROOT
ATOM      1  C   UNL A   1      31.770  28.809  25.216  1.00  0.00     0.002 C 
ENDROOT
BRANCH   1   2
ATOM      2  C   UNL A   1      31.858  28.931  23.688  1.00  0.00     0.002 C 
BRANCH   2   3
ATOM      3  C   UNL A   1      30.745  28.202  22.915  1.00  0.00     0.021 C 
BRANCH   3   4
ATOM      4  C   UNL A   1      30.754  26.688  23.133  1.00  0.00     0.116 C 
BRANCH   4   5
ATOM      5  N   UNL A   1      31.657  26.050  22.201  1.00  0.00    -0.352 N 
ATOM      6  C   UNL A   1      32.723  25.198  22.272  1.00  0.00     0.255 C 
ATOM      7  O   UNL A   1      33.196  24.914  21.169  1.00  0.00    -0.269 OA
ATOM      8  H   UNL A   1      31.450  26.294  21.269  1.00  0.00     0.163 HD
BRANCH   6   9
ATOM      9  C   UNL A   1      33.288  24.587  23.528  1.00  0.00     0.085 A 
ATOM     10  C   UNL A   1      32.648  23.463  24.101  1.00  0.00     0.170 A 
ATOM     11  C   UNL A   1      33.004  23.005  25.378  1.00  0.00     0.201 A 
ATOM     12  C   UNL A   1      34.405  25.091  24.213  1.00  0.00     0.021 A 
ATOM     13  C   UNL A   1      34.043  23.599  26.073  1.00  0.00     0.162 A 
ATOM     14  F   UNL A   1      32.353  21.967  25.926  1.00  0.00    -0.200 F 
ATOM     15  C   UNL A   1      34.767  24.621  25.486  1.00  0.00     0.043 A 
ATOM     16  F   UNL A   1      34.379  23.168  27.295  1.00  0.00    -0.204 F 
BRANCH  10  17
ATOM     17  O   UNL A   1      31.640  22.764  23.481  1.00  0.00    -0.493 OA
ATOM     18  C   UNL A   1      32.186  21.694  22.701  1.00  0.00     0.278 C 
ENDBRANCH  10  17
ENDBRANCH   6   9
ENDBRANCH   4   5
ENDBRANCH   3   4
ENDBRANCH   2   3
ENDBRANCH   1   2
BRANCH   1  19
ATOM     19  C   UNL A   1      32.781  27.846  25.843  1.00  0.00     0.021 C 
BRANCH  19  20
ATOM     20  C   UNL A   1      34.057  28.521  26.332  1.00  0.00     0.116 C 
BRANCH  20  21
ATOM     21  N   UNL A   1      33.827  29.921  26.654  1.00  0.00    -0.352 N 
ATOM     22  C   UNL A   1      34.509  30.728  27.530  1.00  0.00     0.251 C 
ATOM     23  H   UNL A   1      33.078  30.348  26.179  1.00  0.00     0.163 HD
ATOM     24  O   UNL A   1      34.036  31.807  27.868  1.00  0.00    -0.269 OA
BRANCH  22  25
ATOM     25  C   UNL A   1      35.814  30.282  28.063  1.00  0.00     0.039 A 
ATOM     26  C   UNL A   1      35.864  29.685  29.324  1.00  0.00     0.014 A 
ATOM     27  C   UNL A   1      36.984  30.465  27.321  1.00  0.00     0.014 A 
ATOM     28  C   UNL A   1      37.086  29.231  29.822  1.00  0.00     0.010 A 
ATOM     29  C   UNL A   1      38.186  29.940  27.784  1.00  0.00     0.010 A 
ATOM     30  C   UNL A   1      38.253  29.332  29.046  1.00  0.00    -0.014 A 
BRANCH  30  31
ATOM     31  C   UNL A   1      39.551  28.811  29.542  1.00  0.00     0.031 A 
ATOM     32  C   UNL A   1      40.264  29.501  30.674  1.00  0.00     0.074 A 
ATOM     33  C   UNL A   1      40.124  27.761  28.922  1.00  0.00     0.049 A 
ATOM     34  N   UNL A   1      41.411  29.204  31.228  1.00  0.00    -0.248 NA
ATOM     35  C   UNL A   1      39.620  30.698  31.240  1.00  0.00     0.031 C 
ATOM     36  C   UNL A   1      39.572  27.058  27.763  1.00  0.00     0.029 A 
ATOM     37  N   UNL A   1      41.310  27.113  29.168  1.00  0.00    -0.354 N 
ATOM     38  C   UNL A   1      41.645  30.195  32.173  1.00  0.00     0.074 A 
ATOM     39  C   UNL A   1      40.539  31.122  32.097  1.00  0.00     0.031 C 
ATOM     40  C   UNL A   1      40.405  26.067  27.409  1.00  0.00     0.029 A 
ATOM     41  C   UNL A   1      41.566  26.083  28.294  1.00  0.00     0.049 A 
ATOM     42  H   UNL A   1      41.917  27.362  29.901  1.00  0.00     0.167 HD
ATOM     43  C   UNL A   1      42.674  30.309  33.047  1.00  0.00     0.034 A 
ATOM     44  C   UNL A   1      42.619  25.246  28.214  1.00  0.00     0.034 A 
ATOM     45  C   UNL A   1      43.748  29.359  33.149  1.00  0.00     0.049 A 
ATOM     46  C   UNL A   1      43.729  25.370  29.222  1.00  0.00     0.074 A 
ATOM     47  C   UNL A   1      44.780  29.324  34.070  1.00  0.00     0.029 A 
ATOM     48  N   UNL A   1      43.940  28.286  32.292  1.00  0.00    -0.354 N 
ATOM     49  N   UNL A   1      43.846  26.210  30.223  1.00  0.00    -0.248 NA
ATOM     50  C   UNL A   1      44.836  24.410  29.112  1.00  0.00     0.031 C 
ATOM     51  C   UNL A   1      45.617  28.251  33.746  1.00  0.00     0.029 A 
ATOM     52  C   UNL A   1      45.085  27.594  32.648  1.00  0.00     0.049 A 
ATOM     53  H   UNL A   1      43.349  28.051  31.541  1.00  0.00     0.167 HD
ATOM     54  C   UNL A   1      45.016  25.855  30.884  1.00  0.00     0.074 A 
ATOM     55  C   UNL A   1      45.561  24.712  30.181  1.00  0.00     0.031 C 
ATOM     56  C   UNL A   1      45.592  26.430  31.968  1.00  0.00     0.034 A 
BRANCH  43  57
ATOM     57  C   UNL A   1      42.669  31.487  33.987  1.00  0.00     0.023 A 
ATOM     58  C   UNL A   1      43.253  32.706  33.588  1.00  0.00     0.012 A 
ATOM     59  C   UNL A   1      42.038  31.402  35.244  1.00  0.00     0.148 A 
ATOM     60  C   UNL A   1      43.248  33.810  34.441  1.00  0.00     0.002 A 
ATOM     61  C   UNL A   1      41.994  32.521  36.068  1.00  0.00     0.091 A 
ATOM     62  F   UNL A   1      41.507  30.229  35.617  1.00  0.00    -0.205 F 
ATOM     63  C   UNL A   1      42.609  33.720  35.675  1.00  0.00     0.022 A 
BRANCH  61  64
ATOM     64  S   UNL A   1      41.124  32.531  37.639  1.00  0.00     0.127 S 
ATOM     65  O   UNL A   1      39.809  32.021  37.252  1.00  0.00    -0.237 OA
ATOM     66  O   UNL A   1      41.925  31.603  38.440  1.00  0.00    -0.237 OA
ATOM     67  O   UNL A   1      41.148  33.910  38.104  1.00  0.00    -0.744 OA
ENDBRANCH  61  64
ENDBRANCH  43  57
BRANCH  44  68
ATOM     68  C   UNL A   1      42.639  24.168  27.184  1.00  0.00     0.023 A 
ATOM     69  C   UNL A   1      43.313  24.390  25.967  1.00  0.00     0.012 A 
ATOM     70  C   UNL A   1      42.020  22.924  27.411  1.00  0.00     0.148 A 
ATOM     71  C   UNL A   1      43.340  23.405  24.980  1.00  0.00     0.002 A 
ATOM     72  C   UNL A   1      42.100  21.927  26.447  1.00  0.00     0.091 A 
ATOM     73  F   UNL A   1      41.379  22.737  28.573  1.00  0.00    -0.205 F 
ATOM     74  C   UNL A   1      42.742  22.170  25.222  1.00  0.00     0.022 A 
BRANCH  72  75
ATOM     75  S   UNL A   1      41.472  20.266  26.723  1.00  0.00     0.127 S 
ATOM     76  O   UNL A   1      40.040  20.510  26.877  1.00  0.00    -0.237 OA
ATOM     77  O   UNL A   1      41.854  19.591  25.482  1.00  0.00    -0.237 OA
ATOM     78  O   UNL A   1      42.162  19.776  27.909  1.00  0.00    -0.744 OA
ENDBRANCH  72  75
ENDBRANCH  44  68
BRANCH  56  79
ATOM     79  C   UNL A   1      46.863  25.814  32.493  1.00  0.00     0.023 A 
ATOM     80  C   UNL A   1      48.112  26.258  32.016  1.00  0.00     0.012 A 
ATOM     81  C   UNL A   1      46.818  24.845  33.515  1.00  0.00     0.148 A 
ATOM     82  C   UNL A   1      49.295  25.721  32.522  1.00  0.00     0.002 A 
ATOM     83  C   UNL A   1      48.001  24.354  34.053  1.00  0.00     0.091 A 
ATOM     84  F   UNL A   1      45.620  24.423  33.944  1.00  0.00    -0.205 F 
ATOM     85  C   UNL A   1      49.240  24.780  33.548  1.00  0.00     0.022 A 
BRANCH  83  86
ATOM     86  S   UNL A   1      48.029  23.218  35.444  1.00  0.00     0.127 S 
ATOM     87  O   UNL A   1      47.522  21.989  34.835  1.00  0.00    -0.237 OA
ATOM     88  O   UNL A   1      49.451  23.186  35.788  1.00  0.00    -0.237 OA
ATOM     89  O   UNL A   1      47.173  23.808  36.463  1.00  0.00    -0.744 OA
ENDBRANCH  83  86
ENDBRANCH  56  79
ENDBRANCH  30  31
ENDBRANCH  22  25
ENDBRANCH  20  21
ENDBRANCH  19  20
ENDBRANCH   1  19
TORSDOF 17
ENDMDL
MODEL 3
REMARK VINA RESULT:     -10.7      5.529      8.587
REMARK SMILES COc1c(C(=O)NCCCCCCNC(=O)c2ccc(-c3c4nc(c(-c5cccc(S(=O)(=O)[O-])c5F)c5ccc([nH]5)c(-c5cccc(S(=O)(=O)[O-])c5F)c5nc(c(-c6cccc(S(=O)(=O)[O-])c6F)c6ccc3[nH]6)C=C5)C=C4)cc2)ccc(F)c1F
REMARK SMILES IDX 11 1 10 2 9 3 8 4 7 5 5 6 6 7 4 9 3 10 84 11 80 12 82 13
REMARK SMILES IDX 85 14 81 15 83 16 2 17 1 18 12 19 13 20 14 21 15 22 16 24
REMARK SMILES IDX 17 25 18 26 79 27 19 28 78 29 20 30 21 31 22 32 72 33 23 34
REMARK SMILES IDX 77 35 71 36 73 37 24 38 76 39 70 40 69 41 25 43 57 44 37 45
REMARK SMILES IDX 56 46 38 47 41 48 55 49 74 50 39 51 40 52 54 54 75 55 42 56
REMARK SMILES IDX 26 57 27 58 35 59 28 60 30 61 36 62 29 63 31 64 32 65 33 66
REMARK SMILES IDX 34 67 58 68 59 69 67 70 60 71 62 72 68 73 61 74 63 75 64 76
REMARK SMILES IDX 65 77 66 78 43 79 44 80 52 81 45 82 47 83 53 84 46 85 48 86
REMARK SMILES IDX 49 87 50 88 51 89
REMARK H PARENT 7 8 14 23 73 42 41 53
REMARK Flexibility Score: inf
ROOT
ATOM      1  C   UNL A   1      33.273  27.041  24.740  1.00  0.00     0.002 C 
ENDROOT
BRANCH   1   2
ATOM      2  C   UNL A   1      31.765  26.938  24.470  1.00  0.00     0.002 C 
BRANCH   2   3
ATOM      3  C   UNL A   1      30.883  26.897  25.730  1.00  0.00     0.021 C 
BRANCH   3   4
ATOM      4  C   UNL A   1      29.713  25.921  25.614  1.00  0.00     0.116 C 
BRANCH   4   5
ATOM      5  N   UNL A   1      29.929  24.772  26.465  1.00  0.00    -0.352 N 
ATOM      6  C   UNL A   1      30.725  23.660  26.457  1.00  0.00     0.255 C 
ATOM      7  O   UNL A   1      30.556  22.931  27.436  1.00  0.00    -0.269 OA
ATOM      8  H   UNL A   1      29.350  24.796  27.262  1.00  0.00     0.163 HD
BRANCH   6   9
ATOM      9  C   UNL A   1      31.761  23.321  25.418  1.00  0.00     0.085 A 
ATOM     10  C   UNL A   1      33.133  23.450  25.737  1.00  0.00     0.170 A 
ATOM     11  C   UNL A   1      34.117  23.360  24.741  1.00  0.00     0.201 A 
ATOM     12  C   UNL A   1      31.458  22.918  24.107  1.00  0.00     0.021 A 
ATOM     13  C   UNL A   1      33.767  23.068  23.434  1.00  0.00     0.162 A 
ATOM     14  F   UNL A   1      35.410  23.533  25.055  1.00  0.00    -0.200 F 
ATOM     15  C   UNL A   1      32.446  22.815  23.116  1.00  0.00     0.043 A 
ATOM     16  F   UNL A   1      34.705  22.990  22.481  1.00  0.00    -0.204 F 
BRANCH  10  17
ATOM     17  O   UNL A   1      33.598  23.690  27.009  1.00  0.00    -0.493 OA
ATOM     18  C   UNL A   1      33.961  22.458  27.643  1.00  0.00     0.278 C 
ENDBRANCH  10  17
ENDBRANCH   6   9
ENDBRANCH   4   5
ENDBRANCH   3   4
ENDBRANCH   2   3
ENDBRANCH   1   2
BRANCH   1  19
ATOM     19  C   UNL A   1      33.777  28.456  25.037  1.00  0.00     0.021 C 
BRANCH  19  20
ATOM     20  C   UNL A   1      34.008  28.732  26.517  1.00  0.00     0.116 C 
BRANCH  20  21
ATOM     21  N   UNL A   1      33.819  30.140  26.831  1.00  0.00    -0.352 N 
ATOM     22  C   UNL A   1      34.526  30.932  27.701  1.00  0.00     0.251 C 
ATOM     23  H   UNL A   1      33.083  30.586  26.354  1.00  0.00     0.163 HD
ATOM     24  O   UNL A   1      34.084  32.027  28.033  1.00  0.00    -0.269 OA
BRANCH  22  25
ATOM     25  C   UNL A   1      35.818  30.453  28.236  1.00  0.00     0.039 A 
ATOM     26  C   UNL A   1      35.829  29.705  29.415  1.00  0.00     0.014 A 
ATOM     27  C   UNL A   1      37.014  30.751  27.577  1.00  0.00     0.014 A 
ATOM     28  C   UNL A   1      37.040  29.220  29.910  1.00  0.00     0.010 A 
ATOM     29  C   UNL A   1      38.208  30.199  28.027  1.00  0.00     0.010 A 
ATOM     30  C   UNL A   1      38.237  29.442  29.207  1.00  0.00    -0.014 A 
BRANCH  30  31
ATOM     31  C   UNL A   1      39.526  28.892  29.695  1.00  0.00     0.031 A 
ATOM     32  C   UNL A   1      40.249  29.552  30.839  1.00  0.00     0.074 A 
ATOM     33  C   UNL A   1      40.082  27.842  29.059  1.00  0.00     0.049 A 
ATOM     34  N   UNL A   1      41.390  29.226  31.388  1.00  0.00    -0.248 NA
ATOM     35  C   UNL A   1      39.624  30.749  31.424  1.00  0.00     0.031 C 
ATOM     36  C   UNL A   1      39.520  27.167  27.888  1.00  0.00     0.029 A 
ATOM     37  N   UNL A   1      41.257  27.172  29.295  1.00  0.00    -0.354 N 
ATOM     38  C   UNL A   1      41.640  30.198  32.350  1.00  0.00     0.074 A 
ATOM     39  C   UNL A   1      40.549  31.144  32.288  1.00  0.00     0.031 C 
ATOM     40  C   UNL A   1      40.337  26.169  27.519  1.00  0.00     0.029 A 
ATOM     41  C   UNL A   1      41.497  26.151  28.404  1.00  0.00     0.049 A 
ATOM     42  H   UNL A   1      41.868  27.399  30.031  1.00  0.00     0.167 HD
ATOM     43  C   UNL A   1      42.669  30.281  33.226  1.00  0.00     0.034 A 
ATOM     44  C   UNL A   1      42.537  25.299  28.311  1.00  0.00     0.034 A 
ATOM     45  C   UNL A   1      43.728  29.312  33.313  1.00  0.00     0.049 A 
ATOM     46  C   UNL A   1      43.647  25.389  29.321  1.00  0.00     0.074 A 
ATOM     47  C   UNL A   1      44.758  29.245  34.234  1.00  0.00     0.029 A 
ATOM     48  N   UNL A   1      43.904  28.250  32.438  1.00  0.00    -0.354 N 
ATOM     49  N   UNL A   1      43.777  26.210  30.336  1.00  0.00    -0.248 NA
ATOM     50  C   UNL A   1      44.739  24.413  29.196  1.00  0.00     0.031 C 
ATOM     51  C   UNL A   1      45.578  28.165  33.893  1.00  0.00     0.029 A 
ATOM     52  C   UNL A   1      45.037  27.534  32.784  1.00  0.00     0.049 A 
ATOM     53  H   UNL A   1      43.309  28.037  31.684  1.00  0.00     0.167 HD
ATOM     54  C   UNL A   1      44.941  25.825  30.991  1.00  0.00     0.074 A 
ATOM     55  C   UNL A   1      45.467  24.685  30.270  1.00  0.00     0.031 C 
ATOM     56  C   UNL A   1      45.525  26.374  32.086  1.00  0.00     0.034 A 
BRANCH  43  57
ATOM     57  C   UNL A   1      42.683  31.443  34.185  1.00  0.00     0.023 A 
ATOM     58  C   UNL A   1      43.362  32.630  33.841  1.00  0.00     0.012 A 
ATOM     59  C   UNL A   1      41.978  31.380  35.404  1.00  0.00     0.148 A 
ATOM     60  C   UNL A   1      43.375  33.720  34.711  1.00  0.00     0.002 A 
ATOM     61  C   UNL A   1      41.955  32.487  36.244  1.00  0.00     0.091 A 
ATOM     62  F   UNL A   1      41.357  30.236  35.725  1.00  0.00    -0.205 F 
ATOM     63  C   UNL A   1      42.664  33.652  35.906  1.00  0.00     0.022 A 
BRANCH  61  64
ATOM     64  S   UNL A   1      41.001  32.527  37.764  1.00  0.00     0.127 S 
ATOM     65  O   UNL A   1      40.895  33.966  38.008  1.00  0.00    -0.237 OA
ATOM     66  O   UNL A   1      39.749  31.885  37.359  1.00  0.00    -0.237 OA
ATOM     67  O   UNL A   1      41.775  31.782  38.746  1.00  0.00    -0.744 OA
ENDBRANCH  61  64
ENDBRANCH  43  57
BRANCH  44  68
ATOM     68  C   UNL A   1      42.539  24.238  27.264  1.00  0.00     0.023 A 
ATOM     69  C   UNL A   1      43.412  24.357  26.164  1.00  0.00     0.012 A 
ATOM     70  C   UNL A   1      41.708  23.106  27.362  1.00  0.00     0.148 A 
ATOM     71  C   UNL A   1      43.430  23.386  25.162  1.00  0.00     0.002 A 
ATOM     72  C   UNL A   1      41.772  22.115  26.390  1.00  0.00     0.091 A 
ATOM     73  F   UNL A   1      40.881  23.016  28.413  1.00  0.00    -0.205 F 
ATOM     74  C   UNL A   1      42.618  22.261  25.280  1.00  0.00     0.022 A 
BRANCH  72  75
ATOM     75  S   UNL A   1      40.860  20.573  26.524  1.00  0.00     0.127 S 
ATOM     76  O   UNL A   1      41.605  19.706  25.616  1.00  0.00    -0.237 OA
ATOM     77  O   UNL A   1      41.013  20.257  27.945  1.00  0.00    -0.237 OA
ATOM     78  O   UNL A   1      39.495  20.886  26.124  1.00  0.00    -0.744 OA
ENDBRANCH  72  75
ENDBRANCH  44  68
BRANCH  56  79
ATOM     79  C   UNL A   1      46.786  25.728  32.601  1.00  0.00     0.023 A 
ATOM     80  C   UNL A   1      48.044  26.195  32.172  1.00  0.00     0.012 A 
ATOM     81  C   UNL A   1      46.720  24.706  33.569  1.00  0.00     0.148 A 
ATOM     82  C   UNL A   1      49.217  25.630  32.672  1.00  0.00     0.002 A 
ATOM     83  C   UNL A   1      47.893  24.185  34.102  1.00  0.00     0.091 A 
ATOM     84  F   UNL A   1      45.514  24.264  33.952  1.00  0.00    -0.205 F 
ATOM     85  C   UNL A   1      49.142  24.636  33.644  1.00  0.00     0.022 A 
BRANCH  83  86
ATOM     86  S   UNL A   1      47.893  22.976  35.430  1.00  0.00     0.127 S 
ATOM     87  O   UNL A   1      47.133  23.672  36.467  1.00  0.00    -0.237 OA
ATOM     88  O   UNL A   1      47.196  21.845  34.818  1.00  0.00    -0.237 OA
ATOM     89  O   UNL A   1      49.292  22.725  35.746  1.00  0.00    -0.744 OA
ENDBRANCH  83  86
ENDBRANCH  56  79
ENDBRANCH  30  31
ENDBRANCH  22  25
ENDBRANCH  20  21
ENDBRANCH  19  20
ENDBRANCH   1  19
TORSDOF 17
ENDMDL
