MODEL 1
REMARK VINA RESULT:     -11.9      0.000      0.000
REMARK SMILES O=C(Cc1c(C(=O)c2cccc(Cl)c2)[nH]c2ccccc12)NCCCCCCNC(=O)c1ccc(-c2c3nc(c(-c4cccc(S(=O)(=O)[O-])c4F)c4ccc([nH]4)c(-c4cccc(S(=O)(=O)[O-])c4F)c4nc(c(-c5cccc(S(=O)(=O)[O-])c5F)c5ccc2[nH]5)C=C4)C=C3)cc1
REMARK SMILES IDX 25 1 24 2 23 3 22 4 1 5 2 6 3 8 4 9 5 10 21 11 15 12 16 13
REMARK SMILES IDX 20 14 17 16 19 17 18 18 6 19 7 20 8 21 9 22 14 23 10 24
REMARK SMILES IDX 12 25 11 26 13 27 26 28 27 29 28 30 29 31 30 32 31 34 32 35
REMARK SMILES IDX 33 36 94 37 34 38 93 39 35 40 36 41 37 42 87 43 38 44 92 45
REMARK SMILES IDX 86 46 88 47 39 48 91 49 85 50 84 51 40 53 72 54 52 55 71 56
REMARK SMILES IDX 53 57 56 58 70 59 89 60 54 61 55 62 69 64 90 65 57 66 41 67
REMARK SMILES IDX 42 68 50 69 43 70 45 71 51 72 44 73 46 74 47 75 48 76 49 77
REMARK SMILES IDX 73 78 74 79 82 80 75 81 77 82 83 83 76 84 78 85 79 86 80 87
REMARK SMILES IDX 81 88 58 89 59 90 67 91 60 92 62 93 68 94 61 95 63 96 64 97
REMARK SMILES IDX 65 98 66 99
REMARK H PARENT 22 7 15 15 29 33 88 52 56 63
REMARK Flexibility Score: inf
ROOT
ATOM      1  C   UNL A   1      36.763  21.734  24.335  1.00  0.00     0.002 C 
ENDROOT
BRANCH   1   2
ATOM      2  C   UNL A   1      37.536  22.845  25.060  1.00  0.00     0.021 C 
BRANCH   2   3
ATOM      3  C   UNL A   1      36.743  23.581  26.136  1.00  0.00     0.116 C 
BRANCH   3   4
ATOM      4  N   UNL A   1      35.317  23.363  26.001  1.00  0.00    -0.356 N 
ATOM      5  O   UNL A   1      34.795  25.487  25.294  1.00  0.00    -0.275 OA
ATOM      6  C   UNL A   1      34.452  24.334  25.540  1.00  0.00     0.224 C 
ATOM      7  H   UNL A   1      34.949  22.485  26.249  1.00  0.00     0.163 HD
BRANCH   6   8
ATOM      8  C   UNL A   1      33.013  23.875  25.402  1.00  0.00     0.138 C 
BRANCH   8   9
ATOM      9  C   UNL A   1      32.720  22.948  24.243  1.00  0.00    -0.002 A 
ATOM     10  C   UNL A   1      32.452  23.383  22.939  1.00  0.00     0.092 A 
ATOM     11  C   UNL A   1      32.694  21.508  24.225  1.00  0.00     0.004 A 
ATOM     12  N   UNL A   1      32.249  22.255  22.180  1.00  0.00    -0.352 N 
ATOM     13  C   UNL A   1      32.342  21.115  22.937  1.00  0.00     0.046 A 
ATOM     14  C   UNL A   1      32.928  20.488  25.176  1.00  0.00     0.010 A 
ATOM     15  H   UNL A   1      32.060  22.263  21.213  1.00  0.00     0.167 HD
ATOM     16  C   UNL A   1      32.163  19.777  22.562  1.00  0.00     0.027 A 
ATOM     17  C   UNL A   1      32.741  19.145  24.826  1.00  0.00     0.001 A 
ATOM     18  C   UNL A   1      32.355  18.797  23.537  1.00  0.00     0.002 A 
BRANCH  10  19
ATOM     19  C   UNL A   1      32.442  24.751  22.431  1.00  0.00     0.209 C 
ATOM     20  O   UNL A   1      33.292  25.203  21.666  1.00  0.00    -0.287 OA
BRANCH  19  21
ATOM     21  C   UNL A   1      31.331  25.664  22.787  1.00  0.00     0.026 A 
ATOM     22  C   UNL A   1      30.268  25.243  23.594  1.00  0.00     0.012 A 
ATOM     23  C   UNL A   1      31.390  26.984  22.324  1.00  0.00     0.032 A 
ATOM     24  C   UNL A   1      29.242  26.135  23.907  1.00  0.00     0.002 A 
ATOM     25  C   UNL A   1      30.363  27.866  22.642  1.00  0.00     0.041 A 
ATOM     26  C   UNL A   1      29.286  27.447  23.425  1.00  0.00     0.020 A 
ATOM     27  Cl  UNL A   1      30.417  29.487  22.067  1.00  0.00    -0.084 Cl
ENDBRANCH  19  21
ENDBRANCH  10  19
ENDBRANCH   8   9
ENDBRANCH   6   8
ENDBRANCH   3   4
ENDBRANCH   2   3
ENDBRANCH   1   2
BRANCH   1  28
ATOM     28  C   UNL A   1      36.801  20.357  25.001  1.00  0.00     0.002 C 
BRANCH  28  29
ATOM     29  C   UNL A   1      38.131  19.607  24.888  1.00  0.00     0.021 C 
BRANCH  29  30
ATOM     30  C   UNL A   1      39.085  19.791  26.065  1.00  0.00     0.116 C 
BRANCH  30  31
ATOM     31  N   UNL A   1      40.313  19.021  25.923  1.00  0.00    -0.352 N 
ATOM     32  C   UNL A   1      41.616  19.453  26.005  1.00  0.00     0.251 C 
ATOM     33  H   UNL A   1      40.193  18.060  25.746  1.00  0.00     0.163 HD
ATOM     34  O   UNL A   1      42.537  18.691  25.726  1.00  0.00    -0.269 OA
BRANCH  32  35
ATOM     35  C   UNL A   1      41.901  20.848  26.404  1.00  0.00     0.039 A 
ATOM     36  C   UNL A   1      42.218  21.124  27.738  1.00  0.00     0.014 A 
ATOM     37  C   UNL A   1      41.876  21.880  25.462  1.00  0.00     0.014 A 
ATOM     38  C   UNL A   1      42.579  22.421  28.113  1.00  0.00     0.010 A 
ATOM     39  C   UNL A   1      42.297  23.157  25.824  1.00  0.00     0.010 A 
ATOM     40  C   UNL A   1      42.654  23.442  27.152  1.00  0.00    -0.014 A 
BRANCH  40  41
ATOM     41  C   UNL A   1      43.114  24.813  27.499  1.00  0.00     0.031 A 
ATOM     42  C   UNL A   1      42.152  25.798  28.109  1.00  0.00     0.074 A 
ATOM     43  C   UNL A   1      44.358  25.208  27.157  1.00  0.00     0.049 A 
ATOM     44  N   UNL A   1      42.326  27.067  28.369  1.00  0.00    -0.248 NA
ATOM     45  C   UNL A   1      40.806  25.299  28.442  1.00  0.00     0.031 C 
ATOM     46  C   UNL A   1      45.362  24.371  26.497  1.00  0.00     0.029 A 
ATOM     47  N   UNL A   1      44.977  26.428  27.284  1.00  0.00    -0.354 N 
ATOM     48  C   UNL A   1      41.105  27.530  28.843  1.00  0.00     0.074 A 
ATOM     49  C   UNL A   1      40.191  26.409  28.824  1.00  0.00     0.031 C 
ATOM     50  C   UNL A   1      46.465  25.104  26.266  1.00  0.00     0.029 A 
ATOM     51  C   UNL A   1      46.239  26.468  26.732  1.00  0.00     0.049 A 
ATOM     52  H   UNL A   1      44.559  27.201  27.726  1.00  0.00     0.167 HD
ATOM     53  C   UNL A   1      40.779  28.771  29.274  1.00  0.00     0.034 A 
ATOM     54  C   UNL A   1      47.107  27.492  26.602  1.00  0.00     0.034 A 
ATOM     55  C   UNL A   1      41.707  29.864  29.360  1.00  0.00     0.049 A 
ATOM     56  C   UNL A   1      46.731  28.845  27.145  1.00  0.00     0.074 A 
ATOM     57  C   UNL A   1      41.502  31.124  29.895  1.00  0.00     0.029 A 
ATOM     58  N   UNL A   1      43.012  29.834  28.896  1.00  0.00    -0.354 N 
ATOM     59  N   UNL A   1      45.631  29.214  27.754  1.00  0.00    -0.248 NA
ATOM     60  C   UNL A   1      47.730  29.917  27.014  1.00  0.00     0.031 C 
ATOM     61  C   UNL A   1      42.677  31.863  29.736  1.00  0.00     0.029 A 
ATOM     62  C   UNL A   1      43.621  31.056  29.123  1.00  0.00     0.049 A 
ATOM     63  H   UNL A   1      43.442  29.059  28.468  1.00  0.00     0.167 HD
ATOM     64  C   UNL A   1      45.824  30.541  28.120  1.00  0.00     0.074 A 
ATOM     65  C   UNL A   1      47.152  30.909  27.678  1.00  0.00     0.031 C 
ATOM     66  C   UNL A   1      44.971  31.385  28.751  1.00  0.00     0.034 A 
BRANCH  53  67
ATOM     67  C   UNL A   1      39.371  29.014  29.746  1.00  0.00     0.023 A 
ATOM     68  C   UNL A   1      38.996  28.623  31.047  1.00  0.00     0.012 A 
ATOM     69  C   UNL A   1      38.455  29.724  28.944  1.00  0.00     0.148 A 
ATOM     70  C   UNL A   1      37.723  28.915  31.536  1.00  0.00     0.002 A 
ATOM     71  C   UNL A   1      37.204  30.049  29.454  1.00  0.00     0.091 A 
ATOM     72  F   UNL A   1      38.828  30.071  27.704  1.00  0.00    -0.205 F 
ATOM     73  C   UNL A   1      36.833  29.638  30.745  1.00  0.00     0.022 A 
BRANCH  71  74
ATOM     74  S   UNL A   1      36.014  31.047  28.549  1.00  0.00     0.127 S 
ATOM     75  O   UNL A   1      34.963  31.231  29.549  1.00  0.00    -0.237 OA
ATOM     76  O   UNL A   1      36.790  32.251  28.250  1.00  0.00    -0.237 OA
ATOM     77  O   UNL A   1      35.633  30.262  27.383  1.00  0.00    -0.744 OA
ENDBRANCH  71  74
ENDBRANCH  53  67
BRANCH  54  78
ATOM     78  C   UNL A   1      48.448  27.272  25.985  1.00  0.00     0.023 A 
ATOM     79  C   UNL A   1      49.515  26.838  26.796  1.00  0.00     0.012 A 
ATOM     80  C   UNL A   1      48.676  27.496  24.614  1.00  0.00     0.148 A 
ATOM     81  C   UNL A   1      50.795  26.674  26.264  1.00  0.00     0.002 A 
ATOM     82  C   UNL A   1      49.941  27.276  24.078  1.00  0.00     0.091 A 
ATOM     83  F   UNL A   1      47.655  27.925  23.858  1.00  0.00    -0.205 F 
ATOM     84  C   UNL A   1      51.006  26.886  24.904  1.00  0.00     0.022 A 
BRANCH  82  85
ATOM     85  S   UNL A   1      50.262  27.399  22.315  1.00  0.00     0.127 S 
ATOM     86  O   UNL A   1      49.339  26.407  21.772  1.00  0.00    -0.237 OA
ATOM     87  O   UNL A   1      49.907  28.791  22.034  1.00  0.00    -0.237 OA
ATOM     88  O   UNL A   1      51.681  27.107  22.162  1.00  0.00    -0.744 OA
ENDBRANCH  82  85
ENDBRANCH  54  78
BRANCH  66  89
ATOM     89  C   UNL A   1      45.455  32.775  29.064  1.00  0.00     0.023 A 
ATOM     90  C   UNL A   1      46.117  33.030  30.281  1.00  0.00     0.012 A 
ATOM     91  C   UNL A   1      45.342  33.803  28.107  1.00  0.00     0.148 A 
ATOM     92  C   UNL A   1      46.637  34.296  30.551  1.00  0.00     0.002 A 
ATOM     93  C   UNL A   1      45.905  35.048  28.363  1.00  0.00     0.091 A 
ATOM     94  F   UNL A   1      44.693  33.543  26.963  1.00  0.00    -0.205 F 
ATOM     95  C   UNL A   1      46.543  35.299  29.588  1.00  0.00     0.022 A 
BRANCH  93  96
ATOM     96  S   UNL A   1      45.920  36.365  27.142  1.00  0.00     0.127 S 
ATOM     97  O   UNL A   1      46.674  37.407  27.836  1.00  0.00    -0.237 OA
ATOM     98  O   UNL A   1      46.629  35.743  26.023  1.00  0.00    -0.237 OA
ATOM     99  O   UNL A   1      44.524  36.678  26.871  1.00  0.00    -0.744 OA
ENDBRANCH  93  96
ENDBRANCH  66  89
ENDBRANCH  40  41
ENDBRANCH  32  35
ENDBRANCH  30  31
ENDBRANCH  29  30
ENDBRANCH  28  29
ENDBRANCH   1  28
TORSDOF 19
ENDMDL
MODEL 2
REMARK VINA RESULT:     -11.7      5.139      8.186
REMARK SMILES O=C(Cc1c(C(=O)c2cccc(Cl)c2)[nH]c2ccccc12)NCCCCCCNC(=O)c1ccc(-c2c3nc(c(-c4cccc(S(=O)(=O)[O-])c4F)c4ccc([nH]4)c(-c4cccc(S(=O)(=O)[O-])c4F)c4nc(c(-c5cccc(S(=O)(=O)[O-])c5F)c5ccc2[nH]5)C=C4)C=C3)cc1
REMARK SMILES IDX 25 1 24 2 23 3 22 4 1 5 2 6 3 8 4 9 5 10 21 11 15 12 16 13
REMARK SMILES IDX 20 14 17 16 19 17 18 18 6 19 7 20 8 21 9 22 14 23 10 24
REMARK SMILES IDX 12 25 11 26 13 27 26 28 27 29 28 30 29 31 30 32 31 34 32 35
REMARK SMILES IDX 33 36 94 37 34 38 93 39 35 40 36 41 37 42 87 43 38 44 92 45
REMARK SMILES IDX 86 46 88 47 39 48 91 49 85 50 84 51 40 53 72 54 52 55 71 56
REMARK SMILES IDX 53 57 56 58 70 59 89 60 54 61 55 62 69 64 90 65 57 66 41 67
REMARK SMILES IDX 42 68 50 69 43 70 45 71 51 72 44 73 46 74 47 75 48 76 49 77
REMARK SMILES IDX 73 78 74 79 82 80 75 81 77 82 83 83 76 84 78 85 79 86 80 87
REMARK SMILES IDX 81 88 58 89 59 90 67 91 60 92 62 93 68 94 61 95 63 96 64 97
REMARK SMILES IDX 65 98 66 99
REMARK H PARENT 22 7 15 15 29 33 88 52 56 63
REMARK Flexibility Score: inf
ROOT
ATOM      1  C   UNL A   1      33.713  26.845  23.422  1.00  0.00     0.002 C 
ENDROOT
BRANCH   1   2
ATOM      2  C   UNL A   1      32.604  26.783  22.362  1.00  0.00     0.021 C 
BRANCH   2   3
ATOM      3  C   UNL A   1      32.672  25.575  21.433  1.00  0.00     0.116 C 
BRANCH   3   4
ATOM      4  N   UNL A   1      32.085  24.395  22.036  1.00  0.00    -0.356 N 
ATOM      5  O   UNL A   1      34.014  23.147  22.098  1.00  0.00    -0.275 OA
ATOM      6  C   UNL A   1      32.824  23.277  22.367  1.00  0.00     0.224 C 
ATOM      7  H   UNL A   1      31.118  24.391  22.217  1.00  0.00     0.163 HD
BRANCH   6   8
ATOM      8  C   UNL A   1      32.029  22.186  23.059  1.00  0.00     0.138 C 
BRANCH   8   9
ATOM      9  C   UNL A   1      32.836  21.157  23.819  1.00  0.00    -0.002 A 
ATOM     10  C   UNL A   1      33.569  21.435  24.979  1.00  0.00     0.092 A 
ATOM     11  C   UNL A   1      32.982  19.749  23.549  1.00  0.00     0.004 A 
ATOM     12  N   UNL A   1      34.149  20.252  25.373  1.00  0.00    -0.352 N 
ATOM     13  C   UNL A   1      33.852  19.232  24.505  1.00  0.00     0.046 A 
ATOM     14  C   UNL A   1      32.470  18.853  22.583  1.00  0.00     0.010 A 
ATOM     15  H   UNL A   1      34.708  20.148  26.177  1.00  0.00     0.167 HD
ATOM     16  C   UNL A   1      34.274  17.896  24.520  1.00  0.00     0.027 A 
ATOM     17  C   UNL A   1      32.889  17.517  22.571  1.00  0.00     0.001 A 
ATOM     18  C   UNL A   1      33.785  17.049  23.524  1.00  0.00     0.002 A 
BRANCH  10  19
ATOM     19  C   UNL A   1      33.671  22.701  25.697  1.00  0.00     0.209 C 
ATOM     20  O   UNL A   1      34.738  23.223  26.014  1.00  0.00    -0.287 OA
BRANCH  19  21
ATOM     21  C   UNL A   1      32.446  23.463  26.032  1.00  0.00     0.026 A 
ATOM     22  C   UNL A   1      32.360  24.842  25.810  1.00  0.00     0.012 A 
ATOM     23  C   UNL A   1      31.352  22.757  26.545  1.00  0.00     0.032 A 
ATOM     24  C   UNL A   1      31.186  25.523  26.140  1.00  0.00     0.002 A 
ATOM     25  C   UNL A   1      30.186  23.445  26.869  1.00  0.00     0.041 A 
ATOM     26  C   UNL A   1      30.101  24.824  26.675  1.00  0.00     0.020 A 
ATOM     27  Cl  UNL A   1      28.839  22.590  27.514  1.00  0.00    -0.084 Cl
ENDBRANCH  19  21
ENDBRANCH  10  19
ENDBRANCH   8   9
ENDBRANCH   6   8
ENDBRANCH   3   4
ENDBRANCH   2   3
ENDBRANCH   1   2
BRANCH   1  28
ATOM     28  C   UNL A   1      33.958  28.221  24.046  1.00  0.00     0.002 C 
BRANCH  28  29
ATOM     29  C   UNL A   1      33.013  28.603  25.188  1.00  0.00     0.021 C 
BRANCH  29  30
ATOM     30  C   UNL A   1      33.685  28.855  26.534  1.00  0.00     0.116 C 
BRANCH  30  31
ATOM     31  N   UNL A   1      33.707  30.265  26.900  1.00  0.00    -0.352 N 
ATOM     32  C   UNL A   1      34.634  30.946  27.653  1.00  0.00     0.251 C 
ATOM     33  H   UNL A   1      32.955  30.803  26.561  1.00  0.00     0.163 HD
ATOM     34  O   UNL A   1      34.428  32.112  27.980  1.00  0.00    -0.269 OA
BRANCH  32  35
ATOM     35  C   UNL A   1      35.869  30.259  28.091  1.00  0.00     0.039 A 
ATOM     36  C   UNL A   1      36.989  30.274  27.255  1.00  0.00     0.014 A 
ATOM     37  C   UNL A   1      35.928  29.619  29.332  1.00  0.00     0.014 A 
ATOM     38  C   UNL A   1      38.190  29.708  27.693  1.00  0.00     0.010 A 
ATOM     39  C   UNL A   1      37.141  29.113  29.792  1.00  0.00     0.010 A 
ATOM     40  C   UNL A   1      38.286  29.153  28.979  1.00  0.00    -0.014 A 
BRANCH  40  41
ATOM     41  C   UNL A   1      39.568  28.619  29.509  1.00  0.00     0.031 A 
ATOM     42  C   UNL A   1      40.272  29.332  30.634  1.00  0.00     0.074 A 
ATOM     43  C   UNL A   1      40.157  27.567  28.904  1.00  0.00     0.049 A 
ATOM     44  N   UNL A   1      41.449  29.095  31.151  1.00  0.00    -0.248 NA
ATOM     45  C   UNL A   1      39.574  30.481  31.237  1.00  0.00     0.031 C 
ATOM     46  C   UNL A   1      39.613  26.834  27.759  1.00  0.00     0.029 A 
ATOM     47  N   UNL A   1      41.364  26.956  29.143  1.00  0.00    -0.354 N 
ATOM     48  C   UNL A   1      41.657  30.091  32.097  1.00  0.00     0.074 A 
ATOM     49  C   UNL A   1      40.490  30.945  32.076  1.00  0.00     0.031 C 
ATOM     50  C   UNL A   1      40.486  25.882  27.389  1.00  0.00     0.029 A 
ATOM     51  C   UNL A   1      41.664  25.954  28.247  1.00  0.00     0.049 A 
ATOM     52  H   UNL A   1      41.959  27.211  29.884  1.00  0.00     0.167 HD
ATOM     53  C   UNL A   1      42.715  30.267  32.922  1.00  0.00     0.034 A 
ATOM     54  C   UNL A   1      42.770  25.192  28.121  1.00  0.00     0.034 A 
ATOM     55  C   UNL A   1      43.841  29.377  32.992  1.00  0.00     0.049 A 
ATOM     56  C   UNL A   1      43.904  25.380  29.094  1.00  0.00     0.074 A 
ATOM     57  C   UNL A   1      44.903  29.405  33.878  1.00  0.00     0.029 A 
ATOM     58  N   UNL A   1      44.056  28.305  32.142  1.00  0.00    -0.354 N 
ATOM     59  N   UNL A   1      44.000  26.215  30.099  1.00  0.00    -0.248 NA
ATOM     60  C   UNL A   1      45.070  24.495  28.937  1.00  0.00     0.031 C 
ATOM     61  C   UNL A   1      45.773  28.361  33.552  1.00  0.00     0.029 A 
ATOM     62  C   UNL A   1      45.239  27.669  32.477  1.00  0.00     0.049 A 
ATOM     63  H   UNL A   1      43.457  28.034  31.410  1.00  0.00     0.167 HD
ATOM     64  C   UNL A   1      45.209  25.926  30.721  1.00  0.00     0.074 A 
ATOM     65  C   UNL A   1      45.805  24.829  29.990  1.00  0.00     0.031 C 
ATOM     66  C   UNL A   1      45.782  26.527  31.792  1.00  0.00     0.034 A 
BRANCH  53  67
ATOM     67  C   UNL A   1      42.693  31.438  33.869  1.00  0.00     0.023 A 
ATOM     68  C   UNL A   1      43.211  32.680  33.451  1.00  0.00     0.012 A 
ATOM     69  C   UNL A   1      42.066  31.335  35.127  1.00  0.00     0.148 A 
ATOM     70  C   UNL A   1      43.124  33.798  34.278  1.00  0.00     0.002 A 
ATOM     71  C   UNL A   1      41.946  32.464  35.928  1.00  0.00     0.091 A 
ATOM     72  F   UNL A   1      41.597  30.140  35.510  1.00  0.00    -0.205 F 
ATOM     73  C   UNL A   1      42.481  33.694  35.509  1.00  0.00     0.022 A 
BRANCH  71  74
ATOM     74  S   UNL A   1      41.064  32.455  37.494  1.00  0.00     0.127 S 
ATOM     75  O   UNL A   1      41.941  31.624  38.319  1.00  0.00    -0.237 OA
ATOM     76  O   UNL A   1      41.058  33.875  37.849  1.00  0.00    -0.237 OA
ATOM     77  O   UNL A   1      39.752  31.890  37.216  1.00  0.00    -0.744 OA
ENDBRANCH  71  74
ENDBRANCH  53  67
BRANCH  54  78
ATOM     78  C   UNL A   1      42.843  24.135  27.071  1.00  0.00     0.023 A 
ATOM     79  C   UNL A   1      43.545  24.399  25.878  1.00  0.00     0.012 A 
ATOM     80  C   UNL A   1      42.221  22.883  27.237  1.00  0.00     0.148 A 
ATOM     81  C   UNL A   1      43.589  23.454  24.852  1.00  0.00     0.002 A 
ATOM     82  C   UNL A   1      42.317  21.924  26.232  1.00  0.00     0.091 A 
ATOM     83  F   UNL A   1      41.543  22.651  28.369  1.00  0.00    -0.205 F 
ATOM     84  C   UNL A   1      42.982  22.215  25.032  1.00  0.00     0.022 A 
BRANCH  82  85
ATOM     85  S   UNL A   1      41.675  20.259  26.442  1.00  0.00     0.127 S 
ATOM     86  O   UNL A   1      42.320  19.548  25.343  1.00  0.00    -0.237 OA
ATOM     87  O   UNL A   1      42.165  19.906  27.776  1.00  0.00    -0.237 OA
ATOM     88  O   UNL A   1      40.227  20.393  26.359  1.00  0.00    -0.744 OA
ENDBRANCH  82  85
ENDBRANCH  54  78
BRANCH  66  89
ATOM     89  C   UNL A   1      47.094  25.982  32.290  1.00  0.00     0.023 A 
ATOM     90  C   UNL A   1      48.305  26.511  31.801  1.00  0.00     0.012 A 
ATOM     91  C   UNL A   1      47.124  25.016  33.316  1.00  0.00     0.148 A 
ATOM     92  C   UNL A   1      49.526  26.068  32.308  1.00  0.00     0.002 A 
ATOM     93  C   UNL A   1      48.343  24.616  33.850  1.00  0.00     0.091 A 
ATOM     94  F   UNL A   1      45.961  24.514  33.755  1.00  0.00    -0.205 F 
ATOM     95  C   UNL A   1      49.544  25.132  33.340  1.00  0.00     0.022 A 
BRANCH  93  96
ATOM     96  S   UNL A   1      48.457  23.493  35.248  1.00  0.00     0.127 S 
ATOM     97  O   UNL A   1      47.906  24.307  36.330  1.00  0.00    -0.237 OA
ATOM     98  O   UNL A   1      47.603  22.383  34.824  1.00  0.00    -0.237 OA
ATOM     99  O   UNL A   1      49.867  23.153  35.376  1.00  0.00    -0.744 OA
ENDBRANCH  93  96
ENDBRANCH  66  89
ENDBRANCH  40  41
ENDBRANCH  32  35
ENDBRANCH  30  31
ENDBRANCH  29  30
ENDBRANCH  28  29
ENDBRANCH   1  28
TORSDOF 19
ENDMDL
MODEL 3
REMARK VINA RESULT:     -11.6      5.389      8.210
REMARK SMILES O=C(Cc1c(C(=O)c2cccc(Cl)c2)[nH]c2ccccc12)NCCCCCCNC(=O)c1ccc(-c2c3nc(c(-c4cccc(S(=O)(=O)[O-])c4F)c4ccc([nH]4)c(-c4cccc(S(=O)(=O)[O-])c4F)c4nc(c(-c5cccc(S(=O)(=O)[O-])c5F)c5ccc2[nH]5)C=C4)C=C3)cc1
REMARK SMILES IDX 25 1 24 2 23 3 22 4 1 5 2 6 3 8 4 9 5 10 21 11 15 12 16 13
REMARK SMILES IDX 20 14 17 16 19 17 18 18 6 19 7 20 8 21 9 22 14 23 10 24
REMARK SMILES IDX 12 25 11 26 13 27 26 28 27 29 28 30 29 31 30 32 31 34 32 35
REMARK SMILES IDX 33 36 94 37 34 38 93 39 35 40 36 41 37 42 87 43 38 44 92 45
REMARK SMILES IDX 86 46 88 47 39 48 91 49 85 50 84 51 40 53 72 54 52 55 71 56
REMARK SMILES IDX 53 57 56 58 70 59 89 60 54 61 55 62 69 64 90 65 57 66 41 67
REMARK SMILES IDX 42 68 50 69 43 70 45 71 51 72 44 73 46 74 47 75 48 76 49 77
REMARK SMILES IDX 73 78 74 79 82 80 75 81 77 82 83 83 76 84 78 85 79 86 80 87
REMARK SMILES IDX 81 88 58 89 59 90 67 91 60 92 62 93 68 94 61 95 63 96 64 97
REMARK SMILES IDX 65 98 66 99
REMARK H PARENT 22 7 15 15 29 33 88 52 56 63
REMARK Flexibility Score: inf
ROOT
ATOM      1  C   UNL A   1      33.646  27.138  22.971  1.00  0.00     0.002 C 
ENDROOT
BRANCH   1   2
ATOM      2  C   UNL A   1      32.438  26.638  22.168  1.00  0.00     0.021 C 
BRANCH   2   3
ATOM      3  C   UNL A   1      32.688  25.374  21.350  1.00  0.00     0.116 C 
BRANCH   3   4
ATOM      4  N   UNL A   1      32.159  24.194  22.003  1.00  0.00    -0.356 N 
ATOM      5  O   UNL A   1      34.181  23.156  22.345  1.00  0.00    -0.275 OA
ATOM      6  C   UNL A   1      32.963  23.187  22.496  1.00  0.00     0.224 C 
ATOM      7  H   UNL A   1      31.183  24.107  22.098  1.00  0.00     0.163 HD
BRANCH   6   8
ATOM      8  C   UNL A   1      32.211  22.080  23.210  1.00  0.00     0.138 C 
BRANCH   8   9
ATOM      9  C   UNL A   1      33.061  21.036  23.898  1.00  0.00    -0.002 A 
ATOM     10  C   UNL A   1      33.899  21.299  24.988  1.00  0.00     0.092 A 
ATOM     11  C   UNL A   1      33.154  19.625  23.621  1.00  0.00     0.004 A 
ATOM     12  N   UNL A   1      34.489  20.105  25.332  1.00  0.00    -0.352 N 
ATOM     13  C   UNL A   1      34.095  19.091  24.497  1.00  0.00     0.046 A 
ATOM     14  C   UNL A   1      32.540  18.739  22.706  1.00  0.00     0.010 A 
ATOM     15  H   UNL A   1      35.115  19.991  26.083  1.00  0.00     0.167 HD
ATOM     16  C   UNL A   1      34.489  17.746  24.478  1.00  0.00     0.027 A 
ATOM     17  C   UNL A   1      32.929  17.394  22.661  1.00  0.00     0.001 A 
ATOM     18  C   UNL A   1      33.897  16.909  23.531  1.00  0.00     0.002 A 
BRANCH  10  19
ATOM     19  C   UNL A   1      34.091  22.563  25.691  1.00  0.00     0.209 C 
ATOM     20  O   UNL A   1      35.191  23.005  26.018  1.00  0.00    -0.287 OA
BRANCH  19  21
ATOM     21  C   UNL A   1      32.925  23.424  25.997  1.00  0.00     0.026 A 
ATOM     22  C   UNL A   1      32.958  24.806  25.776  1.00  0.00     0.012 A 
ATOM     23  C   UNL A   1      31.763  22.812  26.480  1.00  0.00     0.032 A 
ATOM     24  C   UNL A   1      31.837  25.582  26.077  1.00  0.00     0.002 A 
ATOM     25  C   UNL A   1      30.651  23.593  26.776  1.00  0.00     0.041 A 
ATOM     26  C   UNL A   1      30.685  24.975  26.583  1.00  0.00     0.020 A 
ATOM     27  Cl  UNL A   1      29.221  22.853  27.385  1.00  0.00    -0.084 Cl
ENDBRANCH  19  21
ENDBRANCH  10  19
ENDBRANCH   8   9
ENDBRANCH   6   8
ENDBRANCH   3   4
ENDBRANCH   2   3
ENDBRANCH   1   2
BRANCH   1  28
ATOM     28  C   UNL A   1      33.648  28.631  23.307  1.00  0.00     0.002 C 
BRANCH  28  29
ATOM     29  C   UNL A   1      32.526  29.098  24.237  1.00  0.00     0.021 C 
BRANCH  29  30
ATOM     30  C   UNL A   1      32.934  29.319  25.691  1.00  0.00     0.116 C 
BRANCH  30  31
ATOM     31  N   UNL A   1      32.626  30.660  26.167  1.00  0.00    -0.352 N 
ATOM     32  C   UNL A   1      33.292  31.417  27.102  1.00  0.00     0.251 C 
ATOM     33  H   UNL A   1      31.833  31.082  25.764  1.00  0.00     0.163 HD
ATOM     34  O   UNL A   1      32.817  32.482  27.486  1.00  0.00    -0.269 OA
BRANCH  32  35
ATOM     35  C   UNL A   1      34.571  30.929  27.664  1.00  0.00     0.039 A 
ATOM     36  C   UNL A   1      35.603  31.842  27.900  1.00  0.00     0.014 A 
ATOM     37  C   UNL A   1      34.745  29.578  27.974  1.00  0.00     0.014 A 
ATOM     38  C   UNL A   1      36.783  31.412  28.513  1.00  0.00     0.010 A 
ATOM     39  C   UNL A   1      35.894  29.165  28.643  1.00  0.00     0.010 A 
ATOM     40  C   UNL A   1      36.925  30.077  28.921  1.00  0.00    -0.014 A 
BRANCH  40  41
ATOM     41  C   UNL A   1      38.131  29.603  29.651  1.00  0.00     0.031 A 
ATOM     42  C   UNL A   1      38.457  30.167  31.009  1.00  0.00     0.074 A 
ATOM     43  C   UNL A   1      38.993  28.760  29.046  1.00  0.00     0.049 A 
ATOM     44  N   UNL A   1      39.518  29.975  31.749  1.00  0.00    -0.248 NA
ATOM     45  C   UNL A   1      37.476  31.093  31.602  1.00  0.00     0.031 C 
ATOM     46  C   UNL A   1      38.828  28.199  27.703  1.00  0.00     0.029 A 
ATOM     47  N   UNL A   1      40.201  28.259  29.467  1.00  0.00    -0.354 N 
ATOM     48  C   UNL A   1      39.360  30.791  32.862  1.00  0.00     0.074 A 
ATOM     49  C   UNL A   1      38.106  31.493  32.698  1.00  0.00     0.031 C 
ATOM     50  C   UNL A   1      39.898  27.442  27.408  1.00  0.00     0.029 A 
ATOM     51  C   UNL A   1      40.839  27.486  28.522  1.00  0.00     0.049 A 
ATOM     52  H   UNL A   1      40.575  28.436  30.360  1.00  0.00     0.167 HD
ATOM     53  C   UNL A   1      40.175  30.929  33.933  1.00  0.00     0.034 A 
ATOM     54  C   UNL A   1      42.050  26.894  28.546  1.00  0.00     0.034 A 
ATOM     55  C   UNL A   1      41.385  30.178  34.128  1.00  0.00     0.049 A 
ATOM     56  C   UNL A   1      42.906  27.025  29.778  1.00  0.00     0.074 A 
ATOM     57  C   UNL A   1      42.215  30.161  35.236  1.00  0.00     0.029 A 
ATOM     58  N   UNL A   1      41.942  29.318  33.197  1.00  0.00    -0.354 N 
ATOM     59  N   UNL A   1      42.652  27.660  30.896  1.00  0.00    -0.248 NA
ATOM     60  C   UNL A   1      44.201  26.327  29.767  1.00  0.00     0.031 C 
ATOM     61  C   UNL A   1      43.286  29.305  34.966  1.00  0.00     0.029 A 
ATOM     62  C   UNL A   1      43.110  28.771  33.700  1.00  0.00     0.049 A 
ATOM     63  H   UNL A   1      41.564  29.123  32.309  1.00  0.00     0.167 HD
ATOM     64  C   UNL A   1      43.730  27.400  31.735  1.00  0.00     0.074 A 
ATOM     65  C   UNL A   1      44.633  26.538  31.004  1.00  0.00     0.031 C 
ATOM     66  C   UNL A   1      43.959  27.850  32.993  1.00  0.00     0.034 A 
BRANCH  53  67
ATOM     67  C   UNL A   1      39.769  31.889  35.019  1.00  0.00     0.023 A 
ATOM     68  C   UNL A   1      40.059  33.261  34.879  1.00  0.00     0.012 A 
ATOM     69  C   UNL A   1      39.009  31.448  36.122  1.00  0.00     0.148 A 
ATOM     70  C   UNL A   1      39.617  34.179  35.831  1.00  0.00     0.002 A 
ATOM     71  C   UNL A   1      38.536  32.375  37.043  1.00  0.00     0.091 A 
ATOM     72  F   UNL A   1      38.761  30.137  36.243  1.00  0.00    -0.205 F 
ATOM     73  C   UNL A   1      38.846  33.738  36.904  1.00  0.00     0.022 A 
BRANCH  71  74
ATOM     74  S   UNL A   1      37.468  31.923  38.415  1.00  0.00     0.127 S 
ATOM     75  O   UNL A   1      38.378  32.056  39.552  1.00  0.00    -0.237 OA
ATOM     76  O   UNL A   1      36.427  32.949  38.344  1.00  0.00    -0.237 OA
ATOM     77  O   UNL A   1      37.009  30.569  38.141  1.00  0.00    -0.744 OA
ENDBRANCH  71  74
ENDBRANCH  53  67
BRANCH  54  78
ATOM     78  C   UNL A   1      42.512  26.071  27.390  1.00  0.00     0.023 A 
ATOM     79  C   UNL A   1      43.271  26.680  26.372  1.00  0.00     0.012 A 
ATOM     80  C   UNL A   1      42.199  24.702  27.286  1.00  0.00     0.148 A 
ATOM     81  C   UNL A   1      43.675  25.953  25.251  1.00  0.00     0.002 A 
ATOM     82  C   UNL A   1      42.652  23.970  26.192  1.00  0.00     0.091 A 
ATOM     83  F   UNL A   1      41.461  24.140  28.253  1.00  0.00    -0.205 F 
ATOM     84  C   UNL A   1      43.371  24.598  25.165  1.00  0.00     0.022 A 
BRANCH  82  85
ATOM     85  S   UNL A   1      42.415  22.194  26.073  1.00  0.00     0.127 S 
ATOM     86  O   UNL A   1      43.227  21.860  24.907  1.00  0.00    -0.237 OA
ATOM     87  O   UNL A   1      42.953  21.725  27.352  1.00  0.00    -0.237 OA
ATOM     88  O   UNL A   1      40.978  22.007  25.930  1.00  0.00    -0.744 OA
ENDBRANCH  82  85
ENDBRANCH  54  78
BRANCH  66  89
ATOM     89  C   UNL A   1      45.202  27.376  33.698  1.00  0.00     0.023 A 
ATOM     90  C   UNL A   1      46.385  28.137  33.621  1.00  0.00     0.012 A 
ATOM     91  C   UNL A   1      45.166  26.230  34.517  1.00  0.00     0.148 A 
ATOM     92  C   UNL A   1      47.521  27.749  34.329  1.00  0.00     0.002 A 
ATOM     93  C   UNL A   1      46.287  25.878  35.259  1.00  0.00     0.091 A 
ATOM     94  F   UNL A   1      44.035  25.511  34.562  1.00  0.00    -0.205 F 
ATOM     95  C   UNL A   1      47.469  26.630  35.157  1.00  0.00     0.022 A 
BRANCH  93  96
ATOM     96  S   UNL A   1      46.278  24.513  36.426  1.00  0.00     0.127 S 
ATOM     97  O   UNL A   1      45.259  24.944  37.381  1.00  0.00    -0.237 OA
ATOM     98  O   UNL A   1      45.883  23.385  35.581  1.00  0.00    -0.237 OA
ATOM     99  O   UNL A   1      47.632  24.425  36.953  1.00  0.00    -0.744 OA
ENDBRANCH  93  96
ENDBRANCH  66  89
ENDBRANCH  40  41
ENDBRANCH  32  35
ENDBRANCH  30  31
ENDBRANCH  29  30
ENDBRANCH  28  29
ENDBRANCH   1  28
TORSDOF 19
ENDMDL
