MODEL 1
REMARK VINA RESULT:     -11.4      0.000      0.000
REMARK SMILES C[C@@H](Sc1nc2ccccc2c(=O)n1N)C(=O)NCCCCCCNC(=O)c1ccc(-c2c3nc(c(-c4cccc(S(=O)(=O)[O-])c4F)c4ccc([nH]4)c(-c4cccc(S(=O)(=O)[O-])c4F)c4nc(c(-c5cccc(S(=O)(=O)[O-])c5F)c5ccc2[nH]5)C=C4)C=C3)cc1
REMARK SMILES IDX 21 1 20 2 19 3 18 4 16 5 17 6 2 8 1 9 3 10 4 11 5 12 14 13
REMARK SMILES IDX 6 14 12 15 7 16 11 17 13 18 8 19 10 20 9 21 15 22 22 25
REMARK SMILES IDX 23 26 24 27 25 28 26 29 27 31 28 32 29 33 90 34 30 35 89 36
REMARK SMILES IDX 31 37 32 38 33 39 83 40 34 41 88 42 82 43 84 44 35 45 87 46
REMARK SMILES IDX 81 47 80 48 36 50 68 51 48 52 67 53 49 54 52 55 66 56 85 57
REMARK SMILES IDX 50 58 51 59 65 61 86 62 53 63 37 64 38 65 46 66 39 67 41 68
REMARK SMILES IDX 47 69 40 70 42 71 43 72 44 73 45 74 69 75 70 76 78 77 71 78
REMARK SMILES IDX 73 79 79 80 72 81 74 82 75 83 76 84 77 85 54 86 55 87 63 88
REMARK SMILES IDX 56 89 58 90 64 91 57 92 59 93 60 94 61 95 62 96
REMARK H PARENT 18 7 15 23 15 24 25 30 84 49 52 60
REMARK Flexibility Score: inf
ROOT
ATOM      1  C   UNL A   1      33.289  30.144  26.840  1.00  0.00     0.002 C 
ENDROOT
BRANCH   1   2
ATOM      2  C   UNL A   1      33.547  28.682  27.221  1.00  0.00     0.021 C 
BRANCH   2   3
ATOM      3  C   UNL A   1      33.205  27.696  26.106  1.00  0.00     0.116 C 
BRANCH   3   4
ATOM      4  N   UNL A   1      33.678  28.195  24.827  1.00  0.00    -0.355 N 
ATOM      5  C   UNL A   1      33.278  27.900  23.559  1.00  0.00     0.233 C 
ATOM      6  O   UNL A   1      33.878  28.454  22.631  1.00  0.00    -0.274 OA
ATOM      7  H   UNL A   1      34.407  28.855  24.886  1.00  0.00     0.163 HD
BRANCH   5   8
ATOM      8  C   UNL A   1      32.124  26.934  23.277  1.00  0.00     0.141 C 
ATOM      9  C   UNL A   1      30.766  27.626  23.238  1.00  0.00     0.030 C 
BRANCH   8  10
ATOM     10  S   UNL A   1      32.587  25.924  21.823  1.00  0.00    -0.073 SA
BRANCH  10  11
ATOM     11  C   UNL A   1      33.175  24.461  22.565  1.00  0.00     0.191 A 
ATOM     12  N   UNL A   1      34.456  24.311  22.633  1.00  0.00    -0.222 NA
ATOM     13  N   UNL A   1      32.256  23.579  23.121  1.00  0.00    -0.202 N 
ATOM     14  C   UNL A   1      34.957  23.209  23.339  1.00  0.00     0.079 A 
ATOM     15  C   UNL A   1      32.669  22.463  23.849  1.00  0.00     0.280 A 
ATOM     16  C   UNL A   1      36.340  23.065  23.467  1.00  0.00     0.029 A 
ATOM     17  C   UNL A   1      34.126  22.275  23.962  1.00  0.00     0.068 A 
ATOM     18  O   UNL A   1      31.887  21.689  24.403  1.00  0.00    -0.267 OA
ATOM     19  C   UNL A   1      36.880  22.007  24.204  1.00  0.00     0.002 A 
ATOM     20  C   UNL A   1      34.657  21.210  24.699  1.00  0.00     0.016 A 
ATOM     21  C   UNL A   1      36.040  21.080  24.820  1.00  0.00     0.001 A 
BRANCH  13  22
ATOM     22  N   UNL A   1      30.841  23.785  23.004  1.00  0.00    -0.334 N 
ATOM     23  H   UNL A   1      30.332  23.315  22.305  1.00  0.00     0.178 HD
ATOM     24  H   UNL A   1      30.380  24.396  23.623  1.00  0.00     0.178 HD
ENDBRANCH  13  22
ENDBRANCH  10  11
ENDBRANCH   8  10
ENDBRANCH   5   8
ENDBRANCH   3   4
ENDBRANCH   2   3
ENDBRANCH   1   2
BRANCH   1  25
ATOM     25  C   UNL A   1      31.819  30.573  26.899  1.00  0.00     0.002 C 
BRANCH  25  26
ATOM     26  C   UNL A   1      31.585  32.082  26.791  1.00  0.00     0.021 C 
BRANCH  26  27
ATOM     27  C   UNL A   1      32.844  32.926  26.953  1.00  0.00     0.116 C 
BRANCH  27  28
ATOM     28  N   UNL A   1      32.569  34.186  27.627  1.00  0.00    -0.352 N 
ATOM     29  C   UNL A   1      33.104  34.677  28.789  1.00  0.00     0.251 C 
ATOM     30  H   UNL A   1      31.906  34.766  27.188  1.00  0.00     0.163 HD
ATOM     31  O   UNL A   1      32.605  35.664  29.330  1.00  0.00    -0.269 OA
BRANCH  29  32
ATOM     32  C   UNL A   1      34.273  34.008  29.396  1.00  0.00     0.039 A 
ATOM     33  C   UNL A   1      35.554  34.476  29.098  1.00  0.00     0.014 A 
ATOM     34  C   UNL A   1      34.102  32.922  30.260  1.00  0.00     0.014 A 
ATOM     35  C   UNL A   1      36.663  33.889  29.710  1.00  0.00     0.010 A 
ATOM     36  C   UNL A   1      35.201  32.392  30.929  1.00  0.00     0.010 A 
ATOM     37  C   UNL A   1      36.494  32.862  30.654  1.00  0.00    -0.014 A 
BRANCH  37  38
ATOM     38  C   UNL A   1      37.655  32.274  31.368  1.00  0.00     0.031 A 
ATOM     39  C   UNL A   1      38.434  31.144  30.749  1.00  0.00     0.074 A 
ATOM     40  C   UNL A   1      37.960  32.704  32.609  1.00  0.00     0.049 A 
ATOM     41  N   UNL A   1      39.446  30.475  31.239  1.00  0.00    -0.248 NA
ATOM     42  C   UNL A   1      38.004  30.686  29.417  1.00  0.00     0.031 C 
ATOM     43  C   UNL A   1      37.236  33.740  33.345  1.00  0.00     0.029 A 
ATOM     44  N   UNL A   1      38.944  32.305  33.479  1.00  0.00    -0.354 N 
ATOM     45  C   UNL A   1      39.751  29.501  30.296  1.00  0.00     0.074 A 
ATOM     46  C   UNL A   1      38.792  29.639  29.222  1.00  0.00     0.031 C 
ATOM     47  C   UNL A   1      37.805  33.904  34.551  1.00  0.00     0.029 A 
ATOM     48  C   UNL A   1      38.910  32.961  34.687  1.00  0.00     0.049 A 
ATOM     49  H   UNL A   1      39.611  31.615  33.258  1.00  0.00     0.167 HD
ATOM     50  C   UNL A   1      40.752  28.589  30.310  1.00  0.00     0.034 A 
ATOM     51  C   UNL A   1      39.676  32.812  35.785  1.00  0.00     0.034 A 
ATOM     52  C   UNL A   1      41.723  28.477  31.364  1.00  0.00     0.049 A 
ATOM     53  C   UNL A   1      40.796  31.807  35.765  1.00  0.00     0.074 A 
ATOM     54  C   UNL A   1      42.827  27.646  31.432  1.00  0.00     0.029 A 
ATOM     55  N   UNL A   1      41.698  29.206  32.544  1.00  0.00    -0.354 N 
ATOM     56  N   UNL A   1      41.166  31.002  34.799  1.00  0.00    -0.248 NA
ATOM     57  C   UNL A   1      41.627  31.715  36.974  1.00  0.00     0.031 C 
ATOM     58  C   UNL A   1      43.449  27.846  32.669  1.00  0.00     0.029 A 
ATOM     59  C   UNL A   1      42.757  28.832  33.354  1.00  0.00     0.049 A 
ATOM     60  H   UNL A   1      41.026  29.888  32.772  1.00  0.00     0.167 HD
ATOM     61  C   UNL A   1      42.293  30.338  35.267  1.00  0.00     0.074 A 
ATOM     62  C   UNL A   1      42.557  30.849  36.596  1.00  0.00     0.031 C 
ATOM     63  C   UNL A   1      43.037  29.382  34.656  1.00  0.00     0.034 A 
BRANCH  50  64
ATOM     64  C   UNL A   1      40.873  27.665  29.124  1.00  0.00     0.023 A 
ATOM     65  C   UNL A   1      40.088  26.495  29.064  1.00  0.00     0.012 A 
ATOM     66  C   UNL A   1      41.726  27.978  28.047  1.00  0.00     0.148 A 
ATOM     67  C   UNL A   1      40.179  25.632  27.974  1.00  0.00     0.002 A 
ATOM     68  C   UNL A   1      41.774  27.139  26.941  1.00  0.00     0.091 A 
ATOM     69  F   UNL A   1      42.480  29.084  28.128  1.00  0.00    -0.205 F 
ATOM     70  C   UNL A   1      41.013  25.958  26.909  1.00  0.00     0.022 A 
BRANCH  68  71
ATOM     71  S   UNL A   1      42.752  27.512  25.481  1.00  0.00     0.127 S 
ATOM     72  O   UNL A   1      42.518  26.326  24.659  1.00  0.00    -0.237 OA
ATOM     73  O   UNL A   1      42.114  28.732  24.987  1.00  0.00    -0.237 OA
ATOM     74  O   UNL A   1      44.120  27.688  25.949  1.00  0.00    -0.744 OA
ENDBRANCH  68  71
ENDBRANCH  50  64
BRANCH  51  75
ATOM     75  C   UNL A   1      39.449  33.679  36.977  1.00  0.00     0.023 A 
ATOM     76  C   UNL A   1      39.889  35.016  36.955  1.00  0.00     0.012 A 
ATOM     77  C   UNL A   1      38.788  33.192  38.121  1.00  0.00     0.148 A 
ATOM     78  C   UNL A   1      39.708  35.844  38.063  1.00  0.00     0.002 A 
ATOM     79  C   UNL A   1      38.562  34.038  39.201  1.00  0.00     0.091 A 
ATOM     80  F   UNL A   1      38.385  31.914  38.126  1.00  0.00    -0.205 F 
ATOM     81  C   UNL A   1      39.037  35.358  39.182  1.00  0.00     0.022 A 
BRANCH  79  82
ATOM     82  S   UNL A   1      37.596  33.539  40.631  1.00  0.00     0.127 S 
ATOM     83  O   UNL A   1      36.436  32.912  40.004  1.00  0.00    -0.237 OA
ATOM     84  O   UNL A   1      38.511  32.614  41.302  1.00  0.00    -0.237 OA
ATOM     85  O   UNL A   1      37.329  34.763  41.374  1.00  0.00    -0.744 OA
ENDBRANCH  79  82
ENDBRANCH  51  75
BRANCH  63  86
ATOM     86  C   UNL A   1      44.240  28.854  35.393  1.00  0.00     0.023 A 
ATOM     87  C   UNL A   1      45.505  29.445  35.198  1.00  0.00     0.012 A 
ATOM     88  C   UNL A   1      44.101  27.815  36.336  1.00  0.00     0.148 A 
ATOM     89  C   UNL A   1      46.618  28.985  35.901  1.00  0.00     0.002 A 
ATOM     90  C   UNL A   1      45.204  27.399  37.072  1.00  0.00     0.091 A 
ATOM     91  F   UNL A   1      42.893  27.254  36.495  1.00  0.00    -0.205 F 
ATOM     92  C   UNL A   1      46.465  27.973  36.846  1.00  0.00     0.022 A 
BRANCH  90  93
ATOM     93  S   UNL A   1      45.083  26.173  38.380  1.00  0.00     0.127 S 
ATOM     94  O   UNL A   1      43.960  26.684  39.163  1.00  0.00    -0.237 OA
ATOM     95  O   UNL A   1      44.797  24.950  37.630  1.00  0.00    -0.237 OA
ATOM     96  O   UNL A   1      46.372  26.180  39.058  1.00  0.00    -0.744 OA
ENDBRANCH  90  93
ENDBRANCH  63  86
ENDBRANCH  37  38
ENDBRANCH  29  32
ENDBRANCH  27  28
ENDBRANCH  26  27
ENDBRANCH  25  26
ENDBRANCH   1  25
TORSDOF 19
ENDMDL
MODEL 2
REMARK VINA RESULT:     -11.2      6.328     11.273
REMARK SMILES C[C@@H](Sc1nc2ccccc2c(=O)n1N)C(=O)NCCCCCCNC(=O)c1ccc(-c2c3nc(c(-c4cccc(S(=O)(=O)[O-])c4F)c4ccc([nH]4)c(-c4cccc(S(=O)(=O)[O-])c4F)c4nc(c(-c5cccc(S(=O)(=O)[O-])c5F)c5ccc2[nH]5)C=C4)C=C3)cc1
REMARK SMILES IDX 21 1 20 2 19 3 18 4 16 5 17 6 2 8 1 9 3 10 4 11 5 12 14 13
REMARK SMILES IDX 6 14 12 15 7 16 11 17 13 18 8 19 10 20 9 21 15 22 22 25
REMARK SMILES IDX 23 26 24 27 25 28 26 29 27 31 28 32 29 33 90 34 30 35 89 36
REMARK SMILES IDX 31 37 32 38 33 39 83 40 34 41 88 42 82 43 84 44 35 45 87 46
REMARK SMILES IDX 81 47 80 48 36 50 68 51 48 52 67 53 49 54 52 55 66 56 85 57
REMARK SMILES IDX 50 58 51 59 65 61 86 62 53 63 37 64 38 65 46 66 39 67 41 68
REMARK SMILES IDX 47 69 40 70 42 71 43 72 44 73 45 74 69 75 70 76 78 77 71 78
REMARK SMILES IDX 73 79 79 80 72 81 74 82 75 83 76 84 77 85 54 86 55 87 63 88
REMARK SMILES IDX 56 89 58 90 64 91 57 92 59 93 60 94 61 95 62 96
REMARK H PARENT 18 7 15 23 15 24 25 30 84 49 52 60
REMARK Flexibility Score: inf
ROOT
ATOM      1  C   UNL A   1      36.468  22.356  24.995  1.00  0.00     0.002 C 
ENDROOT
BRANCH   1   2
ATOM      2  C   UNL A   1      35.523  23.154  25.900  1.00  0.00     0.021 C 
BRANCH   2   3
ATOM      3  C   UNL A   1      35.171  24.532  25.344  1.00  0.00     0.116 C 
BRANCH   3   4
ATOM      4  N   UNL A   1      34.857  24.442  23.930  1.00  0.00    -0.355 N 
ATOM      5  C   UNL A   1      33.955  25.132  23.177  1.00  0.00     0.233 C 
ATOM      6  O   UNL A   1      33.867  24.833  21.981  1.00  0.00    -0.274 OA
ATOM      7  H   UNL A   1      35.381  23.772  23.432  1.00  0.00     0.163 HD
BRANCH   5   8
ATOM      8  C   UNL A   1      33.089  26.247  23.770  1.00  0.00     0.141 C 
ATOM      9  C   UNL A   1      33.276  27.585  23.063  1.00  0.00     0.030 C 
BRANCH   8  10
ATOM     10  S   UNL A   1      31.379  25.608  23.908  1.00  0.00    -0.073 SA
BRANCH  10  11
ATOM     11  C   UNL A   1      31.631  24.035  24.615  1.00  0.00     0.191 A 
ATOM     12  N   UNL A   1      31.823  23.051  23.802  1.00  0.00    -0.222 NA
ATOM     13  N   UNL A   1      31.704  23.929  25.999  1.00  0.00    -0.202 N 
ATOM     14  C   UNL A   1      32.157  21.801  24.342  1.00  0.00     0.079 A 
ATOM     15  C   UNL A   1      32.041  22.726  26.619  1.00  0.00     0.280 A 
ATOM     16  C   UNL A   1      32.420  20.741  23.471  1.00  0.00     0.029 A 
ATOM     17  C   UNL A   1      32.285  21.587  25.716  1.00  0.00     0.068 A 
ATOM     18  O   UNL A   1      32.169  22.605  27.838  1.00  0.00    -0.267 OA
ATOM     19  C   UNL A   1      32.804  19.492  23.967  1.00  0.00     0.002 A 
ATOM     20  C   UNL A   1      32.665  20.339  26.223  1.00  0.00     0.016 A 
ATOM     21  C   UNL A   1      32.927  19.290  25.342  1.00  0.00     0.001 A 
BRANCH  13  22
ATOM     22  N   UNL A   1      31.469  25.053  26.859  1.00  0.00    -0.334 N 
ATOM     23  H   UNL A   1      30.766  25.706  26.634  1.00  0.00     0.178 HD
ATOM     24  H   UNL A   1      32.009  25.173  27.672  1.00  0.00     0.178 HD
ENDBRANCH  13  22
ENDBRANCH  10  11
ENDBRANCH   8  10
ENDBRANCH   5   8
ENDBRANCH   3   4
ENDBRANCH   2   3
ENDBRANCH   1   2
BRANCH   1  25
ATOM     25  C   UNL A   1      36.235  20.841  25.002  1.00  0.00     0.002 C 
BRANCH  25  26
ATOM     26  C   UNL A   1      37.503  19.995  24.864  1.00  0.00     0.021 C 
BRANCH  26  27
ATOM     27  C   UNL A   1      38.692  20.511  25.665  1.00  0.00     0.116 C 
BRANCH  27  28
ATOM     28  N   UNL A   1      39.679  19.468  25.904  1.00  0.00    -0.352 N 
ATOM     29  C   UNL A   1      41.020  19.591  26.158  1.00  0.00     0.251 C 
ATOM     30  H   UNL A   1      39.335  18.546  25.879  1.00  0.00     0.163 HD
ATOM     31  O   UNL A   1      41.747  18.599  26.126  1.00  0.00    -0.269 OA
BRANCH  29  32
ATOM     32  C   UNL A   1      41.589  20.922  26.456  1.00  0.00     0.039 A 
ATOM     33  C   UNL A   1      42.021  21.727  25.400  1.00  0.00     0.014 A 
ATOM     34  C   UNL A   1      41.691  21.372  27.776  1.00  0.00     0.014 A 
ATOM     35  C   UNL A   1      42.507  23.009  25.666  1.00  0.00     0.010 A 
ATOM     36  C   UNL A   1      42.100  22.678  28.030  1.00  0.00     0.010 A 
ATOM     37  C   UNL A   1      42.522  23.506  26.979  1.00  0.00    -0.014 A 
BRANCH  37  38
ATOM     38  C   UNL A   1      42.968  24.892  27.273  1.00  0.00     0.031 A 
ATOM     39  C   UNL A   1      42.027  25.871  27.922  1.00  0.00     0.074 A 
ATOM     40  C   UNL A   1      44.195  25.292  26.882  1.00  0.00     0.049 A 
ATOM     41  N   UNL A   1      42.221  27.131  28.214  1.00  0.00    -0.248 NA
ATOM     42  C   UNL A   1      40.682  25.379  28.265  1.00  0.00     0.031 C 
ATOM     43  C   UNL A   1      45.171  24.460  26.178  1.00  0.00     0.029 A 
ATOM     44  N   UNL A   1      44.820  26.508  27.000  1.00  0.00    -0.354 N 
ATOM     45  C   UNL A   1      41.019  27.590  28.740  1.00  0.00     0.074 A 
ATOM     46  C   UNL A   1      40.089  26.484  28.692  1.00  0.00     0.031 C 
ATOM     47  C   UNL A   1      46.275  25.184  25.936  1.00  0.00     0.029 A 
ATOM     48  C   UNL A   1      46.073  26.540  26.434  1.00  0.00     0.049 A 
ATOM     49  H   UNL A   1      44.411  27.283  27.448  1.00  0.00     0.167 HD
ATOM     50  C   UNL A   1      40.724  28.813  29.242  1.00  0.00     0.034 A 
ATOM     51  C   UNL A   1      46.956  27.552  26.320  1.00  0.00     0.034 A 
ATOM     52  C   UNL A   1      41.662  29.900  29.318  1.00  0.00     0.049 A 
ATOM     53  C   UNL A   1      46.610  28.894  26.905  1.00  0.00     0.074 A 
ATOM     54  C   UNL A   1      41.486  31.149  29.886  1.00  0.00     0.029 A 
ATOM     55  N   UNL A   1      42.946  29.874  28.796  1.00  0.00    -0.354 N 
ATOM     56  N   UNL A   1      45.524  29.264  27.540  1.00  0.00    -0.248 NA
ATOM     57  C   UNL A   1      47.626  29.951  26.789  1.00  0.00     0.031 C 
ATOM     58  C   UNL A   1      42.653  31.892  29.675  1.00  0.00     0.029 A 
ATOM     59  C   UNL A   1      43.570  31.092  29.013  1.00  0.00     0.049 A 
ATOM     60  H   UNL A   1      43.354  29.105  28.338  1.00  0.00     0.167 HD
ATOM     61  C   UNL A   1      45.741  30.578  27.934  1.00  0.00     0.074 A 
ATOM     62  C   UNL A   1      47.070  30.935  27.482  1.00  0.00     0.031 C 
ATOM     63  C   UNL A   1      44.910  31.419  28.600  1.00  0.00     0.034 A 
BRANCH  50  64
ATOM     64  C   UNL A   1      39.334  29.028  29.787  1.00  0.00     0.023 A 
ATOM     65  C   UNL A   1      39.012  28.575  31.083  1.00  0.00     0.012 A 
ATOM     66  C   UNL A   1      38.363  29.721  29.039  1.00  0.00     0.148 A 
ATOM     67  C   UNL A   1      37.736  28.770  31.609  1.00  0.00     0.002 A 
ATOM     68  C   UNL A   1      37.108  29.956  29.588  1.00  0.00     0.091 A 
ATOM     69  F   UNL A   1      38.679  30.128  27.800  1.00  0.00    -0.205 F 
ATOM     70  C   UNL A   1      36.788  29.469  30.867  1.00  0.00     0.022 A 
BRANCH  68  71
ATOM     71  S   UNL A   1      35.845  30.919  28.748  1.00  0.00     0.127 S 
ATOM     72  O   UNL A   1      35.010  31.348  29.868  1.00  0.00    -0.237 OA
ATOM     73  O   UNL A   1      36.633  31.985  28.130  1.00  0.00    -0.237 OA
ATOM     74  O   UNL A   1      35.208  30.010  27.806  1.00  0.00    -0.744 OA
ENDBRANCH  68  71
ENDBRANCH  50  64
BRANCH  51  75
ATOM     75  C   UNL A   1      48.280  27.319  25.675  1.00  0.00     0.023 A 
ATOM     76  C   UNL A   1      49.371  26.906  26.463  1.00  0.00     0.012 A 
ATOM     77  C   UNL A   1      48.459  27.486  24.288  1.00  0.00     0.148 A 
ATOM     78  C   UNL A   1      50.626  26.700  25.890  1.00  0.00     0.002 A 
ATOM     79  C   UNL A   1      49.697  27.225  23.715  1.00  0.00     0.091 A 
ATOM     80  F   UNL A   1      47.410  27.887  23.556  1.00  0.00    -0.205 F 
ATOM     81  C   UNL A   1      50.787  26.850  24.515  1.00  0.00     0.022 A 
BRANCH  79  82
ATOM     82  S   UNL A   1      49.967  27.269  21.939  1.00  0.00     0.127 S 
ATOM     83  O   UNL A   1      48.945  26.342  21.459  1.00  0.00    -0.237 OA
ATOM     84  O   UNL A   1      49.717  28.678  21.632  1.00  0.00    -0.237 OA
ATOM     85  O   UNL A   1      51.346  26.846  21.738  1.00  0.00    -0.744 OA
ENDBRANCH  79  82
ENDBRANCH  51  75
BRANCH  63  86
ATOM     86  C   UNL A   1      45.425  32.797  28.927  1.00  0.00     0.023 A 
ATOM     87  C   UNL A   1      46.245  32.996  30.056  1.00  0.00     0.012 A 
ATOM     88  C   UNL A   1      45.151  33.884  28.072  1.00  0.00     0.148 A 
ATOM     89  C   UNL A   1      46.754  34.261  30.348  1.00  0.00     0.002 A 
ATOM     90  C   UNL A   1      45.706  35.129  28.340  1.00  0.00     0.091 A 
ATOM     91  F   UNL A   1      44.354  33.679  27.013  1.00  0.00    -0.205 F 
ATOM     92  C   UNL A   1      46.495  35.323  29.484  1.00  0.00     0.022 A 
BRANCH  90  93
ATOM     93  S   UNL A   1      45.510  36.530  27.232  1.00  0.00     0.127 S 
ATOM     94  O   UNL A   1      45.989  37.634  28.061  1.00  0.00    -0.237 OA
ATOM     95  O   UNL A   1      46.395  36.171  26.123  1.00  0.00    -0.237 OA
ATOM     96  O   UNL A   1      44.096  36.576  26.886  1.00  0.00    -0.744 OA
ENDBRANCH  90  93
ENDBRANCH  63  86
ENDBRANCH  37  38
ENDBRANCH  29  32
ENDBRANCH  27  28
ENDBRANCH  26  27
ENDBRANCH  25  26
ENDBRANCH   1  25
TORSDOF 19
ENDMDL
MODEL 3
REMARK VINA RESULT:     -11.1      2.456      8.192
REMARK SMILES C[C@@H](Sc1nc2ccccc2c(=O)n1N)C(=O)NCCCCCCNC(=O)c1ccc(-c2c3nc(c(-c4cccc(S(=O)(=O)[O-])c4F)c4ccc([nH]4)c(-c4cccc(S(=O)(=O)[O-])c4F)c4nc(c(-c5cccc(S(=O)(=O)[O-])c5F)c5ccc2[nH]5)C=C4)C=C3)cc1
REMARK SMILES IDX 21 1 20 2 19 3 18 4 16 5 17 6 2 8 1 9 3 10 4 11 5 12 14 13
REMARK SMILES IDX 6 14 12 15 7 16 11 17 13 18 8 19 10 20 9 21 15 22 22 25
REMARK SMILES IDX 23 26 24 27 25 28 26 29 27 31 28 32 29 33 90 34 30 35 89 36
REMARK SMILES IDX 31 37 32 38 33 39 83 40 34 41 88 42 82 43 84 44 35 45 87 46
REMARK SMILES IDX 81 47 80 48 36 50 68 51 48 52 67 53 49 54 52 55 66 56 85 57
REMARK SMILES IDX 50 58 51 59 65 61 86 62 53 63 37 64 38 65 46 66 39 67 41 68
REMARK SMILES IDX 47 69 40 70 42 71 43 72 44 73 45 74 69 75 70 76 78 77 71 78
REMARK SMILES IDX 73 79 79 80 72 81 74 82 75 83 76 84 77 85 54 86 55 87 63 88
REMARK SMILES IDX 56 89 58 90 64 91 57 92 59 93 60 94 61 95 62 96
REMARK H PARENT 18 7 15 23 15 24 25 30 84 49 52 60
REMARK Flexibility Score: inf
ROOT
ATOM      1  C   UNL A   1      33.539  27.934  26.404  1.00  0.00     0.002 C 
ENDROOT
BRANCH   1   2
ATOM      2  C   UNL A   1      34.373  26.669  26.173  1.00  0.00     0.021 C 
BRANCH   2   3
ATOM      3  C   UNL A   1      33.588  25.536  25.518  1.00  0.00     0.116 C 
BRANCH   3   4
ATOM      4  N   UNL A   1      32.773  24.849  26.504  1.00  0.00    -0.355 N 
ATOM      5  C   UNL A   1      32.513  23.521  26.669  1.00  0.00     0.233 C 
ATOM      6  O   UNL A   1      31.750  23.202  27.587  1.00  0.00    -0.274 OA
ATOM      7  H   UNL A   1      32.337  25.438  27.162  1.00  0.00     0.163 HD
BRANCH   5   8
ATOM      8  C   UNL A   1      33.146  22.454  25.772  1.00  0.00     0.141 C 
ATOM      9  C   UNL A   1      33.821  21.338  26.560  1.00  0.00     0.030 C 
BRANCH   8  10
ATOM     10  S   UNL A   1      31.894  21.959  24.531  1.00  0.00    -0.073 SA
BRANCH  10  11
ATOM     11  C   UNL A   1      31.623  23.449  23.669  1.00  0.00     0.191 A 
ATOM     12  N   UNL A   1      30.667  24.207  24.092  1.00  0.00    -0.222 NA
ATOM     13  N   UNL A   1      32.492  23.792  22.639  1.00  0.00    -0.202 N 
ATOM     14  C   UNL A   1      30.510  25.468  23.501  1.00  0.00     0.079 A 
ATOM     15  C   UNL A   1      32.413  25.033  22.005  1.00  0.00     0.280 A 
ATOM     16  C   UNL A   1      29.514  26.319  23.987  1.00  0.00     0.029 A 
ATOM     17  C   UNL A   1      31.343  25.928  22.479  1.00  0.00     0.068 A 
ATOM     18  O   UNL A   1      33.198  25.394  21.127  1.00  0.00    -0.267 OA
ATOM     19  C   UNL A   1      29.357  27.604  23.459  1.00  0.00     0.002 A 
ATOM     20  C   UNL A   1      31.191  27.211  21.941  1.00  0.00     0.016 A 
ATOM     21  C   UNL A   1      30.194  28.050  22.437  1.00  0.00     0.001 A 
BRANCH  13  22
ATOM     22  N   UNL A   1      33.531  22.907  22.198  1.00  0.00    -0.334 N 
ATOM     23  H   UNL A   1      33.443  21.937  22.339  1.00  0.00     0.178 HD
ATOM     24  H   UNL A   1      34.331  23.269  21.755  1.00  0.00     0.178 HD
ENDBRANCH  13  22
ENDBRANCH  10  11
ENDBRANCH   8  10
ENDBRANCH   5   8
ENDBRANCH   3   4
ENDBRANCH   2   3
ENDBRANCH   1   2
BRANCH   1  25
ATOM     25  C   UNL A   1      32.772  28.430  25.173  1.00  0.00     0.002 C 
BRANCH  25  26
ATOM     26  C   UNL A   1      31.951  29.702  25.397  1.00  0.00     0.021 C 
BRANCH  26  27
ATOM     27  C   UNL A   1      32.103  30.311  26.786  1.00  0.00     0.116 C 
BRANCH  27  28
ATOM     28  N   UNL A   1      32.208  31.761  26.734  1.00  0.00    -0.352 N 
ATOM     29  C   UNL A   1      33.138  32.581  27.319  1.00  0.00     0.251 C 
ATOM     30  H   UNL A   1      31.513  32.218  26.207  1.00  0.00     0.163 HD
ATOM     31  O   UNL A   1      32.957  33.798  27.348  1.00  0.00    -0.269 OA
BRANCH  29  32
ATOM     32  C   UNL A   1      34.351  31.994  27.924  1.00  0.00     0.039 A 
ATOM     33  C   UNL A   1      35.511  32.768  28.006  1.00  0.00     0.014 A 
ATOM     34  C   UNL A   1      34.340  30.684  28.413  1.00  0.00     0.014 A 
ATOM     35  C   UNL A   1      36.646  32.244  28.628  1.00  0.00     0.010 A 
ATOM     36  C   UNL A   1      35.446  30.195  29.102  1.00  0.00     0.010 A 
ATOM     37  C   UNL A   1      36.614  30.965  29.208  1.00  0.00    -0.014 A 
BRANCH  37  38
ATOM     38  C   UNL A   1      37.788  30.420  29.936  1.00  0.00     0.031 A 
ATOM     39  C   UNL A   1      38.085  30.869  31.341  1.00  0.00     0.074 A 
ATOM     40  C   UNL A   1      38.631  29.580  29.302  1.00  0.00     0.049 A 
ATOM     41  N   UNL A   1      39.085  30.539  32.117  1.00  0.00    -0.248 NA
ATOM     42  C   UNL A   1      37.153  31.835  31.945  1.00  0.00     0.031 C 
ATOM     43  C   UNL A   1      38.492  29.128  27.917  1.00  0.00     0.029 A 
ATOM     44  N   UNL A   1      39.785  28.976  29.733  1.00  0.00    -0.354 N 
ATOM     45  C   UNL A   1      38.923  31.279  33.282  1.00  0.00     0.074 A 
ATOM     46  C   UNL A   1      37.751  32.105  33.097  1.00  0.00     0.031 C 
ATOM     47  C   UNL A   1      39.514  28.311  27.615  1.00  0.00     0.029 A 
ATOM     48  C   UNL A   1      40.399  28.209  28.770  1.00  0.00     0.049 A 
ATOM     49  H   UNL A   1      40.140  29.081  30.646  1.00  0.00     0.167 HD
ATOM     50  C   UNL A   1      39.667  31.256  34.414  1.00  0.00     0.034 A 
ATOM     51  C   UNL A   1      41.551  27.510  28.810  1.00  0.00     0.034 A 
ATOM     52  C   UNL A   1      40.814  30.410  34.605  1.00  0.00     0.049 A 
ATOM     53  C   UNL A   1      42.346  27.485  30.087  1.00  0.00     0.074 A 
ATOM     54  C   UNL A   1      41.583  30.249  35.744  1.00  0.00     0.029 A 
ATOM     55  N   UNL A   1      41.367  29.594  33.630  1.00  0.00    -0.354 N 
ATOM     56  N   UNL A   1      42.090  28.070  31.232  1.00  0.00    -0.248 NA
ATOM     57  C   UNL A   1      43.572  26.674  30.088  1.00  0.00     0.031 C 
ATOM     58  C   UNL A   1      42.624  29.362  35.446  1.00  0.00     0.029 A 
ATOM     59  C   UNL A   1      42.478  28.939  34.134  1.00  0.00     0.049 A 
ATOM     60  H   UNL A   1      41.021  29.495  32.714  1.00  0.00     0.167 HD
ATOM     61  C   UNL A   1      43.098  27.667  32.100  1.00  0.00     0.074 A 
ATOM     62  C   UNL A   1      43.958  26.773  31.353  1.00  0.00     0.031 C 
ATOM     63  C   UNL A   1      43.299  28.015  33.395  1.00  0.00     0.034 A 
BRANCH  50  64
ATOM     64  C   UNL A   1      39.238  32.148  35.552  1.00  0.00     0.023 A 
ATOM     65  C   UNL A   1      38.359  31.653  36.537  1.00  0.00     0.012 A 
ATOM     66  C   UNL A   1      39.743  33.457  35.674  1.00  0.00     0.148 A 
ATOM     67  C   UNL A   1      37.957  32.458  37.601  1.00  0.00     0.002 A 
ATOM     68  C   UNL A   1      39.377  34.237  36.764  1.00  0.00     0.091 A 
ATOM     69  F   UNL A   1      40.563  33.920  34.718  1.00  0.00    -0.205 F 
ATOM     70  C   UNL A   1      38.472  33.745  37.721  1.00  0.00     0.022 A 
BRANCH  68  71
ATOM     71  S   UNL A   1      40.050  35.877  37.054  1.00  0.00     0.127 S 
ATOM     72  O   UNL A   1      41.483  35.598  37.126  1.00  0.00    -0.237 OA
ATOM     73  O   UNL A   1      39.629  36.599  35.854  1.00  0.00    -0.237 OA
ATOM     74  O   UNL A   1      39.443  36.348  38.291  1.00  0.00    -0.744 OA
ENDBRANCH  68  71
ENDBRANCH  50  64
BRANCH  51  75
ATOM     75  C   UNL A   1      41.990  26.727  27.620  1.00  0.00     0.023 A 
ATOM     76  C   UNL A   1      42.677  27.380  26.578  1.00  0.00     0.012 A 
ATOM     77  C   UNL A   1      41.748  25.344  27.523  1.00  0.00     0.148 A 
ATOM     78  C   UNL A   1      43.083  26.677  25.443  1.00  0.00     0.002 A 
ATOM     79  C   UNL A   1      42.203  24.639  26.415  1.00  0.00     0.091 A 
ATOM     80  F   UNL A   1      41.085  24.744  28.521  1.00  0.00    -0.205 F 
ATOM     81  C   UNL A   1      42.854  25.306  25.366  1.00  0.00     0.022 A 
BRANCH  79  82
ATOM     82  S   UNL A   1      42.067  22.852  26.287  1.00  0.00     0.127 S 
ATOM     83  O   UNL A   1      42.907  22.408  27.395  1.00  0.00    -0.237 OA
ATOM     84  O   UNL A   1      40.631  22.646  26.479  1.00  0.00    -0.237 OA
ATOM     85  O   UNL A   1      42.549  22.514  24.954  1.00  0.00    -0.744 OA
ENDBRANCH  79  82
ENDBRANCH  51  75
BRANCH  63  86
ATOM     86  C   UNL A   1      44.470  27.393  34.112  1.00  0.00     0.023 A 
ATOM     87  C   UNL A   1      45.715  28.053  34.139  1.00  0.00     0.012 A 
ATOM     88  C   UNL A   1      44.313  26.185  34.822  1.00  0.00     0.148 A 
ATOM     89  C   UNL A   1      46.795  27.502  34.828  1.00  0.00     0.002 A 
ATOM     90  C   UNL A   1      45.378  25.670  35.551  1.00  0.00     0.091 A 
ATOM     91  F   UNL A   1      43.126  25.562  34.770  1.00  0.00    -0.205 F 
ATOM     92  C   UNL A   1      46.623  26.319  35.544  1.00  0.00     0.022 A 
BRANCH  90  93
ATOM     93  S   UNL A   1      45.223  24.208  36.583  1.00  0.00     0.127 S 
ATOM     94  O   UNL A   1      44.480  23.304  35.707  1.00  0.00    -0.237 OA
ATOM     95  O   UNL A   1      46.620  23.835  36.801  1.00  0.00    -0.237 OA
ATOM     96  O   UNL A   1      44.516  24.634  37.782  1.00  0.00    -0.744 OA
ENDBRANCH  90  93
ENDBRANCH  63  86
ENDBRANCH  37  38
ENDBRANCH  29  32
ENDBRANCH  27  28
ENDBRANCH  26  27
ENDBRANCH  25  26
ENDBRANCH   1  25
TORSDOF 19
ENDMDL
