MODEL 1
REMARK VINA RESULT:     -12.1      0.000      0.000
REMARK SMILES Cc1cc(C)n(C)c(=O)c1C(=O)N1CCC2(CC1)C[NH2+][C@@H](C(=O)NCCCCCCNC(=O)c1ccc(-c3c4nc(c(-c5cccc(S(=O)(=O)[O-])c5F)c5ccc([nH]5)c(-c5cccc(S(=O)(=O)[O-])c5F)c5nc(c(-c6cccc(S(=O)(=O)[O-])c6F)c6ccc3[nH]6)C=C5)C=C4)cc1)C2
REMARK SMILES IDX 28 1 27 2 26 3 25 4 24 5 22 6 23 7 21 9 11 10 12 11 13 12
REMARK SMILES IDX 14 13 18 14 15 15 17 16 16 17 19 18 97 19 20 20 10 23 1 24
REMARK SMILES IDX 2 25 3 26 4 27 8 28 5 29 6 30 9 31 7 32 29 33 30 34 31 35
REMARK SMILES IDX 32 36 33 38 34 39 35 40 96 41 36 42 95 43 37 44 38 45 39 46
REMARK SMILES IDX 89 47 40 48 94 49 88 50 90 51 41 52 93 53 87 54 86 55 42 57
REMARK SMILES IDX 74 58 54 59 73 60 55 61 58 62 72 63 91 64 56 65 57 66 71 68
REMARK SMILES IDX 92 69 59 70 43 71 44 72 52 73 45 74 47 75 53 76 46 77 48 78
REMARK SMILES IDX 49 79 50 80 51 81 75 82 76 83 84 84 77 85 79 86 85 87 78 88
REMARK SMILES IDX 80 89 81 90 82 91 83 92 60 93 61 94 69 95 62 96 64 97 70 98
REMARK SMILES IDX 63 99 65 100 66 101 67 102 68 103
REMARK H PARENT 24 8 20 21 20 22 31 37 90 56 58 67
REMARK Flexibility Score: inf
ROOT
ATOM      1  C   UNL A   1      35.009  34.176  28.303  1.00  0.00     0.002 C 
ENDROOT
BRANCH   1   2
ATOM      2  C   UNL A   1      35.059  32.675  28.001  1.00  0.00     0.002 C 
BRANCH   2   3
ATOM      3  C   UNL A   1      33.733  31.940  28.209  1.00  0.00     0.021 C 
BRANCH   3   4
ATOM      4  C   UNL A   1      33.510  30.789  27.232  1.00  0.00     0.116 C 
BRANCH   4   5
ATOM      5  N   UNL A   1      32.238  30.926  26.545  1.00  0.00    -0.351 N 
ATOM      6  C   UNL A   1      31.752  30.239  25.472  1.00  0.00     0.278 C 
ATOM      7  O   UNL A   1      30.638  30.549  25.039  1.00  0.00    -0.268 OA
ATOM      8  H   UNL A   1      31.638  31.617  26.907  1.00  0.00     0.163 HD
BRANCH   6   9
ATOM      9  C   UNL A   1      32.564  29.121  24.806  1.00  0.00     0.273 C 
ATOM     10  C   UNL A   1      33.863  22.749  25.336  1.00  0.00     0.259 C 
ATOM     11  O   UNL A   1      35.029  22.517  25.675  1.00  0.00    -0.269 OA
ATOM     12  N   UNL A   1      33.334  24.025  25.490  1.00  0.00    -0.338 N 
ATOM     13  C   UNL A   1      34.276  25.112  25.700  1.00  0.00     0.120 C 
ATOM     14  C   UNL A   1      31.931  24.429  25.556  1.00  0.00     0.120 C 
ATOM     15  C   UNL A   1      34.131  26.095  24.548  1.00  0.00     0.034 C 
ATOM     16  C   UNL A   1      31.607  25.626  24.639  1.00  0.00     0.034 C 
ATOM     17  C   UNL A   1      32.719  26.710  24.493  1.00  0.00     0.029 C 
ATOM     18  C   UNL A   1      32.573  27.478  23.154  1.00  0.00     0.268 C 
ATOM     19  C   UNL A   1      32.582  27.807  25.576  1.00  0.00     0.088 C 
ATOM     20  N   UNL A   1      32.011  28.776  23.489  1.00  0.00    -0.336 N 
ATOM     21  H   UNL A   1      30.992  28.721  23.534  1.00  0.00     0.346 HD
ATOM     22  H   UNL A   1      32.241  29.479  22.787  1.00  0.00     0.346 HD
BRANCH  10  23
ATOM     23  C   UNL A   1      33.115  21.650  24.637  1.00  0.00     0.108 A 
ATOM     24  C   UNL A   1      32.973  22.828  22.367  1.00  0.00     0.045 C 
ATOM     25  C   UNL A   1      32.777  21.697  23.329  1.00  0.00    -0.031 A 
ATOM     26  C   UNL A   1      32.296  20.510  22.650  1.00  0.00     0.026 A 
ATOM     27  C   UNL A   1      32.444  19.289  23.180  1.00  0.00     0.018 A 
ATOM     28  C   UNL A   1      33.083  20.294  25.314  1.00  0.00     0.263 A 
ATOM     29  C   UNL A   1      32.095  18.091  22.340  1.00  0.00     0.064 C 
ATOM     30  N   UNL A   1      32.904  19.170  24.487  1.00  0.00    -0.315 N 
ATOM     31  O   UNL A   1      33.240  20.199  26.532  1.00  0.00    -0.268 OA
ATOM     32  C   UNL A   1      33.174  17.858  25.060  1.00  0.00     0.153 C 
ENDBRANCH  10  23
ENDBRANCH   6   9
ENDBRANCH   4   5
ENDBRANCH   3   4
ENDBRANCH   2   3
ENDBRANCH   1   2
BRANCH   1  33
ATOM     33  C   UNL A   1      33.603  34.737  28.536  1.00  0.00     0.021 C 
BRANCH  33  34
ATOM     34  C   UNL A   1      33.578  36.117  29.181  1.00  0.00     0.116 C 
BRANCH  34  35
ATOM     35  N   UNL A   1      32.688  36.159  30.333  1.00  0.00    -0.352 N 
ATOM     36  C   UNL A   1      32.776  35.472  31.516  1.00  0.00     0.251 C 
ATOM     37  H   UNL A   1      31.916  36.764  30.250  1.00  0.00     0.163 HD
ATOM     38  O   UNL A   1      31.826  35.455  32.294  1.00  0.00    -0.269 OA
BRANCH  36  39
ATOM     39  C   UNL A   1      34.018  34.742  31.841  1.00  0.00     0.039 A 
ATOM     40  C   UNL A   1      35.180  35.466  32.115  1.00  0.00     0.014 A 
ATOM     41  C   UNL A   1      34.027  33.344  31.883  1.00  0.00     0.014 A 
ATOM     42  C   UNL A   1      36.343  34.786  32.480  1.00  0.00     0.010 A 
ATOM     43  C   UNL A   1      35.165  32.675  32.320  1.00  0.00     0.010 A 
ATOM     44  C   UNL A   1      36.337  33.387  32.611  1.00  0.00    -0.014 A 
BRANCH  44  45
ATOM     45  C   UNL A   1      37.552  32.653  33.044  1.00  0.00     0.031 A 
ATOM     46  C   UNL A   1      38.255  33.044  34.315  1.00  0.00     0.074 A 
ATOM     47  C   UNL A   1      38.054  31.676  32.265  1.00  0.00     0.049 A 
ATOM     48  N   UNL A   1      39.339  32.539  34.843  1.00  0.00    -0.248 NA
ATOM     49  C   UNL A   1      37.679  34.160  35.084  1.00  0.00     0.031 C 
ATOM     50  C   UNL A   1      37.495  31.250  30.980  1.00  0.00     0.029 A 
ATOM     51  N   UNL A   1      39.153  30.870  32.431  1.00  0.00    -0.354 N 
ATOM     52  C   UNL A   1      39.584  33.283  35.990  1.00  0.00     0.074 A 
ATOM     53  C   UNL A   1      38.565  34.306  36.058  1.00  0.00     0.031 C 
ATOM     54  C   UNL A   1      38.243  30.252  30.484  1.00  0.00     0.029 A 
ATOM     55  C   UNL A   1      39.351  29.985  31.397  1.00  0.00     0.049 A 
ATOM     56  H   UNL A   1      39.744  30.922  33.217  1.00  0.00     0.167 HD
ATOM     57  C   UNL A   1      40.548  33.107  36.924  1.00  0.00     0.034 A 
ATOM     58  C   UNL A   1      40.315  29.062  31.207  1.00  0.00     0.034 A 
ATOM     59  C   UNL A   1      41.536  32.064  36.871  1.00  0.00     0.049 A 
ATOM     60  C   UNL A   1      41.371  28.880  32.265  1.00  0.00     0.074 A 
ATOM     61  C   UNL A   1      42.513  31.762  37.802  1.00  0.00     0.029 A 
ATOM     62  N   UNL A   1      41.675  31.155  35.834  1.00  0.00    -0.354 N 
ATOM     63  N   UNL A   1      41.504  29.503  33.411  1.00  0.00    -0.248 NA
ATOM     64  C   UNL A   1      42.391  27.850  32.020  1.00  0.00     0.031 C 
ATOM     65  C   UNL A   1      43.262  30.687  37.314  1.00  0.00     0.029 A 
ATOM     66  C   UNL A   1      42.731  30.299  36.095  1.00  0.00     0.049 A 
ATOM     67  H   UNL A   1      41.106  31.123  35.031  1.00  0.00     0.167 HD
ATOM     68  C   UNL A   1      42.601  28.923  34.037  1.00  0.00     0.074 A 
ATOM     69  C   UNL A   1      43.081  27.880  33.153  1.00  0.00     0.031 C 
ATOM     70  C   UNL A   1      43.170  29.235  35.227  1.00  0.00     0.034 A 
BRANCH  57  71
ATOM     71  C   UNL A   1      40.545  34.020  38.123  1.00  0.00     0.023 A 
ATOM     72  C   UNL A   1      41.307  35.207  38.089  1.00  0.00     0.012 A 
ATOM     73  C   UNL A   1      39.727  33.756  39.238  1.00  0.00     0.148 A 
ATOM     74  C   UNL A   1      41.276  36.103  39.157  1.00  0.00     0.002 A 
ATOM     75  C   UNL A   1      39.663  34.678  40.277  1.00  0.00     0.091 A 
ATOM     76  F   UNL A   1      39.025  32.614  39.260  1.00  0.00    -0.205 F 
ATOM     77  C   UNL A   1      40.445  35.845  40.243  1.00  0.00     0.022 A 
BRANCH  75  78
ATOM     78  S   UNL A   1      38.559  34.486  41.681  1.00  0.00     0.127 S 
ATOM     79  O   UNL A   1      37.555  33.569  41.143  1.00  0.00    -0.237 OA
ATOM     80  O   UNL A   1      39.443  33.900  42.687  1.00  0.00    -0.237 OA
ATOM     81  O   UNL A   1      38.074  35.822  41.997  1.00  0.00    -0.744 OA
ENDBRANCH  75  78
ENDBRANCH  57  71
BRANCH  58  82
ATOM     82  C   UNL A   1      40.272  28.186  30.001  1.00  0.00     0.023 A 
ATOM     83  C   UNL A   1      39.339  27.130  29.949  1.00  0.00     0.012 A 
ATOM     84  C   UNL A   1      41.102  28.421  28.887  1.00  0.00     0.148 A 
ATOM     85  C   UNL A   1      39.250  26.313  28.823  1.00  0.00     0.002 A 
ATOM     86  C   UNL A   1      40.968  27.640  27.745  1.00  0.00     0.091 A 
ATOM     87  F   UNL A   1      41.990  29.422  28.960  1.00  0.00    -0.205 F 
ATOM     88  C   UNL A   1      40.054  26.575  27.716  1.00  0.00     0.022 A 
BRANCH  86  89
ATOM     89  S   UNL A   1      41.859  27.991  26.224  1.00  0.00     0.127 S 
ATOM     90  O   UNL A   1      41.271  29.264  25.818  1.00  0.00    -0.237 OA
ATOM     91  O   UNL A   1      43.241  28.072  26.699  1.00  0.00    -0.237 OA
ATOM     92  O   UNL A   1      41.592  26.864  25.340  1.00  0.00    -0.744 OA
ENDBRANCH  86  89
ENDBRANCH  58  82
BRANCH  70  93
ATOM     93  C   UNL A   1      44.376  28.444  35.668  1.00  0.00     0.023 A 
ATOM     94  C   UNL A   1      45.663  28.873  35.292  1.00  0.00     0.012 A 
ATOM     95  C   UNL A   1      44.240  27.353  36.550  1.00  0.00     0.148 A 
ATOM     96  C   UNL A   1      46.797  28.218  35.771  1.00  0.00     0.002 A 
ATOM     97  C   UNL A   1      45.374  26.739  37.066  1.00  0.00     0.091 A 
ATOM     98  F   UNL A   1      43.004  26.951  36.885  1.00  0.00    -0.205 F 
ATOM     99  C   UNL A   1      46.653  27.162  36.668  1.00  0.00     0.022 A 
BRANCH  97 100
ATOM    100  S   UNL A   1      45.293  25.444  38.310  1.00  0.00     0.127 S 
ATOM    101  O   UNL A   1      44.539  24.406  37.609  1.00  0.00    -0.237 OA
ATOM    102  O   UNL A   1      46.707  25.132  38.521  1.00  0.00    -0.237 OA
ATOM    103  O   UNL A   1      44.622  26.032  39.461  1.00  0.00    -0.744 OA
ENDBRANCH  97 100
ENDBRANCH  70  93
ENDBRANCH  44  45
ENDBRANCH  36  39
ENDBRANCH  34  35
ENDBRANCH  33  34
ENDBRANCH   1  33
TORSDOF 17
ENDMDL
MODEL 2
REMARK VINA RESULT:     -12.0      2.038      2.833
REMARK SMILES Cc1cc(C)n(C)c(=O)c1C(=O)N1CCC2(CC1)C[NH2+][C@@H](C(=O)NCCCCCCNC(=O)c1ccc(-c3c4nc(c(-c5cccc(S(=O)(=O)[O-])c5F)c5ccc([nH]5)c(-c5cccc(S(=O)(=O)[O-])c5F)c5nc(c(-c6cccc(S(=O)(=O)[O-])c6F)c6ccc3[nH]6)C=C5)C=C4)cc1)C2
REMARK SMILES IDX 28 1 27 2 26 3 25 4 24 5 22 6 23 7 21 9 11 10 12 11 13 12
REMARK SMILES IDX 14 13 18 14 15 15 17 16 16 17 19 18 97 19 20 20 10 23 1 24
REMARK SMILES IDX 2 25 3 26 4 27 8 28 5 29 6 30 9 31 7 32 29 33 30 34 31 35
REMARK SMILES IDX 32 36 33 38 34 39 35 40 96 41 36 42 95 43 37 44 38 45 39 46
REMARK SMILES IDX 89 47 40 48 94 49 88 50 90 51 41 52 93 53 87 54 86 55 42 57
REMARK SMILES IDX 74 58 54 59 73 60 55 61 58 62 72 63 91 64 56 65 57 66 71 68
REMARK SMILES IDX 92 69 59 70 43 71 44 72 52 73 45 74 47 75 53 76 46 77 48 78
REMARK SMILES IDX 49 79 50 80 51 81 75 82 76 83 84 84 77 85 79 86 85 87 78 88
REMARK SMILES IDX 80 89 81 90 82 91 83 92 60 93 61 94 69 95 62 96 64 97 70 98
REMARK SMILES IDX 63 99 65 100 66 101 67 102 68 103
REMARK H PARENT 24 8 20 21 20 22 31 37 90 56 58 67
REMARK Flexibility Score: inf
ROOT
ATOM      1  C   UNL A   1      33.526  30.322  27.247  1.00  0.00     0.002 C 
ENDROOT
BRANCH   1   2
ATOM      2  C   UNL A   1      32.680  29.095  26.891  1.00  0.00     0.002 C 
BRANCH   2   3
ATOM      3  C   UNL A   1      31.402  29.409  26.110  1.00  0.00     0.021 C 
BRANCH   3   4
ATOM      4  C   UNL A   1      31.653  30.124  24.785  1.00  0.00     0.116 C 
BRANCH   4   5
ATOM      5  N   UNL A   1      30.897  29.509  23.709  1.00  0.00    -0.351 N 
ATOM      6  C   UNL A   1      31.149  28.362  23.016  1.00  0.00     0.278 C 
ATOM      7  O   UNL A   1      30.368  28.044  22.113  1.00  0.00    -0.268 OA
ATOM      8  H   UNL A   1      30.083  29.992  23.440  1.00  0.00     0.163 HD
BRANCH   6   9
ATOM      9  C   UNL A   1      32.372  27.492  23.330  1.00  0.00     0.273 C 
ATOM     10  C   UNL A   1      34.014  21.773  26.008  1.00  0.00     0.259 C 
ATOM     11  O   UNL A   1      34.627  21.894  27.074  1.00  0.00    -0.269 OA
ATOM     12  N   UNL A   1      33.317  22.854  25.479  1.00  0.00    -0.338 N 
ATOM     13  C   UNL A   1      33.636  24.170  26.008  1.00  0.00     0.120 C 
ATOM     14  C   UNL A   1      32.227  22.847  24.506  1.00  0.00     0.120 C 
ATOM     15  C   UNL A   1      34.168  25.024  24.867  1.00  0.00     0.034 C 
ATOM     16  C   UNL A   1      32.435  23.866  23.366  1.00  0.00     0.034 C 
ATOM     17  C   UNL A   1      33.119  25.212  23.753  1.00  0.00     0.029 C 
ATOM     18  C   UNL A   1      33.820  25.852  22.527  1.00  0.00     0.268 C 
ATOM     19  C   UNL A   1      32.076  26.269  24.189  1.00  0.00     0.088 C 
ATOM     20  N   UNL A   1      32.969  26.951  22.101  1.00  0.00    -0.336 N 
ATOM     21  H   UNL A   1      32.241  26.613  21.471  1.00  0.00     0.346 HD
ATOM     22  H   UNL A   1      33.497  27.661  21.593  1.00  0.00     0.346 HD
BRANCH  10  23
ATOM     23  C   UNL A   1      34.175  20.480  25.261  1.00  0.00     0.108 A 
ATOM     24  C   UNL A   1      36.718  20.641  24.997  1.00  0.00     0.045 C 
ATOM     25  C   UNL A   1      35.374  19.992  24.869  1.00  0.00    -0.031 A 
ATOM     26  C   UNL A   1      35.493  18.630  24.392  1.00  0.00     0.026 A 
ATOM     27  C   UNL A   1      34.524  17.727  24.592  1.00  0.00     0.018 A 
ATOM     28  C   UNL A   1      33.009  19.513  25.292  1.00  0.00     0.263 A 
ATOM     29  C   UNL A   1      34.793  16.289  24.241  1.00  0.00     0.064 C 
ATOM     30  N   UNL A   1      33.304  18.149  25.109  1.00  0.00    -0.315 N 
ATOM     31  O   UNL A   1      31.865  19.918  25.501  1.00  0.00    -0.268 OA
ATOM     32  C   UNL A   1      32.264  17.182  25.435  1.00  0.00     0.153 C 
ENDBRANCH  10  23
ENDBRANCH   6   9
ENDBRANCH   4   5
ENDBRANCH   3   4
ENDBRANCH   2   3
ENDBRANCH   1   2
BRANCH   1  33
ATOM     33  C   UNL A   1      32.721  31.569  27.622  1.00  0.00     0.021 C 
BRANCH  33  34
ATOM     34  C   UNL A   1      33.219  32.855  26.973  1.00  0.00     0.116 C 
BRANCH  34  35
ATOM     35  N   UNL A   1      32.851  34.029  27.750  1.00  0.00    -0.352 N 
ATOM     36  C   UNL A   1      33.321  34.437  28.972  1.00  0.00     0.251 C 
ATOM     37  H   UNL A   1      32.170  34.612  27.341  1.00  0.00     0.163 HD
ATOM     38  O   UNL A   1      32.747  35.332  29.589  1.00  0.00    -0.269 OA
BRANCH  36  39
ATOM     39  C   UNL A   1      34.514  33.784  29.546  1.00  0.00     0.039 A 
ATOM     40  C   UNL A   1      34.346  32.779  30.500  1.00  0.00     0.014 A 
ATOM     41  C   UNL A   1      35.796  34.163  29.134  1.00  0.00     0.014 A 
ATOM     42  C   UNL A   1      35.465  32.116  31.005  1.00  0.00     0.010 A 
ATOM     43  C   UNL A   1      36.903  33.450  29.582  1.00  0.00     0.010 A 
ATOM     44  C   UNL A   1      36.750  32.428  30.530  1.00  0.00    -0.014 A 
BRANCH  44  45
ATOM     45  C   UNL A   1      37.947  31.701  31.023  1.00  0.00     0.031 A 
ATOM     46  C   UNL A   1      38.550  32.059  32.353  1.00  0.00     0.074 A 
ATOM     47  C   UNL A   1      38.521  30.761  30.248  1.00  0.00     0.049 A 
ATOM     48  N   UNL A   1      39.605  31.554  32.939  1.00  0.00    -0.248 NA
ATOM     49  C   UNL A   1      37.899  33.136  33.117  1.00  0.00     0.031 C 
ATOM     50  C   UNL A   1      38.063  30.371  28.912  1.00  0.00     0.029 A 
ATOM     51  N   UNL A   1      39.622  29.970  30.463  1.00  0.00    -0.354 N 
ATOM     52  C   UNL A   1      39.754  32.261  34.125  1.00  0.00     0.074 A 
ATOM     53  C   UNL A   1      38.712  33.263  34.155  1.00  0.00     0.031 C 
ATOM     54  C   UNL A   1      38.864  29.405  28.437  1.00  0.00     0.029 A 
ATOM     55  C   UNL A   1      39.910  29.126  29.417  1.00  0.00     0.049 A 
ATOM     56  H   UNL A   1      40.156  30.004  31.291  1.00  0.00     0.167 HD
ATOM     57  C   UNL A   1      40.653  32.069  35.119  1.00  0.00     0.034 A 
ATOM     58  C   UNL A   1      40.904  28.228  29.264  1.00  0.00     0.034 A 
ATOM     59  C   UNL A   1      41.663  31.046  35.100  1.00  0.00     0.049 A 
ATOM     60  C   UNL A   1      41.886  28.027  30.387  1.00  0.00     0.074 A 
ATOM     61  C   UNL A   1      42.578  30.729  36.087  1.00  0.00     0.029 A 
ATOM     62  N   UNL A   1      41.893  30.177  34.044  1.00  0.00    -0.354 N 
ATOM     63  N   UNL A   1      41.926  28.611  31.561  1.00  0.00    -0.248 NA
ATOM     64  C   UNL A   1      42.942  27.024  30.180  1.00  0.00     0.031 C 
ATOM     65  C   UNL A   1      43.381  29.685  35.617  1.00  0.00     0.029 A 
ATOM     66  C   UNL A   1      42.945  29.332  34.350  1.00  0.00     0.049 A 
ATOM     67  H   UNL A   1      41.383  30.164  33.202  1.00  0.00     0.167 HD
ATOM     68  C   UNL A   1      42.988  28.028  32.242  1.00  0.00     0.074 A 
ATOM     69  C   UNL A   1      43.550  27.026  31.359  1.00  0.00     0.031 C 
ATOM     70  C   UNL A   1      43.465  28.307  33.480  1.00  0.00     0.034 A 
BRANCH  57  71
ATOM     71  C   UNL A   1      40.547  32.939  36.345  1.00  0.00     0.023 A 
ATOM     72  C   UNL A   1      41.300  34.130  36.413  1.00  0.00     0.012 A 
ATOM     73  C   UNL A   1      39.646  32.630  37.381  1.00  0.00     0.148 A 
ATOM     74  C   UNL A   1      41.176  34.987  37.506  1.00  0.00     0.002 A 
ATOM     75  C   UNL A   1      39.492  33.514  38.444  1.00  0.00     0.091 A 
ATOM     76  F   UNL A   1      38.955  31.484  37.307  1.00  0.00    -0.205 F 
ATOM     77  C   UNL A   1      40.264  34.686  38.513  1.00  0.00     0.022 A 
BRANCH  75  78
ATOM     78  S   UNL A   1      38.282  33.266  39.748  1.00  0.00     0.127 S 
ATOM     79  O   UNL A   1      38.290  34.570  40.410  1.00  0.00    -0.237 OA
ATOM     80  O   UNL A   1      37.067  32.977  38.986  1.00  0.00    -0.237 OA
ATOM     81  O   UNL A   1      38.778  32.158  40.552  1.00  0.00    -0.744 OA
ENDBRANCH  75  78
ENDBRANCH  57  71
BRANCH  58  82
ATOM     82  C   UNL A   1      40.963  27.394  28.029  1.00  0.00     0.023 A 
ATOM     83  C   UNL A   1      41.573  27.918  26.871  1.00  0.00     0.012 A 
ATOM     84  C   UNL A   1      40.475  26.072  28.006  1.00  0.00     0.148 A 
ATOM     85  C   UNL A   1      41.675  27.153  25.710  1.00  0.00     0.002 A 
ATOM     86  C   UNL A   1      40.632  25.294  26.865  1.00  0.00     0.091 A 
ATOM     87  F   UNL A   1      39.888  25.595  29.113  1.00  0.00    -0.205 F 
ATOM     88  C   UNL A   1      41.217  25.837  25.710  1.00  0.00     0.022 A 
BRANCH  86  89
ATOM     89  S   UNL A   1      40.200  23.550  26.817  1.00  0.00     0.127 S 
ATOM     90  O   UNL A   1      38.781  23.601  26.478  1.00  0.00    -0.237 OA
ATOM     91  O   UNL A   1      41.072  23.056  25.751  1.00  0.00    -0.237 OA
ATOM     92  O   UNL A   1      40.513  23.029  28.140  1.00  0.00    -0.744 OA
ENDBRANCH  86  89
ENDBRANCH  58  82
BRANCH  70  93
ATOM     93  C   UNL A   1      44.653  27.523  33.977  1.00  0.00     0.023 A 
ATOM     94  C   UNL A   1      45.950  28.046  33.813  1.00  0.00     0.012 A 
ATOM     95  C   UNL A   1      44.475  26.333  34.712  1.00  0.00     0.148 A 
ATOM     96  C   UNL A   1      47.054  27.388  34.354  1.00  0.00     0.002 A 
ATOM     97  C   UNL A   1      45.572  25.712  35.294  1.00  0.00     0.091 A 
ATOM     98  F   UNL A   1      43.233  25.843  34.846  1.00  0.00    -0.205 F 
ATOM     99  C   UNL A   1      46.864  26.231  35.106  1.00  0.00     0.022 A 
BRANCH  97 100
ATOM    100  S   UNL A   1      45.418  24.281  36.370  1.00  0.00     0.127 S 
ATOM    101  O   UNL A   1      44.723  24.851  37.524  1.00  0.00    -0.237 OA
ATOM    102  O   UNL A   1      44.607  23.372  35.560  1.00  0.00    -0.237 OA
ATOM    103  O   UNL A   1      46.776  23.820  36.626  1.00  0.00    -0.744 OA
ENDBRANCH  97 100
ENDBRANCH  70  93
ENDBRANCH  44  45
ENDBRANCH  36  39
ENDBRANCH  34  35
ENDBRANCH  33  34
ENDBRANCH   1  33
TORSDOF 17
ENDMDL
MODEL 3
REMARK VINA RESULT:     -11.9      5.292      9.617
REMARK SMILES Cc1cc(C)n(C)c(=O)c1C(=O)N1CCC2(CC1)C[NH2+][C@@H](C(=O)NCCCCCCNC(=O)c1ccc(-c3c4nc(c(-c5cccc(S(=O)(=O)[O-])c5F)c5ccc([nH]5)c(-c5cccc(S(=O)(=O)[O-])c5F)c5nc(c(-c6cccc(S(=O)(=O)[O-])c6F)c6ccc3[nH]6)C=C5)C=C4)cc1)C2
REMARK SMILES IDX 28 1 27 2 26 3 25 4 24 5 22 6 23 7 21 9 11 10 12 11 13 12
REMARK SMILES IDX 14 13 18 14 15 15 17 16 16 17 19 18 97 19 20 20 10 23 1 24
REMARK SMILES IDX 2 25 3 26 4 27 8 28 5 29 6 30 9 31 7 32 29 33 30 34 31 35
REMARK SMILES IDX 32 36 33 38 34 39 35 40 96 41 36 42 95 43 37 44 38 45 39 46
REMARK SMILES IDX 89 47 40 48 94 49 88 50 90 51 41 52 93 53 87 54 86 55 42 57
REMARK SMILES IDX 74 58 54 59 73 60 55 61 58 62 72 63 91 64 56 65 57 66 71 68
REMARK SMILES IDX 92 69 59 70 43 71 44 72 52 73 45 74 47 75 53 76 46 77 48 78
REMARK SMILES IDX 49 79 50 80 51 81 75 82 76 83 84 84 77 85 79 86 85 87 78 88
REMARK SMILES IDX 80 89 81 90 82 91 83 92 60 93 61 94 69 95 62 96 64 97 70 98
REMARK SMILES IDX 63 99 65 100 66 101 67 102 68 103
REMARK H PARENT 24 8 20 21 20 22 31 37 90 56 58 67
REMARK Flexibility Score: inf
ROOT
ATOM      1  C   UNL A   1      35.494  33.879  31.492  1.00  0.00     0.002 C 
ENDROOT
BRANCH   1   2
ATOM      2  C   UNL A   1      36.411  33.465  32.648  1.00  0.00     0.002 C 
BRANCH   2   3
ATOM      3  C   UNL A   1      37.570  32.550  32.244  1.00  0.00     0.021 C 
BRANCH   3   4
ATOM      4  C   UNL A   1      38.766  32.624  33.189  1.00  0.00     0.116 C 
BRANCH   4   5
ATOM      5  N   UNL A   1      38.469  31.981  34.456  1.00  0.00    -0.351 N 
ATOM      6  C   UNL A   1      38.993  30.844  34.997  1.00  0.00     0.278 C 
ATOM      7  O   UNL A   1      38.565  30.470  36.094  1.00  0.00    -0.268 OA
ATOM      8  H   UNL A   1      37.790  32.433  35.007  1.00  0.00     0.163 HD
BRANCH   6   9
ATOM      9  C   UNL A   1      40.072  30.037  34.265  1.00  0.00     0.273 C 
ATOM     10  C   UNL A   1      44.901  25.791  35.378  1.00  0.00     0.259 C 
ATOM     11  O   UNL A   1      46.023  26.266  35.169  1.00  0.00    -0.269 OA
ATOM     12  N   UNL A   1      43.801  26.633  35.504  1.00  0.00    -0.338 N 
ATOM     13  C   UNL A   1      43.953  27.998  35.028  1.00  0.00     0.120 C 
ATOM     14  C   UNL A   1      42.513  26.360  36.138  1.00  0.00     0.120 C 
ATOM     15  C   UNL A   1      42.949  28.225  33.909  1.00  0.00     0.034 C 
ATOM     16  C   UNL A   1      41.314  26.777  35.261  1.00  0.00     0.034 C 
ATOM     17  C   UNL A   1      41.497  28.064  34.401  1.00  0.00     0.029 C 
ATOM     18  C   UNL A   1      40.563  28.043  33.164  1.00  0.00     0.268 C 
ATOM     19  C   UNL A   1      41.063  29.329  35.181  1.00  0.00     0.088 C 
ATOM     20  N   UNL A   1      39.477  28.963  33.458  1.00  0.00    -0.336 N 
ATOM     21  H   UNL A   1      38.741  28.488  33.984  1.00  0.00     0.346 HD
ATOM     22  H   UNL A   1      39.048  29.324  32.606  1.00  0.00     0.346 HD
BRANCH  10  23
ATOM     23  C   UNL A   1      44.766  24.296  35.343  1.00  0.00     0.108 A 
ATOM     24  C   UNL A   1      44.530  24.109  32.799  1.00  0.00     0.045 C 
ATOM     25  C   UNL A   1      44.647  23.587  34.198  1.00  0.00    -0.031 A 
ATOM     26  C   UNL A   1      44.785  22.145  34.208  1.00  0.00     0.026 A 
ATOM     27  C   UNL A   1      45.317  21.497  35.253  1.00  0.00     0.018 A 
ATOM     28  C   UNL A   1      45.165  23.535  36.592  1.00  0.00     0.263 A 
ATOM     29  C   UNL A   1      45.605  20.026  35.119  1.00  0.00     0.064 C 
ATOM     30  N   UNL A   1      45.576  22.200  36.424  1.00  0.00    -0.315 N 
ATOM     31  O   UNL A   1      45.155  24.089  37.692  1.00  0.00    -0.268 OA
ATOM     32  C   UNL A   1      46.247  21.553  37.543  1.00  0.00     0.153 C 
ENDBRANCH  10  23
ENDBRANCH   6   9
ENDBRANCH   4   5
ENDBRANCH   3   4
ENDBRANCH   2   3
ENDBRANCH   1   2
BRANCH   1  33
ATOM     33  C   UNL A   1      34.776  32.719  30.796  1.00  0.00     0.021 C 
BRANCH  33  34
ATOM     34  C   UNL A   1      35.123  32.563  29.320  1.00  0.00     0.116 C 
BRANCH  34  35
ATOM     35  N   UNL A   1      34.359  31.493  28.696  1.00  0.00    -0.352 N 
ATOM     36  C   UNL A   1      34.803  30.297  28.193  1.00  0.00     0.251 C 
ATOM     37  H   UNL A   1      33.389  31.649  28.626  1.00  0.00     0.163 HD
ATOM     38  O   UNL A   1      34.061  29.603  27.503  1.00  0.00    -0.269 OA
BRANCH  36  39
ATOM     39  C   UNL A   1      36.183  29.857  28.477  1.00  0.00     0.039 A 
ATOM     40  C   UNL A   1      37.161  30.008  27.491  1.00  0.00     0.014 A 
ATOM     41  C   UNL A   1      36.508  29.304  29.719  1.00  0.00     0.014 A 
ATOM     42  C   UNL A   1      38.480  29.649  27.772  1.00  0.00     0.010 A 
ATOM     43  C   UNL A   1      37.836  29.017  30.021  1.00  0.00     0.010 A 
ATOM     44  C   UNL A   1      38.832  29.176  29.047  1.00  0.00    -0.014 A 
BRANCH  44  45
ATOM     45  C   UNL A   1      40.239  28.833  29.376  1.00  0.00     0.031 A 
ATOM     46  C   UNL A   1      41.109  29.831  30.090  1.00  0.00     0.074 A 
ATOM     47  C   UNL A   1      40.747  27.650  28.980  1.00  0.00     0.049 A 
ATOM     48  N   UNL A   1      42.364  29.723  30.440  1.00  0.00    -0.248 NA
ATOM     49  C   UNL A   1      40.499  31.125  30.439  1.00  0.00     0.031 C 
ATOM     50  C   UNL A   1      40.018  26.627  28.227  1.00  0.00     0.029 A 
ATOM     51  N   UNL A   1      41.998  27.110  29.145  1.00  0.00    -0.354 N 
ATOM     52  C   UNL A   1      42.698  30.935  31.031  1.00  0.00     0.074 A 
ATOM     53  C   UNL A   1      41.529  31.783  30.949  1.00  0.00     0.031 C 
ATOM     54  C   UNL A   1      40.828  25.579  28.011  1.00  0.00     0.029 A 
ATOM     55  C   UNL A   1      42.141  25.864  28.582  1.00  0.00     0.049 A 
ATOM     56  H   UNL A   1      42.725  27.573  29.622  1.00  0.00     0.167 HD
ATOM     57  C   UNL A   1      43.860  31.298  31.623  1.00  0.00     0.034 A 
ATOM     58  C   UNL A   1      43.209  25.043  28.532  1.00  0.00     0.034 A 
ATOM     59  C   UNL A   1      45.005  30.437  31.735  1.00  0.00     0.049 A 
ATOM     60  C   UNL A   1      44.488  25.466  29.206  1.00  0.00     0.074 A 
ATOM     61  C   UNL A   1      46.206  30.688  32.374  1.00  0.00     0.029 A 
ATOM     62  N   UNL A   1      45.096  29.163  31.196  1.00  0.00    -0.354 N 
ATOM     63  N   UNL A   1      44.740  26.562  29.881  1.00  0.00    -0.248 NA
ATOM     64  C   UNL A   1      45.620  24.529  29.139  1.00  0.00     0.031 C 
ATOM     65  C   UNL A   1      47.034  29.577  32.198  1.00  0.00     0.029 A 
ATOM     66  C   UNL A   1      46.338  28.620  31.476  1.00  0.00     0.049 A 
ATOM     67  H   UNL A   1      44.383  28.712  30.689  1.00  0.00     0.167 HD
ATOM     68  C   UNL A   1      46.044  26.435  30.343  1.00  0.00     0.074 A 
ATOM     69  C   UNL A   1      46.522  25.144  29.892  1.00  0.00     0.031 C 
ATOM     70  C   UNL A   1      46.785  27.315  31.061  1.00  0.00     0.034 A 
BRANCH  57  71
ATOM     71  C   UNL A   1      43.932  32.662  32.259  1.00  0.00     0.023 A 
ATOM     72  C   UNL A   1      44.362  33.762  31.486  1.00  0.00     0.012 A 
ATOM     73  C   UNL A   1      43.496  32.875  33.580  1.00  0.00     0.148 A 
ATOM     74  C   UNL A   1      44.380  35.046  32.027  1.00  0.00     0.002 A 
ATOM     75  C   UNL A   1      43.471  34.166  34.096  1.00  0.00     0.091 A 
ATOM     76  F   UNL A   1      43.111  31.815  34.305  1.00  0.00    -0.205 F 
ATOM     77  C   UNL A   1      43.924  35.250  33.325  1.00  0.00     0.022 A 
BRANCH  75  78
ATOM     78  S   UNL A   1      42.819  34.550  35.725  1.00  0.00     0.127 S 
ATOM     79  O   UNL A   1      43.440  33.509  36.544  1.00  0.00    -0.237 OA
ATOM     80  O   UNL A   1      43.341  35.897  35.953  1.00  0.00    -0.237 OA
ATOM     81  O   UNL A   1      41.371  34.467  35.609  1.00  0.00    -0.744 OA
ENDBRANCH  75  78
ENDBRANCH  57  71
BRANCH  58  82
ATOM     82  C   UNL A   1      43.083  23.704  27.889  1.00  0.00     0.023 A 
ATOM     83  C   UNL A   1      42.146  22.781  28.396  1.00  0.00     0.012 A 
ATOM     84  C   UNL A   1      43.837  23.358  26.750  1.00  0.00     0.148 A 
ATOM     85  C   UNL A   1      41.979  21.533  27.796  1.00  0.00     0.002 A 
ATOM     86  C   UNL A   1      43.624  22.135  26.122  1.00  0.00     0.091 A 
ATOM     87  F   UNL A   1      44.730  24.244  26.289  1.00  0.00    -0.205 F 
ATOM     88  C   UNL A   1      42.707  21.215  26.653  1.00  0.00     0.022 A 
BRANCH  86  89
ATOM     89  S   UNL A   1      44.412  21.697  24.567  1.00  0.00     0.127 S 
ATOM     90  O   UNL A   1      44.084  20.279  24.454  1.00  0.00    -0.237 OA
ATOM     91  O   UNL A   1      43.715  22.570  23.622  1.00  0.00    -0.237 OA
ATOM     92  O   UNL A   1      45.825  22.004  24.739  1.00  0.00    -0.744 OA
ENDBRANCH  86  89
ENDBRANCH  58  82
BRANCH  70  93
ATOM     93  C   UNL A   1      48.196  26.925  31.423  1.00  0.00     0.023 A 
ATOM     94  C   UNL A   1      48.429  26.149  32.576  1.00  0.00     0.012 A 
ATOM     95  C   UNL A   1      49.271  27.222  30.560  1.00  0.00     0.148 A 
ATOM     96  C   UNL A   1      49.712  25.692  32.875  1.00  0.00     0.002 A 
ATOM     97  C   UNL A   1      50.535  26.718  30.836  1.00  0.00     0.091 A 
ATOM     98  F   UNL A   1      49.030  27.974  29.475  1.00  0.00    -0.205 F 
ATOM     99  C   UNL A   1      50.761  25.963  31.999  1.00  0.00     0.022 A 
BRANCH  97 100
ATOM    100  S   UNL A   1      51.924  26.920  29.714  1.00  0.00     0.127 S 
ATOM    101  O   UNL A   1      51.962  28.373  29.546  1.00  0.00    -0.237 OA
ATOM    102  O   UNL A   1      53.033  26.369  30.493  1.00  0.00    -0.237 OA
ATOM    103  O   UNL A   1      51.589  26.164  28.515  1.00  0.00    -0.744 OA
ENDBRANCH  97 100
ENDBRANCH  70  93
ENDBRANCH  44  45
ENDBRANCH  36  39
ENDBRANCH  34  35
ENDBRANCH  33  34
ENDBRANCH   1  33
TORSDOF 17
ENDMDL
