MODEL 1
REMARK VINA RESULT:     -12.9      0.000      0.000
REMARK SMILES O=C(NCCCCCCNC(=O)[C@H]1CC2=c3ccccc3=N[C@H]2[C@@H](c2ccccc2)[NH2+]1)c1ccc(-c2c3nc(c(-c4cccc(S(=O)(=O)[O-])c4F)c4ccc([nH]4)c(-c4cccc(S(=O)(=O)[O-])c4F)c4nc(c(-c5cccc(S(=O)(=O)[O-])c5F)c5ccc2[nH]5)C=C4)C=C3)cc1
REMARK SMILES IDX 5 1 4 2 3 3 1 4 2 5 32 7 33 8 94 9 34 10 93 11 35 12 36 13
REMARK SMILES IDX 37 14 87 15 38 16 92 17 86 18 88 19 39 20 91 21 85 22 84 23
REMARK SMILES IDX 40 25 72 26 52 27 71 28 53 29 56 30 70 31 89 32 54 33 55 34
REMARK SMILES IDX 69 36 90 37 57 38 41 39 42 40 50 41 43 42 45 43 51 44 44 45
REMARK SMILES IDX 46 46 47 47 48 48 49 49 73 50 74 51 82 52 75 53 77 54 83 55
REMARK SMILES IDX 76 56 78 57 79 58 80 59 81 60 58 61 59 62 67 63 60 64 62 65
REMARK SMILES IDX 68 66 61 67 63 68 64 69 65 70 66 71 6 72 7 73 8 74 9 75
REMARK SMILES IDX 10 76 11 77 12 79 13 80 14 81 31 82 15 83 24 84 16 87 23 88
REMARK SMILES IDX 17 89 21 90 22 91 18 92 20 93 19 94 25 95 26 96 30 97 27 98
REMARK SMILES IDX 29 99 28 100
REMARK H PARENT 3 6 88 24 56 35 10 78 31 85 31 86
REMARK Flexibility Score: inf
ROOT
ATOM      1  C   UNL A   1      33.229  29.663  25.960  1.00  0.00     0.021 C 
ENDROOT
BRANCH   1   2
ATOM      2  C   UNL A   1      32.614  30.360  27.171  1.00  0.00     0.116 C 
BRANCH   2   3
ATOM      3  N   UNL A   1      32.763  31.802  27.103  1.00  0.00    -0.352 N 
ATOM      4  O   UNL A   1      33.565  33.828  27.634  1.00  0.00    -0.269 OA
ATOM      5  C   UNL A   1      33.738  32.611  27.627  1.00  0.00     0.251 C 
ATOM      6  H   UNL A   1      32.056  32.271  26.605  1.00  0.00     0.163 HD
BRANCH   5   7
ATOM      7  C   UNL A   1      34.987  32.043  28.182  1.00  0.00     0.039 A 
ATOM      8  C   UNL A   1      34.937  30.780  28.780  1.00  0.00     0.014 A 
ATOM      9  C   UNL A   1      36.184  32.768  28.188  1.00  0.00     0.014 A 
ATOM     10  C   UNL A   1      36.082  30.242  29.368  1.00  0.00     0.010 A 
ATOM     11  C   UNL A   1      37.344  32.199  28.718  1.00  0.00     0.010 A 
ATOM     12  C   UNL A   1      37.299  30.943  29.337  1.00  0.00    -0.014 A 
BRANCH  12  13
ATOM     13  C   UNL A   1      38.509  30.386  29.998  1.00  0.00     0.031 A 
ATOM     14  C   UNL A   1      38.878  30.818  31.394  1.00  0.00     0.074 A 
ATOM     15  C   UNL A   1      39.287  29.503  29.340  1.00  0.00     0.049 A 
ATOM     16  N   UNL A   1      39.889  30.434  32.130  1.00  0.00    -0.248 NA
ATOM     17  C   UNL A   1      38.015  31.819  32.044  1.00  0.00     0.031 C 
ATOM     18  C   UNL A   1      39.075  29.053  27.962  1.00  0.00     0.029 A 
ATOM     19  N   UNL A   1      40.416  28.832  29.739  1.00  0.00    -0.354 N 
ATOM     20  C   UNL A   1      39.800  31.163  33.308  1.00  0.00     0.074 A 
ATOM     21  C   UNL A   1      38.655  32.035  33.185  1.00  0.00     0.031 C 
ATOM     22  C   UNL A   1      40.028  28.163  27.641  1.00  0.00     0.029 A 
ATOM     23  C   UNL A   1      40.930  27.993  28.777  1.00  0.00     0.049 A 
ATOM     24  H   UNL A   1      40.820  28.940  30.630  1.00  0.00     0.167 HD
ATOM     25  C   UNL A   1      40.578  31.087  34.411  1.00  0.00     0.034 A 
ATOM     26  C   UNL A   1      41.999  27.172  28.808  1.00  0.00     0.034 A 
ATOM     27  C   UNL A   1      41.669  30.166  34.570  1.00  0.00     0.049 A 
ATOM     28  C   UNL A   1      42.813  27.065  30.067  1.00  0.00     0.074 A 
ATOM     29  C   UNL A   1      42.460  29.963  35.687  1.00  0.00     0.029 A 
ATOM     30  N   UNL A   1      42.113  29.290  33.596  1.00  0.00    -0.354 N 
ATOM     31  N   UNL A   1      42.638  27.679  31.211  1.00  0.00    -0.248 NA
ATOM     32  C   UNL A   1      43.952  26.133  30.055  1.00  0.00     0.031 C 
ATOM     33  C   UNL A   1      43.385  28.961  35.387  1.00  0.00     0.029 A 
ATOM     34  C   UNL A   1      43.165  28.540  34.086  1.00  0.00     0.049 A 
ATOM     35  H   UNL A   1      41.736  29.213  32.689  1.00  0.00     0.167 HD
ATOM     36  C   UNL A   1      43.625  27.194  32.060  1.00  0.00     0.074 A 
ATOM     37  C   UNL A   1      44.390  26.224  31.305  1.00  0.00     0.031 C 
ATOM     38  C   UNL A   1      43.880  27.535  33.344  1.00  0.00     0.034 A 
BRANCH  25  39
ATOM     39  C   UNL A   1      40.237  31.957  35.588  1.00  0.00     0.023 A 
ATOM     40  C   UNL A   1      40.938  33.165  35.769  1.00  0.00     0.012 A 
ATOM     41  C   UNL A   1      39.145  31.652  36.424  1.00  0.00     0.148 A 
ATOM     42  C   UNL A   1      40.561  34.059  36.769  1.00  0.00     0.002 A 
ATOM     43  C   UNL A   1      38.756  32.562  37.400  1.00  0.00     0.091 A 
ATOM     44  F   UNL A   1      38.500  30.492  36.233  1.00  0.00    -0.205 F 
ATOM     45  C   UNL A   1      39.464  33.763  37.575  1.00  0.00     0.022 A 
BRANCH  43  46
ATOM     46  S   UNL A   1      37.325  32.308  38.455  1.00  0.00     0.127 S 
ATOM     47  O   UNL A   1      37.748  32.969  39.689  1.00  0.00    -0.237 OA
ATOM     48  O   UNL A   1      36.274  33.009  37.717  1.00  0.00    -0.237 OA
ATOM     49  O   UNL A   1      37.149  30.867  38.560  1.00  0.00    -0.744 OA
ENDBRANCH  43  46
ENDBRANCH  25  39
BRANCH  26  50
ATOM     50  C   UNL A   1      42.307  26.328  27.621  1.00  0.00     0.023 A 
ATOM     51  C   UNL A   1      43.083  26.864  26.577  1.00  0.00     0.012 A 
ATOM     52  C   UNL A   1      41.891  24.984  27.555  1.00  0.00     0.148 A 
ATOM     53  C   UNL A   1      43.430  26.079  25.476  1.00  0.00     0.002 A 
ATOM     54  C   UNL A   1      42.274  24.196  26.476  1.00  0.00     0.091 A 
ATOM     55  F   UNL A   1      41.145  24.501  28.559  1.00  0.00    -0.205 F 
ATOM     56  C   UNL A   1      43.036  24.744  25.431  1.00  0.00     0.022 A 
BRANCH  54  57
ATOM     57  S   UNL A   1      41.907  22.439  26.386  1.00  0.00     0.127 S 
ATOM     58  O   UNL A   1      42.465  22.087  25.082  1.00  0.00    -0.237 OA
ATOM     59  O   UNL A   1      42.650  21.919  27.536  1.00  0.00    -0.237 OA
ATOM     60  O   UNL A   1      40.462  22.331  26.503  1.00  0.00    -0.744 OA
ENDBRANCH  54  57
ENDBRANCH  26  50
BRANCH  38  61
ATOM     61  C   UNL A   1      45.018  26.861  34.055  1.00  0.00     0.023 A 
ATOM     62  C   UNL A   1      46.287  27.470  34.047  1.00  0.00     0.012 A 
ATOM     63  C   UNL A   1      44.788  25.733  34.867  1.00  0.00     0.148 A 
ATOM     64  C   UNL A   1      47.315  26.966  34.842  1.00  0.00     0.002 A 
ATOM     65  C   UNL A   1      45.807  25.256  35.682  1.00  0.00     0.091 A 
ATOM     66  F   UNL A   1      43.569  25.177  34.852  1.00  0.00    -0.205 F 
ATOM     67  C   UNL A   1      47.072  25.869  35.668  1.00  0.00     0.022 A 
BRANCH  65  68
ATOM     68  S   UNL A   1      45.571  23.904  36.838  1.00  0.00     0.127 S 
ATOM     69  O   UNL A   1      44.536  24.444  37.720  1.00  0.00    -0.237 OA
ATOM     70  O   UNL A   1      45.122  22.823  35.960  1.00  0.00    -0.237 OA
ATOM     71  O   UNL A   1      46.864  23.679  37.471  1.00  0.00    -0.744 OA
ENDBRANCH  65  68
ENDBRANCH  38  61
ENDBRANCH  12  13
ENDBRANCH   5   7
ENDBRANCH   2   3
ENDBRANCH   1   2
BRANCH   1  72
ATOM     72  C   UNL A   1      33.942  28.338  26.256  1.00  0.00     0.002 C 
BRANCH  72  73
ATOM     73  C   UNL A   1      33.132  27.067  25.978  1.00  0.00     0.002 C 
BRANCH  73  74
ATOM     74  C   UNL A   1      31.870  26.904  26.826  1.00  0.00     0.021 C 
BRANCH  74  75
ATOM     75  C   UNL A   1      30.652  26.398  26.061  1.00  0.00     0.116 C 
BRANCH  75  76
ATOM     76  N   UNL A   1      30.191  25.124  26.577  1.00  0.00    -0.351 N 
ATOM     77  C   UNL A   1      30.276  23.864  26.052  1.00  0.00     0.278 C 
ATOM     78  H   UNL A   1      29.741  25.174  27.452  1.00  0.00     0.163 HD
ATOM     79  O   UNL A   1      29.722  22.950  26.670  1.00  0.00    -0.268 OA
BRANCH  77  80
ATOM     80  C   UNL A   1      31.017  23.590  24.722  1.00  0.00     0.277 C 
ATOM     81  C   UNL A   1      30.501  24.511  23.593  1.00  0.00     0.109 C 
ATOM     82  N   UNL A   1      32.476  23.556  24.974  1.00  0.00    -0.327 N 
ATOM     83  C   UNL A   1      31.631  25.204  22.911  1.00  0.00    -0.024 C 
ATOM     84  C   UNL A   1      33.305  23.460  23.745  1.00  0.00     0.243 C 
ATOM     85  H   UNL A   1      32.680  22.749  25.562  1.00  0.00     0.347 HD
ATOM     86  H   UNL A   1      32.715  24.441  25.420  1.00  0.00     0.347 HD
ATOM     87  C   UNL A   1      31.835  26.500  22.700  1.00  0.00     0.002 A 
ATOM     88  C   UNL A   1      32.839  24.383  22.543  1.00  0.00     0.196 C 
ATOM     89  C   UNL A   1      31.097  27.697  22.934  1.00  0.00     0.010 A 
ATOM     90  C   UNL A   1      33.231  26.524  22.239  1.00  0.00     0.066 A 
ATOM     91  N   UNL A   1      33.833  25.386  22.080  1.00  0.00    -0.270 NA
ATOM     92  C   UNL A   1      31.723  28.877  22.788  1.00  0.00     0.001 A 
ATOM     93  C   UNL A   1      33.845  27.859  22.077  1.00  0.00     0.028 A 
ATOM     94  C   UNL A   1      33.116  28.948  22.377  1.00  0.00     0.002 A 
BRANCH  84  95
ATOM     95  C   UNL A   1      34.768  23.467  24.194  1.00  0.00     0.012 A 
ATOM     96  C   UNL A   1      35.694  22.666  23.496  1.00  0.00     0.010 A 
ATOM     97  C   UNL A   1      35.230  24.128  25.342  1.00  0.00     0.010 A 
ATOM     98  C   UNL A   1      37.031  22.581  23.897  1.00  0.00     0.001 A 
ATOM     99  C   UNL A   1      36.571  24.069  25.729  1.00  0.00     0.001 A 
ATOM    100  C   UNL A   1      37.473  23.297  25.006  1.00  0.00     0.000 A 
ENDBRANCH  84  95
ENDBRANCH  77  80
ENDBRANCH  75  76
ENDBRANCH  74  75
ENDBRANCH  73  74
ENDBRANCH  72  73
ENDBRANCH   1  72
TORSDOF 17
ENDMDL
MODEL 2
REMARK VINA RESULT:     -12.3      2.478      3.842
REMARK SMILES O=C(NCCCCCCNC(=O)[C@H]1CC2=c3ccccc3=N[C@H]2[C@@H](c2ccccc2)[NH2+]1)c1ccc(-c2c3nc(c(-c4cccc(S(=O)(=O)[O-])c4F)c4ccc([nH]4)c(-c4cccc(S(=O)(=O)[O-])c4F)c4nc(c(-c5cccc(S(=O)(=O)[O-])c5F)c5ccc2[nH]5)C=C4)C=C3)cc1
REMARK SMILES IDX 5 1 4 2 3 3 1 4 2 5 32 7 33 8 94 9 34 10 93 11 35 12 36 13
REMARK SMILES IDX 37 14 87 15 38 16 92 17 86 18 88 19 39 20 91 21 85 22 84 23
REMARK SMILES IDX 40 25 72 26 52 27 71 28 53 29 56 30 70 31 89 32 54 33 55 34
REMARK SMILES IDX 69 36 90 37 57 38 41 39 42 40 50 41 43 42 45 43 51 44 44 45
REMARK SMILES IDX 46 46 47 47 48 48 49 49 73 50 74 51 82 52 75 53 77 54 83 55
REMARK SMILES IDX 76 56 78 57 79 58 80 59 81 60 58 61 59 62 67 63 60 64 62 65
REMARK SMILES IDX 68 66 61 67 63 68 64 69 65 70 66 71 6 72 7 73 8 74 9 75
REMARK SMILES IDX 10 76 11 77 12 79 13 80 14 81 31 82 15 83 24 84 16 87 23 88
REMARK SMILES IDX 17 89 21 90 22 91 18 92 20 93 19 94 25 95 26 96 30 97 27 98
REMARK SMILES IDX 29 99 28 100
REMARK H PARENT 3 6 88 24 56 35 10 78 31 85 31 86
REMARK Flexibility Score: inf
ROOT
ATOM      1  C   UNL A   1      32.864  27.812  25.634  1.00  0.00     0.021 C 
ENDROOT
BRANCH   1   2
ATOM      2  C   UNL A   1      34.043  28.385  26.416  1.00  0.00     0.116 C 
BRANCH   2   3
ATOM      3  N   UNL A   1      33.826  29.771  26.790  1.00  0.00    -0.352 N 
ATOM      4  O   UNL A   1      34.064  31.655  27.982  1.00  0.00    -0.269 OA
ATOM      5  C   UNL A   1      34.539  30.574  27.642  1.00  0.00     0.251 C 
ATOM      6  H   UNL A   1      33.047  30.199  26.368  1.00  0.00     0.163 HD
BRANCH   5   7
ATOM      7  C   UNL A   1      35.865  30.159  28.155  1.00  0.00     0.039 A 
ATOM      8  C   UNL A   1      36.984  30.348  27.339  1.00  0.00     0.014 A 
ATOM      9  C   UNL A   1      36.006  29.517  29.391  1.00  0.00     0.014 A 
ATOM     10  C   UNL A   1      38.239  29.911  27.765  1.00  0.00     0.010 A 
ATOM     11  C   UNL A   1      37.272  29.142  29.843  1.00  0.00     0.010 A 
ATOM     12  C   UNL A   1      38.397  29.309  29.024  1.00  0.00    -0.014 A 
BRANCH  12  13
ATOM     13  C   UNL A   1      39.727  28.809  29.462  1.00  0.00     0.031 A 
ATOM     14  C   UNL A   1      40.472  29.505  30.572  1.00  0.00     0.074 A 
ATOM     15  C   UNL A   1      40.274  27.737  28.854  1.00  0.00     0.049 A 
ATOM     16  N   UNL A   1      41.635  29.206  31.091  1.00  0.00    -0.248 NA
ATOM     17  C   UNL A   1      39.844  30.697  31.166  1.00  0.00     0.031 C 
ATOM     18  C   UNL A   1      39.684  27.013  27.726  1.00  0.00     0.029 A 
ATOM     19  N   UNL A   1      41.452  27.074  29.095  1.00  0.00    -0.354 N 
ATOM     20  C   UNL A   1      41.888  30.183  32.044  1.00  0.00     0.074 A 
ATOM     21  C   UNL A   1      40.775  31.104  32.018  1.00  0.00     0.031 C 
ATOM     22  C   UNL A   1      40.492  25.994  27.389  1.00  0.00     0.029 A 
ATOM     23  C   UNL A   1      41.664  26.001  28.260  1.00  0.00     0.049 A 
ATOM     24  H   UNL A   1      42.085  27.341  29.800  1.00  0.00     0.167 HD
ATOM     25  C   UNL A   1      42.935  30.285  32.894  1.00  0.00     0.034 A 
ATOM     26  C   UNL A   1      42.679  25.117  28.207  1.00  0.00     0.034 A 
ATOM     27  C   UNL A   1      44.004  29.330  32.980  1.00  0.00     0.049 A 
ATOM     28  C   UNL A   1      43.802  25.220  29.201  1.00  0.00     0.074 A 
ATOM     29  C   UNL A   1      45.063  29.311  33.869  1.00  0.00     0.029 A 
ATOM     30  N   UNL A   1      44.144  28.224  32.160  1.00  0.00    -0.354 N 
ATOM     31  N   UNL A   1      43.961  26.086  30.173  1.00  0.00    -0.248 NA
ATOM     32  C   UNL A   1      44.871  24.212  29.117  1.00  0.00     0.031 C 
ATOM     33  C   UNL A   1      45.847  28.190  33.586  1.00  0.00     0.029 A 
ATOM     34  C   UNL A   1      45.271  27.512  32.525  1.00  0.00     0.049 A 
ATOM     35  H   UNL A   1      43.533  27.982  31.426  1.00  0.00     0.167 HD
ATOM     36  C   UNL A   1      45.128  25.715  30.827  1.00  0.00     0.074 A 
ATOM     37  C   UNL A   1      45.635  24.539  30.153  1.00  0.00     0.031 C 
ATOM     38  C   UNL A   1      45.732  26.309  31.883  1.00  0.00     0.034 A 
BRANCH  25  39
ATOM     39  C   UNL A   1      42.948  31.421  33.878  1.00  0.00     0.023 A 
ATOM     40  C   UNL A   1      43.508  32.654  33.489  1.00  0.00     0.012 A 
ATOM     41  C   UNL A   1      42.293  31.313  35.121  1.00  0.00     0.148 A 
ATOM     42  C   UNL A   1      43.419  33.766  34.324  1.00  0.00     0.002 A 
ATOM     43  C   UNL A   1      42.183  32.434  35.935  1.00  0.00     0.091 A 
ATOM     44  F   UNL A   1      41.776  30.126  35.468  1.00  0.00    -0.205 F 
ATOM     45  C   UNL A   1      42.747  33.658  35.539  1.00  0.00     0.022 A 
BRANCH  43  46
ATOM     46  S   UNL A   1      41.292  32.422  37.494  1.00  0.00     0.127 S 
ATOM     47  O   UNL A   1      39.983  31.915  37.081  1.00  0.00    -0.237 OA
ATOM     48  O   UNL A   1      42.084  31.486  38.291  1.00  0.00    -0.237 OA
ATOM     49  O   UNL A   1      41.293  33.796  37.973  1.00  0.00    -0.744 OA
ENDBRANCH  43  46
ENDBRANCH  25  39
BRANCH  26  50
ATOM     50  C   UNL A   1      42.632  24.007  27.217  1.00  0.00     0.023 A 
ATOM     51  C   UNL A   1      43.236  24.180  25.958  1.00  0.00     0.012 A 
ATOM     52  C   UNL A   1      42.050  22.766  27.540  1.00  0.00     0.148 A 
ATOM     53  C   UNL A   1      43.252  23.139  25.029  1.00  0.00     0.002 A 
ATOM     54  C   UNL A   1      42.105  21.720  26.626  1.00  0.00     0.091 A 
ATOM     55  F   UNL A   1      41.473  22.630  28.742  1.00  0.00    -0.205 F 
ATOM     56  C   UNL A   1      42.697  21.907  25.366  1.00  0.00     0.022 A 
BRANCH  54  57
ATOM     57  S   UNL A   1      41.515  20.068  27.015  1.00  0.00     0.127 S 
ATOM     58  O   UNL A   1      42.719  19.445  27.564  1.00  0.00    -0.237 OA
ATOM     59  O   UNL A   1      40.465  20.349  27.996  1.00  0.00    -0.237 OA
ATOM     60  O   UNL A   1      41.035  19.514  25.760  1.00  0.00    -0.744 OA
ENDBRANCH  54  57
ENDBRANCH  26  50
BRANCH  38  61
ATOM     61  C   UNL A   1      47.003  25.712  32.414  1.00  0.00     0.023 A 
ATOM     62  C   UNL A   1      48.237  26.190  31.936  1.00  0.00     0.012 A 
ATOM     63  C   UNL A   1      46.974  24.816  33.501  1.00  0.00     0.148 A 
ATOM     64  C   UNL A   1      49.429  25.786  32.534  1.00  0.00     0.002 A 
ATOM     65  C   UNL A   1      48.164  24.443  34.114  1.00  0.00     0.091 A 
ATOM     66  F   UNL A   1      45.783  24.379  33.933  1.00  0.00    -0.205 F 
ATOM     67  C   UNL A   1      49.392  24.925  33.629  1.00  0.00     0.022 A 
BRANCH  65  68
ATOM     68  S   UNL A   1      48.217  23.405  35.578  1.00  0.00     0.127 S 
ATOM     69  O   UNL A   1      47.395  24.171  36.515  1.00  0.00    -0.237 OA
ATOM     70  O   UNL A   1      47.603  22.167  35.099  1.00  0.00    -0.237 OA
ATOM     71  O   UNL A   1      49.622  23.290  35.944  1.00  0.00    -0.744 OA
ENDBRANCH  65  68
ENDBRANCH  38  61
ENDBRANCH  12  13
ENDBRANCH   5   7
ENDBRANCH   2   3
ENDBRANCH   1   2
BRANCH   1  72
ATOM     72  C   UNL A   1      32.016  28.840  24.875  1.00  0.00     0.002 C 
BRANCH  72  73
ATOM     73  C   UNL A   1      31.462  28.380  23.522  1.00  0.00     0.002 C 
BRANCH  73  74
ATOM     74  C   UNL A   1      32.248  27.255  22.848  1.00  0.00     0.021 C 
BRANCH  74  75
ATOM     75  C   UNL A   1      31.386  26.164  22.222  1.00  0.00     0.116 C 
BRANCH  75  76
ATOM     76  N   UNL A   1      32.184  25.236  21.444  1.00  0.00    -0.351 N 
ATOM     77  C   UNL A   1      32.885  24.125  21.824  1.00  0.00     0.278 C 
ATOM     78  H   UNL A   1      32.228  25.439  20.481  1.00  0.00     0.163 HD
ATOM     79  O   UNL A   1      33.554  23.550  20.960  1.00  0.00    -0.268 OA
BRANCH  77  80
ATOM     80  C   UNL A   1      32.864  23.616  23.285  1.00  0.00     0.277 C 
ATOM     81  C   UNL A   1      31.873  22.443  23.455  1.00  0.00     0.109 C 
ATOM     82  N   UNL A   1      34.256  23.417  23.753  1.00  0.00    -0.327 N 
ATOM     83  C   UNL A   1      32.527  21.283  24.124  1.00  0.00    -0.024 C 
ATOM     84  C   UNL A   1      34.365  22.777  25.088  1.00  0.00     0.243 C 
ATOM     85  H   UNL A   1      34.711  24.329  23.796  1.00  0.00     0.347 HD
ATOM     86  H   UNL A   1      34.699  22.785  23.087  1.00  0.00     0.347 HD
ATOM     87  C   UNL A   1      32.621  20.015  23.735  1.00  0.00     0.002 A 
ATOM     88  C   UNL A   1      33.380  21.559  25.334  1.00  0.00     0.196 C 
ATOM     89  C   UNL A   1      32.116  19.244  22.648  1.00  0.00     0.010 A 
ATOM     90  C   UNL A   1      33.605  19.472  24.683  1.00  0.00     0.066 A 
ATOM     91  N   UNL A   1      34.030  20.255  25.626  1.00  0.00    -0.270 NA
ATOM     92  C   UNL A   1      32.607  18.010  22.452  1.00  0.00     0.001 A 
ATOM     93  C   UNL A   1      34.081  18.097  24.418  1.00  0.00     0.028 A 
ATOM     94  C   UNL A   1      33.614  17.447  23.337  1.00  0.00     0.002 A 
BRANCH  84  95
ATOM     95  C   UNL A   1      35.859  22.628  25.388  1.00  0.00     0.012 A 
ATOM     96  C   UNL A   1      36.532  23.695  26.015  1.00  0.00     0.010 A 
ATOM     97  C   UNL A   1      36.636  21.539  24.965  1.00  0.00     0.010 A 
ATOM     98  C   UNL A   1      37.908  23.644  26.259  1.00  0.00     0.001 A 
ATOM     99  C   UNL A   1      38.006  21.472  25.234  1.00  0.00     0.001 A 
ATOM    100  C   UNL A   1      38.642  22.524  25.882  1.00  0.00     0.000 A 
ENDBRANCH  84  95
ENDBRANCH  77  80
ENDBRANCH  75  76
ENDBRANCH  74  75
ENDBRANCH  73  74
ENDBRANCH  72  73
ENDBRANCH   1  72
TORSDOF 17
ENDMDL
MODEL 3
REMARK VINA RESULT:     -12.3      3.291      8.367
REMARK SMILES O=C(NCCCCCCNC(=O)[C@H]1CC2=c3ccccc3=N[C@H]2[C@@H](c2ccccc2)[NH2+]1)c1ccc(-c2c3nc(c(-c4cccc(S(=O)(=O)[O-])c4F)c4ccc([nH]4)c(-c4cccc(S(=O)(=O)[O-])c4F)c4nc(c(-c5cccc(S(=O)(=O)[O-])c5F)c5ccc2[nH]5)C=C4)C=C3)cc1
REMARK SMILES IDX 5 1 4 2 3 3 1 4 2 5 32 7 33 8 94 9 34 10 93 11 35 12 36 13
REMARK SMILES IDX 37 14 87 15 38 16 92 17 86 18 88 19 39 20 91 21 85 22 84 23
REMARK SMILES IDX 40 25 72 26 52 27 71 28 53 29 56 30 70 31 89 32 54 33 55 34
REMARK SMILES IDX 69 36 90 37 57 38 41 39 42 40 50 41 43 42 45 43 51 44 44 45
REMARK SMILES IDX 46 46 47 47 48 48 49 49 73 50 74 51 82 52 75 53 77 54 83 55
REMARK SMILES IDX 76 56 78 57 79 58 80 59 81 60 58 61 59 62 67 63 60 64 62 65
REMARK SMILES IDX 68 66 61 67 63 68 64 69 65 70 66 71 6 72 7 73 8 74 9 75
REMARK SMILES IDX 10 76 11 77 12 79 13 80 14 81 31 82 15 83 24 84 16 87 23 88
REMARK SMILES IDX 17 89 21 90 22 91 18 92 20 93 19 94 25 95 26 96 30 97 27 98
REMARK SMILES IDX 29 99 28 100
REMARK H PARENT 3 6 88 24 56 35 10 78 31 85 31 86
REMARK Flexibility Score: inf
ROOT
ATOM      1  C   UNL A   1      32.865  27.496  25.914  1.00  0.00     0.021 C 
ENDROOT
BRANCH   1   2
ATOM      2  C   UNL A   1      34.020  28.114  26.698  1.00  0.00     0.116 C 
BRANCH   2   3
ATOM      3  N   UNL A   1      33.832  29.538  26.912  1.00  0.00    -0.352 N 
ATOM      4  O   UNL A   1      34.123  31.543  27.872  1.00  0.00    -0.269 OA
ATOM      5  C   UNL A   1      34.574  30.422  27.651  1.00  0.00     0.251 C 
ATOM      6  H   UNL A   1      33.051  29.928  26.457  1.00  0.00     0.163 HD
BRANCH   5   7
ATOM      7  C   UNL A   1      35.904  30.046  28.184  1.00  0.00     0.039 A 
ATOM      8  C   UNL A   1      37.022  30.212  27.362  1.00  0.00     0.014 A 
ATOM      9  C   UNL A   1      36.049  29.462  29.448  1.00  0.00     0.014 A 
ATOM     10  C   UNL A   1      38.281  29.809  27.810  1.00  0.00     0.010 A 
ATOM     11  C   UNL A   1      37.319  29.122  29.919  1.00  0.00     0.010 A 
ATOM     12  C   UNL A   1      38.444  29.267  29.095  1.00  0.00    -0.014 A 
BRANCH  12  13
ATOM     13  C   UNL A   1      39.779  28.802  29.557  1.00  0.00     0.031 A 
ATOM     14  C   UNL A   1      40.421  27.593  28.927  1.00  0.00     0.074 A 
ATOM     15  C   UNL A   1      40.410  29.457  30.552  1.00  0.00     0.049 A 
ATOM     16  N   UNL A   1      41.580  27.048  29.194  1.00  0.00    -0.248 NA
ATOM     17  C   UNL A   1      39.662  26.893  27.877  1.00  0.00     0.031 C 
ATOM     18  C   UNL A   1      39.868  30.603  31.287  1.00  0.00     0.029 A 
ATOM     19  N   UNL A   1      41.642  29.249  31.122  1.00  0.00    -0.354 N 
ATOM     20  C   UNL A   1      41.675  25.934  28.371  1.00  0.00     0.074 A 
ATOM     21  C   UNL A   1      40.448  25.857  27.614  1.00  0.00     0.031 C 
ATOM     22  C   UNL A   1      40.773  31.010  32.192  1.00  0.00     0.029 A 
ATOM     23  C   UNL A   1      41.948  30.146  32.119  1.00  0.00     0.049 A 
ATOM     24  H   UNL A   1      42.249  28.527  30.842  1.00  0.00     0.167 HD
ATOM     25  C   UNL A   1      42.708  25.073  28.230  1.00  0.00     0.034 A 
ATOM     26  C   UNL A   1      43.053  30.268  32.882  1.00  0.00     0.034 A 
ATOM     27  C   UNL A   1      43.961  25.191  28.922  1.00  0.00     0.049 A 
ATOM     28  C   UNL A   1      44.209  29.331  32.664  1.00  0.00     0.074 A 
ATOM     29  C   UNL A   1      45.094  24.410  28.777  1.00  0.00     0.029 A 
ATOM     30  N   UNL A   1      44.251  26.152  29.874  1.00  0.00    -0.354 N 
ATOM     31  N   UNL A   1      44.321  28.356  31.795  1.00  0.00    -0.248 NA
ATOM     32  C   UNL A   1      45.401  29.526  33.504  1.00  0.00     0.031 C 
ATOM     33  C   UNL A   1      46.072  24.899  29.645  1.00  0.00     0.029 A 
ATOM     34  C   UNL A   1      45.548  25.987  30.323  1.00  0.00     0.049 A 
ATOM     35  H   UNL A   1      43.628  26.848  30.184  1.00  0.00     0.167 HD
ATOM     36  C   UNL A   1      45.599  27.838  31.967  1.00  0.00     0.074 A 
ATOM     37  C   UNL A   1      46.231  28.612  33.014  1.00  0.00     0.031 C 
ATOM     38  C   UNL A   1      46.186  26.802  31.323  1.00  0.00     0.034 A 
BRANCH  25  39
ATOM     39  C   UNL A   1      42.582  23.966  27.221  1.00  0.00     0.023 A 
ATOM     40  C   UNL A   1      43.081  24.168  25.920  1.00  0.00     0.012 A 
ATOM     41  C   UNL A   1      42.100  22.695  27.595  1.00  0.00     0.148 A 
ATOM     42  C   UNL A   1      43.102  23.122  25.000  1.00  0.00     0.002 A 
ATOM     43  C   UNL A   1      42.151  21.650  26.681  1.00  0.00     0.091 A 
ATOM     44  F   UNL A   1      41.625  22.534  28.838  1.00  0.00    -0.205 F 
ATOM     45  C   UNL A   1      42.648  21.862  25.384  1.00  0.00     0.022 A 
BRANCH  43  46
ATOM     46  S   UNL A   1      41.646  19.975  27.087  1.00  0.00     0.127 S 
ATOM     47  O   UNL A   1      40.544  20.217  28.019  1.00  0.00    -0.237 OA
ATOM     48  O   UNL A   1      41.238  19.454  25.783  1.00  0.00    -0.237 OA
ATOM     49  O   UNL A   1      42.812  19.330  27.672  1.00  0.00    -0.744 OA
ENDBRANCH  43  46
ENDBRANCH  25  39
BRANCH  26  50
ATOM     50  C   UNL A   1      43.140  31.375  33.871  1.00  0.00     0.023 A 
ATOM     51  C   UNL A   1      43.702  32.605  33.481  1.00  0.00     0.012 A 
ATOM     52  C   UNL A   1      42.614  31.237  35.170  1.00  0.00     0.148 A 
ATOM     53  C   UNL A   1      43.751  33.678  34.373  1.00  0.00     0.002 A 
ATOM     54  C   UNL A   1      42.627  32.321  36.040  1.00  0.00     0.091 A 
ATOM     55  F   UNL A   1      42.092  30.053  35.519  1.00  0.00    -0.205 F 
ATOM     56  C   UNL A   1      43.204  33.540  35.646  1.00  0.00     0.022 A 
BRANCH  54  57
ATOM     57  S   UNL A   1      41.849  32.269  37.658  1.00  0.00     0.127 S 
ATOM     58  O   UNL A   1      42.616  31.216  38.322  1.00  0.00    -0.237 OA
ATOM     59  O   UNL A   1      42.104  33.623  38.156  1.00  0.00    -0.237 OA
ATOM     60  O   UNL A   1      40.448  31.972  37.414  1.00  0.00    -0.744 OA
ENDBRANCH  54  57
ENDBRANCH  26  50
BRANCH  38  61
ATOM     61  C   UNL A   1      47.592  26.429  31.695  1.00  0.00     0.023 A 
ATOM     62  C   UNL A   1      47.804  25.518  32.747  1.00  0.00     0.012 A 
ATOM     63  C   UNL A   1      48.677  26.838  30.895  1.00  0.00     0.148 A 
ATOM     64  C   UNL A   1      49.079  25.016  32.998  1.00  0.00     0.002 A 
ATOM     65  C   UNL A   1      49.939  26.308  31.129  1.00  0.00     0.091 A 
ATOM     66  F   UNL A   1      48.442  27.706  29.901  1.00  0.00    -0.205 F 
ATOM     67  C   UNL A   1      50.142  25.400  32.182  1.00  0.00     0.022 A 
BRANCH  65  68
ATOM     68  S   UNL A   1      51.354  26.676  30.087  1.00  0.00     0.127 S 
ATOM     69  O   UNL A   1      50.920  26.140  28.797  1.00  0.00    -0.237 OA
ATOM     70  O   UNL A   1      51.413  28.136  30.152  1.00  0.00    -0.237 OA
ATOM     71  O   UNL A   1      52.491  25.991  30.687  1.00  0.00    -0.744 OA
ENDBRANCH  65  68
ENDBRANCH  38  61
ENDBRANCH  12  13
ENDBRANCH   5   7
ENDBRANCH   2   3
ENDBRANCH   1   2
BRANCH   1  72
ATOM     72  C   UNL A   1      33.250  26.853  24.576  1.00  0.00     0.002 C 
BRANCH  72  73
ATOM     73  C   UNL A   1      33.797  27.809  23.509  1.00  0.00     0.002 C 
BRANCH  73  74
ATOM     74  C   UNL A   1      33.380  27.486  22.074  1.00  0.00     0.021 C 
BRANCH  74  75
ATOM     75  C   UNL A   1      32.241  26.479  21.955  1.00  0.00     0.116 C 
BRANCH  75  76
ATOM     76  N   UNL A   1      32.633  25.320  21.177  1.00  0.00    -0.351 N 
ATOM     77  C   UNL A   1      32.998  24.063  21.573  1.00  0.00     0.278 C 
ATOM     78  H   UNL A   1      32.637  25.461  20.203  1.00  0.00     0.163 HD
ATOM     79  O   UNL A   1      33.368  23.275  20.696  1.00  0.00    -0.268 OA
BRANCH  77  80
ATOM     80  C   UNL A   1      32.975  23.643  23.061  1.00  0.00     0.277 C 
ATOM     81  C   UNL A   1      31.969  22.495  23.304  1.00  0.00     0.109 C 
ATOM     82  N   UNL A   1      34.365  23.456  23.538  1.00  0.00    -0.327 N 
ATOM     83  C   UNL A   1      32.611  21.369  24.040  1.00  0.00    -0.024 C 
ATOM     84  C   UNL A   1      34.469  22.896  24.909  1.00  0.00     0.243 C 
ATOM     85  H   UNL A   1      34.831  24.362  23.525  1.00  0.00     0.347 HD
ATOM     86  H   UNL A   1      34.799  22.779  22.911  1.00  0.00     0.347 HD
ATOM     87  C   UNL A   1      32.688  20.080  23.729  1.00  0.00     0.002 A 
ATOM     88  C   UNL A   1      33.470  21.707  25.231  1.00  0.00     0.196 C 
ATOM     89  C   UNL A   1      32.171  19.251  22.691  1.00  0.00     0.010 A 
ATOM     90  C   UNL A   1      33.668  19.583  24.706  1.00  0.00     0.066 A 
ATOM     91  N   UNL A   1      34.104  20.416  25.600  1.00  0.00    -0.270 NA
ATOM     92  C   UNL A   1      32.646  18.001  22.570  1.00  0.00     0.001 A 
ATOM     93  C   UNL A   1      34.125  18.188  24.524  1.00  0.00     0.028 A 
ATOM     94  C   UNL A   1      33.648  17.480  23.486  1.00  0.00     0.002 A 
BRANCH  84  95
ATOM     95  C   UNL A   1      35.962  22.746  25.216  1.00  0.00     0.012 A 
ATOM     96  C   UNL A   1      36.629  21.586  24.776  1.00  0.00     0.010 A 
ATOM     97  C   UNL A   1      36.687  23.638  26.020  1.00  0.00     0.010 A 
ATOM     98  C   UNL A   1      37.976  21.363  25.079  1.00  0.00     0.001 A 
ATOM     99  C   UNL A   1      38.040  23.433  26.301  1.00  0.00     0.001 A 
ATOM    100  C   UNL A   1      38.686  22.296  25.829  1.00  0.00     0.000 A 
ENDBRANCH  84  95
ENDBRANCH  77  80
ENDBRANCH  75  76
ENDBRANCH  74  75
ENDBRANCH  73  74
ENDBRANCH  72  73
ENDBRANCH   1  72
TORSDOF 17
ENDMDL
