MODEL 1
REMARK VINA RESULT:     -12.3      0.000      0.000
REMARK SMILES Cc1ccccc1[C@@H](Cc1c(Cl)cccc1Cl)C(=O)NCCCCCCNC(=O)c1ccc(-c2c3nc(c(-c4cccc(S(=O)(=O)[O-])c4F)c4ccc([nH]4)c(-c4cccc(S(=O)(=O)[O-])c4F)c4nc(c(-c5cccc(S(=O)(=O)[O-])c5F)c5ccc2[nH]5)C=C4)C=C3)cc1
REMARK SMILES IDX 24 1 23 2 22 3 21 4 20 5 18 6 19 7 8 9 7 10 1 11 2 12 3 13
REMARK SMILES IDX 4 14 6 15 5 16 9 17 10 18 11 19 16 20 12 21 13 22 15 23
REMARK SMILES IDX 17 24 14 25 25 26 26 27 27 28 28 29 29 31 30 32 31 33 92 34
REMARK SMILES IDX 32 35 91 36 33 37 34 38 35 39 85 40 36 41 90 42 84 43 86 44
REMARK SMILES IDX 37 45 89 46 83 47 82 48 38 50 70 51 50 52 69 53 51 54 54 55
REMARK SMILES IDX 68 56 87 57 52 58 53 59 67 61 88 62 55 63 39 64 40 65 48 66
REMARK SMILES IDX 41 67 43 68 49 69 42 70 44 71 45 72 46 73 47 74 71 75 72 76
REMARK SMILES IDX 80 77 73 78 75 79 81 80 74 81 76 82 77 83 78 84 79 85 56 86
REMARK SMILES IDX 57 87 65 88 58 89 60 90 66 91 59 92 61 93 62 94 63 95 64 96
REMARK H PARENT 20 8 27 30 86 49 54 60
REMARK Flexibility Score: inf
ROOT
ATOM      1  C   UNL A   1      32.473  29.092  25.123  1.00  0.00     0.002 C 
ENDROOT
BRANCH   1   2
ATOM      2  C   UNL A   1      31.584  27.910  25.547  1.00  0.00     0.002 C 
BRANCH   2   3
ATOM      3  C   UNL A   1      30.639  27.371  24.466  1.00  0.00     0.021 C 
BRANCH   3   4
ATOM      4  C   UNL A   1      31.041  25.994  23.929  1.00  0.00     0.116 C 
BRANCH   4   5
ATOM      5  N   UNL A   1      31.956  26.149  22.825  1.00  0.00    -0.356 N 
ATOM      6  C   UNL A   1      33.069  25.444  22.503  1.00  0.00     0.227 C 
ATOM      7  O   UNL A   1      33.889  26.028  21.783  1.00  0.00    -0.274 OA
ATOM      8  H   UNL A   1      31.737  26.882  22.207  1.00  0.00     0.163 HD
BRANCH   6   9
ATOM      9  C   UNL A   1      33.327  23.992  22.947  1.00  0.00     0.113 C 
BRANCH   9  10
ATOM     10  C   UNL A   1      34.705  23.844  23.619  1.00  0.00    -0.032 A 
ATOM     11  C   UNL A   1      34.176  25.477  25.559  1.00  0.00     0.044 C 
ATOM     12  C   UNL A   1      35.023  24.448  24.859  1.00  0.00    -0.047 A 
ATOM     13  C   UNL A   1      36.206  24.071  25.533  1.00  0.00     0.004 A 
ATOM     14  C   UNL A   1      37.099  23.161  24.980  1.00  0.00     0.000 A 
ATOM     15  C   UNL A   1      35.677  22.996  23.048  1.00  0.00     0.005 A 
ATOM     16  C   UNL A   1      36.850  22.646  23.720  1.00  0.00     0.000 A 
ENDBRANCH   9  10
BRANCH   9  17
ATOM     17  C   UNL A   1      32.174  23.205  23.626  1.00  0.00     0.057 C 
BRANCH  17  18
ATOM     18  C   UNL A   1      32.382  21.811  24.225  1.00  0.00    -0.010 A 
ATOM     19  C   UNL A   1      32.327  20.680  23.373  1.00  0.00     0.045 A 
ATOM     20  C   UNL A   1      32.585  21.536  25.592  1.00  0.00     0.045 A 
ATOM     21  Cl  UNL A   1      31.851  20.791  21.709  1.00  0.00    -0.084 Cl
ATOM     22  C   UNL A   1      32.610  19.385  23.835  1.00  0.00     0.021 A 
ATOM     23  C   UNL A   1      32.922  20.248  26.040  1.00  0.00     0.021 A 
ATOM     24  Cl  UNL A   1      32.308  22.684  26.853  1.00  0.00    -0.084 Cl
ATOM     25  C   UNL A   1      32.953  19.173  25.161  1.00  0.00     0.003 A 
ENDBRANCH  17  18
ENDBRANCH   9  17
ENDBRANCH   6   9
ENDBRANCH   4   5
ENDBRANCH   3   4
ENDBRANCH   2   3
ENDBRANCH   1   2
BRANCH   1  26
ATOM     26  C   UNL A   1      33.685  29.368  26.015  1.00  0.00     0.021 C 
BRANCH  26  27
ATOM     27  C   UNL A   1      33.343  30.121  27.292  1.00  0.00     0.116 C 
BRANCH  27  28
ATOM     28  N   UNL A   1      34.138  31.319  27.481  1.00  0.00    -0.352 N 
ATOM     29  C   UNL A   1      35.394  31.460  28.040  1.00  0.00     0.251 C 
ATOM     30  H   UNL A   1      33.723  32.154  27.165  1.00  0.00     0.163 HD
ATOM     31  O   UNL A   1      35.783  32.587  28.332  1.00  0.00    -0.269 OA
BRANCH  29  32
ATOM     32  C   UNL A   1      36.295  30.287  28.143  1.00  0.00     0.039 A 
ATOM     33  C   UNL A   1      36.406  29.673  29.397  1.00  0.00     0.014 A 
ATOM     34  C   UNL A   1      37.173  29.942  27.118  1.00  0.00     0.014 A 
ATOM     35  C   UNL A   1      37.540  28.925  29.702  1.00  0.00     0.010 A 
ATOM     36  C   UNL A   1      38.330  29.264  27.434  1.00  0.00     0.010 A 
ATOM     37  C   UNL A   1      38.542  28.830  28.746  1.00  0.00    -0.014 A 
BRANCH  37  38
ATOM     38  C   UNL A   1      39.877  28.327  29.008  1.00  0.00     0.031 A 
ATOM     39  C   UNL A   1      40.200  26.918  28.749  1.00  0.00     0.074 A 
ATOM     40  C   UNL A   1      40.841  29.223  29.317  1.00  0.00     0.049 A 
ATOM     41  N   UNL A   1      41.286  26.352  29.149  1.00  0.00    -0.248 NA
ATOM     42  C   UNL A   1      39.290  26.012  28.053  1.00  0.00     0.031 C 
ATOM     43  C   UNL A   1      42.283  29.062  29.206  1.00  0.00     0.029 A 
ATOM     44  N   UNL A   1      40.684  30.418  30.029  1.00  0.00    -0.354 N 
ATOM     45  C   UNL A   1      41.378  25.166  28.463  1.00  0.00     0.074 A 
ATOM     46  C   UNL A   1      40.051  24.917  27.962  1.00  0.00     0.031 C 
ATOM     47  C   UNL A   1      42.879  29.932  30.038  1.00  0.00     0.029 A 
ATOM     48  C   UNL A   1      41.825  30.521  30.846  1.00  0.00     0.049 A 
ATOM     49  H   UNL A   1      39.935  31.052  29.970  1.00  0.00     0.167 HD
ATOM     50  C   UNL A   1      42.614  24.649  28.233  1.00  0.00     0.034 A 
ATOM     51  C   UNL A   1      41.776  30.506  32.213  1.00  0.00     0.034 A 
ATOM     52  C   UNL A   1      43.622  25.305  29.078  1.00  0.00     0.049 A 
ATOM     53  C   UNL A   1      42.621  29.402  32.830  1.00  0.00     0.074 A 
ATOM     54  C   UNL A   1      44.635  26.217  28.832  1.00  0.00     0.029 A 
ATOM     55  N   UNL A   1      43.487  25.239  30.463  1.00  0.00    -0.354 N 
ATOM     56  N   UNL A   1      43.197  28.450  32.150  1.00  0.00    -0.248 NA
ATOM     57  C   UNL A   1      42.860  29.267  34.264  1.00  0.00     0.031 C 
ATOM     58  C   UNL A   1      45.019  26.789  30.079  1.00  0.00     0.029 A 
ATOM     59  C   UNL A   1      44.283  26.186  31.086  1.00  0.00     0.049 A 
ATOM     60  H   UNL A   1      42.904  24.603  30.935  1.00  0.00     0.167 HD
ATOM     61  C   UNL A   1      43.753  27.529  32.999  1.00  0.00     0.074 A 
ATOM     62  C   UNL A   1      43.588  28.135  34.311  1.00  0.00     0.031 C 
ATOM     63  C   UNL A   1      44.238  26.328  32.542  1.00  0.00     0.034 A 
BRANCH  50  64
ATOM     64  C   UNL A   1      42.970  23.696  27.104  1.00  0.00     0.023 A 
ATOM     65  C   UNL A   1      43.650  24.240  25.991  1.00  0.00     0.012 A 
ATOM     66  C   UNL A   1      42.591  22.333  26.986  1.00  0.00     0.148 A 
ATOM     67  C   UNL A   1      43.930  23.490  24.840  1.00  0.00     0.002 A 
ATOM     68  C   UNL A   1      42.943  21.563  25.873  1.00  0.00     0.091 A 
ATOM     69  F   UNL A   1      41.786  21.773  27.892  1.00  0.00    -0.205 F 
ATOM     70  C   UNL A   1      43.597  22.145  24.788  1.00  0.00     0.022 A 
BRANCH  68  71
ATOM     71  S   UNL A   1      42.595  19.795  25.785  1.00  0.00     0.127 S 
ATOM     72  O   UNL A   1      43.547  19.343  24.772  1.00  0.00    -0.237 OA
ATOM     73  O   UNL A   1      42.895  19.346  27.145  1.00  0.00    -0.237 OA
ATOM     74  O   UNL A   1      41.189  19.678  25.416  1.00  0.00    -0.744 OA
ENDBRANCH  68  71
ENDBRANCH  50  64
BRANCH  51  75
ATOM     75  C   UNL A   1      40.485  31.024  32.764  1.00  0.00     0.023 A 
ATOM     76  C   UNL A   1      39.523  30.056  33.144  1.00  0.00     0.012 A 
ATOM     77  C   UNL A   1      40.384  32.321  33.296  1.00  0.00     0.148 A 
ATOM     78  C   UNL A   1      38.603  30.319  34.160  1.00  0.00     0.002 A 
ATOM     79  C   UNL A   1      39.449  32.582  34.298  1.00  0.00     0.091 A 
ATOM     80  F   UNL A   1      41.248  33.257  32.882  1.00  0.00    -0.205 F 
ATOM     81  C   UNL A   1      38.595  31.570  34.767  1.00  0.00     0.022 A 
BRANCH  79  82
ATOM     82  S   UNL A   1      39.385  34.185  35.111  1.00  0.00     0.127 S 
ATOM     83  O   UNL A   1      40.761  34.332  35.576  1.00  0.00    -0.237 OA
ATOM     84  O   UNL A   1      39.007  35.085  34.022  1.00  0.00    -0.237 OA
ATOM     85  O   UNL A   1      38.365  34.033  36.137  1.00  0.00    -0.744 OA
ENDBRANCH  79  82
ENDBRANCH  51  75
BRANCH  63  86
ATOM     86  C   UNL A   1      44.681  25.149  33.402  1.00  0.00     0.023 A 
ATOM     87  C   UNL A   1      43.888  24.003  33.599  1.00  0.00     0.012 A 
ATOM     88  C   UNL A   1      45.997  25.098  33.939  1.00  0.00     0.148 A 
ATOM     89  C   UNL A   1      44.344  22.895  34.325  1.00  0.00     0.002 A 
ATOM     90  C   UNL A   1      46.486  23.950  34.558  1.00  0.00     0.091 A 
ATOM     91  F   UNL A   1      46.790  26.178  33.877  1.00  0.00    -0.205 F 
ATOM     92  C   UNL A   1      45.653  22.855  34.783  1.00  0.00     0.022 A 
BRANCH  90  93
ATOM     93  S   UNL A   1      48.237  23.776  34.942  1.00  0.00     0.127 S 
ATOM     94  O   UNL A   1      48.352  22.343  35.198  1.00  0.00    -0.237 OA
ATOM     95  O   UNL A   1      48.878  24.226  33.704  1.00  0.00    -0.237 OA
ATOM     96  O   UNL A   1      48.465  24.655  36.081  1.00  0.00    -0.744 OA
ENDBRANCH  90  93
ENDBRANCH  63  86
ENDBRANCH  37  38
ENDBRANCH  29  32
ENDBRANCH  27  28
ENDBRANCH  26  27
ENDBRANCH   1  26
TORSDOF 19
ENDMDL
MODEL 2
REMARK VINA RESULT:     -12.1      3.784      9.828
REMARK SMILES Cc1ccccc1[C@@H](Cc1c(Cl)cccc1Cl)C(=O)NCCCCCCNC(=O)c1ccc(-c2c3nc(c(-c4cccc(S(=O)(=O)[O-])c4F)c4ccc([nH]4)c(-c4cccc(S(=O)(=O)[O-])c4F)c4nc(c(-c5cccc(S(=O)(=O)[O-])c5F)c5ccc2[nH]5)C=C4)C=C3)cc1
REMARK SMILES IDX 24 1 23 2 22 3 21 4 20 5 18 6 19 7 8 9 7 10 1 11 2 12 3 13
REMARK SMILES IDX 4 14 6 15 5 16 9 17 10 18 11 19 16 20 12 21 13 22 15 23
REMARK SMILES IDX 17 24 14 25 25 26 26 27 27 28 28 29 29 31 30 32 31 33 92 34
REMARK SMILES IDX 32 35 91 36 33 37 34 38 35 39 85 40 36 41 90 42 84 43 86 44
REMARK SMILES IDX 37 45 89 46 83 47 82 48 38 50 70 51 50 52 69 53 51 54 54 55
REMARK SMILES IDX 68 56 87 57 52 58 53 59 67 61 88 62 55 63 39 64 40 65 48 66
REMARK SMILES IDX 41 67 43 68 49 69 42 70 44 71 45 72 46 73 47 74 71 75 72 76
REMARK SMILES IDX 80 77 73 78 75 79 81 80 74 81 76 82 77 83 78 84 79 85 56 86
REMARK SMILES IDX 57 87 65 88 58 89 60 90 66 91 59 92 61 93 62 94 63 95 64 96
REMARK H PARENT 20 8 27 30 86 49 54 60
REMARK Flexibility Score: inf
ROOT
ATOM      1  C   UNL A   1      36.616  22.379  23.749  1.00  0.00     0.002 C 
ENDROOT
BRANCH   1   2
ATOM      2  C   UNL A   1      35.222  22.968  23.474  1.00  0.00     0.002 C 
BRANCH   2   3
ATOM      3  C   UNL A   1      34.053  22.250  24.161  1.00  0.00     0.021 C 
BRANCH   3   4
ATOM      4  C   UNL A   1      32.739  23.036  24.118  1.00  0.00     0.116 C 
BRANCH   4   5
ATOM      5  N   UNL A   1      32.125  23.032  25.423  1.00  0.00    -0.356 N 
ATOM      6  C   UNL A   1      31.672  24.060  26.184  1.00  0.00     0.227 C 
ATOM      7  O   UNL A   1      31.593  23.839  27.399  1.00  0.00    -0.274 OA
ATOM      8  H   UNL A   1      32.017  22.140  25.825  1.00  0.00     0.163 HD
BRANCH   6   9
ATOM      9  C   UNL A   1      31.233  25.422  25.616  1.00  0.00     0.113 C 
BRANCH   9  10
ATOM     10  C   UNL A   1      31.991  26.583  26.286  1.00  0.00    -0.032 A 
ATOM     11  C   UNL A   1      34.321  25.843  25.428  1.00  0.00     0.044 C 
ATOM     12  C   UNL A   1      33.376  26.807  26.096  1.00  0.00    -0.047 A 
ATOM     13  C   UNL A   1      33.951  28.020  26.533  1.00  0.00     0.004 A 
ATOM     14  C   UNL A   1      33.201  28.981  27.202  1.00  0.00     0.000 A 
ATOM     15  C   UNL A   1      31.284  27.537  27.047  1.00  0.00     0.005 A 
ATOM     16  C   UNL A   1      31.871  28.726  27.487  1.00  0.00     0.000 A 
ENDBRANCH   9  10
BRANCH   9  17
ATOM     17  C   UNL A   1      31.036  25.561  24.082  1.00  0.00     0.057 C 
BRANCH  17  18
ATOM     18  C   UNL A   1      30.749  26.910  23.418  1.00  0.00    -0.010 A 
ATOM     19  C   UNL A   1      29.425  27.417  23.429  1.00  0.00     0.045 A 
ATOM     20  C   UNL A   1      31.698  27.698  22.736  1.00  0.00     0.045 A 
ATOM     21  Cl  UNL A   1      28.078  26.487  24.003  1.00  0.00    -0.084 Cl
ATOM     22  C   UNL A   1      29.111  28.690  22.930  1.00  0.00     0.021 A 
ATOM     23  C   UNL A   1      31.391  28.994  22.288  1.00  0.00     0.021 A 
ATOM     24  Cl  UNL A   1      33.256  27.124  22.258  1.00  0.00    -0.084 Cl
ATOM     25  C   UNL A   1      30.103  29.500  22.401  1.00  0.00     0.003 A 
ENDBRANCH  17  18
ENDBRANCH   9  17
ENDBRANCH   6   9
ENDBRANCH   4   5
ENDBRANCH   3   4
ENDBRANCH   2   3
ENDBRANCH   1   2
BRANCH   1  26
ATOM     26  C   UNL A   1      37.457  23.116  24.792  1.00  0.00     0.021 C 
BRANCH  26  27
ATOM     27  C   UNL A   1      37.654  22.332  26.082  1.00  0.00     0.116 C 
BRANCH  27  28
ATOM     28  N   UNL A   1      39.049  22.143  26.431  1.00  0.00    -0.352 N 
ATOM     29  C   UNL A   1      40.032  23.086  26.658  1.00  0.00     0.251 C 
ATOM     30  H   UNL A   1      39.336  21.206  26.518  1.00  0.00     0.163 HD
ATOM     31  O   UNL A   1      41.203  22.716  26.695  1.00  0.00    -0.269 OA
BRANCH  29  32
ATOM     32  C   UNL A   1      39.658  24.481  26.994  1.00  0.00     0.039 A 
ATOM     33  C   UNL A   1      40.250  25.502  26.240  1.00  0.00     0.014 A 
ATOM     34  C   UNL A   1      38.941  24.792  28.148  1.00  0.00     0.014 A 
ATOM     35  C   UNL A   1      40.349  26.785  26.772  1.00  0.00     0.010 A 
ATOM     36  C   UNL A   1      39.098  26.039  28.712  1.00  0.00     0.010 A 
ATOM     37  C   UNL A   1      39.870  27.003  28.058  1.00  0.00    -0.014 A 
BRANCH  37  38
ATOM     38  C   UNL A   1      40.144  28.192  28.840  1.00  0.00     0.031 A 
ATOM     39  C   UNL A   1      39.246  29.351  28.763  1.00  0.00     0.074 A 
ATOM     40  C   UNL A   1      41.130  28.129  29.762  1.00  0.00     0.049 A 
ATOM     41  N   UNL A   1      39.531  30.506  29.258  1.00  0.00    -0.248 NA
ATOM     42  C   UNL A   1      37.960  29.312  28.071  1.00  0.00     0.031 C 
ATOM     43  C   UNL A   1      41.324  28.979  30.929  1.00  0.00     0.029 A 
ATOM     44  N   UNL A   1      42.313  27.386  29.682  1.00  0.00    -0.354 N 
ATOM     45  C   UNL A   1      38.356  31.218  29.277  1.00  0.00     0.074 A 
ATOM     46  C   UNL A   1      37.481  30.524  28.368  1.00  0.00     0.031 C 
ATOM     47  C   UNL A   1      42.616  28.927  31.289  1.00  0.00     0.029 A 
ATOM     48  C   UNL A   1      43.312  28.206  30.237  1.00  0.00     0.049 A 
ATOM     49  H   UNL A   1      42.424  26.479  29.315  1.00  0.00     0.167 HD
ATOM     50  C   UNL A   1      38.207  32.189  30.217  1.00  0.00     0.034 A 
ATOM     51  C   UNL A   1      44.378  28.683  29.524  1.00  0.00     0.034 A 
ATOM     52  C   UNL A   1      39.498  32.525  30.834  1.00  0.00     0.049 A 
ATOM     53  C   UNL A   1      44.477  30.201  29.540  1.00  0.00     0.074 A 
ATOM     54  C   UNL A   1      40.063  32.276  32.072  1.00  0.00     0.029 A 
ATOM     55  N   UNL A   1      40.527  33.003  30.025  1.00  0.00    -0.354 N 
ATOM     56  N   UNL A   1      43.561  30.993  30.024  1.00  0.00    -0.248 NA
ATOM     57  C   UNL A   1      45.603  30.948  28.987  1.00  0.00     0.031 C 
ATOM     58  C   UNL A   1      41.468  32.490  31.960  1.00  0.00     0.029 A 
ATOM     59  C   UNL A   1      41.747  32.923  30.675  1.00  0.00     0.049 A 
ATOM     60  H   UNL A   1      40.402  33.350  29.113  1.00  0.00     0.167 HD
ATOM     61  C   UNL A   1      43.870  32.300  29.753  1.00  0.00     0.074 A 
ATOM     62  C   UNL A   1      45.204  32.219  29.178  1.00  0.00     0.031 C 
ATOM     63  C   UNL A   1      42.971  33.314  29.972  1.00  0.00     0.034 A 
BRANCH  50  64
ATOM     64  C   UNL A   1      36.876  32.703  30.742  1.00  0.00     0.023 A 
ATOM     65  C   UNL A   1      36.484  32.276  32.030  1.00  0.00     0.012 A 
ATOM     66  C   UNL A   1      35.920  33.476  30.033  1.00  0.00     0.148 A 
ATOM     67  C   UNL A   1      35.231  32.587  32.577  1.00  0.00     0.002 A 
ATOM     68  C   UNL A   1      34.704  33.856  30.610  1.00  0.00     0.091 A 
ATOM     69  F   UNL A   1      36.108  33.772  28.745  1.00  0.00    -0.205 F 
ATOM     70  C   UNL A   1      34.348  33.396  31.877  1.00  0.00     0.022 A 
BRANCH  68  71
ATOM     71  S   UNL A   1      33.551  34.961  29.771  1.00  0.00     0.127 S 
ATOM     72  O   UNL A   1      34.448  35.799  28.977  1.00  0.00    -0.237 OA
ATOM     73  O   UNL A   1      32.736  34.031  28.988  1.00  0.00    -0.237 OA
ATOM     74  O   UNL A   1      32.818  35.655  30.823  1.00  0.00    -0.744 OA
ENDBRANCH  68  71
ENDBRANCH  50  64
BRANCH  51  75
ATOM     75  C   UNL A   1      44.769  27.798  28.383  1.00  0.00     0.023 A 
ATOM     76  C   UNL A   1      44.240  28.130  27.111  1.00  0.00     0.012 A 
ATOM     77  C   UNL A   1      45.914  26.986  28.446  1.00  0.00     0.148 A 
ATOM     78  C   UNL A   1      44.933  27.816  25.941  1.00  0.00     0.002 A 
ATOM     79  C   UNL A   1      46.591  26.660  27.271  1.00  0.00     0.091 A 
ATOM     80  F   UNL A   1      46.372  26.610  29.647  1.00  0.00    -0.205 F 
ATOM     81  C   UNL A   1      46.133  27.118  26.025  1.00  0.00     0.022 A 
BRANCH  79  82
ATOM     82  S   UNL A   1      48.141  25.748  27.318  1.00  0.00     0.127 S 
ATOM     83  O   UNL A   1      48.686  26.032  25.993  1.00  0.00    -0.237 OA
ATOM     84  O   UNL A   1      48.856  26.382  28.424  1.00  0.00    -0.237 OA
ATOM     85  O   UNL A   1      47.746  24.371  27.577  1.00  0.00    -0.744 OA
ENDBRANCH  79  82
ENDBRANCH  51  75
BRANCH  63  86
ATOM     86  C   UNL A   1      43.119  34.763  29.521  1.00  0.00     0.023 A 
ATOM     87  C   UNL A   1      42.478  35.279  28.378  1.00  0.00     0.012 A 
ATOM     88  C   UNL A   1      43.812  35.707  30.328  1.00  0.00     0.148 A 
ATOM     89  C   UNL A   1      42.560  36.633  28.023  1.00  0.00     0.002 A 
ATOM     90  C   UNL A   1      43.793  37.069  30.034  1.00  0.00     0.091 A 
ATOM     91  F   UNL A   1      44.526  35.291  31.384  1.00  0.00    -0.205 F 
ATOM     92  C   UNL A   1      43.194  37.534  28.865  1.00  0.00     0.022 A 
BRANCH  90  93
ATOM     93  S   UNL A   1      44.391  38.283  31.222  1.00  0.00     0.127 S 
ATOM     94  O   UNL A   1      43.706  37.875  32.446  1.00  0.00    -0.237 OA
ATOM     95  O   UNL A   1      45.836  38.038  31.224  1.00  0.00    -0.237 OA
ATOM     96  O   UNL A   1      44.009  39.575  30.668  1.00  0.00    -0.744 OA
ENDBRANCH  90  93
ENDBRANCH  63  86
ENDBRANCH  37  38
ENDBRANCH  29  32
ENDBRANCH  27  28
ENDBRANCH  26  27
ENDBRANCH   1  26
TORSDOF 19
ENDMDL
MODEL 3
REMARK VINA RESULT:     -11.3      2.226      3.520
REMARK SMILES Cc1ccccc1[C@@H](Cc1c(Cl)cccc1Cl)C(=O)NCCCCCCNC(=O)c1ccc(-c2c3nc(c(-c4cccc(S(=O)(=O)[O-])c4F)c4ccc([nH]4)c(-c4cccc(S(=O)(=O)[O-])c4F)c4nc(c(-c5cccc(S(=O)(=O)[O-])c5F)c5ccc2[nH]5)C=C4)C=C3)cc1
REMARK SMILES IDX 24 1 23 2 22 3 21 4 20 5 18 6 19 7 8 9 7 10 1 11 2 12 3 13
REMARK SMILES IDX 4 14 6 15 5 16 9 17 10 18 11 19 16 20 12 21 13 22 15 23
REMARK SMILES IDX 17 24 14 25 25 26 26 27 27 28 28 29 29 31 30 32 31 33 92 34
REMARK SMILES IDX 32 35 91 36 33 37 34 38 35 39 85 40 36 41 90 42 84 43 86 44
REMARK SMILES IDX 37 45 89 46 83 47 82 48 38 50 70 51 50 52 69 53 51 54 54 55
REMARK SMILES IDX 68 56 87 57 52 58 53 59 67 61 88 62 55 63 39 64 40 65 48 66
REMARK SMILES IDX 41 67 43 68 49 69 42 70 44 71 45 72 46 73 47 74 71 75 72 76
REMARK SMILES IDX 80 77 73 78 75 79 81 80 74 81 76 82 77 83 78 84 79 85 56 86
REMARK SMILES IDX 57 87 65 88 58 89 60 90 66 91 59 92 61 93 62 94 63 95 64 96
REMARK H PARENT 20 8 27 30 86 49 54 60
REMARK Flexibility Score: inf
ROOT
ATOM      1  C   UNL A   1      33.639  30.347  26.755  1.00  0.00     0.002 C 
ENDROOT
BRANCH   1   2
ATOM      2  C   UNL A   1      32.680  29.757  25.707  1.00  0.00     0.002 C 
BRANCH   2   3
ATOM      3  C   UNL A   1      31.802  28.597  26.191  1.00  0.00     0.021 C 
BRANCH   3   4
ATOM      4  C   UNL A   1      32.600  27.401  26.719  1.00  0.00     0.116 C 
BRANCH   4   5
ATOM      5  N   UNL A   1      31.731  26.259  26.863  1.00  0.00    -0.356 N 
ATOM      6  C   UNL A   1      31.216  25.425  25.926  1.00  0.00     0.227 C 
ATOM      7  O   UNL A   1      30.188  24.815  26.251  1.00  0.00    -0.274 OA
ATOM      8  H   UNL A   1      31.470  26.053  27.789  1.00  0.00     0.163 HD
BRANCH   6   9
ATOM      9  C   UNL A   1      31.853  25.184  24.545  1.00  0.00     0.113 C 
BRANCH   9  10
ATOM     10  C   UNL A   1      32.541  23.808  24.473  1.00  0.00    -0.032 A 
ATOM     11  C   UNL A   1      34.820  24.660  25.364  1.00  0.00     0.044 C 
ATOM     12  C   UNL A   1      33.855  23.581  24.951  1.00  0.00    -0.047 A 
ATOM     13  C   UNL A   1      34.327  22.257  25.083  1.00  0.00     0.004 A 
ATOM     14  C   UNL A   1      33.554  21.167  24.699  1.00  0.00     0.000 A 
ATOM     15  C   UNL A   1      31.822  22.687  24.010  1.00  0.00     0.005 A 
ATOM     16  C   UNL A   1      32.310  21.384  24.132  1.00  0.00     0.000 A 
ENDBRANCH   9  10
BRANCH   9  17
ATOM     17  C   UNL A   1      31.055  25.589  23.276  1.00  0.00     0.057 C 
BRANCH  17  18
ATOM     18  C   UNL A   1      30.523  27.010  23.068  1.00  0.00    -0.010 A 
ATOM     19  C   UNL A   1      31.419  28.027  22.655  1.00  0.00     0.045 A 
ATOM     20  C   UNL A   1      29.196  27.421  23.300  1.00  0.00     0.045 A 
ATOM     21  Cl  UNL A   1      33.131  27.774  22.550  1.00  0.00    -0.084 Cl
ATOM     22  C   UNL A   1      30.981  29.325  22.347  1.00  0.00     0.021 A 
ATOM     23  C   UNL A   1      28.751  28.705  22.939  1.00  0.00     0.021 A 
ATOM     24  Cl  UNL A   1      28.035  26.477  24.163  1.00  0.00    -0.084 Cl
ATOM     25  C   UNL A   1      29.637  29.653  22.445  1.00  0.00     0.003 A 
ENDBRANCH  17  18
ENDBRANCH   9  17
ENDBRANCH   6   9
ENDBRANCH   4   5
ENDBRANCH   3   4
ENDBRANCH   2   3
ENDBRANCH   1   2
BRANCH   1  26
ATOM     26  C   UNL A   1      33.064  31.458  27.635  1.00  0.00     0.021 C 
BRANCH  26  27
ATOM     27  C   UNL A   1      33.966  32.680  27.741  1.00  0.00     0.116 C 
BRANCH  27  28
ATOM     28  N   UNL A   1      34.158  33.132  29.106  1.00  0.00    -0.352 N 
ATOM     29  C   UNL A   1      34.836  32.525  30.145  1.00  0.00     0.251 C 
ATOM     30  H   UNL A   1      33.745  33.999  29.322  1.00  0.00     0.163 HD
ATOM     31  O   UNL A   1      34.669  32.952  31.284  1.00  0.00    -0.269 OA
BRANCH  29  32
ATOM     32  C   UNL A   1      35.848  31.480  29.859  1.00  0.00     0.039 A 
ATOM     33  C   UNL A   1      36.125  30.560  30.878  1.00  0.00     0.014 A 
ATOM     34  C   UNL A   1      36.663  31.535  28.729  1.00  0.00     0.014 A 
ATOM     35  C   UNL A   1      37.346  29.892  30.893  1.00  0.00     0.010 A 
ATOM     36  C   UNL A   1      37.901  30.934  28.774  1.00  0.00     0.010 A 
ATOM     37  C   UNL A   1      38.266  30.181  29.894  1.00  0.00    -0.014 A 
BRANCH  37  38
ATOM     38  C   UNL A   1      39.660  29.781  29.926  1.00  0.00     0.031 A 
ATOM     39  C   UNL A   1      40.039  28.399  29.608  1.00  0.00     0.074 A 
ATOM     40  C   UNL A   1      40.592  30.748  30.075  1.00  0.00     0.049 A 
ATOM     41  N   UNL A   1      41.216  27.918  29.816  1.00  0.00    -0.248 NA
ATOM     42  C   UNL A   1      39.097  27.422  29.067  1.00  0.00     0.031 C 
ATOM     43  C   UNL A   1      42.004  30.695  29.723  1.00  0.00     0.029 A 
ATOM     44  N   UNL A   1      40.468  31.932  30.811  1.00  0.00    -0.354 N 
ATOM     45  C   UNL A   1      41.281  26.738  29.117  1.00  0.00     0.074 A 
ATOM     46  C   UNL A   1      39.911  26.387  28.844  1.00  0.00     0.031 C 
ATOM     47  C   UNL A   1      42.663  31.613  30.448  1.00  0.00     0.029 A 
ATOM     48  C   UNL A   1      41.718  32.126  31.426  1.00  0.00     0.049 A 
ATOM     49  H   UNL A   1      39.674  32.509  30.882  1.00  0.00     0.167 HD
ATOM     50  C   UNL A   1      42.497  26.313  28.680  1.00  0.00     0.034 A 
ATOM     51  C   UNL A   1      41.900  32.116  32.782  1.00  0.00     0.034 A 
ATOM     52  C   UNL A   1      43.580  27.049  29.348  1.00  0.00     0.049 A 
ATOM     53  C   UNL A   1      42.916  31.082  33.241  1.00  0.00     0.074 A 
ATOM     54  C   UNL A   1      44.465  28.032  28.942  1.00  0.00     0.029 A 
ATOM     55  N   UNL A   1      43.684  26.981  30.736  1.00  0.00    -0.354 N 
ATOM     56  N   UNL A   1      43.441  30.172  32.468  1.00  0.00    -0.248 NA
ATOM     57  C   UNL A   1      43.402  30.975  34.614  1.00  0.00     0.031 C 
ATOM     58  C   UNL A   1      45.009  28.639  30.111  1.00  0.00     0.029 A 
ATOM     59  C   UNL A   1      44.499  27.989  31.223  1.00  0.00     0.049 A 
ATOM     60  H   UNL A   1      43.237  26.306  31.295  1.00  0.00     0.167 HD
ATOM     61  C   UNL A   1      44.198  29.300  33.206  1.00  0.00     0.074 A 
ATOM     62  C   UNL A   1      44.209  29.901  34.531  1.00  0.00     0.031 C 
ATOM     63  C   UNL A   1      44.688  28.137  32.668  1.00  0.00     0.034 A 
BRANCH  50  64
ATOM     64  C   UNL A   1      42.729  25.382  27.501  1.00  0.00     0.023 A 
ATOM     65  C   UNL A   1      43.270  25.952  26.327  1.00  0.00     0.012 A 
ATOM     66  C   UNL A   1      42.352  24.017  27.405  1.00  0.00     0.148 A 
ATOM     67  C   UNL A   1      43.422  25.224  25.139  1.00  0.00     0.002 A 
ATOM     68  C   UNL A   1      42.581  23.269  26.246  1.00  0.00     0.091 A 
ATOM     69  F   UNL A   1      41.663  23.433  28.388  1.00  0.00    -0.205 F 
ATOM     70  C   UNL A   1      43.099  23.876  25.102  1.00  0.00     0.022 A 
BRANCH  68  71
ATOM     71  S   UNL A   1      42.242  21.499  26.168  1.00  0.00     0.127 S 
ATOM     72  O   UNL A   1      40.815  21.470  25.851  1.00  0.00    -0.237 OA
ATOM     73  O   UNL A   1      43.115  21.058  25.079  1.00  0.00    -0.237 OA
ATOM     74  O   UNL A   1      42.602  20.960  27.474  1.00  0.00    -0.744 OA
ENDBRANCH  68  71
ENDBRANCH  50  64
BRANCH  51  75
ATOM     75  C   UNL A   1      40.684  32.540  33.544  1.00  0.00     0.023 A 
ATOM     76  C   UNL A   1      39.743  31.526  33.852  1.00  0.00     0.012 A 
ATOM     77  C   UNL A   1      40.669  33.726  34.297  1.00  0.00     0.148 A 
ATOM     78  C   UNL A   1      38.937  31.616  34.988  1.00  0.00     0.002 A 
ATOM     79  C   UNL A   1      39.847  33.817  35.420  1.00  0.00     0.091 A 
ATOM     80  F   UNL A   1      41.508  34.714  33.960  1.00  0.00    -0.205 F 
ATOM     81  C   UNL A   1      39.021  32.745  35.796  1.00  0.00     0.022 A 
BRANCH  79  82
ATOM     82  S   UNL A   1      39.904  35.256  36.497  1.00  0.00     0.127 S 
ATOM     83  O   UNL A   1      39.540  36.326  35.573  1.00  0.00    -0.237 OA
ATOM     84  O   UNL A   1      38.892  34.947  37.505  1.00  0.00    -0.237 OA
ATOM     85  O   UNL A   1      41.266  35.275  37.008  1.00  0.00    -0.744 OA
ENDBRANCH  79  82
ENDBRANCH  51  75
BRANCH  63  86
ATOM     86  C   UNL A   1      45.356  27.000  33.433  1.00  0.00     0.023 A 
ATOM     87  C   UNL A   1      46.752  26.898  33.591  1.00  0.00     0.012 A 
ATOM     88  C   UNL A   1      44.576  26.050  34.149  1.00  0.00     0.148 A 
ATOM     89  C   UNL A   1      47.344  25.891  34.365  1.00  0.00     0.002 A 
ATOM     90  C   UNL A   1      45.164  25.125  35.009  1.00  0.00     0.091 A 
ATOM     91  F   UNL A   1      43.245  26.015  33.985  1.00  0.00    -0.205 F 
ATOM     92  C   UNL A   1      46.551  25.020  35.097  1.00  0.00     0.022 A 
BRANCH  90  93
ATOM     93  S   UNL A   1      44.165  24.152  36.148  1.00  0.00     0.127 S 
ATOM     94  O   UNL A   1      42.934  24.933  36.218  1.00  0.00    -0.237 OA
ATOM     95  O   UNL A   1      44.035  22.874  35.442  1.00  0.00    -0.237 OA
ATOM     96  O   UNL A   1      44.952  24.076  37.372  1.00  0.00    -0.744 OA
ENDBRANCH  90  93
ENDBRANCH  63  86
ENDBRANCH  37  38
ENDBRANCH  29  32
ENDBRANCH  27  28
ENDBRANCH  26  27
ENDBRANCH   1  26
TORSDOF 19
ENDMDL
