MODEL 1
REMARK VINA RESULT:     -12.0      0.000      0.000
REMARK SMILES Cc1ccc(S(=O)(=O)n2cc(C(=O)C(=O)NCC(=O)NCCCCCCNC(=O)c3ccc(-c4c5nc(c(-c6cccc(S(=O)(=O)[O-])c6F)c6ccc([nH]6)c(-c6cccc(S(=O)(=O)[O-])c6F)c6nc(c(-c7cccc(S(=O)(=O)[O-])c7F)c7ccc4[nH]7)C=C6)C=C5)cc3)c3ccccc32)cc1
REMARK SMILES IDX 22 1 21 2 20 3 18 4 19 5 17 7 16 8 14 9 15 10 12 12 13 13
REMARK SMILES IDX 11 14 9 15 10 16 98 17 93 18 97 19 94 20 96 21 95 22 6 23
REMARK SMILES IDX 7 24 8 25 5 26 1 27 2 28 3 29 100 30 4 31 99 32 23 33 24 34
REMARK SMILES IDX 25 35 26 36 27 37 28 38 29 40 30 41 31 42 92 43 32 44 91 45
REMARK SMILES IDX 33 46 34 47 35 48 85 49 36 50 90 51 84 52 86 53 37 54 89 55
REMARK SMILES IDX 83 56 82 57 38 59 70 60 50 61 69 62 51 63 54 64 68 65 87 66
REMARK SMILES IDX 52 67 53 68 67 70 88 71 55 72 39 73 40 74 48 75 41 76 43 77
REMARK SMILES IDX 49 78 42 79 44 80 45 81 46 82 47 83 71 84 72 85 80 86 73 87
REMARK SMILES IDX 75 88 81 89 74 90 76 91 77 92 78 93 79 94 56 95 57 96 65 97
REMARK SMILES IDX 58 98 60 99 66 100 59 101 61 102 62 103 63 104 64 105
REMARK H PARENT 20 6 16 11 27 39 86 58 54 69
REMARK Flexibility Score: inf
ROOT
ATOM      1  C   UNL A   1      35.394  29.515  27.632  1.00  0.00     0.021 C 
ENDROOT
BRANCH   1   2
ATOM      2  C   UNL A   1      34.072  29.978  27.028  1.00  0.00     0.116 C 
BRANCH   2   3
ATOM      3  N   UNL A   1      32.949  29.301  27.636  1.00  0.00    -0.355 N 
ATOM      4  C   UNL A   1      32.136  28.340  27.118  1.00  0.00     0.239 C 
ATOM      5  O   UNL A   1      31.295  27.829  27.862  1.00  0.00    -0.273 OA
ATOM      6  H   UNL A   1      32.741  29.575  28.558  1.00  0.00     0.163 HD
BRANCH   4   7
ATOM      7  C   UNL A   1      32.378  27.796  25.707  1.00  0.00     0.216 C 
BRANCH   7   8
ATOM      8  N   UNL A   1      31.871  28.635  24.625  1.00  0.00    -0.340 N 
ATOM      9  C   UNL A   1      30.842  28.442  23.726  1.00  0.00     0.292 C 
ATOM     10  O   UNL A   1      30.562  29.356  22.960  1.00  0.00    -0.265 OA
ATOM     11  H   UNL A   1      32.348  29.491  24.518  1.00  0.00     0.164 HD
BRANCH   9  12
ATOM     12  C   UNL A   1      30.068  27.096  23.659  1.00  0.00     0.252 C 
ATOM     13  O   UNL A   1      28.849  27.134  23.517  1.00  0.00    -0.283 OA
BRANCH  12  14
ATOM     14  C   UNL A   1      30.751  25.794  23.764  1.00  0.00     0.054 A 
ATOM     15  N   UNL A   1      31.972  23.974  23.310  1.00  0.00    -0.240 N 
ATOM     16  C   UNL A   1      31.623  25.222  22.853  1.00  0.00     0.117 A 
ATOM     17  C   UNL A   1      31.383  23.707  24.525  1.00  0.00     0.065 A 
ATOM     18  C   UNL A   1      30.610  24.834  24.836  1.00  0.00     0.012 A 
ATOM     19  C   UNL A   1      31.423  22.577  25.367  1.00  0.00     0.028 A 
ATOM     20  C   UNL A   1      29.874  24.826  26.043  1.00  0.00     0.011 A 
ATOM     21  C   UNL A   1      30.662  22.592  26.536  1.00  0.00     0.002 A 
ATOM     22  C   UNL A   1      29.902  23.704  26.876  1.00  0.00     0.001 A 
BRANCH  15  23
ATOM     23  S   UNL A   1      32.920  22.877  22.410  1.00  0.00     0.268 S 
ATOM     24  O   UNL A   1      33.278  23.614  21.205  1.00  0.00    -0.201 OA
ATOM     25  O   UNL A   1      32.171  21.648  22.388  1.00  0.00    -0.201 OA
BRANCH  23  26
ATOM     26  C   UNL A   1      34.417  22.577  23.318  1.00  0.00     0.088 A 
ATOM     27  C   UNL A   1      37.984  21.497  25.469  1.00  0.00     0.044 C 
ATOM     28  C   UNL A   1      36.740  21.891  24.730  1.00  0.00    -0.051 A 
ATOM     29  C   UNL A   1      35.548  21.190  24.946  1.00  0.00     0.005 A 
ATOM     30  C   UNL A   1      36.748  22.959  23.824  1.00  0.00     0.005 A 
ATOM     31  C   UNL A   1      34.392  21.526  24.241  1.00  0.00     0.022 A 
ATOM     32  C   UNL A   1      35.588  23.312  23.127  1.00  0.00     0.022 A 
ENDBRANCH  23  26
ENDBRANCH  15  23
ENDBRANCH  12  14
ENDBRANCH   9  12
ENDBRANCH   7   8
ENDBRANCH   4   7
ENDBRANCH   2   3
ENDBRANCH   1   2
BRANCH   1  33
ATOM     33  C   UNL A   1      36.320  30.664  28.054  1.00  0.00     0.002 C 
BRANCH  33  34
ATOM     34  C   UNL A   1      35.707  32.069  27.972  1.00  0.00     0.002 C 
BRANCH  34  35
ATOM     35  C   UNL A   1      35.836  32.913  29.237  1.00  0.00     0.021 C 
BRANCH  35  36
ATOM     36  C   UNL A   1      34.874  32.525  30.343  1.00  0.00     0.116 C 
BRANCH  36  37
ATOM     37  N   UNL A   1      34.028  33.638  30.720  1.00  0.00    -0.352 N 
ATOM     38  C   UNL A   1      33.898  34.267  31.943  1.00  0.00     0.251 C 
ATOM     39  H   UNL A   1      33.460  33.997  30.000  1.00  0.00     0.163 HD
ATOM     40  O   UNL A   1      32.867  34.894  32.169  1.00  0.00    -0.269 OA
BRANCH  38  41
ATOM     41  C   UNL A   1      35.079  34.377  32.841  1.00  0.00     0.039 A 
ATOM     42  C   UNL A   1      36.170  35.039  32.264  1.00  0.00     0.014 A 
ATOM     43  C   UNL A   1      35.288  33.453  33.858  1.00  0.00     0.014 A 
ATOM     44  C   UNL A   1      37.434  34.490  32.396  1.00  0.00     0.010 A 
ATOM     45  C   UNL A   1      36.509  32.836  33.907  1.00  0.00     0.010 A 
ATOM     46  C   UNL A   1      37.541  33.298  33.087  1.00  0.00    -0.014 A 
BRANCH  46  47
ATOM     47  C   UNL A   1      38.721  32.472  33.135  1.00  0.00     0.031 A 
ATOM     48  C   UNL A   1      38.647  31.179  32.446  1.00  0.00     0.074 A 
ATOM     49  C   UNL A   1      39.876  33.069  33.503  1.00  0.00     0.049 A 
ATOM     50  N   UNL A   1      39.598  30.320  32.413  1.00  0.00    -0.248 NA
ATOM     51  C   UNL A   1      37.446  30.744  31.737  1.00  0.00     0.031 C 
ATOM     52  C   UNL A   1      41.231  32.734  33.089  1.00  0.00     0.029 A 
ATOM     53  N   UNL A   1      40.090  34.112  34.385  1.00  0.00    -0.354 N 
ATOM     54  C   UNL A   1      39.276  29.400  31.438  1.00  0.00     0.074 A 
ATOM     55  C   UNL A   1      37.883  29.627  31.153  1.00  0.00     0.031 C 
ATOM     56  C   UNL A   1      42.106  33.359  33.900  1.00  0.00     0.029 A 
ATOM     57  C   UNL A   1      41.336  33.937  34.987  1.00  0.00     0.049 A 
ATOM     58  H   UNL A   1      39.468  34.855  34.559  1.00  0.00     0.167 HD
ATOM     59  C   UNL A   1      40.294  28.686  30.885  1.00  0.00     0.034 A 
ATOM     60  C   UNL A   1      41.454  33.535  36.296  1.00  0.00     0.034 A 
ATOM     61  C   UNL A   1      41.532  28.922  31.655  1.00  0.00     0.049 A 
ATOM     62  C   UNL A   1      42.041  32.132  36.441  1.00  0.00     0.074 A 
ATOM     63  C   UNL A   1      42.620  29.758  31.465  1.00  0.00     0.029 A 
ATOM     64  N   UNL A   1      41.574  28.529  32.992  1.00  0.00    -0.354 N 
ATOM     65  N   UNL A   1      42.199  31.287  35.456  1.00  0.00    -0.248 NA
ATOM     66  C   UNL A   1      42.522  31.581  37.706  1.00  0.00     0.031 C 
ATOM     67  C   UNL A   1      43.251  29.949  32.730  1.00  0.00     0.029 A 
ATOM     68  C   UNL A   1      42.577  29.198  33.681  1.00  0.00     0.049 A 
ATOM     69  H   UNL A   1      40.971  27.864  33.395  1.00  0.00     0.167 HD
ATOM     70  C   UNL A   1      42.671  30.088  35.918  1.00  0.00     0.074 A 
ATOM     71  C   UNL A   1      42.933  30.357  37.326  1.00  0.00     0.031 C 
ATOM     72  C   UNL A   1      42.762  28.974  35.118  1.00  0.00     0.034 A 
BRANCH  59  73
ATOM     73  C   UNL A   1      40.275  27.999  29.524  1.00  0.00     0.023 A 
ATOM     74  C   UNL A   1      39.339  26.949  29.365  1.00  0.00     0.012 A 
ATOM     75  C   UNL A   1      41.129  28.225  28.413  1.00  0.00     0.148 A 
ATOM     76  C   UNL A   1      39.288  26.145  28.220  1.00  0.00     0.002 A 
ATOM     77  C   UNL A   1      41.083  27.420  27.269  1.00  0.00     0.091 A 
ATOM     78  F   UNL A   1      41.999  29.230  28.426  1.00  0.00    -0.205 F 
ATOM     79  C   UNL A   1      40.168  26.371  27.174  1.00  0.00     0.022 A 
BRANCH  77  80
ATOM     80  S   UNL A   1      42.191  27.649  25.860  1.00  0.00     0.127 S 
ATOM     81  O   UNL A   1      41.837  26.517  25.001  1.00  0.00    -0.237 OA
ATOM     82  O   UNL A   1      41.776  28.953  25.346  1.00  0.00    -0.237 OA
ATOM     83  O   UNL A   1      43.550  27.602  26.385  1.00  0.00    -0.744 OA
ENDBRANCH  77  80
ENDBRANCH  59  73
BRANCH  60  84
ATOM     84  C   UNL A   1      40.389  34.130  37.169  1.00  0.00     0.023 A 
ATOM     85  C   UNL A   1      39.343  33.258  37.563  1.00  0.00     0.012 A 
ATOM     86  C   UNL A   1      40.645  35.272  37.947  1.00  0.00     0.148 A 
ATOM     87  C   UNL A   1      38.735  33.392  38.813  1.00  0.00     0.002 A 
ATOM     88  C   UNL A   1      40.022  35.408  39.188  1.00  0.00     0.091 A 
ATOM     89  F   UNL A   1      41.531  36.170  37.499  1.00  0.00    -0.205 F 
ATOM     90  C   UNL A   1      39.118  34.436  39.648  1.00  0.00     0.022 A 
BRANCH  88  91
ATOM     91  S   UNL A   1      40.446  36.754  40.301  1.00  0.00     0.127 S 
ATOM     92  O   UNL A   1      39.456  36.585  41.360  1.00  0.00    -0.237 OA
ATOM     93  O   UNL A   1      41.817  36.430  40.694  1.00  0.00    -0.237 OA
ATOM     94  O   UNL A   1      40.327  37.961  39.496  1.00  0.00    -0.744 OA
ENDBRANCH  88  91
ENDBRANCH  60  84
BRANCH  72  95
ATOM     95  C   UNL A   1      43.033  27.553  35.605  1.00  0.00     0.023 A 
ATOM     96  C   UNL A   1      42.176  26.878  36.494  1.00  0.00     0.012 A 
ATOM     97  C   UNL A   1      44.111  26.786  35.079  1.00  0.00     0.148 A 
ATOM     98  C   UNL A   1      42.411  25.562  36.910  1.00  0.00     0.002 A 
ATOM     99  C   UNL A   1      44.260  25.436  35.387  1.00  0.00     0.091 A 
ATOM    100  F   UNL A   1      45.031  27.364  34.295  1.00  0.00    -0.205 F 
ATOM    101  C   UNL A   1      43.439  24.831  36.338  1.00  0.00     0.022 A 
BRANCH  99 102
ATOM    102  S   UNL A   1      45.393  24.380  34.471  1.00  0.00     0.127 S 
ATOM    103  O   UNL A   1      46.693  24.886  34.906  1.00  0.00    -0.237 OA
ATOM    104  O   UNL A   1      45.056  23.049  34.981  1.00  0.00    -0.237 OA
ATOM    105  O   UNL A   1      45.061  24.582  33.068  1.00  0.00    -0.744 OA
ENDBRANCH  99 102
ENDBRANCH  72  95
ENDBRANCH  46  47
ENDBRANCH  38  41
ENDBRANCH  36  37
ENDBRANCH  35  36
ENDBRANCH  34  35
ENDBRANCH  33  34
ENDBRANCH   1  33
TORSDOF 21
ENDMDL
MODEL 2
REMARK VINA RESULT:     -11.5      1.925      2.608
REMARK SMILES Cc1ccc(S(=O)(=O)n2cc(C(=O)C(=O)NCC(=O)NCCCCCCNC(=O)c3ccc(-c4c5nc(c(-c6cccc(S(=O)(=O)[O-])c6F)c6ccc([nH]6)c(-c6cccc(S(=O)(=O)[O-])c6F)c6nc(c(-c7cccc(S(=O)(=O)[O-])c7F)c7ccc4[nH]7)C=C6)C=C5)cc3)c3ccccc32)cc1
REMARK SMILES IDX 22 1 21 2 20 3 18 4 19 5 17 7 16 8 14 9 15 10 12 12 13 13
REMARK SMILES IDX 11 14 9 15 10 16 98 17 93 18 97 19 94 20 96 21 95 22 6 23
REMARK SMILES IDX 7 24 8 25 5 26 1 27 2 28 3 29 100 30 4 31 99 32 23 33 24 34
REMARK SMILES IDX 25 35 26 36 27 37 28 38 29 40 30 41 31 42 92 43 32 44 91 45
REMARK SMILES IDX 33 46 34 47 35 48 85 49 36 50 90 51 84 52 86 53 37 54 89 55
REMARK SMILES IDX 83 56 82 57 38 59 70 60 50 61 69 62 51 63 54 64 68 65 87 66
REMARK SMILES IDX 52 67 53 68 67 70 88 71 55 72 39 73 40 74 48 75 41 76 43 77
REMARK SMILES IDX 49 78 42 79 44 80 45 81 46 82 47 83 71 84 72 85 80 86 73 87
REMARK SMILES IDX 75 88 81 89 74 90 76 91 77 92 78 93 79 94 56 95 57 96 65 97
REMARK SMILES IDX 58 98 60 99 66 100 59 101 61 102 62 103 63 104 64 105
REMARK H PARENT 20 6 16 11 27 39 86 58 54 69
REMARK Flexibility Score: inf
ROOT
ATOM      1  C   UNL A   1      34.971  30.171  27.585  1.00  0.00     0.021 C 
ENDROOT
BRANCH   1   2
ATOM      2  C   UNL A   1      33.602  30.150  26.911  1.00  0.00     0.116 C 
BRANCH   2   3
ATOM      3  N   UNL A   1      32.742  29.149  27.498  1.00  0.00    -0.355 N 
ATOM      4  C   UNL A   1      32.237  28.012  26.945  1.00  0.00     0.239 C 
ATOM      5  O   UNL A   1      31.599  27.247  27.672  1.00  0.00    -0.273 OA
ATOM      6  H   UNL A   1      32.481  29.313  28.433  1.00  0.00     0.163 HD
BRANCH   4   7
ATOM      7  C   UNL A   1      32.600  27.619  25.509  1.00  0.00     0.216 C 
BRANCH   7   8
ATOM      8  N   UNL A   1      31.554  26.906  24.780  1.00  0.00    -0.340 N 
ATOM      9  C   UNL A   1      31.619  25.857  23.886  1.00  0.00     0.292 C 
ATOM     10  O   UNL A   1      30.568  25.379  23.476  1.00  0.00    -0.265 OA
ATOM     11  H   UNL A   1      30.642  27.233  24.959  1.00  0.00     0.164 HD
BRANCH   9  12
ATOM     12  C   UNL A   1      32.982  25.304  23.385  1.00  0.00     0.252 C 
ATOM     13  O   UNL A   1      33.390  25.674  22.288  1.00  0.00    -0.283 OA
BRANCH  12  14
ATOM     14  C   UNL A   1      33.782  24.355  24.180  1.00  0.00     0.054 A 
ATOM     15  N   UNL A   1      35.371  22.927  24.846  1.00  0.00    -0.240 N 
ATOM     16  C   UNL A   1      35.017  23.819  23.862  1.00  0.00     0.117 A 
ATOM     17  C   UNL A   1      34.419  22.878  25.839  1.00  0.00     0.065 A 
ATOM     18  C   UNL A   1      33.408  23.767  25.447  1.00  0.00     0.012 A 
ATOM     19  C   UNL A   1      34.325  22.119  27.022  1.00  0.00     0.028 A 
ATOM     20  C   UNL A   1      32.281  23.907  26.289  1.00  0.00     0.011 A 
ATOM     21  C   UNL A   1      33.186  22.262  27.814  1.00  0.00     0.002 A 
ATOM     22  C   UNL A   1      32.178  23.149  27.459  1.00  0.00     0.001 A 
BRANCH  15  23
ATOM     23  S   UNL A   1      36.760  21.939  24.761  1.00  0.00     0.268 S 
ATOM     24  O   UNL A   1      37.172  22.014  23.365  1.00  0.00    -0.201 OA
ATOM     25  O   UNL A   1      36.396  20.706  25.410  1.00  0.00    -0.201 OA
BRANCH  23  26
ATOM     26  C   UNL A   1      38.033  22.703  25.736  1.00  0.00     0.088 A 
ATOM     27  C   UNL A   1      40.855  24.728  28.276  1.00  0.00     0.044 C 
ATOM     28  C   UNL A   1      39.887  24.021  27.376  1.00  0.00    -0.051 A 
ATOM     29  C   UNL A   1      38.797  24.717  26.839  1.00  0.00     0.005 A 
ATOM     30  C   UNL A   1      40.055  22.667  27.058  1.00  0.00     0.005 A 
ATOM     31  C   UNL A   1      37.871  24.062  26.026  1.00  0.00     0.022 A 
ATOM     32  C   UNL A   1      39.140  22.010  26.230  1.00  0.00     0.022 A 
ENDBRANCH  23  26
ENDBRANCH  15  23
ENDBRANCH  12  14
ENDBRANCH   9  12
ENDBRANCH   7   8
ENDBRANCH   4   7
ENDBRANCH   2   3
ENDBRANCH   1   2
BRANCH   1  33
ATOM     33  C   UNL A   1      35.355  31.538  28.169  1.00  0.00     0.002 C 
BRANCH  33  34
ATOM     34  C   UNL A   1      34.263  32.615  28.099  1.00  0.00     0.002 C 
BRANCH  34  35
ATOM     35  C   UNL A   1      34.745  34.048  28.304  1.00  0.00     0.021 C 
BRANCH  35  36
ATOM     36  C   UNL A   1      35.065  34.394  29.745  1.00  0.00     0.116 C 
BRANCH  36  37
ATOM     37  N   UNL A   1      33.950  35.058  30.388  1.00  0.00    -0.352 N 
ATOM     38  C   UNL A   1      33.416  34.859  31.645  1.00  0.00     0.251 C 
ATOM     39  H   UNL A   1      33.506  35.752  29.848  1.00  0.00     0.163 HD
ATOM     40  O   UNL A   1      32.256  35.209  31.849  1.00  0.00    -0.269 OA
BRANCH  38  41
ATOM     41  C   UNL A   1      34.307  34.461  32.768  1.00  0.00     0.039 A 
ATOM     42  C   UNL A   1      35.254  35.435  33.112  1.00  0.00     0.014 A 
ATOM     43  C   UNL A   1      34.565  33.121  33.032  1.00  0.00     0.014 A 
ATOM     44  C   UNL A   1      36.568  35.052  33.313  1.00  0.00     0.010 A 
ATOM     45  C   UNL A   1      35.876  32.736  33.117  1.00  0.00     0.010 A 
ATOM     46  C   UNL A   1      36.874  33.714  33.145  1.00  0.00    -0.014 A 
BRANCH  46  47
ATOM     47  C   UNL A   1      38.207  33.170  33.092  1.00  0.00     0.031 A 
ATOM     48  C   UNL A   1      38.406  31.999  32.231  1.00  0.00     0.074 A 
ATOM     49  C   UNL A   1      39.209  33.950  33.551  1.00  0.00     0.049 A 
ATOM     50  N   UNL A   1      39.521  31.384  32.090  1.00  0.00    -0.248 NA
ATOM     51  C   UNL A   1      37.316  31.412  31.455  1.00  0.00     0.031 C 
ATOM     52  C   UNL A   1      40.597  33.982  33.111  1.00  0.00     0.029 A 
ATOM     53  N   UNL A   1      39.206  34.884  34.572  1.00  0.00    -0.354 N 
ATOM     54  C   UNL A   1      39.390  30.558  30.994  1.00  0.00     0.074 A 
ATOM     55  C   UNL A   1      37.976  30.509  30.727  1.00  0.00     0.031 C 
ATOM     56  C   UNL A   1      41.328  34.668  34.010  1.00  0.00     0.029 A 
ATOM     57  C   UNL A   1      40.472  34.907  35.158  1.00  0.00     0.049 A 
ATOM     58  H   UNL A   1      38.440  35.441  34.839  1.00  0.00     0.167 HD
ATOM     59  C   UNL A   1      40.530  30.168  30.359  1.00  0.00     0.034 A 
ATOM     60  C   UNL A   1      40.700  34.366  36.400  1.00  0.00     0.034 A 
ATOM     61  C   UNL A   1      41.700  30.563  31.169  1.00  0.00     0.049 A 
ATOM     62  C   UNL A   1      41.584  33.119  36.357  1.00  0.00     0.074 A 
ATOM     63  C   UNL A   1      42.573  31.637  31.108  1.00  0.00     0.029 A 
ATOM     64  N   UNL A   1      41.854  30.010  32.439  1.00  0.00    -0.354 N 
ATOM     65  N   UNL A   1      41.905  32.474  35.266  1.00  0.00    -0.248 NA
ATOM     66  C   UNL A   1      42.199  32.521  37.539  1.00  0.00     0.031 C 
ATOM     67  C   UNL A   1      43.172  31.787  32.394  1.00  0.00     0.029 A 
ATOM     68  C   UNL A   1      42.698  30.783  33.224  1.00  0.00     0.049 A 
ATOM     69  H   UNL A   1      41.419  29.180  32.740  1.00  0.00     0.167 HD
ATOM     70  C   UNL A   1      42.638  31.356  35.564  1.00  0.00     0.074 A 
ATOM     71  C   UNL A   1      42.862  31.481  36.998  1.00  0.00     0.031 C 
ATOM     72  C   UNL A   1      42.956  30.410  34.619  1.00  0.00     0.034 A 
BRANCH  59  73
ATOM     73  C   UNL A   1      40.635  29.687  28.916  1.00  0.00     0.023 A 
ATOM     74  C   UNL A   1      39.419  29.582  28.200  1.00  0.00     0.012 A 
ATOM     75  C   UNL A   1      41.791  29.254  28.216  1.00  0.00     0.148 A 
ATOM     76  C   UNL A   1      39.341  29.039  26.913  1.00  0.00     0.002 A 
ATOM     77  C   UNL A   1      41.716  28.706  26.930  1.00  0.00     0.091 A 
ATOM     78  F   UNL A   1      42.996  29.371  28.767  1.00  0.00    -0.205 F 
ATOM     79  C   UNL A   1      40.488  28.589  26.279  1.00  0.00     0.022 A 
BRANCH  77  80
ATOM     80  S   UNL A   1      43.163  28.099  26.034  1.00  0.00     0.127 S 
ATOM     81  O   UNL A   1      42.624  27.880  24.690  1.00  0.00    -0.237 OA
ATOM     82  O   UNL A   1      44.089  29.225  26.138  1.00  0.00    -0.237 OA
ATOM     83  O   UNL A   1      43.595  26.883  26.712  1.00  0.00    -0.744 OA
ENDBRANCH  77  80
ENDBRANCH  59  73
BRANCH  60  84
ATOM     84  C   UNL A   1      39.548  34.585  37.335  1.00  0.00     0.023 A 
ATOM     85  C   UNL A   1      38.676  33.484  37.524  1.00  0.00     0.012 A 
ATOM     86  C   UNL A   1      39.597  35.586  38.321  1.00  0.00     0.148 A 
ATOM     87  C   UNL A   1      38.057  33.268  38.757  1.00  0.00     0.002 A 
ATOM     88  C   UNL A   1      38.963  35.370  39.545  1.00  0.00     0.091 A 
ATOM     89  F   UNL A   1      40.307  36.695  38.078  1.00  0.00    -0.205 F 
ATOM     90  C   UNL A   1      38.248  34.185  39.785  1.00  0.00     0.022 A 
BRANCH  88  91
ATOM     91  S   UNL A   1      39.141  36.534  40.904  1.00  0.00     0.127 S 
ATOM     92  O   UNL A   1      38.573  37.749  40.329  1.00  0.00    -0.237 OA
ATOM     93  O   UNL A   1      38.331  35.925  41.959  1.00  0.00    -0.237 OA
ATOM     94  O   UNL A   1      40.568  36.563  41.191  1.00  0.00    -0.744 OA
ENDBRANCH  88  91
ENDBRANCH  60  84
BRANCH  72  95
ATOM     95  C   UNL A   1      43.542  29.031  34.908  1.00  0.00     0.023 A 
ATOM     96  C   UNL A   1      44.923  28.765  34.851  1.00  0.00     0.012 A 
ATOM     97  C   UNL A   1      42.724  27.966  35.378  1.00  0.00     0.148 A 
ATOM     98  C   UNL A   1      45.458  27.507  35.152  1.00  0.00     0.002 A 
ATOM     99  C   UNL A   1      43.276  26.761  35.810  1.00  0.00     0.091 A 
ATOM    100  F   UNL A   1      41.390  28.091  35.385  1.00  0.00    -0.205 F 
ATOM    101  C   UNL A   1      44.638  26.511  35.655  1.00  0.00     0.022 A 
BRANCH  99 102
ATOM    102  S   UNL A   1      42.303  25.553  36.722  1.00  0.00     0.127 S 
ATOM    103  O   UNL A   1      41.400  25.053  35.689  1.00  0.00    -0.237 OA
ATOM    104  O   UNL A   1      43.326  24.596  37.152  1.00  0.00    -0.237 OA
ATOM    105  O   UNL A   1      41.686  26.295  37.812  1.00  0.00    -0.744 OA
ENDBRANCH  99 102
ENDBRANCH  72  95
ENDBRANCH  46  47
ENDBRANCH  38  41
ENDBRANCH  36  37
ENDBRANCH  35  36
ENDBRANCH  34  35
ENDBRANCH  33  34
ENDBRANCH   1  33
TORSDOF 21
ENDMDL
MODEL 3
REMARK VINA RESULT:     -11.0      6.094     10.810
REMARK SMILES Cc1ccc(S(=O)(=O)n2cc(C(=O)C(=O)NCC(=O)NCCCCCCNC(=O)c3ccc(-c4c5nc(c(-c6cccc(S(=O)(=O)[O-])c6F)c6ccc([nH]6)c(-c6cccc(S(=O)(=O)[O-])c6F)c6nc(c(-c7cccc(S(=O)(=O)[O-])c7F)c7ccc4[nH]7)C=C6)C=C5)cc3)c3ccccc32)cc1
REMARK SMILES IDX 22 1 21 2 20 3 18 4 19 5 17 7 16 8 14 9 15 10 12 12 13 13
REMARK SMILES IDX 11 14 9 15 10 16 98 17 93 18 97 19 94 20 96 21 95 22 6 23
REMARK SMILES IDX 7 24 8 25 5 26 1 27 2 28 3 29 100 30 4 31 99 32 23 33 24 34
REMARK SMILES IDX 25 35 26 36 27 37 28 38 29 40 30 41 31 42 92 43 32 44 91 45
REMARK SMILES IDX 33 46 34 47 35 48 85 49 36 50 90 51 84 52 86 53 37 54 89 55
REMARK SMILES IDX 83 56 82 57 38 59 70 60 50 61 69 62 51 63 54 64 68 65 87 66
REMARK SMILES IDX 52 67 53 68 67 70 88 71 55 72 39 73 40 74 48 75 41 76 43 77
REMARK SMILES IDX 49 78 42 79 44 80 45 81 46 82 47 83 71 84 72 85 80 86 73 87
REMARK SMILES IDX 75 88 81 89 74 90 76 91 77 92 78 93 79 94 56 95 57 96 65 97
REMARK SMILES IDX 58 98 60 99 66 100 59 101 61 102 62 103 63 104 64 105
REMARK H PARENT 20 6 16 11 27 39 86 58 54 69
REMARK Flexibility Score: inf
ROOT
ATOM      1  C   UNL A   1      46.185  23.314  24.558  1.00  0.00     0.021 C 
ENDROOT
BRANCH   1   2
ATOM      2  C   UNL A   1      45.721  22.181  25.468  1.00  0.00     0.116 C 
BRANCH   2   3
ATOM      3  N   UNL A   1      46.012  20.889  24.891  1.00  0.00    -0.355 N 
ATOM      4  C   UNL A   1      45.178  19.838  24.661  1.00  0.00     0.239 C 
ATOM      5  O   UNL A   1      45.629  18.860  24.059  1.00  0.00    -0.273 OA
ATOM      6  H   UNL A   1      46.949  20.747  24.625  1.00  0.00     0.163 HD
BRANCH   4   7
ATOM      7  C   UNL A   1      43.685  19.945  24.990  1.00  0.00     0.216 C 
BRANCH   7   8
ATOM      8  N   UNL A   1      43.316  19.511  26.334  1.00  0.00    -0.340 N 
ATOM      9  C   UNL A   1      42.083  19.315  26.923  1.00  0.00     0.292 C 
ATOM     10  O   UNL A   1      42.050  18.856  28.059  1.00  0.00    -0.265 OA
ATOM     11  H   UNL A   1      44.083  19.326  26.924  1.00  0.00     0.164 HD
BRANCH   9  12
ATOM     12  C   UNL A   1      40.766  19.685  26.186  1.00  0.00     0.252 C 
ATOM     13  O   UNL A   1      40.175  18.800  25.574  1.00  0.00    -0.283 OA
BRANCH  12  14
ATOM     14  C   UNL A   1      40.219  21.054  26.201  1.00  0.00     0.054 A 
ATOM     15  N   UNL A   1      39.950  23.248  26.548  1.00  0.00    -0.240 N 
ATOM     16  C   UNL A   1      40.840  22.206  26.651  1.00  0.00     0.117 A 
ATOM     17  C   UNL A   1      38.755  22.830  26.007  1.00  0.00     0.065 A 
ATOM     18  C   UNL A   1      38.896  21.454  25.778  1.00  0.00     0.012 A 
ATOM     19  C   UNL A   1      37.554  23.512  25.727  1.00  0.00     0.028 A 
ATOM     20  C   UNL A   1      37.797  20.754  25.229  1.00  0.00     0.011 A 
ATOM     21  C   UNL A   1      36.481  22.784  25.213  1.00  0.00     0.002 A 
ATOM     22  C   UNL A   1      36.600  21.424  24.959  1.00  0.00     0.001 A 
BRANCH  15  23
ATOM     23  S   UNL A   1      40.272  24.818  27.134  1.00  0.00     0.268 S 
ATOM     24  O   UNL A   1      39.269  25.029  28.171  1.00  0.00    -0.201 OA
ATOM     25  O   UNL A   1      40.384  25.651  25.966  1.00  0.00    -0.201 OA
BRANCH  23  26
ATOM     26  C   UNL A   1      41.861  24.789  27.927  1.00  0.00     0.088 A 
ATOM     27  C   UNL A   1      45.695  25.082  29.861  1.00  0.00     0.044 C 
ATOM     28  C   UNL A   1      44.365  24.962  29.178  1.00  0.00    -0.051 A 
ATOM     29  C   UNL A   1      44.032  25.838  28.139  1.00  0.00     0.005 A 
ATOM     30  C   UNL A   1      43.444  23.978  29.562  1.00  0.00     0.005 A 
ATOM     31  C   UNL A   1      42.785  25.758  27.518  1.00  0.00     0.022 A 
ATOM     32  C   UNL A   1      42.199  23.881  28.932  1.00  0.00     0.022 A 
ENDBRANCH  23  26
ENDBRANCH  15  23
ENDBRANCH  12  14
ENDBRANCH   9  12
ENDBRANCH   7   8
ENDBRANCH   4   7
ENDBRANCH   2   3
ENDBRANCH   1   2
BRANCH   1  33
ATOM     33  C   UNL A   1      45.825  24.714  25.077  1.00  0.00     0.002 C 
BRANCH  33  34
ATOM     34  C   UNL A   1      47.012  25.662  25.295  1.00  0.00     0.002 C 
BRANCH  34  35
ATOM     35  C   UNL A   1      47.084  26.311  26.675  1.00  0.00     0.021 C 
BRANCH  35  36
ATOM     36  C   UNL A   1      48.146  27.387  26.799  1.00  0.00     0.116 C 
BRANCH  36  37
ATOM     37  N   UNL A   1      47.829  28.538  25.981  1.00  0.00    -0.352 N 
ATOM     38  C   UNL A   1      46.842  29.489  26.149  1.00  0.00     0.251 C 
ATOM     39  H   UNL A   1      48.400  28.661  25.189  1.00  0.00     0.163 HD
ATOM     40  O   UNL A   1      46.474  30.128  25.167  1.00  0.00    -0.269 OA
BRANCH  38  41
ATOM     41  C   UNL A   1      46.427  29.884  27.523  1.00  0.00     0.039 A 
ATOM     42  C   UNL A   1      47.479  30.354  28.319  1.00  0.00     0.014 A 
ATOM     43  C   UNL A   1      45.307  29.316  28.119  1.00  0.00     0.014 A 
ATOM     44  C   UNL A   1      47.598  29.889  29.617  1.00  0.00     0.010 A 
ATOM     45  C   UNL A   1      45.468  28.760  29.359  1.00  0.00     0.010 A 
ATOM     46  C   UNL A   1      46.665  28.965  30.049  1.00  0.00    -0.014 A 
BRANCH  46  47
ATOM     47  C   UNL A   1      46.755  28.209  31.273  1.00  0.00     0.031 A 
ATOM     48  C   UNL A   1      47.822  27.206  31.350  1.00  0.00     0.074 A 
ATOM     49  C   UNL A   1      46.094  28.695  32.346  1.00  0.00     0.049 A 
ATOM     50  N   UNL A   1      48.024  26.437  32.355  1.00  0.00    -0.248 NA
ATOM     51  C   UNL A   1      48.758  26.982  30.250  1.00  0.00     0.031 C 
ATOM     52  C   UNL A   1      46.444  28.559  33.753  1.00  0.00     0.029 A 
ATOM     53  N   UNL A   1      44.908  29.404  32.409  1.00  0.00    -0.354 N 
ATOM     54  C   UNL A   1      49.269  25.870  32.185  1.00  0.00     0.074 A 
ATOM     55  C   UNL A   1      49.616  26.129  30.813  1.00  0.00     0.031 C 
ATOM     56  C   UNL A   1      45.387  28.918  34.507  1.00  0.00     0.029 A 
ATOM     57  C   UNL A   1      44.263  29.087  33.604  1.00  0.00     0.049 A 
ATOM     58  H   UNL A   1      44.576  30.029  31.725  1.00  0.00     0.167 HD
ATOM     59  C   UNL A   1      49.907  25.408  33.296  1.00  0.00     0.034 A 
ATOM     60  C   UNL A   1      43.144  28.289  33.628  1.00  0.00     0.034 A 
ATOM     61  C   UNL A   1      48.973  25.426  34.440  1.00  0.00     0.049 A 
ATOM     62  C   UNL A   1      43.390  26.934  34.293  1.00  0.00     0.074 A 
ATOM     63  C   UNL A   1      48.769  26.316  35.482  1.00  0.00     0.029 A 
ATOM     64  N   UNL A   1      47.834  24.625  34.387  1.00  0.00    -0.354 N 
ATOM     65  N   UNL A   1      44.569  26.459  34.597  1.00  0.00    -0.248 NA
ATOM     66  C   UNL A   1      42.321  26.022  34.693  1.00  0.00     0.031 C 
ATOM     67  C   UNL A   1      47.449  26.110  35.981  1.00  0.00     0.029 A 
ATOM     68  C   UNL A   1      46.864  25.070  35.275  1.00  0.00     0.049 A 
ATOM     69  H   UNL A   1      47.730  23.845  33.795  1.00  0.00     0.167 HD
ATOM     70  C   UNL A   1      44.464  25.192  35.105  1.00  0.00     0.074 A 
ATOM     71  C   UNL A   1      43.024  25.002  35.219  1.00  0.00     0.031 C 
ATOM     72  C   UNL A   1      45.562  24.400  35.343  1.00  0.00     0.034 A 
BRANCH  59  73
ATOM     73  C   UNL A   1      51.410  25.197  33.447  1.00  0.00     0.023 A 
ATOM     74  C   UNL A   1      52.235  26.286  33.080  1.00  0.00     0.012 A 
ATOM     75  C   UNL A   1      52.096  24.018  33.837  1.00  0.00     0.148 A 
ATOM     76  C   UNL A   1      53.632  26.200  33.044  1.00  0.00     0.002 A 
ATOM     77  C   UNL A   1      53.493  23.929  33.799  1.00  0.00     0.091 A 
ATOM     78  F   UNL A   1      51.422  22.956  34.268  1.00  0.00    -0.205 F 
ATOM     79  C   UNL A   1      54.264  25.017  33.393  1.00  0.00     0.022 A 
BRANCH  77  80
ATOM     80  S   UNL A   1      54.394  22.425  34.240  1.00  0.00     0.127 S 
ATOM     81  O   UNL A   1      55.788  22.838  34.063  1.00  0.00    -0.237 OA
ATOM     82  O   UNL A   1      53.996  22.221  35.632  1.00  0.00    -0.237 OA
ATOM     83  O   UNL A   1      53.953  21.387  33.317  1.00  0.00    -0.744 OA
ENDBRANCH  77  80
ENDBRANCH  59  73
BRANCH  60  84
ATOM     84  C   UNL A   1      42.248  28.532  32.451  1.00  0.00     0.023 A 
ATOM     85  C   UNL A   1      42.592  27.859  31.252  1.00  0.00     0.012 A 
ATOM     86  C   UNL A   1      40.921  28.961  32.628  1.00  0.00     0.148 A 
ATOM     87  C   UNL A   1      41.601  27.420  30.371  1.00  0.00     0.002 A 
ATOM     88  C   UNL A   1      39.939  28.532  31.735  1.00  0.00     0.091 A 
ATOM     89  F   UNL A   1      40.627  29.723  33.689  1.00  0.00    -0.205 F 
ATOM     90  C   UNL A   1      40.269  27.709  30.645  1.00  0.00     0.022 A 
BRANCH  88  91
ATOM     91  S   UNL A   1      38.201  28.902  32.013  1.00  0.00     0.127 S 
ATOM     92  O   UNL A   1      38.250  30.325  32.333  1.00  0.00    -0.237 OA
ATOM     93  O   UNL A   1      37.594  28.590  30.719  1.00  0.00    -0.237 OA
ATOM     94  O   UNL A   1      37.794  28.013  33.091  1.00  0.00    -0.744 OA
ENDBRANCH  88  91
ENDBRANCH  60  84
BRANCH  72  95
ATOM     95  C   UNL A   1      45.525  22.908  35.664  1.00  0.00     0.023 A 
ATOM     96  C   UNL A   1      45.316  21.925  34.679  1.00  0.00     0.012 A 
ATOM     97  C   UNL A   1      45.829  22.427  36.968  1.00  0.00     0.148 A 
ATOM     98  C   UNL A   1      45.319  20.556  34.973  1.00  0.00     0.002 A 
ATOM     99  C   UNL A   1      45.969  21.064  37.225  1.00  0.00     0.091 A 
ATOM    100  F   UNL A   1      45.957  23.282  37.991  1.00  0.00    -0.205 F 
ATOM    101  C   UNL A   1      45.669  20.124  36.242  1.00  0.00     0.022 A 
BRANCH  99 102
ATOM    102  S   UNL A   1      46.686  20.465  38.763  1.00  0.00     0.127 S 
ATOM    103  O   UNL A   1      45.913  21.200  39.762  1.00  0.00    -0.237 OA
ATOM    104  O   UNL A   1      46.394  19.031  38.701  1.00  0.00    -0.237 OA
ATOM    105  O   UNL A   1      48.103  20.789  38.681  1.00  0.00    -0.744 OA
ENDBRANCH  99 102
ENDBRANCH  72  95
ENDBRANCH  46  47
ENDBRANCH  38  41
ENDBRANCH  36  37
ENDBRANCH  35  36
ENDBRANCH  34  35
ENDBRANCH  33  34
ENDBRANCH   1  33
TORSDOF 21
ENDMDL
