MODEL 1
REMARK VINA RESULT:     -10.3      0.000      0.000
REMARK SMILES C[C@@H](C(=O)NCCCCCCNC(=O)c1ccc(-c2c3nc(c(-c4cccc(S(=O)(=O)[O-])c4F)c4ccc([nH]4)c(-c4cccc(S(=O)(=O)[O-])c4F)c4nc(c(-c5cccc(S(=O)(=O)[O-])c5F)c5ccc2[nH]5)C=C4)C=C3)cc1)c1ccc(C(=O)c2cccs2)cc1
REMARK SMILES IDX 8 1 7 2 6 3 5 4 3 5 4 6 2 8 1 9 78 10 79 11 90 12 80 13
REMARK SMILES IDX 89 14 81 15 82 16 83 17 84 18 85 19 88 20 86 21 87 22 9 23
REMARK SMILES IDX 10 24 11 25 12 26 13 27 14 29 15 30 16 31 77 32 17 33 76 34
REMARK SMILES IDX 18 35 19 36 20 37 70 38 21 39 75 40 69 41 71 42 22 43 74 44
REMARK SMILES IDX 68 45 67 46 23 48 55 49 35 50 54 51 36 52 39 53 53 54 72 55
REMARK SMILES IDX 37 56 38 57 52 59 73 60 40 61 24 62 25 63 33 64 26 65 28 66
REMARK SMILES IDX 34 67 27 68 29 69 30 70 31 71 32 72 56 73 57 74 65 75 58 76
REMARK SMILES IDX 60 77 66 78 59 79 61 80 62 81 63 82 64 83 41 84 42 85 50 86
REMARK SMILES IDX 43 87 45 88 51 89 44 90 46 91 47 92 48 93 49 94
REMARK H PARENT 5 7 12 28 71 47 39 58
REMARK Flexibility Score: inf
ROOT
ATOM      1  C   UNL A   1      34.797  24.869  24.990  1.00  0.00     0.002 C 
ENDROOT
BRANCH   1   2
ATOM      2  C   UNL A   1      33.954  25.673  23.989  1.00  0.00     0.021 C 
BRANCH   2   3
ATOM      3  C   UNL A   1      32.761  26.399  24.616  1.00  0.00     0.116 C 
BRANCH   3   4
ATOM      4  N   UNL A   1      31.546  26.094  23.893  1.00  0.00    -0.356 N 
ATOM      5  C   UNL A   1      30.599  25.140  24.103  1.00  0.00     0.227 C 
ATOM      6  O   UNL A   1      29.695  25.095  23.264  1.00  0.00    -0.274 OA
ATOM      7  H   UNL A   1      31.375  26.676  23.117  1.00  0.00     0.163 HD
BRANCH   5   8
ATOM      8  C   UNL A   1      30.656  24.240  25.357  1.00  0.00     0.105 C 
ATOM      9  C   UNL A   1      30.981  24.997  26.649  1.00  0.00     0.023 C 
BRANCH   8  10
ATOM     10  C   UNL A   1      31.665  23.096  25.251  1.00  0.00    -0.036 A 
ATOM     11  C   UNL A   1      31.884  22.459  24.021  1.00  0.00     0.005 A 
ATOM     12  C   UNL A   1      32.317  22.596  26.386  1.00  0.00     0.005 A 
ATOM     13  C   UNL A   1      32.743  21.355  23.935  1.00  0.00     0.012 A 
ATOM     14  C   UNL A   1      33.202  21.522  26.295  1.00  0.00     0.012 A 
ATOM     15  C   UNL A   1      33.410  20.877  25.072  1.00  0.00     0.023 A 
BRANCH  15  16
ATOM     16  C   UNL A   1      34.346  19.712  24.928  1.00  0.00     0.202 C 
ATOM     17  O   UNL A   1      35.548  19.938  24.797  1.00  0.00    -0.288 OA
BRANCH  16  18
ATOM     18  C   UNL A   1      33.805  18.365  24.982  1.00  0.00     0.075 A 
ATOM     19  C   UNL A   1      32.590  17.919  25.468  1.00  0.00     0.024 A 
ATOM     20  S   UNL A   1      34.755  17.075  24.380  1.00  0.00    -0.140 S 
ATOM     21  C   UNL A   1      32.483  16.498  25.428  1.00  0.00     0.012 A 
ATOM     22  C   UNL A   1      33.598  15.915  24.868  1.00  0.00     0.065 A 
ENDBRANCH  16  18
ENDBRANCH  15  16
ENDBRANCH   8  10
ENDBRANCH   5   8
ENDBRANCH   3   4
ENDBRANCH   2   3
ENDBRANCH   1   2
BRANCH   1  23
ATOM     23  C   UNL A   1      35.528  23.661  24.398  1.00  0.00     0.002 C 
BRANCH  23  24
ATOM     24  C   UNL A   1      37.012  23.571  24.755  1.00  0.00     0.021 C 
BRANCH  24  25
ATOM     25  C   UNL A   1      37.289  23.035  26.153  1.00  0.00     0.116 C 
BRANCH  25  26
ATOM     26  N   UNL A   1      38.438  22.144  26.175  1.00  0.00    -0.352 N 
ATOM     27  C   UNL A   1      39.759  22.453  26.375  1.00  0.00     0.251 C 
ATOM     28  H   UNL A   1      38.241  21.192  26.025  1.00  0.00     0.163 HD
ATOM     29  O   UNL A   1      40.627  21.608  26.155  1.00  0.00    -0.269 OA
BRANCH  27  30
ATOM     30  C   UNL A   1      40.135  23.803  26.844  1.00  0.00     0.039 A 
ATOM     31  C   UNL A   1      40.448  23.991  28.193  1.00  0.00     0.014 A 
ATOM     32  C   UNL A   1      40.165  24.883  25.958  1.00  0.00     0.014 A 
ATOM     33  C   UNL A   1      40.815  25.260  28.646  1.00  0.00     0.010 A 
ATOM     34  C   UNL A   1      40.615  26.125  26.393  1.00  0.00     0.010 A 
ATOM     35  C   UNL A   1      40.914  26.335  27.747  1.00  0.00    -0.014 A 
BRANCH  35  36
ATOM     36  C   UNL A   1      41.279  27.697  28.212  1.00  0.00     0.031 A 
ATOM     37  C   UNL A   1      42.722  28.129  28.206  1.00  0.00     0.074 A 
ATOM     38  C   UNL A   1      40.329  28.519  28.698  1.00  0.00     0.049 A 
ATOM     39  N   UNL A   1      43.246  29.263  28.594  1.00  0.00    -0.248 NA
ATOM     40  C   UNL A   1      43.713  27.147  27.731  1.00  0.00     0.031 C 
ATOM     41  C   UNL A   1      38.908  28.192  28.825  1.00  0.00     0.029 A 
ATOM     42  N   UNL A   1      40.421  29.795  29.195  1.00  0.00    -0.354 N 
ATOM     43  C   UNL A   1      44.621  29.113  28.456  1.00  0.00     0.074 A 
ATOM     44  C   UNL A   1      44.855  27.767  27.985  1.00  0.00     0.031 C 
ATOM     45  C   UNL A   1      38.258  29.245  29.345  1.00  0.00     0.029 A 
ATOM     46  C   UNL A   1      39.218  30.311  29.617  1.00  0.00     0.049 A 
ATOM     47  H   UNL A   1      41.268  30.295  29.244  1.00  0.00     0.167 HD
ATOM     48  C   UNL A   1      45.602  30.021  28.673  1.00  0.00     0.034 A 
ATOM     49  C   UNL A   1      38.924  31.509  30.159  1.00  0.00     0.034 A 
ATOM     50  C   UNL A   1      45.361  31.375  29.091  1.00  0.00     0.049 A 
ATOM     51  C   UNL A   1      40.025  32.519  30.341  1.00  0.00     0.074 A 
ATOM     52  C   UNL A   1      46.272  32.405  29.243  1.00  0.00     0.029 A 
ATOM     53  N   UNL A   1      44.119  31.887  29.431  1.00  0.00    -0.354 N 
ATOM     54  N   UNL A   1      41.300  32.413  30.054  1.00  0.00    -0.248 NA
ATOM     55  C   UNL A   1      39.639  33.830  30.881  1.00  0.00     0.031 C 
ATOM     56  C   UNL A   1      45.586  33.529  29.709  1.00  0.00     0.029 A 
ATOM     57  C   UNL A   1      44.240  33.213  29.805  1.00  0.00     0.049 A 
ATOM     58  H   UNL A   1      43.274  31.381  29.411  1.00  0.00     0.167 HD
ATOM     59  C   UNL A   1      41.858  33.657  30.329  1.00  0.00     0.074 A 
ATOM     60  C   UNL A   1      40.779  34.502  30.796  1.00  0.00     0.031 C 
ATOM     61  C   UNL A   1      43.147  34.060  30.211  1.00  0.00     0.034 A 
BRANCH  48  62
ATOM     62  C   UNL A   1      47.024  29.588  28.428  1.00  0.00     0.023 A 
ATOM     63  C   UNL A   1      47.612  29.779  27.160  1.00  0.00     0.012 A 
ATOM     64  C   UNL A   1      47.795  29.028  29.465  1.00  0.00     0.148 A 
ATOM     65  C   UNL A   1      48.924  29.378  26.914  1.00  0.00     0.002 A 
ATOM     66  C   UNL A   1      49.119  28.678  29.228  1.00  0.00     0.091 A 
ATOM     67  F   UNL A   1      47.217  28.832  30.658  1.00  0.00    -0.205 F 
ATOM     68  C   UNL A   1      49.680  28.838  27.950  1.00  0.00     0.022 A 
BRANCH  66  69
ATOM     69  S   UNL A   1      50.201  28.054  30.520  1.00  0.00     0.127 S 
ATOM     70  O   UNL A   1      49.748  28.823  31.679  1.00  0.00    -0.237 OA
ATOM     71  O   UNL A   1      49.850  26.634  30.556  1.00  0.00    -0.237 OA
ATOM     72  O   UNL A   1      51.559  28.333  30.075  1.00  0.00    -0.744 OA
ENDBRANCH  66  69
ENDBRANCH  48  62
BRANCH  49  73
ATOM     73  C   UNL A   1      37.511  31.854  30.484  1.00  0.00     0.023 A 
ATOM     74  C   UNL A   1      37.029  31.625  31.788  1.00  0.00     0.012 A 
ATOM     75  C   UNL A   1      36.652  32.423  29.525  1.00  0.00     0.148 A 
ATOM     76  C   UNL A   1      35.707  31.920  32.121  1.00  0.00     0.002 A 
ATOM     77  C   UNL A   1      35.352  32.766  29.877  1.00  0.00     0.091 A 
ATOM     78  F   UNL A   1      37.129  32.629  28.290  1.00  0.00    -0.205 F 
ATOM     79  C   UNL A   1      34.871  32.498  31.169  1.00  0.00     0.022 A 
BRANCH  77  80
ATOM     80  S   UNL A   1      34.242  33.627  28.759  1.00  0.00     0.127 S 
ATOM     81  O   UNL A   1      33.657  32.520  28.007  1.00  0.00    -0.237 OA
ATOM     82  O   UNL A   1      33.331  34.289  29.692  1.00  0.00    -0.237 OA
ATOM     83  O   UNL A   1      35.082  34.537  27.991  1.00  0.00    -0.744 OA
ENDBRANCH  77  80
ENDBRANCH  49  73
BRANCH  61  84
ATOM     84  C   UNL A   1      43.462  35.500  30.524  1.00  0.00     0.023 A 
ATOM     85  C   UNL A   1      43.478  36.465  29.498  1.00  0.00     0.012 A 
ATOM     86  C   UNL A   1      43.675  35.906  31.857  1.00  0.00     0.148 A 
ATOM     87  C   UNL A   1      43.740  37.804  29.788  1.00  0.00     0.002 A 
ATOM     88  C   UNL A   1      43.881  37.249  32.146  1.00  0.00     0.091 A 
ATOM     89  F   UNL A   1      43.677  34.970  32.818  1.00  0.00    -0.205 F 
ATOM     90  C   UNL A   1      43.929  38.196  31.112  1.00  0.00     0.022 A 
BRANCH  88  91
ATOM     91  S   UNL A   1      44.026  37.855  33.830  1.00  0.00     0.127 S 
ATOM     92  O   UNL A   1      45.128  38.808  33.710  1.00  0.00    -0.237 OA
ATOM     93  O   UNL A   1      42.715  38.465  34.054  1.00  0.00    -0.237 OA
ATOM     94  O   UNL A   1      44.294  36.685  34.656  1.00  0.00    -0.744 OA
ENDBRANCH  88  91
ENDBRANCH  61  84
ENDBRANCH  35  36
ENDBRANCH  27  30
ENDBRANCH  25  26
ENDBRANCH  24  25
ENDBRANCH  23  24
ENDBRANCH   1  23
TORSDOF 19
ENDMDL
MODEL 2
REMARK VINA RESULT:     -10.2      5.311     10.111
REMARK SMILES C[C@@H](C(=O)NCCCCCCNC(=O)c1ccc(-c2c3nc(c(-c4cccc(S(=O)(=O)[O-])c4F)c4ccc([nH]4)c(-c4cccc(S(=O)(=O)[O-])c4F)c4nc(c(-c5cccc(S(=O)(=O)[O-])c5F)c5ccc2[nH]5)C=C4)C=C3)cc1)c1ccc(C(=O)c2cccs2)cc1
REMARK SMILES IDX 8 1 7 2 6 3 5 4 3 5 4 6 2 8 1 9 78 10 79 11 90 12 80 13
REMARK SMILES IDX 89 14 81 15 82 16 83 17 84 18 85 19 88 20 86 21 87 22 9 23
REMARK SMILES IDX 10 24 11 25 12 26 13 27 14 29 15 30 16 31 77 32 17 33 76 34
REMARK SMILES IDX 18 35 19 36 20 37 70 38 21 39 75 40 69 41 71 42 22 43 74 44
REMARK SMILES IDX 68 45 67 46 23 48 55 49 35 50 54 51 36 52 39 53 53 54 72 55
REMARK SMILES IDX 37 56 38 57 52 59 73 60 40 61 24 62 25 63 33 64 26 65 28 66
REMARK SMILES IDX 34 67 27 68 29 69 30 70 31 71 32 72 56 73 57 74 65 75 58 76
REMARK SMILES IDX 60 77 66 78 59 79 61 80 62 81 63 82 64 83 41 84 42 85 50 86
REMARK SMILES IDX 43 87 45 88 51 89 44 90 46 91 47 92 48 93 49 94
REMARK H PARENT 5 7 12 28 71 47 39 58
REMARK Flexibility Score: inf
ROOT
ATOM      1  C   UNL A   1      35.625  33.952  28.765  1.00  0.00     0.002 C 
ENDROOT
BRANCH   1   2
ATOM      2  C   UNL A   1      35.626  32.503  28.256  1.00  0.00     0.021 C 
BRANCH   2   3
ATOM      3  C   UNL A   1      34.440  31.667  28.742  1.00  0.00     0.116 C 
BRANCH   3   4
ATOM      4  N   UNL A   1      33.459  31.519  27.690  1.00  0.00    -0.356 N 
ATOM      5  C   UNL A   1      33.091  30.432  26.960  1.00  0.00     0.227 C 
ATOM      6  O   UNL A   1      32.252  30.642  26.080  1.00  0.00    -0.274 OA
ATOM      7  H   UNL A   1      32.974  32.346  27.464  1.00  0.00     0.163 HD
BRANCH   5   8
ATOM      8  C   UNL A   1      33.663  29.035  27.290  1.00  0.00     0.105 C 
ATOM      9  C   UNL A   1      35.158  28.890  26.991  1.00  0.00     0.023 C 
BRANCH   8  10
ATOM     10  C   UNL A   1      32.955  27.890  26.564  1.00  0.00    -0.036 A 
ATOM     11  C   UNL A   1      33.614  27.183  25.548  1.00  0.00     0.005 A 
ATOM     12  C   UNL A   1      31.613  27.584  26.826  1.00  0.00     0.005 A 
ATOM     13  C   UNL A   1      32.942  26.192  24.821  1.00  0.00     0.012 A 
ATOM     14  C   UNL A   1      30.955  26.571  26.130  1.00  0.00     0.012 A 
ATOM     15  C   UNL A   1      31.607  25.875  25.107  1.00  0.00     0.023 A 
BRANCH  15  16
ATOM     16  C   UNL A   1      30.936  24.783  24.326  1.00  0.00     0.202 C 
ATOM     17  O   UNL A   1      30.030  25.086  23.552  1.00  0.00    -0.288 OA
BRANCH  16  18
ATOM     18  C   UNL A   1      31.403  23.416  24.487  1.00  0.00     0.075 A 
ATOM     19  C   UNL A   1      31.261  22.554  25.559  1.00  0.00     0.024 A 
ATOM     20  S   UNL A   1      32.277  22.693  23.206  1.00  0.00    -0.140 S 
ATOM     21  C   UNL A   1      31.956  21.326  25.356  1.00  0.00     0.012 A 
ATOM     22  C   UNL A   1      32.561  21.275  24.120  1.00  0.00     0.065 A 
ENDBRANCH  16  18
ENDBRANCH  15  16
ENDBRANCH   8  10
ENDBRANCH   5   8
ENDBRANCH   3   4
ENDBRANCH   2   3
ENDBRANCH   1   2
BRANCH   1  23
ATOM     23  C   UNL A   1      34.645  34.888  28.054  1.00  0.00     0.002 C 
BRANCH  23  24
ATOM     24  C   UNL A   1      33.363  35.186  28.833  1.00  0.00     0.021 C 
BRANCH  24  25
ATOM     25  C   UNL A   1      33.458  36.391  29.758  1.00  0.00     0.116 C 
BRANCH  25  26
ATOM     26  N   UNL A   1      32.471  36.334  30.826  1.00  0.00    -0.352 N 
ATOM     27  C   UNL A   1      32.486  35.577  31.968  1.00  0.00     0.251 C 
ATOM     28  H   UNL A   1      31.687  36.919  30.711  1.00  0.00     0.163 HD
ATOM     29  O   UNL A   1      31.474  35.495  32.663  1.00  0.00    -0.269 OA
BRANCH  27  30
ATOM     30  C   UNL A   1      33.716  34.855  32.355  1.00  0.00     0.039 A 
ATOM     31  C   UNL A   1      34.950  35.496  32.227  1.00  0.00     0.014 A 
ATOM     32  C   UNL A   1      33.651  33.541  32.829  1.00  0.00     0.014 A 
ATOM     33  C   UNL A   1      36.118  34.826  32.599  1.00  0.00     0.010 A 
ATOM     34  C   UNL A   1      34.805  32.910  33.281  1.00  0.00     0.010 A 
ATOM     35  C   UNL A   1      36.054  33.532  33.141  1.00  0.00    -0.014 A 
BRANCH  35  36
ATOM     36  C   UNL A   1      37.285  32.794  33.520  1.00  0.00     0.031 A 
ATOM     37  C   UNL A   1      38.049  33.196  34.755  1.00  0.00     0.074 A 
ATOM     38  C   UNL A   1      37.752  31.811  32.727  1.00  0.00     0.049 A 
ATOM     39  N   UNL A   1      39.156  32.695  35.241  1.00  0.00    -0.248 NA
ATOM     40  C   UNL A   1      37.519  34.330  35.531  1.00  0.00     0.031 C 
ATOM     41  C   UNL A   1      37.143  31.377  31.467  1.00  0.00     0.029 A 
ATOM     42  N   UNL A   1      38.859  31.009  32.853  1.00  0.00    -0.354 N 
ATOM     43  C   UNL A   1      39.476  33.478  36.343  1.00  0.00     0.074 A 
ATOM     44  C   UNL A   1      38.470  34.512  36.434  1.00  0.00     0.031 C 
ATOM     45  C   UNL A   1      37.873  30.377  30.948  1.00  0.00     0.029 A 
ATOM     46  C   UNL A   1      39.016  30.117  31.819  1.00  0.00     0.049 A 
ATOM     47  H   UNL A   1      39.481  31.068  33.614  1.00  0.00     0.167 HD
ATOM     48  C   UNL A   1      40.499  33.337  37.220  1.00  0.00     0.034 A 
ATOM     49  C   UNL A   1      39.971  29.193  31.601  1.00  0.00     0.034 A 
ATOM     50  C   UNL A   1      41.467  32.277  37.155  1.00  0.00     0.049 A 
ATOM     51  C   UNL A   1      41.068  29.021  32.618  1.00  0.00     0.074 A 
ATOM     52  C   UNL A   1      42.481  31.982  38.048  1.00  0.00     0.029 A 
ATOM     53  N   UNL A   1      41.546  31.340  36.136  1.00  0.00    -0.354 N 
ATOM     54  N   UNL A   1      41.264  29.671  33.740  1.00  0.00    -0.248 NA
ATOM     55  C   UNL A   1      42.051  27.959  32.360  1.00  0.00     0.031 C 
ATOM     56  C   UNL A   1      43.196  30.888  37.550  1.00  0.00     0.029 A 
ATOM     57  C   UNL A   1      42.599  30.475  36.370  1.00  0.00     0.049 A 
ATOM     58  H   UNL A   1      40.941  31.298  35.359  1.00  0.00     0.167 HD
ATOM     59  C   UNL A   1      42.359  29.063  34.346  1.00  0.00     0.074 A 
ATOM     60  C   UNL A   1      42.776  27.988  33.470  1.00  0.00     0.031 C 
ATOM     61  C   UNL A   1      42.966  29.371  35.518  1.00  0.00     0.034 A 
BRANCH  48  62
ATOM     62  C   UNL A   1      40.601  34.336  38.343  1.00  0.00     0.023 A 
ATOM     63  C   UNL A   1      41.467  35.443  38.226  1.00  0.00     0.012 A 
ATOM     64  C   UNL A   1      39.809  34.202  39.500  1.00  0.00     0.148 A 
ATOM     65  C   UNL A   1      41.579  36.373  39.259  1.00  0.00     0.002 A 
ATOM     66  C   UNL A   1      39.887  35.161  40.503  1.00  0.00     0.091 A 
ATOM     67  F   UNL A   1      39.007  33.133  39.606  1.00  0.00    -0.205 F 
ATOM     68  C   UNL A   1      40.782  36.238  40.391  1.00  0.00     0.022 A 
BRANCH  66  69
ATOM     69  S   UNL A   1      38.839  35.122  41.962  1.00  0.00     0.127 S 
ATOM     70  O   UNL A   1      39.321  33.917  42.639  1.00  0.00    -0.237 OA
ATOM     71  O   UNL A   1      39.191  36.377  42.627  1.00  0.00    -0.237 OA
ATOM     72  O   UNL A   1      37.470  35.059  41.471  1.00  0.00    -0.744 OA
ENDBRANCH  66  69
ENDBRANCH  48  62
BRANCH  49  73
ATOM     73  C   UNL A   1      39.884  28.295  30.414  1.00  0.00     0.023 A 
ATOM     74  C   UNL A   1      39.023  27.181  30.455  1.00  0.00     0.012 A 
ATOM     75  C   UNL A   1      40.627  28.546  29.245  1.00  0.00     0.148 A 
ATOM     76  C   UNL A   1      38.932  26.311  29.368  1.00  0.00     0.002 A 
ATOM     77  C   UNL A   1      40.491  27.707  28.145  1.00  0.00     0.091 A 
ATOM     78  F   UNL A   1      41.443  29.609  29.229  1.00  0.00    -0.205 F 
ATOM     79  C   UNL A   1      39.657  26.579  28.211  1.00  0.00     0.022 A 
BRANCH  77  80
ATOM     80  S   UNL A   1      41.288  28.039  26.571  1.00  0.00     0.127 S 
ATOM     81  O   UNL A   1      40.610  29.260  26.144  1.00  0.00    -0.237 OA
ATOM     82  O   UNL A   1      42.683  28.215  26.972  1.00  0.00    -0.237 OA
ATOM     83  O   UNL A   1      41.043  26.861  25.748  1.00  0.00    -0.744 OA
ENDBRANCH  77  80
ENDBRANCH  49  73
BRANCH  61  84
ATOM     84  C   UNL A   1      44.108  28.497  35.967  1.00  0.00     0.023 A 
ATOM     85  C   UNL A   1      43.863  27.357  36.758  1.00  0.00     0.012 A 
ATOM     86  C   UNL A   1      45.422  28.772  35.541  1.00  0.00     0.148 A 
ATOM     87  C   UNL A   1      44.913  26.528  37.151  1.00  0.00     0.002 A 
ATOM     88  C   UNL A   1      46.456  27.912  35.889  1.00  0.00     0.091 A 
ATOM     89  F   UNL A   1      45.639  29.873  34.805  1.00  0.00    -0.205 F 
ATOM     90  C   UNL A   1      46.206  26.798  36.707  1.00  0.00     0.022 A 
BRANCH  88  91
ATOM     91  S   UNL A   1      48.129  28.125  35.273  1.00  0.00     0.127 S 
ATOM     92  O   UNL A   1      48.855  27.097  36.017  1.00  0.00    -0.237 OA
ATOM     93  O   UNL A   1      47.971  27.847  33.845  1.00  0.00    -0.237 OA
ATOM     94  O   UNL A   1      48.498  29.500  35.581  1.00  0.00    -0.744 OA
ENDBRANCH  88  91
ENDBRANCH  61  84
ENDBRANCH  35  36
ENDBRANCH  27  30
ENDBRANCH  25  26
ENDBRANCH  24  25
ENDBRANCH  23  24
ENDBRANCH   1  23
TORSDOF 19
ENDMDL
MODEL 3
REMARK VINA RESULT:     -10.2      2.800      3.517
REMARK SMILES C[C@@H](C(=O)NCCCCCCNC(=O)c1ccc(-c2c3nc(c(-c4cccc(S(=O)(=O)[O-])c4F)c4ccc([nH]4)c(-c4cccc(S(=O)(=O)[O-])c4F)c4nc(c(-c5cccc(S(=O)(=O)[O-])c5F)c5ccc2[nH]5)C=C4)C=C3)cc1)c1ccc(C(=O)c2cccs2)cc1
REMARK SMILES IDX 8 1 7 2 6 3 5 4 3 5 4 6 2 8 1 9 78 10 79 11 90 12 80 13
REMARK SMILES IDX 89 14 81 15 82 16 83 17 84 18 85 19 88 20 86 21 87 22 9 23
REMARK SMILES IDX 10 24 11 25 12 26 13 27 14 29 15 30 16 31 77 32 17 33 76 34
REMARK SMILES IDX 18 35 19 36 20 37 70 38 21 39 75 40 69 41 71 42 22 43 74 44
REMARK SMILES IDX 68 45 67 46 23 48 55 49 35 50 54 51 36 52 39 53 53 54 72 55
REMARK SMILES IDX 37 56 38 57 52 59 73 60 40 61 24 62 25 63 33 64 26 65 28 66
REMARK SMILES IDX 34 67 27 68 29 69 30 70 31 71 32 72 56 73 57 74 65 75 58 76
REMARK SMILES IDX 60 77 66 78 59 79 61 80 62 81 63 82 64 83 41 84 42 85 50 86
REMARK SMILES IDX 43 87 45 88 51 89 44 90 46 91 47 92 48 93 49 94
REMARK H PARENT 5 7 12 28 71 47 39 58
REMARK Flexibility Score: inf
ROOT
ATOM      1  C   UNL A   1      36.870  22.411  25.757  1.00  0.00     0.002 C 
ENDROOT
BRANCH   1   2
ATOM      2  C   UNL A   1      35.958  23.139  24.759  1.00  0.00     0.021 C 
BRANCH   2   3
ATOM      3  C   UNL A   1      35.093  24.236  25.384  1.00  0.00     0.116 C 
BRANCH   3   4
ATOM      4  N   UNL A   1      34.431  25.008  24.356  1.00  0.00    -0.356 N 
ATOM      5  C   UNL A   1      33.161  24.944  23.872  1.00  0.00     0.227 C 
ATOM      6  O   UNL A   1      32.909  25.709  22.937  1.00  0.00    -0.274 OA
ATOM      7  H   UNL A   1      34.994  25.696  23.934  1.00  0.00     0.163 HD
BRANCH   5   8
ATOM      8  C   UNL A   1      32.119  24.009  24.525  1.00  0.00     0.105 C 
ATOM      9  C   UNL A   1      32.110  24.064  26.056  1.00  0.00     0.023 C 
BRANCH   8  10
ATOM     10  C   UNL A   1      32.279  22.538  24.138  1.00  0.00    -0.036 A 
ATOM     11  C   UNL A   1      32.077  22.131  22.812  1.00  0.00     0.005 A 
ATOM     12  C   UNL A   1      32.534  21.557  25.105  1.00  0.00     0.005 A 
ATOM     13  C   UNL A   1      32.138  20.774  22.468  1.00  0.00     0.012 A 
ATOM     14  C   UNL A   1      32.634  20.211  24.758  1.00  0.00     0.012 A 
ATOM     15  C   UNL A   1      32.418  19.802  23.438  1.00  0.00     0.023 A 
BRANCH  15  16
ATOM     16  C   UNL A   1      32.507  18.363  23.019  1.00  0.00     0.202 C 
ATOM     17  O   UNL A   1      32.254  18.075  21.851  1.00  0.00    -0.288 OA
BRANCH  16  18
ATOM     18  C   UNL A   1      32.921  17.371  23.998  1.00  0.00     0.075 A 
ATOM     19  C   UNL A   1      32.209  16.806  25.039  1.00  0.00     0.024 A 
ATOM     20  S   UNL A   1      34.520  16.765  23.924  1.00  0.00    -0.140 S 
ATOM     21  C   UNL A   1      33.014  15.940  25.834  1.00  0.00     0.012 A 
ATOM     22  C   UNL A   1      34.297  15.836  25.343  1.00  0.00     0.065 A 
ENDBRANCH  16  18
ENDBRANCH  15  16
ENDBRANCH   8  10
ENDBRANCH   5   8
ENDBRANCH   3   4
ENDBRANCH   2   3
ENDBRANCH   1   2
BRANCH   1  23
ATOM     23  C   UNL A   1      37.655  21.233  25.177  1.00  0.00     0.002 C 
BRANCH  23  24
ATOM     24  C   UNL A   1      39.140  21.210  25.543  1.00  0.00     0.021 C 
BRANCH  24  25
ATOM     25  C   UNL A   1      39.535  20.085  26.490  1.00  0.00     0.116 C 
BRANCH  25  26
ATOM     26  N   UNL A   1      40.762  19.427  26.069  1.00  0.00    -0.352 N 
ATOM     27  C   UNL A   1      42.004  19.973  25.872  1.00  0.00     0.251 C 
ATOM     28  H   UNL A   1      40.690  18.459  25.904  1.00  0.00     0.163 HD
ATOM     29  O   UNL A   1      42.882  19.315  25.316  1.00  0.00    -0.269 OA
BRANCH  27  30
ATOM     30  C   UNL A   1      42.279  21.354  26.320  1.00  0.00     0.039 A 
ATOM     31  C   UNL A   1      42.505  21.597  27.677  1.00  0.00     0.014 A 
ATOM     32  C   UNL A   1      42.300  22.410  25.404  1.00  0.00     0.014 A 
ATOM     33  C   UNL A   1      42.776  22.897  28.110  1.00  0.00     0.010 A 
ATOM     34  C   UNL A   1      42.656  23.687  25.824  1.00  0.00     0.010 A 
ATOM     35  C   UNL A   1      42.866  23.950  27.185  1.00  0.00    -0.014 A 
BRANCH  35  36
ATOM     36  C   UNL A   1      43.130  25.343  27.627  1.00  0.00     0.031 A 
ATOM     37  C   UNL A   1      44.536  25.885  27.601  1.00  0.00     0.074 A 
ATOM     38  C   UNL A   1      42.124  26.097  28.111  1.00  0.00     0.049 A 
ATOM     39  N   UNL A   1      44.974  27.061  27.968  1.00  0.00    -0.248 NA
ATOM     40  C   UNL A   1      45.594  24.975  27.130  1.00  0.00     0.031 C 
ATOM     41  C   UNL A   1      40.733  25.664  28.256  1.00  0.00     0.029 A 
ATOM     42  N   UNL A   1      42.122  27.384  28.589  1.00  0.00    -0.354 N 
ATOM     43  C   UNL A   1      46.355  27.015  27.818  1.00  0.00     0.074 A 
ATOM     44  C   UNL A   1      46.688  25.684  27.364  1.00  0.00     0.031 C 
ATOM     45  C   UNL A   1      40.009  26.672  28.768  1.00  0.00     0.029 A 
ATOM     46  C   UNL A   1      40.887  27.812  29.016  1.00  0.00     0.049 A 
ATOM     47  H   UNL A   1      42.928  27.947  28.623  1.00  0.00     0.167 HD
ATOM     48  C   UNL A   1      47.266  27.999  28.012  1.00  0.00     0.034 A 
ATOM     49  C   UNL A   1      40.506  28.992  29.543  1.00  0.00     0.034 A 
ATOM     50  C   UNL A   1      46.925  29.336  28.414  1.00  0.00     0.049 A 
ATOM     51  C   UNL A   1      41.528  30.086  29.700  1.00  0.00     0.074 A 
ATOM     52  C   UNL A   1      47.756  30.434  28.542  1.00  0.00     0.029 A 
ATOM     53  N   UNL A   1      45.650  29.756  28.759  1.00  0.00    -0.354 N 
ATOM     54  N   UNL A   1      42.805  30.074  29.402  1.00  0.00    -0.248 NA
ATOM     55  C   UNL A   1      41.047  31.372  30.225  1.00  0.00     0.031 C 
ATOM     56  C   UNL A   1      46.989  31.510  28.999  1.00  0.00     0.029 A 
ATOM     57  C   UNL A   1      45.672  31.093  29.113  1.00  0.00     0.049 A 
ATOM     58  H   UNL A   1      44.847  29.186  28.754  1.00  0.00     0.167 HD
ATOM     59  C   UNL A   1      43.268  31.361  29.654  1.00  0.00     0.074 A 
ATOM     60  C   UNL A   1      42.131  32.128  30.119  1.00  0.00     0.031 C 
ATOM     61  C   UNL A   1      44.521  31.860  29.517  1.00  0.00     0.034 A 
BRANCH  48  62
ATOM     62  C   UNL A   1      48.715  27.672  27.760  1.00  0.00     0.023 A 
ATOM     63  C   UNL A   1      49.502  27.117  28.791  1.00  0.00     0.012 A 
ATOM     64  C   UNL A   1      49.289  27.875  26.490  1.00  0.00     0.148 A 
ATOM     65  C   UNL A   1      50.847  26.815  28.577  1.00  0.00     0.002 A 
ATOM     66  C   UNL A   1      50.615  27.523  26.269  1.00  0.00     0.091 A 
ATOM     67  F   UNL A   1      48.534  28.423  25.527  1.00  0.00    -0.205 F 
ATOM     68  C   UNL A   1      51.399  27.007  27.314  1.00  0.00     0.022 A 
BRANCH  66  69
ATOM     69  S   UNL A   1      51.393  27.652  24.655  1.00  0.00     0.127 S 
ATOM     70  O   UNL A   1      52.762  27.231  24.953  1.00  0.00    -0.237 OA
ATOM     71  O   UNL A   1      50.620  26.695  23.863  1.00  0.00    -0.237 OA
ATOM     72  O   UNL A   1      51.240  29.041  24.246  1.00  0.00    -0.744 OA
ENDBRANCH  66  69
ENDBRANCH  48  62
BRANCH  49  73
ATOM     73  C   UNL A   1      39.074  29.233  29.878  1.00  0.00     0.023 A 
ATOM     74  C   UNL A   1      38.606  28.920  31.170  1.00  0.00     0.012 A 
ATOM     75  C   UNL A   1      38.181  29.784  28.939  1.00  0.00     0.148 A 
ATOM     76  C   UNL A   1      37.268  29.116  31.509  1.00  0.00     0.002 A 
ATOM     77  C   UNL A   1      36.861  30.028  29.301  1.00  0.00     0.091 A 
ATOM     78  F   UNL A   1      38.645  30.071  27.715  1.00  0.00    -0.205 F 
ATOM     79  C   UNL A   1      36.398  29.678  30.579  1.00  0.00     0.022 A 
BRANCH  77  80
ATOM     80  S   UNL A   1      35.699  30.862  28.215  1.00  0.00     0.127 S 
ATOM     81  O   UNL A   1      35.395  29.815  27.243  1.00  0.00    -0.237 OA
ATOM     82  O   UNL A   1      34.609  31.186  29.135  1.00  0.00    -0.237 OA
ATOM     83  O   UNL A   1      36.410  32.021  27.691  1.00  0.00    -0.744 OA
ENDBRANCH  77  80
ENDBRANCH  49  73
BRANCH  61  84
ATOM     84  C   UNL A   1      44.728  33.324  29.807  1.00  0.00     0.023 A 
ATOM     85  C   UNL A   1      45.106  33.747  31.097  1.00  0.00     0.012 A 
ATOM     86  C   UNL A   1      44.614  34.275  28.775  1.00  0.00     0.148 A 
ATOM     87  C   UNL A   1      45.328  35.098  31.363  1.00  0.00     0.002 A 
ATOM     88  C   UNL A   1      44.889  35.612  29.032  1.00  0.00     0.091 A 
ATOM     89  F   UNL A   1      44.233  33.857  27.558  1.00  0.00    -0.205 F 
ATOM     90  C   UNL A   1      45.231  36.028  30.329  1.00  0.00     0.022 A 
BRANCH  88  91
ATOM     91  S   UNL A   1      44.894  36.856  27.738  1.00  0.00     0.127 S 
ATOM     92  O   UNL A   1      43.494  36.853  27.316  1.00  0.00    -0.237 OA
ATOM     93  O   UNL A   1      45.309  38.058  28.463  1.00  0.00    -0.237 OA
ATOM     94  O   UNL A   1      45.851  36.395  26.741  1.00  0.00    -0.744 OA
ENDBRANCH  88  91
ENDBRANCH  61  84
ENDBRANCH  35  36
ENDBRANCH  27  30
ENDBRANCH  25  26
ENDBRANCH  24  25
ENDBRANCH  23  24
ENDBRANCH   1  23
TORSDOF 19
ENDMDL
