MODEL 1
REMARK VINA RESULT:      -8.5      0.000      0.000
REMARK SMILES COCCn1cc(NC(=O)N[C@H]2C=C[C@H](C(=O)NCCCCCCNC(=O)c3ccc(-c4c5nc(c(-c6cccc(S(=O)(=O)[O-])c6F)c6ccc([nH]6)c(-c6cccc(S(=O)(=O)[O-])c6F)c6nc(c(-c7cccc(S(=O)(=O)[O-])c7F)c7ccc4[nH]7)C=C6)C=C5)cc3)C2)cn1
REMARK SMILES IDX 20 1 19 2 18 3 16 4 17 5 15 7 12 8 13 9 91 10 14 11 11 12
REMARK SMILES IDX 8 13 9 14 10 16 7 18 5 19 6 20 93 21 92 22 4 23 3 24 2 25
REMARK SMILES IDX 1 26 21 27 22 28 23 29 24 30 25 31 26 32 27 34 28 35 29 36
REMARK SMILES IDX 90 37 30 38 89 39 31 40 32 41 33 42 83 43 34 44 88 45 82 46
REMARK SMILES IDX 84 47 35 48 87 49 81 50 80 51 36 53 68 54 48 55 67 56 49 57
REMARK SMILES IDX 52 58 66 59 85 60 50 61 51 62 65 64 86 65 53 66 37 67 38 68
REMARK SMILES IDX 46 69 39 70 41 71 47 72 40 73 42 74 43 75 44 76 45 77 69 78
REMARK SMILES IDX 70 79 78 80 71 81 73 82 79 83 72 84 74 85 75 86 76 87 77 88
REMARK SMILES IDX 54 89 55 90 63 91 56 92 58 93 64 94 57 95 59 96 60 97 61 98
REMARK SMILES IDX 62 99
REMARK H PARENT 18 6 8 15 11 17 25 33 84 52 52 63
REMARK Flexibility Score: inf
ROOT
ATOM      1  C   UNL A   1      44.515  26.461  26.310  1.00  0.00     0.021 C 
ENDROOT
BRANCH   1   2
ATOM      2  C   UNL A   1      45.434  27.504  25.654  1.00  0.00     0.116 C 
BRANCH   2   3
ATOM      3  N   UNL A   1      46.435  28.122  26.533  1.00  0.00    -0.356 N 
ATOM      4  C   UNL A   1      47.006  29.333  26.190  1.00  0.00     0.227 C 
ATOM      5  O   UNL A   1      46.486  30.058  25.334  1.00  0.00    -0.274 OA
ATOM      6  H   UNL A   1      46.702  27.673  27.368  1.00  0.00     0.163 HD
BRANCH   4   7
ATOM      7  C   UNL A   1      48.370  29.758  26.811  1.00  0.00     0.103 C 
ATOM      8  C   UNL A   1      49.262  28.049  28.288  1.00  0.00     0.107 C 
ATOM      9  C   UNL A   1      48.976  29.327  29.034  1.00  0.00    -0.006 C 
ATOM     10  C   UNL A   1      49.416  28.641  26.883  1.00  0.00     0.047 C 
ATOM     11  C   UNL A   1      48.413  30.241  28.226  1.00  0.00    -0.016 C 
BRANCH   8  12
ATOM     12  N   UNL A   1      50.397  27.354  28.858  1.00  0.00    -0.332 N 
ATOM     13  N   UNL A   1      49.542  25.507  30.104  1.00  0.00    -0.305 N 
ATOM     14  C   UNL A   1      50.551  26.306  29.698  1.00  0.00     0.319 C 
ATOM     15  H   UNL A   1      49.821  24.618  30.425  1.00  0.00     0.171 HD
ATOM     16  O   UNL A   1      51.706  25.982  29.993  1.00  0.00    -0.248 OA
ATOM     17  H   UNL A   1      51.257  27.733  28.566  1.00  0.00     0.165 HD
BRANCH  13  18
ATOM     18  C   UNL A   1      48.194  25.734  30.140  1.00  0.00     0.081 A 
ATOM     19  N   UNL A   1      46.208  26.026  30.970  1.00  0.00    -0.268 N 
ATOM     20  C   UNL A   1      47.528  26.298  31.207  1.00  0.00     0.135 A 
ATOM     21  N   UNL A   1      45.977  25.609  29.713  1.00  0.00    -0.179 NA
ATOM     22  C   UNL A   1      47.195  25.438  29.199  1.00  0.00     0.161 A 
BRANCH  19  23
ATOM     23  C   UNL A   1      45.130  25.960  31.931  1.00  0.00     0.172 C 
BRANCH  23  24
ATOM     24  C   UNL A   1      44.499  24.587  32.122  1.00  0.00     0.183 C 
BRANCH  24  25
ATOM     25  O   UNL A   1      44.607  24.006  33.419  1.00  0.00    -0.383 OA
ATOM     26  C   UNL A   1      45.920  24.049  33.972  1.00  0.00     0.194 C 
ENDBRANCH  24  25
ENDBRANCH  23  24
ENDBRANCH  19  23
ENDBRANCH  13  18
ENDBRANCH   8  12
ENDBRANCH   4   7
ENDBRANCH   2   3
ENDBRANCH   1   2
BRANCH   1  27
ATOM     27  C   UNL A   1      43.711  25.607  25.302  1.00  0.00     0.002 C 
BRANCH  27  28
ATOM     28  C   UNL A   1      44.337  24.295  24.796  1.00  0.00     0.002 C 
BRANCH  28  29
ATOM     29  C   UNL A   1      43.399  23.109  24.549  1.00  0.00     0.021 C 
BRANCH  29  30
ATOM     30  C   UNL A   1      42.916  22.354  25.779  1.00  0.00     0.116 C 
BRANCH  30  31
ATOM     31  N   UNL A   1      41.472  22.073  25.783  1.00  0.00    -0.352 N 
ATOM     32  C   UNL A   1      40.458  22.758  26.445  1.00  0.00     0.251 C 
ATOM     33  H   UNL A   1      41.186  21.298  25.248  1.00  0.00     0.163 HD
ATOM     34  O   UNL A   1      39.371  22.258  26.643  1.00  0.00    -0.269 OA
BRANCH  32  35
ATOM     35  C   UNL A   1      40.748  24.133  26.896  1.00  0.00     0.039 A 
ATOM     36  C   UNL A   1      40.133  25.257  26.334  1.00  0.00     0.014 A 
ATOM     37  C   UNL A   1      41.603  24.254  27.980  1.00  0.00     0.014 A 
ATOM     38  C   UNL A   1      40.318  26.495  26.949  1.00  0.00     0.010 A 
ATOM     39  C   UNL A   1      41.589  25.408  28.708  1.00  0.00     0.010 A 
ATOM     40  C   UNL A   1      41.032  26.554  28.154  1.00  0.00    -0.014 A 
BRANCH  40  41
ATOM     41  C   UNL A   1      41.178  27.787  28.914  1.00  0.00     0.031 A 
ATOM     42  C   UNL A   1      42.190  28.744  28.385  1.00  0.00     0.074 A 
ATOM     43  C   UNL A   1      40.265  28.136  29.849  1.00  0.00     0.049 A 
ATOM     44  N   UNL A   1      43.287  29.133  28.948  1.00  0.00    -0.248 NA
ATOM     45  C   UNL A   1      42.032  29.226  27.004  1.00  0.00     0.031 C 
ATOM     46  C   UNL A   1      39.009  27.446  30.197  1.00  0.00     0.029 A 
ATOM     47  N   UNL A   1      40.172  29.284  30.567  1.00  0.00    -0.354 N 
ATOM     48  C   UNL A   1      43.838  30.086  28.090  1.00  0.00     0.074 A 
ATOM     49  C   UNL A   1      43.147  29.941  26.837  1.00  0.00     0.031 C 
ATOM     50  C   UNL A   1      38.175  28.309  30.815  1.00  0.00     0.029 A 
ATOM     51  C   UNL A   1      38.905  29.528  31.089  1.00  0.00     0.049 A 
ATOM     52  H   UNL A   1      40.935  29.890  30.708  1.00  0.00     0.167 HD
ATOM     53  C   UNL A   1      44.646  31.080  28.557  1.00  0.00     0.034 A 
ATOM     54  C   UNL A   1      38.476  30.677  31.663  1.00  0.00     0.034 A 
ATOM     55  C   UNL A   1      45.062  30.813  29.911  1.00  0.00     0.049 A 
ATOM     56  C   UNL A   1      39.685  31.434  32.055  1.00  0.00     0.074 A 
ATOM     57  C   UNL A   1      45.780  29.816  30.539  1.00  0.00     0.029 A 
ATOM     58  N   UNL A   1      44.373  31.470  30.902  1.00  0.00    -0.354 N 
ATOM     59  N   UNL A   1      40.537  31.021  32.952  1.00  0.00    -0.248 NA
ATOM     60  C   UNL A   1      40.185  32.437  31.130  1.00  0.00     0.031 C 
ATOM     61  C   UNL A   1      45.119  29.625  31.788  1.00  0.00     0.029 A 
ATOM     62  C   UNL A   1      44.084  30.560  31.882  1.00  0.00     0.049 A 
ATOM     63  H   UNL A   1      44.131  32.424  30.905  1.00  0.00     0.167 HD
ATOM     64  C   UNL A   1      41.780  31.357  32.428  1.00  0.00     0.074 A 
ATOM     65  C   UNL A   1      41.494  32.325  31.371  1.00  0.00     0.031 C 
ATOM     66  C   UNL A   1      42.886  30.602  32.696  1.00  0.00     0.034 A 
BRANCH  53  67
ATOM     67  C   UNL A   1      44.788  32.470  27.968  1.00  0.00     0.023 A 
ATOM     68  C   UNL A   1      46.058  32.821  27.447  1.00  0.00     0.012 A 
ATOM     69  C   UNL A   1      43.861  33.523  28.132  1.00  0.00     0.148 A 
ATOM     70  C   UNL A   1      46.407  34.149  27.175  1.00  0.00     0.002 A 
ATOM     71  C   UNL A   1      44.184  34.832  27.785  1.00  0.00     0.091 A 
ATOM     72  F   UNL A   1      42.697  33.305  28.750  1.00  0.00    -0.205 F 
ATOM     73  C   UNL A   1      45.467  35.156  27.339  1.00  0.00     0.022 A 
BRANCH  71  74
ATOM     74  S   UNL A   1      42.989  36.168  27.926  1.00  0.00     0.127 S 
ATOM     75  O   UNL A   1      42.855  36.287  29.374  1.00  0.00    -0.237 OA
ATOM     76  O   UNL A   1      43.695  37.271  27.275  1.00  0.00    -0.237 OA
ATOM     77  O   UNL A   1      41.807  35.710  27.206  1.00  0.00    -0.744 OA
ENDBRANCH  71  74
ENDBRANCH  53  67
BRANCH  54  78
ATOM     78  C   UNL A   1      37.129  31.287  31.652  1.00  0.00     0.023 A 
ATOM     79  C   UNL A   1      36.520  31.648  32.869  1.00  0.00     0.012 A 
ATOM     80  C   UNL A   1      36.566  31.775  30.450  1.00  0.00     0.148 A 
ATOM     81  C   UNL A   1      35.409  32.499  32.893  1.00  0.00     0.002 A 
ATOM     82  C   UNL A   1      35.459  32.620  30.478  1.00  0.00     0.091 A 
ATOM     83  F   UNL A   1      37.171  31.484  29.290  1.00  0.00    -0.205 F 
ATOM     84  C   UNL A   1      34.886  32.994  31.700  1.00  0.00     0.022 A 
BRANCH  82  85
ATOM     85  S   UNL A   1      34.747  33.326  28.984  1.00  0.00     0.127 S 
ATOM     86  O   UNL A   1      33.493  33.891  29.483  1.00  0.00    -0.237 OA
ATOM     87  O   UNL A   1      35.753  34.314  28.605  1.00  0.00    -0.237 OA
ATOM     88  O   UNL A   1      34.575  32.217  28.054  1.00  0.00    -0.744 OA
ENDBRANCH  82  85
ENDBRANCH  54  78
BRANCH  66  89
ATOM     89  C   UNL A   1      42.788  29.547  33.771  1.00  0.00     0.023 A 
ATOM     90  C   UNL A   1      42.273  28.255  33.524  1.00  0.00     0.012 A 
ATOM     91  C   UNL A   1      43.424  29.798  34.997  1.00  0.00     0.148 A 
ATOM     92  C   UNL A   1      42.382  27.244  34.483  1.00  0.00     0.002 A 
ATOM     93  C   UNL A   1      43.576  28.777  35.927  1.00  0.00     0.091 A 
ATOM     94  F   UNL A   1      43.909  31.030  35.215  1.00  0.00    -0.205 F 
ATOM     95  C   UNL A   1      43.050  27.501  35.678  1.00  0.00     0.022 A 
BRANCH  93  96
ATOM     96  S   UNL A   1      44.550  29.010  37.415  1.00  0.00     0.127 S 
ATOM     97  O   UNL A   1      44.405  27.716  38.080  1.00  0.00    -0.237 OA
ATOM     98  O   UNL A   1      45.885  29.277  36.880  1.00  0.00    -0.237 OA
ATOM     99  O   UNL A   1      43.952  30.143  38.112  1.00  0.00    -0.744 OA
ENDBRANCH  93  96
ENDBRANCH  66  89
ENDBRANCH  40  41
ENDBRANCH  32  35
ENDBRANCH  30  31
ENDBRANCH  29  30
ENDBRANCH  28  29
ENDBRANCH  27  28
ENDBRANCH   1  27
TORSDOF 21
ENDMDL
MODEL 2
REMARK VINA RESULT:      -8.2      3.783      9.380
REMARK SMILES COCCn1cc(NC(=O)N[C@H]2C=C[C@H](C(=O)NCCCCCCNC(=O)c3ccc(-c4c5nc(c(-c6cccc(S(=O)(=O)[O-])c6F)c6ccc([nH]6)c(-c6cccc(S(=O)(=O)[O-])c6F)c6nc(c(-c7cccc(S(=O)(=O)[O-])c7F)c7ccc4[nH]7)C=C6)C=C5)cc3)C2)cn1
REMARK SMILES IDX 20 1 19 2 18 3 16 4 17 5 15 7 12 8 13 9 91 10 14 11 11 12
REMARK SMILES IDX 8 13 9 14 10 16 7 18 5 19 6 20 93 21 92 22 4 23 3 24 2 25
REMARK SMILES IDX 1 26 21 27 22 28 23 29 24 30 25 31 26 32 27 34 28 35 29 36
REMARK SMILES IDX 90 37 30 38 89 39 31 40 32 41 33 42 83 43 34 44 88 45 82 46
REMARK SMILES IDX 84 47 35 48 87 49 81 50 80 51 36 53 68 54 48 55 67 56 49 57
REMARK SMILES IDX 52 58 66 59 85 60 50 61 51 62 65 64 86 65 53 66 37 67 38 68
REMARK SMILES IDX 46 69 39 70 41 71 47 72 40 73 42 74 43 75 44 76 45 77 69 78
REMARK SMILES IDX 70 79 78 80 71 81 73 82 79 83 72 84 74 85 75 86 76 87 77 88
REMARK SMILES IDX 54 89 55 90 63 91 56 92 58 93 64 94 57 95 59 96 60 97 61 98
REMARK SMILES IDX 62 99
REMARK H PARENT 18 6 8 15 11 17 25 33 84 52 52 63
REMARK Flexibility Score: inf
ROOT
ATOM      1  C   UNL A   1      40.012  26.985  29.010  1.00  0.00     0.021 C 
ENDROOT
BRANCH   1   2
ATOM      2  C   UNL A   1      41.060  26.279  28.134  1.00  0.00     0.116 C 
BRANCH   2   3
ATOM      3  N   UNL A   1      41.292  24.859  28.427  1.00  0.00    -0.356 N 
ATOM      4  C   UNL A   1      41.268  23.928  27.406  1.00  0.00     0.227 C 
ATOM      5  O   UNL A   1      41.363  24.281  26.225  1.00  0.00    -0.274 OA
ATOM      6  H   UNL A   1      41.464  24.569  29.352  1.00  0.00     0.163 HD
BRANCH   4   7
ATOM      7  C   UNL A   1      41.023  22.424  27.726  1.00  0.00     0.103 C 
ATOM      8  C   UNL A   1      42.136  20.969  26.130  1.00  0.00     0.107 C 
ATOM      9  C   UNL A   1      40.640  20.793  26.084  1.00  0.00    -0.006 C 
ATOM     10  C   UNL A   1      42.252  21.525  27.553  1.00  0.00     0.047 C 
ATOM     11  C   UNL A   1      40.028  21.654  26.916  1.00  0.00    -0.016 C 
BRANCH   8  12
ATOM     12  N   UNL A   1      42.818  19.727  25.830  1.00  0.00    -0.332 N 
ATOM     13  N   UNL A   1      45.069  20.275  25.260  1.00  0.00    -0.305 N 
ATOM     14  C   UNL A   1      44.051  19.397  25.386  1.00  0.00     0.319 C 
ATOM     15  H   UNL A   1      45.967  19.870  25.253  1.00  0.00     0.171 HD
ATOM     16  O   UNL A   1      44.292  18.198  25.223  1.00  0.00    -0.248 OA
ATOM     17  H   UNL A   1      42.250  18.938  25.987  1.00  0.00     0.165 HD
BRANCH  13  18
ATOM     18  C   UNL A   1      45.052  21.637  25.141  1.00  0.00     0.081 A 
ATOM     19  N   UNL A   1      44.969  23.724  25.738  1.00  0.00    -0.268 N 
ATOM     20  C   UNL A   1      45.466  22.509  26.126  1.00  0.00     0.135 A 
ATOM     21  N   UNL A   1      44.546  23.734  24.462  1.00  0.00    -0.179 NA
ATOM     22  C   UNL A   1      44.605  22.455  24.091  1.00  0.00     0.161 A 
BRANCH  19  23
ATOM     23  C   UNL A   1      44.692  24.874  26.569  1.00  0.00     0.172 C 
BRANCH  23  24
ATOM     24  C   UNL A   1      45.614  26.070  26.368  1.00  0.00     0.183 C 
BRANCH  24  25
ATOM     25  O   UNL A   1      46.993  25.876  26.670  1.00  0.00    -0.383 OA
ATOM     26  C   UNL A   1      47.541  26.848  27.557  1.00  0.00     0.194 C 
ENDBRANCH  24  25
ENDBRANCH  23  24
ENDBRANCH  19  23
ENDBRANCH  13  18
ENDBRANCH   8  12
ENDBRANCH   4   7
ENDBRANCH   2   3
ENDBRANCH   1   2
BRANCH   1  27
ATOM     27  C   UNL A   1      39.447  28.285  28.393  1.00  0.00     0.002 C 
BRANCH  27  28
ATOM     28  C   UNL A   1      38.187  28.904  29.025  1.00  0.00     0.002 C 
BRANCH  28  29
ATOM     29  C   UNL A   1      37.314  29.799  28.138  1.00  0.00     0.021 C 
BRANCH  29  30
ATOM     30  C   UNL A   1      35.812  29.732  28.371  1.00  0.00     0.116 C 
BRANCH  30  31
ATOM     31  N   UNL A   1      35.108  31.001  28.131  1.00  0.00    -0.352 N 
ATOM     32  C   UNL A   1      34.881  32.048  29.019  1.00  0.00     0.251 C 
ATOM     33  H   UNL A   1      34.751  31.127  27.222  1.00  0.00     0.163 HD
ATOM     34  O   UNL A   1      34.026  32.884  28.819  1.00  0.00    -0.269 OA
BRANCH  32  35
ATOM     35  C   UNL A   1      35.732  32.114  30.224  1.00  0.00     0.039 A 
ATOM     36  C   UNL A   1      35.603  31.216  31.289  1.00  0.00     0.014 A 
ATOM     37  C   UNL A   1      36.738  33.067  30.211  1.00  0.00     0.014 A 
ATOM     38  C   UNL A   1      36.570  31.230  32.293  1.00  0.00     0.010 A 
ATOM     39  C   UNL A   1      37.798  32.921  31.058  1.00  0.00     0.010 A 
ATOM     40  C   UNL A   1      37.680  32.075  32.154  1.00  0.00    -0.014 A 
BRANCH  40  41
ATOM     41  C   UNL A   1      38.785  32.072  33.101  1.00  0.00     0.031 A 
ATOM     42  C   UNL A   1      38.577  32.898  34.324  1.00  0.00     0.074 A 
ATOM     43  C   UNL A   1      39.785  31.167  32.996  1.00  0.00     0.049 A 
ATOM     44  N   UNL A   1      39.230  33.951  34.692  1.00  0.00    -0.248 NA
ATOM     45  C   UNL A   1      37.415  32.596  35.174  1.00  0.00     0.031 C 
ATOM     46  C   UNL A   1      39.906  30.052  32.041  1.00  0.00     0.029 A 
ATOM     47  N   UNL A   1      40.825  30.940  33.838  1.00  0.00    -0.354 N 
ATOM     48  C   UNL A   1      38.708  34.306  35.938  1.00  0.00     0.074 A 
ATOM     49  C   UNL A   1      37.475  33.579  36.074  1.00  0.00     0.031 C 
ATOM     50  C   UNL A   1      40.764  29.130  32.527  1.00  0.00     0.029 A 
ATOM     51  C   UNL A   1      41.402  29.680  33.703  1.00  0.00     0.049 A 
ATOM     52  H   UNL A   1      41.145  31.609  34.486  1.00  0.00     0.167 HD
ATOM     53  C   UNL A   1      39.459  34.978  36.857  1.00  0.00     0.034 A 
ATOM     54  C   UNL A   1      42.306  29.113  34.537  1.00  0.00     0.034 A 
ATOM     55  C   UNL A   1      40.661  35.500  36.259  1.00  0.00     0.049 A 
ATOM     56  C   UNL A   1      42.910  30.213  35.322  1.00  0.00     0.074 A 
ATOM     57  C   UNL A   1      40.946  36.393  35.246  1.00  0.00     0.029 A 
ATOM     58  N   UNL A   1      41.810  34.773  36.460  1.00  0.00    -0.354 N 
ATOM     59  N   UNL A   1      43.631  31.164  34.795  1.00  0.00    -0.248 NA
ATOM     60  C   UNL A   1      42.341  30.504  36.626  1.00  0.00     0.031 C 
ATOM     61  C   UNL A   1      42.076  35.836  34.578  1.00  0.00     0.029 A 
ATOM     62  C   UNL A   1      42.459  34.677  35.260  1.00  0.00     0.049 A 
ATOM     63  H   UNL A   1      42.110  34.389  37.316  1.00  0.00     0.167 HD
ATOM     64  C   UNL A   1      43.234  32.311  35.471  1.00  0.00     0.074 A 
ATOM     65  C   UNL A   1      42.530  31.826  36.657  1.00  0.00     0.031 C 
ATOM     66  C   UNL A   1      43.250  33.532  34.858  1.00  0.00     0.034 A 
BRANCH  53  67
ATOM     67  C   UNL A   1      39.331  34.875  38.365  1.00  0.00     0.023 A 
ATOM     68  C   UNL A   1      39.281  36.092  39.090  1.00  0.00     0.012 A 
ATOM     69  C   UNL A   1      39.524  33.698  39.121  1.00  0.00     0.148 A 
ATOM     70  C   UNL A   1      39.484  36.140  40.473  1.00  0.00     0.002 A 
ATOM     71  C   UNL A   1      39.645  33.742  40.507  1.00  0.00     0.091 A 
ATOM     72  F   UNL A   1      39.727  32.530  38.507  1.00  0.00    -0.205 F 
ATOM     73  C   UNL A   1      39.662  34.962  41.185  1.00  0.00     0.022 A 
BRANCH  71  74
ATOM     74  S   UNL A   1      39.824  32.243  41.485  1.00  0.00     0.127 S 
ATOM     75  O   UNL A   1      39.808  32.777  42.843  1.00  0.00    -0.237 OA
ATOM     76  O   UNL A   1      38.629  31.491  41.099  1.00  0.00    -0.237 OA
ATOM     77  O   UNL A   1      41.074  31.638  41.045  1.00  0.00    -0.744 OA
ENDBRANCH  71  74
ENDBRANCH  53  67
BRANCH  54  78
ATOM     78  C   UNL A   1      42.489  27.690  34.896  1.00  0.00     0.023 A 
ATOM     79  C   UNL A   1      41.528  27.048  35.700  1.00  0.00     0.012 A 
ATOM     80  C   UNL A   1      43.443  26.891  34.224  1.00  0.00     0.148 A 
ATOM     81  C   UNL A   1      41.491  25.652  35.801  1.00  0.00     0.002 A 
ATOM     82  C   UNL A   1      43.404  25.503  34.329  1.00  0.00     0.091 A 
ATOM     83  F   UNL A   1      44.326  27.489  33.412  1.00  0.00    -0.205 F 
ATOM     84  C   UNL A   1      42.421  24.880  35.107  1.00  0.00     0.022 A 
BRANCH  82  85
ATOM     85  S   UNL A   1      44.549  24.437  33.439  1.00  0.00     0.127 S 
ATOM     86  O   UNL A   1      45.835  24.815  34.027  1.00  0.00    -0.237 OA
ATOM     87  O   UNL A   1      44.075  23.107  33.810  1.00  0.00    -0.237 OA
ATOM     88  O   UNL A   1      44.411  24.783  32.030  1.00  0.00    -0.744 OA
ENDBRANCH  82  85
ENDBRANCH  54  78
BRANCH  66  89
ATOM     89  C   UNL A   1      43.943  33.652  33.523  1.00  0.00     0.023 A 
ATOM     90  C   UNL A   1      45.348  33.720  33.398  1.00  0.00     0.012 A 
ATOM     91  C   UNL A   1      43.169  33.481  32.364  1.00  0.00     0.148 A 
ATOM     92  C   UNL A   1      45.962  33.629  32.145  1.00  0.00     0.002 A 
ATOM     93  C   UNL A   1      43.785  33.339  31.127  1.00  0.00     0.091 A 
ATOM     94  F   UNL A   1      41.836  33.418  32.500  1.00  0.00    -0.205 F 
ATOM     95  C   UNL A   1      45.181  33.421  31.011  1.00  0.00     0.022 A 
BRANCH  93  96
ATOM     96  S   UNL A   1      42.842  32.927  29.658  1.00  0.00     0.127 S 
ATOM     97  O   UNL A   1      41.982  34.099  29.509  1.00  0.00    -0.237 OA
ATOM     98  O   UNL A   1      43.885  32.799  28.640  1.00  0.00    -0.237 OA
ATOM     99  O   UNL A   1      42.153  31.678  29.961  1.00  0.00    -0.744 OA
ENDBRANCH  93  96
ENDBRANCH  66  89
ENDBRANCH  40  41
ENDBRANCH  32  35
ENDBRANCH  30  31
ENDBRANCH  29  30
ENDBRANCH  28  29
ENDBRANCH  27  28
ENDBRANCH   1  27
TORSDOF 21
ENDMDL
MODEL 3
REMARK VINA RESULT:      -8.1      4.777     11.691
REMARK SMILES COCCn1cc(NC(=O)N[C@H]2C=C[C@H](C(=O)NCCCCCCNC(=O)c3ccc(-c4c5nc(c(-c6cccc(S(=O)(=O)[O-])c6F)c6ccc([nH]6)c(-c6cccc(S(=O)(=O)[O-])c6F)c6nc(c(-c7cccc(S(=O)(=O)[O-])c7F)c7ccc4[nH]7)C=C6)C=C5)cc3)C2)cn1
REMARK SMILES IDX 20 1 19 2 18 3 16 4 17 5 15 7 12 8 13 9 91 10 14 11 11 12
REMARK SMILES IDX 8 13 9 14 10 16 7 18 5 19 6 20 93 21 92 22 4 23 3 24 2 25
REMARK SMILES IDX 1 26 21 27 22 28 23 29 24 30 25 31 26 32 27 34 28 35 29 36
REMARK SMILES IDX 90 37 30 38 89 39 31 40 32 41 33 42 83 43 34 44 88 45 82 46
REMARK SMILES IDX 84 47 35 48 87 49 81 50 80 51 36 53 68 54 48 55 67 56 49 57
REMARK SMILES IDX 52 58 66 59 85 60 50 61 51 62 65 64 86 65 53 66 37 67 38 68
REMARK SMILES IDX 46 69 39 70 41 71 47 72 40 73 42 74 43 75 44 76 45 77 69 78
REMARK SMILES IDX 70 79 78 80 71 81 73 82 79 83 72 84 74 85 75 86 76 87 77 88
REMARK SMILES IDX 54 89 55 90 63 91 56 92 58 93 64 94 57 95 59 96 60 97 61 98
REMARK SMILES IDX 62 99
REMARK H PARENT 18 6 8 15 11 17 25 33 84 52 52 63
REMARK Flexibility Score: inf
ROOT
ATOM      1  C   UNL A   1      32.556  29.032  26.788  1.00  0.00     0.021 C 
ENDROOT
BRANCH   1   2
ATOM      2  C   UNL A   1      32.046  27.744  27.453  1.00  0.00     0.116 C 
BRANCH   2   3
ATOM      3  N   UNL A   1      31.044  26.982  26.697  1.00  0.00    -0.356 N 
ATOM      4  C   UNL A   1      31.432  25.912  25.915  1.00  0.00     0.227 C 
ATOM      5  O   UNL A   1      32.540  25.385  26.067  1.00  0.00    -0.274 OA
ATOM      6  H   UNL A   1      30.094  27.235  26.747  1.00  0.00     0.163 HD
BRANCH   4   7
ATOM      7  C   UNL A   1      30.513  25.414  24.760  1.00  0.00     0.103 C 
ATOM      8  C   UNL A   1      31.662  23.843  23.306  1.00  0.00     0.107 C 
ATOM      9  C   UNL A   1      31.255  25.087  22.559  1.00  0.00    -0.006 C 
ATOM     10  C   UNL A   1      30.637  23.920  24.443  1.00  0.00     0.047 C 
ATOM     11  C   UNL A   1      30.688  25.982  23.387  1.00  0.00    -0.016 C 
BRANCH   8  12
ATOM     12  N   UNL A   1      31.629  22.681  22.442  1.00  0.00    -0.332 N 
ATOM     13  N   UNL A   1      32.597  20.869  23.657  1.00  0.00    -0.305 N 
ATOM     14  C   UNL A   1      32.085  21.411  22.532  1.00  0.00     0.319 C 
ATOM     15  H   UNL A   1      32.578  19.885  23.688  1.00  0.00     0.171 HD
ATOM     16  O   UNL A   1      31.886  20.670  21.566  1.00  0.00    -0.248 OA
ATOM     17  H   UNL A   1      31.167  22.857  21.591  1.00  0.00     0.165 HD
BRANCH  13  18
ATOM     18  C   UNL A   1      33.138  21.469  24.761  1.00  0.00     0.081 A 
ATOM     19  N   UNL A   1      34.653  22.260  26.102  1.00  0.00    -0.268 N 
ATOM     20  C   UNL A   1      34.349  22.128  24.774  1.00  0.00     0.135 A 
ATOM     21  N   UNL A   1      33.605  22.011  26.906  1.00  0.00    -0.179 NA
ATOM     22  C   UNL A   1      32.671  21.533  26.083  1.00  0.00     0.161 A 
BRANCH  19  23
ATOM     23  C   UNL A   1      35.957  22.442  26.698  1.00  0.00     0.172 C 
BRANCH  23  24
ATOM     24  C   UNL A   1      37.143  22.093  25.808  1.00  0.00     0.183 C 
BRANCH  24  25
ATOM     25  O   UNL A   1      37.841  23.183  25.213  1.00  0.00    -0.383 OA
ATOM     26  C   UNL A   1      38.406  24.098  26.149  1.00  0.00     0.194 C 
ENDBRANCH  24  25
ENDBRANCH  23  24
ENDBRANCH  19  23
ENDBRANCH  13  18
ENDBRANCH   8  12
ENDBRANCH   4   7
ENDBRANCH   2   3
ENDBRANCH   1   2
BRANCH   1  27
ATOM     27  C   UNL A   1      34.088  29.071  26.581  1.00  0.00     0.002 C 
BRANCH  27  28
ATOM     28  C   UNL A   1      34.942  29.845  27.602  1.00  0.00     0.002 C 
BRANCH  28  29
ATOM     29  C   UNL A   1      34.423  31.207  28.075  1.00  0.00     0.021 C 
BRANCH  29  30
ATOM     30  C   UNL A   1      35.116  31.818  29.285  1.00  0.00     0.116 C 
BRANCH  30  31
ATOM     31  N   UNL A   1      35.849  33.060  28.994  1.00  0.00    -0.352 N 
ATOM     32  C   UNL A   1      37.179  33.365  29.265  1.00  0.00     0.251 C 
ATOM     33  H   UNL A   1      35.330  33.769  28.549  1.00  0.00     0.163 HD
ATOM     34  O   UNL A   1      37.583  34.509  29.283  1.00  0.00    -0.269 OA
BRANCH  32  35
ATOM     35  C   UNL A   1      38.097  32.239  29.526  1.00  0.00     0.039 A 
ATOM     36  C   UNL A   1      37.942  30.985  28.925  1.00  0.00     0.014 A 
ATOM     37  C   UNL A   1      39.187  32.513  30.337  1.00  0.00     0.014 A 
ATOM     38  C   UNL A   1      38.960  30.044  29.075  1.00  0.00     0.010 A 
ATOM     39  C   UNL A   1      40.273  31.688  30.285  1.00  0.00     0.010 A 
ATOM     40  C   UNL A   1      40.135  30.417  29.741  1.00  0.00    -0.014 A 
BRANCH  40  41
ATOM     41  C   UNL A   1      41.286  29.532  29.846  1.00  0.00     0.031 A 
ATOM     42  C   UNL A   1      41.658  29.137  31.234  1.00  0.00     0.074 A 
ATOM     43  C   UNL A   1      41.781  28.906  28.755  1.00  0.00     0.049 A 
ATOM     44  N   UNL A   1      42.745  29.419  31.876  1.00  0.00    -0.248 NA
ATOM     45  C   UNL A   1      40.645  28.459  32.057  1.00  0.00     0.031 C 
ATOM     46  C   UNL A   1      41.256  28.927  27.377  1.00  0.00     0.029 A 
ATOM     47  N   UNL A   1      42.761  27.971  28.675  1.00  0.00    -0.354 N 
ATOM     48  C   UNL A   1      42.646  28.756  33.101  1.00  0.00     0.074 A 
ATOM     49  C   UNL A   1      41.267  28.372  33.235  1.00  0.00     0.031 C 
ATOM     50  C   UNL A   1      41.721  27.857  26.699  1.00  0.00     0.029 A 
ATOM     51  C   UNL A   1      42.726  27.206  27.512  1.00  0.00     0.049 A 
ATOM     52  H   UNL A   1      43.439  27.845  29.378  1.00  0.00     0.167 HD
ATOM     53  C   UNL A   1      43.756  28.363  33.788  1.00  0.00     0.034 A 
ATOM     54  C   UNL A   1      43.441  26.085  27.262  1.00  0.00     0.034 A 
ATOM     55  C   UNL A   1      44.942  28.979  33.248  1.00  0.00     0.049 A 
ATOM     56  C   UNL A   1      44.576  26.082  28.211  1.00  0.00     0.074 A 
ATOM     57  C   UNL A   1      45.391  30.274  33.092  1.00  0.00     0.029 A 
ATOM     58  N   UNL A   1      45.698  28.208  32.398  1.00  0.00    -0.354 N 
ATOM     59  N   UNL A   1      45.524  26.978  28.206  1.00  0.00    -0.248 NA
ATOM     60  C   UNL A   1      44.419  25.342  29.452  1.00  0.00     0.031 C 
ATOM     61  C   UNL A   1      46.049  30.281  31.827  1.00  0.00     0.029 A 
ATOM     62  C   UNL A   1      46.026  28.979  31.316  1.00  0.00     0.049 A 
ATOM     63  H   UNL A   1      45.955  27.269  32.541  1.00  0.00     0.167 HD
ATOM     64  C   UNL A   1      45.767  27.231  29.550  1.00  0.00     0.074 A 
ATOM     65  C   UNL A   1      45.145  26.116  30.262  1.00  0.00     0.031 C 
ATOM     66  C   UNL A   1      46.184  28.462  29.972  1.00  0.00     0.034 A 
BRANCH  53  67
ATOM     67  C   UNL A   1      43.863  27.159  34.703  1.00  0.00     0.023 A 
ATOM     68  C   UNL A   1      44.166  27.411  36.064  1.00  0.00     0.012 A 
ATOM     69  C   UNL A   1      43.954  25.815  34.276  1.00  0.00     0.148 A 
ATOM     70  C   UNL A   1      44.601  26.399  36.927  1.00  0.00     0.002 A 
ATOM     71  C   UNL A   1      44.310  24.799  35.157  1.00  0.00     0.091 A 
ATOM     72  F   UNL A   1      43.828  25.512  32.982  1.00  0.00    -0.205 F 
ATOM     73  C   UNL A   1      44.669  25.089  36.475  1.00  0.00     0.022 A 
BRANCH  71  74
ATOM     74  S   UNL A   1      44.362  23.077  34.639  1.00  0.00     0.127 S 
ATOM     75  O   UNL A   1      45.413  23.109  33.628  1.00  0.00    -0.237 OA
ATOM     76  O   UNL A   1      44.719  22.401  35.886  1.00  0.00    -0.237 OA
ATOM     77  O   UNL A   1      43.019  22.774  34.162  1.00  0.00    -0.744 OA
ENDBRANCH  71  74
ENDBRANCH  53  67
BRANCH  54  78
ATOM     78  C   UNL A   1      43.074  24.894  26.464  1.00  0.00     0.023 A 
ATOM     79  C   UNL A   1      43.757  24.625  25.263  1.00  0.00     0.012 A 
ATOM     80  C   UNL A   1      42.261  23.876  27.016  1.00  0.00     0.148 A 
ATOM     81  C   UNL A   1      43.668  23.370  24.650  1.00  0.00     0.002 A 
ATOM     82  C   UNL A   1      42.174  22.630  26.401  1.00  0.00     0.091 A 
ATOM     83  F   UNL A   1      41.652  24.103  28.188  1.00  0.00    -0.205 F 
ATOM     84  C   UNL A   1      42.886  22.369  25.224  1.00  0.00     0.022 A 
BRANCH  82  85
ATOM     85  S   UNL A   1      41.212  21.277  27.098  1.00  0.00     0.127 S 
ATOM     86  O   UNL A   1      40.532  20.748  25.916  1.00  0.00    -0.237 OA
ATOM     87  O   UNL A   1      42.255  20.412  27.641  1.00  0.00    -0.237 OA
ATOM     88  O   UNL A   1      40.321  21.879  28.082  1.00  0.00    -0.744 OA
ENDBRANCH  82  85
ENDBRANCH  54  78
BRANCH  66  89
ATOM     89  C   UNL A   1      46.618  29.465  28.932  1.00  0.00     0.023 A 
ATOM     90  C   UNL A   1      47.890  29.424  28.320  1.00  0.00     0.012 A 
ATOM     91  C   UNL A   1      45.646  30.335  28.414  1.00  0.00     0.148 A 
ATOM     92  C   UNL A   1      48.185  30.240  27.223  1.00  0.00     0.002 A 
ATOM     93  C   UNL A   1      45.926  31.106  27.292  1.00  0.00     0.091 A 
ATOM     94  F   UNL A   1      44.442  30.361  29.005  1.00  0.00    -0.205 F 
ATOM     95  C   UNL A   1      47.196  31.069  26.699  1.00  0.00     0.022 A 
BRANCH  93  96
ATOM     96  S   UNL A   1      44.651  32.080  26.489  1.00  0.00     0.127 S 
ATOM     97  O   UNL A   1      45.371  32.644  25.349  1.00  0.00    -0.237 OA
ATOM     98  O   UNL A   1      43.653  31.067  26.141  1.00  0.00    -0.237 OA
ATOM     99  O   UNL A   1      44.196  33.044  27.484  1.00  0.00    -0.744 OA
ENDBRANCH  93  96
ENDBRANCH  66  89
ENDBRANCH  40  41
ENDBRANCH  32  35
ENDBRANCH  30  31
ENDBRANCH  29  30
ENDBRANCH  28  29
ENDBRANCH  27  28
ENDBRANCH   1  27
TORSDOF 21
ENDMDL
