MODEL 1
REMARK VINA RESULT:     -12.5      0.000      0.000
REMARK SMILES CC1=C[C@H](C)[C@H](CN2C[C@]34C=C[C@@H](O3)[C@H](C(=O)NCCCCCCNC(=O)c3ccc(-c5c6nc(c(-c7cccc(S(=O)(=O)[O-])c7F)c7ccc([nH]7)c(-c7cccc(S(=O)(=O)[O-])c7F)c7nc(c(-c8cccc(S(=O)(=O)[O-])c8F)c8ccc5[nH]8)C=C7)C=C6)cc3)[C@@H]4C2=O)[C@H](C)C1
REMARK SMILES IDX 22 1 21 2 20 3 19 4 18 5 16 6 17 7 15 9 8 10 9 11 92 12
REMARK SMILES IDX 10 13 91 14 93 15 11 16 14 17 12 18 13 19 7 20 6 21 1 22
REMARK SMILES IDX 2 23 3 24 96 25 4 26 94 27 5 28 95 29 23 30 24 31 25 32
REMARK SMILES IDX 26 33 27 35 28 36 29 37 90 38 30 39 89 40 31 41 32 42 33 43
REMARK SMILES IDX 83 44 34 45 88 46 82 47 84 48 35 49 87 50 81 51 80 52 36 54
REMARK SMILES IDX 68 55 48 56 67 57 49 58 52 59 66 60 85 61 50 62 51 63 65 65
REMARK SMILES IDX 86 66 53 67 37 68 38 69 46 70 39 71 41 72 47 73 40 74 42 75
REMARK SMILES IDX 43 76 44 77 45 78 69 79 70 80 78 81 71 82 73 83 79 84 72 85
REMARK SMILES IDX 74 86 75 87 76 88 77 89 54 90 55 91 63 92 56 93 58 94 64 95
REMARK SMILES IDX 57 96 59 97 60 98 61 99 62 100
REMARK H PARENT 18 8 25 34 84 53 52 64
REMARK Flexibility Score: inf
ROOT
ATOM      1  C   UNL A   1      30.744  31.403  24.862  1.00  0.00     0.002 C 
ENDROOT
BRANCH   1   2
ATOM      2  C   UNL A   1      29.300  31.558  24.364  1.00  0.00     0.002 C 
BRANCH   2   3
ATOM      3  C   UNL A   1      28.807  30.449  23.425  1.00  0.00     0.021 C 
BRANCH   3   4
ATOM      4  C   UNL A   1      29.926  29.652  22.758  1.00  0.00     0.116 C 
BRANCH   4   5
ATOM      5  N   UNL A   1      29.756  28.222  22.979  1.00  0.00    -0.356 N 
ATOM      6  C   UNL A   1      30.681  27.304  23.398  1.00  0.00     0.227 C 
ATOM      7  O   UNL A   1      30.376  26.114  23.381  1.00  0.00    -0.275 OA
ATOM      8  H   UNL A   1      28.853  27.869  22.803  1.00  0.00     0.163 HD
BRANCH   6   9
ATOM      9  C   UNL A   1      32.026  27.808  23.877  1.00  0.00     0.127 C 
ATOM     10  N   UNL A   1      33.336  24.603  23.480  1.00  0.00    -0.339 N 
ATOM     11  C   UNL A   1      32.765  24.831  24.771  1.00  0.00     0.160 C 
ATOM     12  C   UNL A   1      33.460  25.792  22.825  1.00  0.00     0.230 C 
ATOM     13  C   UNL A   1      33.284  26.200  25.343  1.00  0.00     0.117 C 
ATOM     14  C   UNL A   1      33.222  26.856  23.853  1.00  0.00     0.132 C 
ATOM     15  O   UNL A   1      33.834  25.985  21.678  1.00  0.00    -0.274 OA
ATOM     16  C   UNL A   1      32.090  26.118  26.364  1.00  0.00     0.009 C 
ATOM     17  O   UNL A   1      33.340  27.590  25.741  1.00  0.00    -0.360 OA
ATOM     18  C   UNL A   1      31.287  27.181  26.257  1.00  0.00     0.004 C 
ATOM     19  C   UNL A   1      32.024  28.106  25.374  1.00  0.00     0.155 C 
BRANCH  10  20
ATOM     20  C   UNL A   1      33.699  23.270  23.015  1.00  0.00     0.124 C 
BRANCH  20  21
ATOM     21  C   UNL A   1      33.426  22.146  24.051  1.00  0.00     0.018 C 
ATOM     22  C   UNL A   1      33.608  17.745  24.952  1.00  0.00     0.039 C 
ATOM     23  C   UNL A   1      33.534  19.207  24.615  1.00  0.00    -0.077 C 
ATOM     24  C   UNL A   1      32.405  19.763  24.165  1.00  0.00    -0.025 C 
ATOM     25  C   UNL A   1      34.810  19.974  24.721  1.00  0.00     0.034 C 
ATOM     26  C   UNL A   1      32.286  21.163  23.631  1.00  0.00     0.014 C 
ATOM     27  C   UNL A   1      34.697  21.509  24.724  1.00  0.00    -0.005 C 
ATOM     28  C   UNL A   1      32.039  21.036  22.123  1.00  0.00     0.012 C 
ATOM     29  C   UNL A   1      36.057  22.088  24.311  1.00  0.00     0.008 C 
ENDBRANCH  20  21
ENDBRANCH  10  20
ENDBRANCH   6   9
ENDBRANCH   4   5
ENDBRANCH   3   4
ENDBRANCH   2   3
ENDBRANCH   1   2
BRANCH   1  30
ATOM     30  C   UNL A   1      30.943  31.508  26.377  1.00  0.00     0.021 C 
BRANCH  30  31
ATOM     31  C   UNL A   1      32.281  32.092  26.823  1.00  0.00     0.116 C 
BRANCH  31  32
ATOM     32  N   UNL A   1      32.184  33.492  27.205  1.00  0.00    -0.352 N 
ATOM     33  C   UNL A   1      32.985  34.199  28.074  1.00  0.00     0.251 C 
ATOM     34  H   UNL A   1      31.451  34.001  26.788  1.00  0.00     0.163 HD
ATOM     35  O   UNL A   1      32.683  35.341  28.405  1.00  0.00    -0.269 OA
BRANCH  33  36
ATOM     36  C   UNL A   1      34.199  33.558  28.626  1.00  0.00     0.039 A 
ATOM     37  C   UNL A   1      35.449  34.130  28.371  1.00  0.00     0.014 A 
ATOM     38  C   UNL A   1      34.098  32.408  29.413  1.00  0.00     0.014 A 
ATOM     39  C   UNL A   1      36.593  33.583  28.961  1.00  0.00     0.010 A 
ATOM     40  C   UNL A   1      35.229  31.906  30.051  1.00  0.00     0.010 A 
ATOM     41  C   UNL A   1      36.489  32.486  29.830  1.00  0.00    -0.014 A 
BRANCH  41  42
ATOM     42  C   UNL A   1      37.675  31.912  30.518  1.00  0.00     0.031 A 
ATOM     43  C   UNL A   1      38.473  30.826  29.847  1.00  0.00     0.074 A 
ATOM     44  C   UNL A   1      37.969  32.285  31.780  1.00  0.00     0.049 A 
ATOM     45  N   UNL A   1      39.443  30.094  30.331  1.00  0.00    -0.248 NA
ATOM     46  C   UNL A   1      38.108  30.495  28.459  1.00  0.00     0.031 C 
ATOM     47  C   UNL A   1      37.233  33.278  32.564  1.00  0.00     0.029 A 
ATOM     48  N   UNL A   1      38.942  31.839  32.641  1.00  0.00    -0.354 N 
ATOM     49  C   UNL A   1      39.779  29.197  29.324  1.00  0.00     0.074 A 
ATOM     50  C   UNL A   1      38.886  29.451  28.215  1.00  0.00     0.031 C 
ATOM     51  C   UNL A   1      37.768  33.354  33.794  1.00  0.00     0.029 A 
ATOM     52  C   UNL A   1      38.863  32.395  33.898  1.00  0.00     0.049 A 
ATOM     53  H   UNL A   1      39.631  31.184  32.383  1.00  0.00     0.167 HD
ATOM     54  C   UNL A   1      40.761  28.264  29.311  1.00  0.00     0.034 A 
ATOM     55  C   UNL A   1      39.579  32.146  35.013  1.00  0.00     0.034 A 
ATOM     56  C   UNL A   1      41.679  28.046  30.395  1.00  0.00     0.049 A 
ATOM     57  C   UNL A   1      40.695  31.135  34.957  1.00  0.00     0.074 A 
ATOM     58  C   UNL A   1      42.746  27.169  30.455  1.00  0.00     0.029 A 
ATOM     59  N   UNL A   1      41.643  28.718  31.607  1.00  0.00    -0.354 N 
ATOM     60  N   UNL A   1      41.080  30.388  33.950  1.00  0.00    -0.248 NA
ATOM     61  C   UNL A   1      41.502  30.961  36.174  1.00  0.00     0.031 C 
ATOM     62  C   UNL A   1      43.353  27.305  31.707  1.00  0.00     0.029 A 
ATOM     63  C   UNL A   1      42.676  28.282  32.418  1.00  0.00     0.049 A 
ATOM     64  H   UNL A   1      40.981  29.404  31.854  1.00  0.00     0.167 HD
ATOM     65  C   UNL A   1      42.197  29.691  34.398  1.00  0.00     0.074 A 
ATOM     66  C   UNL A   1      42.436  30.115  35.761  1.00  0.00     0.031 C 
ATOM     67  C   UNL A   1      42.948  28.772  33.743  1.00  0.00     0.034 A 
BRANCH  54  68
ATOM     68  C   UNL A   1      40.939  27.453  28.054  1.00  0.00     0.023 A 
ATOM     69  C   UNL A   1      41.575  28.038  26.941  1.00  0.00     0.012 A 
ATOM     70  C   UNL A   1      40.546  26.102  27.995  1.00  0.00     0.148 A 
ATOM     71  C   UNL A   1      41.787  27.304  25.775  1.00  0.00     0.002 A 
ATOM     72  C   UNL A   1      40.801  25.363  26.845  1.00  0.00     0.091 A 
ATOM     73  F   UNL A   1      39.927  25.567  29.057  1.00  0.00    -0.205 F 
ATOM     74  C   UNL A   1      41.411  25.964  25.731  1.00  0.00     0.022 A 
BRANCH  72  75
ATOM     75  S   UNL A   1      40.429  23.610  26.713  1.00  0.00     0.127 S 
ATOM     76  O   UNL A   1      40.593  23.169  28.099  1.00  0.00    -0.237 OA
ATOM     77  O   UNL A   1      39.046  23.624  26.237  1.00  0.00    -0.237 OA
ATOM     78  O   UNL A   1      41.392  23.063  25.768  1.00  0.00    -0.744 OA
ENDBRANCH  72  75
ENDBRANCH  54  68
BRANCH  55  79
ATOM     79  C   UNL A   1      39.300  32.902  36.268  1.00  0.00     0.023 A 
ATOM     80  C   UNL A   1      39.849  34.188  36.437  1.00  0.00     0.012 A 
ATOM     81  C   UNL A   1      38.488  32.364  37.284  1.00  0.00     0.148 A 
ATOM     82  C   UNL A   1      39.627  34.908  37.613  1.00  0.00     0.002 A 
ATOM     83  C   UNL A   1      38.225  33.110  38.428  1.00  0.00     0.091 A 
ATOM     84  F   UNL A   1      37.984  31.134  37.112  1.00  0.00    -0.205 F 
ATOM     85  C   UNL A   1      38.809  34.373  38.603  1.00  0.00     0.022 A 
BRANCH  83  86
ATOM     86  S   UNL A   1      37.072  32.551  39.689  1.00  0.00     0.127 S 
ATOM     87  O   UNL A   1      37.188  33.606  40.691  1.00  0.00    -0.237 OA
ATOM     88  O   UNL A   1      35.805  32.530  38.958  1.00  0.00    -0.237 OA
ATOM     89  O   UNL A   1      37.548  31.234  40.091  1.00  0.00    -0.744 OA
ENDBRANCH  83  86
ENDBRANCH  55  79
BRANCH  67  90
ATOM     90  C   UNL A   1      44.141  28.197  34.458  1.00  0.00     0.023 A 
ATOM     91  C   UNL A   1      45.378  28.868  34.413  1.00  0.00     0.012 A 
ATOM     92  C   UNL A   1      44.005  27.044  35.257  1.00  0.00     0.148 A 
ATOM     93  C   UNL A   1      46.470  28.387  35.136  1.00  0.00     0.002 A 
ATOM     94  C   UNL A   1      45.083  26.598  36.011  1.00  0.00     0.091 A 
ATOM     95  F   UNL A   1      42.823  26.411  35.270  1.00  0.00    -0.205 F 
ATOM     96  C   UNL A   1      46.319  27.261  35.945  1.00  0.00     0.022 A 
BRANCH  94  97
ATOM     97  S   UNL A   1      44.954  25.217  37.153  1.00  0.00     0.127 S 
ATOM     98  O   UNL A   1      44.012  25.737  38.143  1.00  0.00    -0.237 OA
ATOM     99  O   UNL A   1      44.416  24.158  36.298  1.00  0.00    -0.237 OA
ATOM    100  O   UNL A   1      46.303  24.971  37.642  1.00  0.00    -0.744 OA
ENDBRANCH  94  97
ENDBRANCH  67  90
ENDBRANCH  41  42
ENDBRANCH  33  36
ENDBRANCH  31  32
ENDBRANCH  30  31
ENDBRANCH   1  30
TORSDOF 18
ENDMDL
MODEL 2
REMARK VINA RESULT:     -12.4      0.720      7.250
REMARK SMILES CC1=C[C@H](C)[C@H](CN2C[C@]34C=C[C@@H](O3)[C@H](C(=O)NCCCCCCNC(=O)c3ccc(-c5c6nc(c(-c7cccc(S(=O)(=O)[O-])c7F)c7ccc([nH]7)c(-c7cccc(S(=O)(=O)[O-])c7F)c7nc(c(-c8cccc(S(=O)(=O)[O-])c8F)c8ccc5[nH]8)C=C7)C=C6)cc3)[C@@H]4C2=O)[C@H](C)C1
REMARK SMILES IDX 22 1 21 2 20 3 19 4 18 5 16 6 17 7 15 9 8 10 9 11 92 12
REMARK SMILES IDX 10 13 91 14 93 15 11 16 14 17 12 18 13 19 7 20 6 21 1 22
REMARK SMILES IDX 2 23 3 24 96 25 4 26 94 27 5 28 95 29 23 30 24 31 25 32
REMARK SMILES IDX 26 33 27 35 28 36 29 37 90 38 30 39 89 40 31 41 32 42 33 43
REMARK SMILES IDX 83 44 34 45 88 46 82 47 84 48 35 49 87 50 81 51 80 52 36 54
REMARK SMILES IDX 68 55 48 56 67 57 49 58 52 59 66 60 85 61 50 62 51 63 65 65
REMARK SMILES IDX 86 66 53 67 37 68 38 69 46 70 39 71 41 72 47 73 40 74 42 75
REMARK SMILES IDX 43 76 44 77 45 78 69 79 70 80 78 81 71 82 73 83 79 84 72 85
REMARK SMILES IDX 74 86 75 87 76 88 77 89 54 90 55 91 63 92 56 93 58 94 64 95
REMARK SMILES IDX 57 96 59 97 60 98 61 99 62 100
REMARK H PARENT 18 8 25 34 84 53 52 64
REMARK Flexibility Score: inf
ROOT
ATOM      1  C   UNL A   1      30.831  31.156  25.182  1.00  0.00     0.002 C 
ENDROOT
BRANCH   1   2
ATOM      2  C   UNL A   1      29.608  31.585  24.359  1.00  0.00     0.002 C 
BRANCH   2   3
ATOM      3  C   UNL A   1      29.014  30.499  23.452  1.00  0.00     0.021 C 
BRANCH   3   4
ATOM      4  C   UNL A   1      30.055  29.594  22.796  1.00  0.00     0.116 C 
BRANCH   4   5
ATOM      5  N   UNL A   1      29.853  28.202  23.175  1.00  0.00    -0.356 N 
ATOM      6  C   UNL A   1      30.772  27.299  23.638  1.00  0.00     0.227 C 
ATOM      7  O   UNL A   1      30.430  26.125  23.762  1.00  0.00    -0.275 OA
ATOM      8  H   UNL A   1      28.931  27.865  23.086  1.00  0.00     0.163 HD
BRANCH   6   9
ATOM      9  C   UNL A   1      32.158  27.800  23.987  1.00  0.00     0.127 C 
ATOM     10  N   UNL A   1      33.412  24.585  23.496  1.00  0.00    -0.339 N 
ATOM     11  C   UNL A   1      32.963  24.825  24.832  1.00  0.00     0.160 C 
ATOM     12  C   UNL A   1      33.480  25.769  22.823  1.00  0.00     0.230 C 
ATOM     13  C   UNL A   1      33.538  26.196  25.343  1.00  0.00     0.117 C 
ATOM     14  C   UNL A   1      33.342  26.841  23.861  1.00  0.00     0.132 C 
ATOM     15  O   UNL A   1      33.748  25.952  21.646  1.00  0.00    -0.274 OA
ATOM     16  C   UNL A   1      32.442  26.127  26.471  1.00  0.00     0.009 C 
ATOM     17  O   UNL A   1      33.636  27.589  25.725  1.00  0.00    -0.360 OA
ATOM     18  C   UNL A   1      31.638  27.193  26.429  1.00  0.00     0.004 C 
ATOM     19  C   UNL A   1      32.294  28.108  25.476  1.00  0.00     0.155 C 
BRANCH  10  20
ATOM     20  C   UNL A   1      33.725  23.247  23.010  1.00  0.00     0.124 C 
BRANCH  20  21
ATOM     21  C   UNL A   1      33.437  22.121  24.039  1.00  0.00     0.018 C 
ATOM     22  C   UNL A   1      33.563  17.712  24.913  1.00  0.00     0.039 C 
ATOM     23  C   UNL A   1      33.508  19.177  24.585  1.00  0.00    -0.077 C 
ATOM     24  C   UNL A   1      32.387  19.750  24.137  1.00  0.00    -0.025 C 
ATOM     25  C   UNL A   1      34.793  19.928  24.697  1.00  0.00     0.034 C 
ATOM     26  C   UNL A   1      32.286  21.154  23.612  1.00  0.00     0.014 C 
ATOM     27  C   UNL A   1      34.699  21.464  24.709  1.00  0.00    -0.005 C 
ATOM     28  C   UNL A   1      32.039  21.040  22.103  1.00  0.00     0.012 C 
ATOM     29  C   UNL A   1      36.067  22.028  24.302  1.00  0.00     0.008 C 
ENDBRANCH  20  21
ENDBRANCH  10  20
ENDBRANCH   6   9
ENDBRANCH   4   5
ENDBRANCH   3   4
ENDBRANCH   2   3
ENDBRANCH   1   2
BRANCH   1  30
ATOM     30  C   UNL A   1      30.997  31.844  26.541  1.00  0.00     0.021 C 
BRANCH  30  31
ATOM     31  C   UNL A   1      32.427  32.227  26.910  1.00  0.00     0.116 C 
BRANCH  31  32
ATOM     32  N   UNL A   1      32.556  33.627  27.282  1.00  0.00    -0.352 N 
ATOM     33  C   UNL A   1      33.478  34.207  28.123  1.00  0.00     0.251 C 
ATOM     34  H   UNL A   1      31.899  34.240  26.879  1.00  0.00     0.163 HD
ATOM     35  O   UNL A   1      33.364  35.384  28.451  1.00  0.00    -0.269 OA
BRANCH  33  36
ATOM     36  C   UNL A   1      34.594  33.391  28.651  1.00  0.00     0.039 A 
ATOM     37  C   UNL A   1      35.907  33.726  28.308  1.00  0.00     0.014 A 
ATOM     38  C   UNL A   1      34.342  32.311  29.501  1.00  0.00     0.014 A 
ATOM     39  C   UNL A   1      36.972  33.016  28.871  1.00  0.00     0.010 A 
ATOM     40  C   UNL A   1      35.404  31.649  30.110  1.00  0.00     0.010 A 
ATOM     41  C   UNL A   1      36.730  31.992  29.800  1.00  0.00    -0.014 A 
BRANCH  41  42
ATOM     42  C   UNL A   1      37.838  31.252  30.461  1.00  0.00     0.031 A 
ATOM     43  C   UNL A   1      38.212  31.582  31.881  1.00  0.00     0.074 A 
ATOM     44  C   UNL A   1      38.575  30.370  29.756  1.00  0.00     0.049 A 
ATOM     45  N   UNL A   1      39.232  31.164  32.586  1.00  0.00    -0.248 NA
ATOM     46  C   UNL A   1      37.342  32.535  32.592  1.00  0.00     0.031 C 
ATOM     47  C   UNL A   1      38.357  30.013  28.353  1.00  0.00     0.029 A 
ATOM     48  N   UNL A   1      39.684  29.643  30.113  1.00  0.00    -0.354 N 
ATOM     49  C   UNL A   1      39.147  31.828  33.804  1.00  0.00     0.074 A 
ATOM     50  C   UNL A   1      37.997  32.702  33.732  1.00  0.00     0.031 C 
ATOM     51  C   UNL A   1      39.310  29.150  27.964  1.00  0.00     0.029 A 
ATOM     52  C   UNL A   1      40.225  28.916  29.076  1.00  0.00     0.049 A 
ATOM     53  H   UNL A   1      40.057  29.642  31.025  1.00  0.00     0.167 HD
ATOM     54  C   UNL A   1      39.937  31.700  34.897  1.00  0.00     0.034 A 
ATOM     55  C   UNL A   1      41.342  28.163  29.023  1.00  0.00     0.034 A 
ATOM     56  C   UNL A   1      41.050  30.795  34.984  1.00  0.00     0.049 A 
ATOM     57  C   UNL A   1      42.177  28.002  30.267  1.00  0.00     0.074 A 
ATOM     58  C   UNL A   1      41.874  30.547  36.067  1.00  0.00     0.029 A 
ATOM     59  N   UNL A   1      41.491  29.983  33.951  1.00  0.00    -0.354 N 
ATOM     60  N   UNL A   1      42.004  28.538  31.451  1.00  0.00    -0.248 NA
ATOM     61  C   UNL A   1      43.337  27.103  30.182  1.00  0.00     0.031 C 
ATOM     62  C   UNL A   1      42.818  29.588  35.687  1.00  0.00     0.029 A 
ATOM     63  C   UNL A   1      42.568  29.225  34.373  1.00  0.00     0.049 A 
ATOM     64  H   UNL A   1      41.095  29.950  33.049  1.00  0.00     0.167 HD
ATOM     65  C   UNL A   1      43.003  28.008  32.260  1.00  0.00     0.074 A 
ATOM     66  C   UNL A   1      43.769  27.097  31.436  1.00  0.00     0.031 C 
ATOM     67  C   UNL A   1      43.270  28.265  33.564  1.00  0.00     0.034 A 
BRANCH  54  68
ATOM     68  C   UNL A   1      39.583  32.511  36.116  1.00  0.00     0.023 A 
ATOM     69  C   UNL A   1      40.155  33.788  36.283  1.00  0.00     0.012 A 
ATOM     70  C   UNL A   1      38.640  32.047  37.053  1.00  0.00     0.148 A 
ATOM     71  C   UNL A   1      39.821  34.579  37.382  1.00  0.00     0.002 A 
ATOM     72  C   UNL A   1      38.279  32.860  38.123  1.00  0.00     0.091 A 
ATOM     73  F   UNL A   1      38.119  30.823  36.888  1.00  0.00    -0.205 F 
ATOM     74  C   UNL A   1      38.876  34.120  38.294  1.00  0.00     0.022 A 
BRANCH  72  75
ATOM     75  S   UNL A   1      37.013  32.398  39.311  1.00  0.00     0.127 S 
ATOM     76  O   UNL A   1      37.244  33.368  40.381  1.00  0.00    -0.237 OA
ATOM     77  O   UNL A   1      35.783  32.611  38.549  1.00  0.00    -0.237 OA
ATOM     78  O   UNL A   1      37.278  31.009  39.662  1.00  0.00    -0.744 OA
ENDBRANCH  72  75
ENDBRANCH  54  68
BRANCH  55  79
ATOM     79  C   UNL A   1      41.711  27.458  27.763  1.00  0.00     0.023 A 
ATOM     80  C   UNL A   1      42.154  28.206  26.655  1.00  0.00     0.012 A 
ATOM     81  C   UNL A   1      41.638  26.055  27.658  1.00  0.00     0.148 A 
ATOM     82  C   UNL A   1      42.479  27.575  25.453  1.00  0.00     0.002 A 
ATOM     83  C   UNL A   1      42.018  25.429  26.475  1.00  0.00     0.091 A 
ATOM     84  F   UNL A   1      41.202  25.359  28.717  1.00  0.00    -0.205 F 
ATOM     85  C   UNL A   1      42.420  26.187  25.366  1.00  0.00     0.022 A 
BRANCH  83  86
ATOM     86  S   UNL A   1      42.101  23.640  26.327  1.00  0.00     0.127 S 
ATOM     87  O   UNL A   1      40.690  23.267  26.391  1.00  0.00    -0.237 OA
ATOM     88  O   UNL A   1      42.725  23.470  25.014  1.00  0.00    -0.237 OA
ATOM     89  O   UNL A   1      42.929  23.197  27.441  1.00  0.00    -0.744 OA
ENDBRANCH  83  86
ENDBRANCH  55  79
BRANCH  67  90
ATOM     90  C   UNL A   1      44.400  27.511  34.214  1.00  0.00     0.023 A 
ATOM     91  C   UNL A   1      45.651  28.131  34.389  1.00  0.00     0.012 A 
ATOM     92  C   UNL A   1      44.183  26.221  34.740  1.00  0.00     0.148 A 
ATOM     93  C   UNL A   1      46.680  27.470  35.059  1.00  0.00     0.002 A 
ATOM     94  C   UNL A   1      45.198  25.588  35.448  1.00  0.00     0.091 A 
ATOM     95  F   UNL A   1      42.990  25.642  34.546  1.00  0.00    -0.205 F 
ATOM     96  C   UNL A   1      46.449  26.206  35.600  1.00  0.00     0.022 A 
BRANCH  94  97
ATOM     97  S   UNL A   1      44.960  24.004  36.261  1.00  0.00     0.127 S 
ATOM     98  O   UNL A   1      45.021  24.382  37.672  1.00  0.00    -0.237 OA
ATOM     99  O   UNL A   1      43.630  23.612  35.793  1.00  0.00    -0.237 OA
ATOM    100  O   UNL A   1      46.041  23.146  35.797  1.00  0.00    -0.744 OA
ENDBRANCH  94  97
ENDBRANCH  67  90
ENDBRANCH  41  42
ENDBRANCH  33  36
ENDBRANCH  31  32
ENDBRANCH  30  31
ENDBRANCH   1  30
TORSDOF 18
ENDMDL
MODEL 3
REMARK VINA RESULT:     -12.3      1.929      7.675
REMARK SMILES CC1=C[C@H](C)[C@H](CN2C[C@]34C=C[C@@H](O3)[C@H](C(=O)NCCCCCCNC(=O)c3ccc(-c5c6nc(c(-c7cccc(S(=O)(=O)[O-])c7F)c7ccc([nH]7)c(-c7cccc(S(=O)(=O)[O-])c7F)c7nc(c(-c8cccc(S(=O)(=O)[O-])c8F)c8ccc5[nH]8)C=C7)C=C6)cc3)[C@@H]4C2=O)[C@H](C)C1
REMARK SMILES IDX 22 1 21 2 20 3 19 4 18 5 16 6 17 7 15 9 8 10 9 11 92 12
REMARK SMILES IDX 10 13 91 14 93 15 11 16 14 17 12 18 13 19 7 20 6 21 1 22
REMARK SMILES IDX 2 23 3 24 96 25 4 26 94 27 5 28 95 29 23 30 24 31 25 32
REMARK SMILES IDX 26 33 27 35 28 36 29 37 90 38 30 39 89 40 31 41 32 42 33 43
REMARK SMILES IDX 83 44 34 45 88 46 82 47 84 48 35 49 87 50 81 51 80 52 36 54
REMARK SMILES IDX 68 55 48 56 67 57 49 58 52 59 66 60 85 61 50 62 51 63 65 65
REMARK SMILES IDX 86 66 53 67 37 68 38 69 46 70 39 71 41 72 47 73 40 74 42 75
REMARK SMILES IDX 43 76 44 77 45 78 69 79 70 80 78 81 71 82 73 83 79 84 72 85
REMARK SMILES IDX 74 86 75 87 76 88 77 89 54 90 55 91 63 92 56 93 58 94 64 95
REMARK SMILES IDX 57 96 59 97 60 98 61 99 62 100
REMARK H PARENT 18 8 25 34 84 53 52 64
REMARK Flexibility Score: inf
ROOT
ATOM      1  C   UNL A   1      34.972  31.649  27.898  1.00  0.00     0.002 C 
ENDROOT
BRANCH   1   2
ATOM      2  C   UNL A   1      34.820  30.147  28.176  1.00  0.00     0.002 C 
BRANCH   2   3
ATOM      3  C   UNL A   1      34.781  29.250  26.932  1.00  0.00     0.021 C 
BRANCH   3   4
ATOM      4  C   UNL A   1      33.466  29.313  26.157  1.00  0.00     0.116 C 
BRANCH   4   5
ATOM      5  N   UNL A   1      33.509  28.456  24.979  1.00  0.00    -0.356 N 
ATOM      6  C   UNL A   1      33.225  27.120  24.881  1.00  0.00     0.227 C 
ATOM      7  O   UNL A   1      33.465  26.546  23.821  1.00  0.00    -0.275 OA
ATOM      8  H   UNL A   1      33.780  28.898  24.141  1.00  0.00     0.163 HD
BRANCH   6   9
ATOM      9  C   UNL A   1      32.613  26.427  26.080  1.00  0.00     0.127 C 
ATOM     10  N   UNL A   1      33.227  23.344  24.573  1.00  0.00    -0.339 N 
ATOM     11  C   UNL A   1      31.960  23.909  24.224  1.00  0.00     0.160 C 
ATOM     12  C   UNL A   1      33.756  24.038  25.622  1.00  0.00     0.230 C 
ATOM     13  C   UNL A   1      31.228  24.405  25.524  1.00  0.00     0.117 C 
ATOM     14  C   UNL A   1      32.649  24.900  26.146  1.00  0.00     0.132 C 
ATOM     15  O   UNL A   1      34.852  23.896  26.142  1.00  0.00    -0.274 OA
ATOM     16  C   UNL A   1      30.300  25.241  24.567  1.00  0.00     0.009 C 
ATOM     17  O   UNL A   1      30.695  25.267  26.557  1.00  0.00    -0.360 OA
ATOM     18  C   UNL A   1      30.357  26.545  24.854  1.00  0.00     0.004 C 
ATOM     19  C   UNL A   1      31.097  26.604  26.129  1.00  0.00     0.155 C 
BRANCH  10  20
ATOM     20  C   UNL A   1      33.792  22.204  23.863  1.00  0.00     0.124 C 
BRANCH  20  21
ATOM     21  C   UNL A   1      33.523  20.839  24.552  1.00  0.00     0.018 C 
ATOM     22  C   UNL A   1      33.733  16.360  24.217  1.00  0.00     0.039 C 
ATOM     23  C   UNL A   1      33.650  17.858  24.292  1.00  0.00    -0.077 C 
ATOM     24  C   UNL A   1      32.520  18.509  24.003  1.00  0.00    -0.025 C 
ATOM     25  C   UNL A   1      34.919  18.574  24.612  1.00  0.00     0.034 C 
ATOM     26  C   UNL A   1      32.392  20.000  23.871  1.00  0.00     0.014 C 
ATOM     27  C   UNL A   1      34.795  20.050  25.033  1.00  0.00    -0.005 C 
ATOM     28  C   UNL A   1      32.154  20.289  22.384  1.00  0.00     0.012 C 
ATOM     29  C   UNL A   1      36.153  20.727  24.804  1.00  0.00     0.008 C 
ENDBRANCH  20  21
ENDBRANCH  10  20
ENDBRANCH   6   9
ENDBRANCH   4   5
ENDBRANCH   3   4
ENDBRANCH   2   3
ENDBRANCH   1   2
BRANCH   1  30
ATOM     30  C   UNL A   1      33.681  32.472  27.948  1.00  0.00     0.021 C 
BRANCH  30  31
ATOM     31  C   UNL A   1      33.846  33.965  27.677  1.00  0.00     0.116 C 
BRANCH  31  32
ATOM     32  N   UNL A   1      33.115  34.793  28.623  1.00  0.00    -0.352 N 
ATOM     33  C   UNL A   1      33.278  34.880  29.987  1.00  0.00     0.251 C 
ATOM     34  H   UNL A   1      32.412  35.366  28.238  1.00  0.00     0.163 HD
ATOM     35  O   UNL A   1      32.480  35.519  30.667  1.00  0.00    -0.269 OA
BRANCH  33  36
ATOM     36  C   UNL A   1      34.408  34.174  30.630  1.00  0.00     0.039 A 
ATOM     37  C   UNL A   1      34.144  33.107  31.493  1.00  0.00     0.014 A 
ATOM     38  C   UNL A   1      35.725  34.553  30.360  1.00  0.00     0.014 A 
ATOM     39  C   UNL A   1      35.206  32.377  32.037  1.00  0.00     0.010 A 
ATOM     40  C   UNL A   1      36.778  33.784  30.849  1.00  0.00     0.010 A 
ATOM     41  C   UNL A   1      36.530  32.691  31.695  1.00  0.00    -0.014 A 
BRANCH  41  42
ATOM     42  C   UNL A   1      37.682  31.904  32.210  1.00  0.00     0.031 A 
ATOM     43  C   UNL A   1      38.329  32.293  33.512  1.00  0.00     0.074 A 
ATOM     44  C   UNL A   1      38.214  30.917  31.460  1.00  0.00     0.049 A 
ATOM     45  N   UNL A   1      39.426  31.837  34.059  1.00  0.00    -0.248 NA
ATOM     46  C   UNL A   1      37.673  33.361  34.286  1.00  0.00     0.031 C 
ATOM     47  C   UNL A   1      37.722  30.488  30.149  1.00  0.00     0.029 A 
ATOM     48  N   UNL A   1      39.314  30.123  31.675  1.00  0.00    -0.354 N 
ATOM     49  C   UNL A   1      39.611  32.583  35.217  1.00  0.00     0.074 A 
ATOM     50  C   UNL A   1      38.533  33.546  35.276  1.00  0.00     0.031 C 
ATOM     51  C   UNL A   1      38.524  29.524  29.671  1.00  0.00     0.029 A 
ATOM     52  C   UNL A   1      39.605  29.286  30.622  1.00  0.00     0.049 A 
ATOM     53  H   UNL A   1      39.844  30.150  32.506  1.00  0.00     0.167 HD
ATOM     54  C   UNL A   1      40.573  32.460  36.162  1.00  0.00     0.034 A 
ATOM     55  C   UNL A   1      40.637  28.438  30.435  1.00  0.00     0.034 A 
ATOM     56  C   UNL A   1      41.614  31.471  36.126  1.00  0.00     0.049 A 
ATOM     57  C   UNL A   1      41.668  28.288  31.523  1.00  0.00     0.074 A 
ATOM     58  C   UNL A   1      42.600  31.226  37.065  1.00  0.00     0.029 A 
ATOM     59  N   UNL A   1      41.802  30.558  35.100  1.00  0.00    -0.354 N 
ATOM     60  N   UNL A   1      41.750  28.914  32.673  1.00  0.00    -0.248 NA
ATOM     61  C   UNL A   1      42.726  27.289  31.310  1.00  0.00     0.031 C 
ATOM     62  C   UNL A   1      43.388  30.167  36.604  1.00  0.00     0.029 A 
ATOM     63  C   UNL A   1      42.880  29.741  35.387  1.00  0.00     0.049 A 
ATOM     64  H   UNL A   1      41.249  30.501  34.287  1.00  0.00     0.167 HD
ATOM     65  C   UNL A   1      42.837  28.355  33.335  1.00  0.00     0.074 A 
ATOM     66  C   UNL A   1      43.375  27.330  32.466  1.00  0.00     0.031 C 
ATOM     67  C   UNL A   1      43.353  28.673  34.548  1.00  0.00     0.034 A 
BRANCH  54  68
ATOM     68  C   UNL A   1      40.504  33.377  37.355  1.00  0.00     0.023 A 
ATOM     69  C   UNL A   1      41.248  34.575  37.347  1.00  0.00     0.012 A 
ATOM     70  C   UNL A   1      39.658  33.096  38.445  1.00  0.00     0.148 A 
ATOM     71  C   UNL A   1      41.179  35.462  38.421  1.00  0.00     0.002 A 
ATOM     72  C   UNL A   1      39.560  34.007  39.492  1.00  0.00     0.091 A 
ATOM     73  F   UNL A   1      38.971  31.945  38.444  1.00  0.00    -0.205 F 
ATOM     74  C   UNL A   1      40.327  35.184  39.486  1.00  0.00     0.022 A 
BRANCH  72  75
ATOM     75  S   UNL A   1      38.434  33.783  40.874  1.00  0.00     0.127 S 
ATOM     76  O   UNL A   1      39.064  32.673  41.590  1.00  0.00    -0.237 OA
ATOM     77  O   UNL A   1      38.521  35.075  41.554  1.00  0.00    -0.237 OA
ATOM     78  O   UNL A   1      37.133  33.489  40.290  1.00  0.00    -0.744 OA
ENDBRANCH  72  75
ENDBRANCH  54  68
BRANCH  55  79
ATOM     79  C   UNL A   1      40.720  27.622  29.190  1.00  0.00     0.023 A 
ATOM     80  C   UNL A   1      39.922  26.469  29.063  1.00  0.00     0.012 A 
ATOM     81  C   UNL A   1      41.573  27.986  28.130  1.00  0.00     0.148 A 
ATOM     82  C   UNL A   1      40.000  25.671  27.920  1.00  0.00     0.002 A 
ATOM     83  C   UNL A   1      41.603  27.218  26.971  1.00  0.00     0.091 A 
ATOM     84  F   UNL A   1      42.335  29.080  28.273  1.00  0.00    -0.205 F 
ATOM     85  C   UNL A   1      40.833  26.050  26.872  1.00  0.00     0.022 A 
BRANCH  83  86
ATOM     86  S   UNL A   1      42.546  27.711  25.523  1.00  0.00     0.127 S 
ATOM     87  O   UNL A   1      43.893  27.837  26.069  1.00  0.00    -0.237 OA
ATOM     88  O   UNL A   1      42.347  26.573  24.625  1.00  0.00    -0.237 OA
ATOM     89  O   UNL A   1      41.927  28.947  25.061  1.00  0.00    -0.744 OA
ENDBRANCH  83  86
ENDBRANCH  55  79
BRANCH  67  90
ATOM     90  C   UNL A   1      44.523  27.869  35.049  1.00  0.00     0.023 A 
ATOM     91  C   UNL A   1      45.836  28.329  34.835  1.00  0.00     0.012 A 
ATOM     92  C   UNL A   1      44.310  26.708  35.819  1.00  0.00     0.148 A 
ATOM     93  C   UNL A   1      46.924  27.634  35.363  1.00  0.00     0.002 A 
ATOM     94  C   UNL A   1      45.396  26.047  36.382  1.00  0.00     0.091 A 
ATOM     95  F   UNL A   1      43.053  26.277  35.994  1.00  0.00    -0.205 F 
ATOM     96  C   UNL A   1      46.703  26.502  36.147  1.00  0.00     0.022 A 
BRANCH  94  97
ATOM     97  S   UNL A   1      45.201  24.640  37.482  1.00  0.00     0.127 S 
ATOM     98  O   UNL A   1      44.602  23.647  36.592  1.00  0.00    -0.237 OA
ATOM     99  O   UNL A   1      46.584  24.357  37.869  1.00  0.00    -0.237 OA
ATOM    100  O   UNL A   1      44.351  25.096  38.572  1.00  0.00    -0.744 OA
ENDBRANCH  94  97
ENDBRANCH  67  90
ENDBRANCH  41  42
ENDBRANCH  33  36
ENDBRANCH  31  32
ENDBRANCH  30  31
ENDBRANCH   1  30
TORSDOF 18
ENDMDL
