MODEL 1
REMARK VINA RESULT:     -11.6      0.000      0.000
REMARK SMILES O=C(NCCCCCCNC(=O)c1ccc(-c2c3nc(c(-c4cccc(S(=O)(=O)[O-])c4F)c4ccc([nH]4)c(-c4cccc(S(=O)(=O)[O-])c4F)c4nc(c(-c5cccc(S(=O)(=O)[O-])c5F)c5ccc2[nH]5)C=C4)C=C3)cc1)C1=NN(c2ccc([N+](=O)[O-])cc2)[C@H](c2ccccc2)C1
REMARK SMILES IDX 7 1 6 2 5 3 4 4 3 5 1 6 2 7 76 9 77 10 95 11 78 12 88 13
REMARK SMILES IDX 79 14 80 15 87 16 81 17 86 18 82 19 83 20 84 21 85 22 89 23
REMARK SMILES IDX 90 24 94 25 91 26 93 27 92 28 8 29 9 30 10 31 11 32 12 34
REMARK SMILES IDX 13 35 14 36 75 37 15 38 74 39 16 40 17 41 18 42 68 43 19 44
REMARK SMILES IDX 73 45 67 46 69 47 20 48 72 49 66 50 65 51 21 53 53 54 33 55
REMARK SMILES IDX 52 56 34 57 37 58 51 59 70 60 35 61 36 62 50 64 71 65 38 66
REMARK SMILES IDX 22 67 23 68 31 69 24 70 26 71 32 72 25 73 27 74 28 75 29 76
REMARK SMILES IDX 30 77 54 78 55 79 63 80 56 81 58 82 64 83 57 84 59 85 60 86
REMARK SMILES IDX 61 87 62 88 39 89 40 90 48 91 41 92 43 93 49 94 42 95 44 96
REMARK SMILES IDX 45 97 46 98 47 99
REMARK H PARENT 3 8 10 33 69 52 37 63
REMARK Flexibility Score: inf
ROOT
ATOM      1  C   UNL A   1      35.179  21.876  25.955  1.00  0.00     0.002 C 
ENDROOT
BRANCH   1   2
ATOM      2  C   UNL A   1      33.718  21.535  26.263  1.00  0.00     0.002 C 
BRANCH   2   3
ATOM      3  C   UNL A   1      32.993  22.503  27.202  1.00  0.00     0.021 C 
BRANCH   3   4
ATOM      4  C   UNL A   1      32.063  23.505  26.524  1.00  0.00     0.116 C 
BRANCH   4   5
ATOM      5  N   UNL A   1      31.557  23.016  25.242  1.00  0.00    -0.351 N 
ATOM      6  O   UNL A   1      30.555  23.223  23.207  1.00  0.00    -0.268 OA
ATOM      7  C   UNL A   1      30.950  23.736  24.253  1.00  0.00     0.267 C 
ATOM      8  H   UNL A   1      31.666  22.052  25.072  1.00  0.00     0.163 HD
BRANCH   7   9
ATOM      9  C   UNL A   1      30.701  25.201  24.466  1.00  0.00     0.128 C 
ATOM     10  N   UNL A   1      30.427  26.017  23.496  1.00  0.00    -0.171 NA
ATOM     11  C   UNL A   1      30.712  25.774  25.842  1.00  0.00     0.096 C 
ATOM     12  N   UNL A   1      30.451  27.263  24.036  1.00  0.00    -0.257 N 
ATOM     13  C   UNL A   1      30.611  27.268  25.499  1.00  0.00     0.144 C 
BRANCH  12  14
ATOM     14  C   UNL A   1      29.847  28.302  23.336  1.00  0.00     0.061 A 
ATOM     15  C   UNL A   1      30.583  29.098  22.447  1.00  0.00     0.035 A 
ATOM     16  C   UNL A   1      28.494  28.607  23.537  1.00  0.00     0.035 A 
ATOM     17  C   UNL A   1      29.979  30.142  21.740  1.00  0.00     0.088 A 
ATOM     18  C   UNL A   1      27.873  29.651  22.845  1.00  0.00     0.088 A 
ATOM     19  C   UNL A   1      28.620  30.408  21.936  1.00  0.00     0.269 A 
BRANCH  19  20
ATOM     20  N   UNL A   1      27.966  31.472  21.165  1.00  0.00     0.062 N 
ATOM     21  O   UNL A   1      27.607  31.208  20.008  1.00  0.00    -0.258 OA
ATOM     22  O   UNL A   1      27.767  32.555  21.732  1.00  0.00    -0.258 OA
ENDBRANCH  19  20
ENDBRANCH  12  14
BRANCH  13  23
ATOM     23  C   UNL A   1      31.784  28.126  25.952  1.00  0.00    -0.023 A 
ATOM     24  C   UNL A   1      31.700  29.516  26.137  1.00  0.00     0.006 A 
ATOM     25  C   UNL A   1      33.010  27.497  26.242  1.00  0.00     0.006 A 
ATOM     26  C   UNL A   1      32.809  30.250  26.569  1.00  0.00     0.000 A 
ATOM     27  C   UNL A   1      34.106  28.226  26.705  1.00  0.00     0.000 A 
ATOM     28  C   UNL A   1      34.008  29.604  26.859  1.00  0.00     0.000 A 
ENDBRANCH  13  23
ENDBRANCH   7   9
ENDBRANCH   4   5
ENDBRANCH   3   4
ENDBRANCH   2   3
ENDBRANCH   1   2
BRANCH   1  29
ATOM     29  C   UNL A   1      35.602  23.321  26.233  1.00  0.00     0.021 C 
BRANCH  29  30
ATOM     30  C   UNL A   1      36.945  23.745  25.640  1.00  0.00     0.116 C 
BRANCH  30  31
ATOM     31  N   UNL A   1      37.963  22.713  25.754  1.00  0.00    -0.352 N 
ATOM     32  C   UNL A   1      39.262  22.812  26.190  1.00  0.00     0.251 C 
ATOM     33  H   UNL A   1      37.680  21.812  25.477  1.00  0.00     0.163 HD
ATOM     34  O   UNL A   1      40.013  21.845  26.088  1.00  0.00    -0.269 OA
BRANCH  32  35
ATOM     35  C   UNL A   1      39.769  24.081  26.760  1.00  0.00     0.039 A 
ATOM     36  C   UNL A   1      40.250  25.065  25.889  1.00  0.00     0.014 A 
ATOM     37  C   UNL A   1      39.789  24.302  28.140  1.00  0.00     0.014 A 
ATOM     38  C   UNL A   1      40.691  26.291  26.396  1.00  0.00     0.010 A 
ATOM     39  C   UNL A   1      40.176  25.546  28.640  1.00  0.00     0.010 A 
ATOM     40  C   UNL A   1      40.629  26.553  27.774  1.00  0.00    -0.014 A 
BRANCH  40  41
ATOM     41  C   UNL A   1      41.011  27.879  28.327  1.00  0.00     0.031 A 
ATOM     42  C   UNL A   1      42.458  28.222  28.558  1.00  0.00     0.074 A 
ATOM     43  C   UNL A   1      40.048  28.740  28.712  1.00  0.00     0.049 A 
ATOM     44  N   UNL A   1      42.974  29.293  29.101  1.00  0.00    -0.248 NA
ATOM     45  C   UNL A   1      43.454  27.218  28.148  1.00  0.00     0.031 C 
ATOM     46  C   UNL A   1      38.607  28.494  28.617  1.00  0.00     0.029 A 
ATOM     47  N   UNL A   1      40.135  29.982  29.291  1.00  0.00    -0.354 N 
ATOM     48  C   UNL A   1      44.347  29.083  29.129  1.00  0.00     0.074 A 
ATOM     49  C   UNL A   1      44.583  27.769  28.571  1.00  0.00     0.031 C 
ATOM     50  C   UNL A   1      37.947  29.546  29.129  1.00  0.00     0.029 A 
ATOM     51  C   UNL A   1      38.913  30.532  29.605  1.00  0.00     0.049 A 
ATOM     52  H   UNL A   1      40.991  30.437  29.465  1.00  0.00     0.167 HD
ATOM     53  C   UNL A   1      45.327  29.920  29.549  1.00  0.00     0.034 A 
ATOM     54  C   UNL A   1      38.605  31.695  30.211  1.00  0.00     0.034 A 
ATOM     55  C   UNL A   1      45.097  31.247  30.053  1.00  0.00     0.049 A 
ATOM     56  C   UNL A   1      39.712  32.631  30.612  1.00  0.00     0.074 A 
ATOM     57  C   UNL A   1      46.030  32.198  30.430  1.00  0.00     0.029 A 
ATOM     58  N   UNL A   1      43.848  31.815  30.248  1.00  0.00    -0.354 N 
ATOM     59  N   UNL A   1      41.008  32.477  30.481  1.00  0.00    -0.248 NA
ATOM     60  C   UNL A   1      39.317  33.917  31.206  1.00  0.00     0.031 C 
ATOM     61  C   UNL A   1      45.344  33.341  30.852  1.00  0.00     0.029 A 
ATOM     62  C   UNL A   1      43.985  33.104  30.734  1.00  0.00     0.049 A 
ATOM     63  H   UNL A   1      42.990  31.367  30.066  1.00  0.00     0.167 HD
ATOM     64  C   UNL A   1      41.579  33.656  30.948  1.00  0.00     0.074 A 
ATOM     65  C   UNL A   1      40.489  34.524  31.341  1.00  0.00     0.031 C 
ATOM     66  C   UNL A   1      42.890  33.982  31.059  1.00  0.00     0.034 A 
BRANCH  53  67
ATOM     67  C   UNL A   1      46.751  29.453  29.408  1.00  0.00     0.023 A 
ATOM     68  C   UNL A   1      47.386  28.850  30.513  1.00  0.00     0.012 A 
ATOM     69  C   UNL A   1      47.436  29.544  28.181  1.00  0.00     0.148 A 
ATOM     70  C   UNL A   1      48.691  28.371  30.409  1.00  0.00     0.002 A 
ATOM     71  C   UNL A   1      48.725  29.030  28.075  1.00  0.00     0.091 A 
ATOM     72  F   UNL A   1      46.824  30.141  27.149  1.00  0.00    -0.205 F 
ATOM     73  C   UNL A   1      49.355  28.451  29.189  1.00  0.00     0.022 A 
BRANCH  71  74
ATOM     74  S   UNL A   1      49.639  29.025  26.528  1.00  0.00     0.127 S 
ATOM     75  O   UNL A   1      50.032  30.427  26.413  1.00  0.00    -0.237 OA
ATOM     76  O   UNL A   1      50.739  28.106  26.820  1.00  0.00    -0.237 OA
ATOM     77  O   UNL A   1      48.707  28.549  25.516  1.00  0.00    -0.744 OA
ENDBRANCH  71  74
ENDBRANCH  53  67
BRANCH  54  78
ATOM     78  C   UNL A   1      37.176  32.073  30.405  1.00  0.00     0.023 A 
ATOM     79  C   UNL A   1      36.540  31.758  31.621  1.00  0.00     0.012 A 
ATOM     80  C   UNL A   1      36.459  32.771  29.416  1.00  0.00     0.148 A 
ATOM     81  C   UNL A   1      35.206  32.105  31.837  1.00  0.00     0.002 A 
ATOM     82  C   UNL A   1      35.146  33.161  29.658  1.00  0.00     0.091 A 
ATOM     83  F   UNL A   1      37.075  33.046  28.256  1.00  0.00    -0.205 F 
ATOM     84  C   UNL A   1      34.513  32.816  30.861  1.00  0.00     0.022 A 
BRANCH  82  85
ATOM     85  S   UNL A   1      34.236  34.197  28.504  1.00  0.00     0.127 S 
ATOM     86  O   UNL A   1      34.254  33.383  27.294  1.00  0.00    -0.237 OA
ATOM     87  O   UNL A   1      32.930  34.308  29.154  1.00  0.00    -0.237 OA
ATOM     88  O   UNL A   1      34.981  35.448  28.450  1.00  0.00    -0.744 OA
ENDBRANCH  82  85
ENDBRANCH  54  78
BRANCH  66  89
ATOM     89  C   UNL A   1      43.229  35.343  31.606  1.00  0.00     0.023 A 
ATOM     90  C   UNL A   1      43.352  35.521  32.997  1.00  0.00     0.012 A 
ATOM     91  C   UNL A   1      43.502  36.422  30.743  1.00  0.00     0.148 A 
ATOM     92  C   UNL A   1      43.718  36.759  33.525  1.00  0.00     0.002 A 
ATOM     93  C   UNL A   1      43.908  37.642  31.273  1.00  0.00     0.091 A 
ATOM     94  F   UNL A   1      43.358  36.240  29.421  1.00  0.00    -0.205 F 
ATOM     95  C   UNL A   1      44.007  37.815  32.662  1.00  0.00     0.022 A 
BRANCH  93  96
ATOM     96  S   UNL A   1      44.382  39.027  30.230  1.00  0.00     0.127 S 
ATOM     97  O   UNL A   1      44.417  40.127  31.191  1.00  0.00    -0.237 OA
ATOM     98  O   UNL A   1      45.694  38.610  29.733  1.00  0.00    -0.237 OA
ATOM     99  O   UNL A   1      43.354  39.119  29.203  1.00  0.00    -0.744 OA
ENDBRANCH  93  96
ENDBRANCH  66  89
ENDBRANCH  40  41
ENDBRANCH  32  35
ENDBRANCH  30  31
ENDBRANCH  29  30
ENDBRANCH   1  29
TORSDOF 19
ENDMDL
MODEL 2
REMARK VINA RESULT:     -11.5      1.968      2.757
REMARK SMILES O=C(NCCCCCCNC(=O)c1ccc(-c2c3nc(c(-c4cccc(S(=O)(=O)[O-])c4F)c4ccc([nH]4)c(-c4cccc(S(=O)(=O)[O-])c4F)c4nc(c(-c5cccc(S(=O)(=O)[O-])c5F)c5ccc2[nH]5)C=C4)C=C3)cc1)C1=NN(c2ccc([N+](=O)[O-])cc2)[C@H](c2ccccc2)C1
REMARK SMILES IDX 7 1 6 2 5 3 4 4 3 5 1 6 2 7 76 9 77 10 95 11 78 12 88 13
REMARK SMILES IDX 79 14 80 15 87 16 81 17 86 18 82 19 83 20 84 21 85 22 89 23
REMARK SMILES IDX 90 24 94 25 91 26 93 27 92 28 8 29 9 30 10 31 11 32 12 34
REMARK SMILES IDX 13 35 14 36 75 37 15 38 74 39 16 40 17 41 18 42 68 43 19 44
REMARK SMILES IDX 73 45 67 46 69 47 20 48 72 49 66 50 65 51 21 53 53 54 33 55
REMARK SMILES IDX 52 56 34 57 37 58 51 59 70 60 35 61 36 62 50 64 71 65 38 66
REMARK SMILES IDX 22 67 23 68 31 69 24 70 26 71 32 72 25 73 27 74 28 75 29 76
REMARK SMILES IDX 30 77 54 78 55 79 63 80 56 81 58 82 64 83 57 84 59 85 60 86
REMARK SMILES IDX 61 87 62 88 39 89 40 90 48 91 41 92 43 93 49 94 42 95 44 96
REMARK SMILES IDX 45 97 46 98 47 99
REMARK H PARENT 3 8 10 33 69 52 37 63
REMARK Flexibility Score: inf
ROOT
ATOM      1  C   UNL A   1      35.184  20.822  25.809  1.00  0.00     0.002 C 
ENDROOT
BRANCH   1   2
ATOM      2  C   UNL A   1      33.972  21.284  26.622  1.00  0.00     0.002 C 
BRANCH   2   3
ATOM      3  C   UNL A   1      33.623  22.771  26.510  1.00  0.00     0.021 C 
BRANCH   3   4
ATOM      4  C   UNL A   1      32.142  23.087  26.325  1.00  0.00     0.116 C 
BRANCH   4   5
ATOM      5  N   UNL A   1      31.642  22.668  25.015  1.00  0.00    -0.351 N 
ATOM      6  O   UNL A   1      30.648  22.988  22.991  1.00  0.00    -0.268 OA
ATOM      7  C   UNL A   1      31.038  23.442  24.066  1.00  0.00     0.267 C 
ATOM      8  H   UNL A   1      31.755  21.716  24.792  1.00  0.00     0.163 HD
BRANCH   7   9
ATOM      9  C   UNL A   1      30.784  24.892  24.360  1.00  0.00     0.128 C 
ATOM     10  N   UNL A   1      30.489  25.756  23.439  1.00  0.00    -0.171 NA
ATOM     11  C   UNL A   1      30.815  25.392  25.764  1.00  0.00     0.096 C 
ATOM     12  N   UNL A   1      30.514  26.972  24.043  1.00  0.00    -0.257 N 
ATOM     13  C   UNL A   1      30.700  26.902  25.502  1.00  0.00     0.144 C 
BRANCH  12  14
ATOM     14  C   UNL A   1      29.892  28.042  23.410  1.00  0.00     0.061 A 
ATOM     15  C   UNL A   1      28.520  28.281  23.575  1.00  0.00     0.035 A 
ATOM     16  C   UNL A   1      30.615  28.884  22.553  1.00  0.00     0.035 A 
ATOM     17  C   UNL A   1      27.891  29.357  22.940  1.00  0.00     0.088 A 
ATOM     18  C   UNL A   1      30.003  29.961  21.906  1.00  0.00     0.088 A 
ATOM     19  C   UNL A   1      28.642  30.201  22.114  1.00  0.00     0.269 A 
BRANCH  19  20
ATOM     20  N   UNL A   1      28.000  31.359  21.481  1.00  0.00     0.062 N 
ATOM     21  O   UNL A   1      27.658  31.251  20.294  1.00  0.00    -0.258 OA
ATOM     22  O   UNL A   1      27.792  32.358  22.184  1.00  0.00    -0.258 OA
ENDBRANCH  19  20
ENDBRANCH  12  14
BRANCH  13  23
ATOM     23  C   UNL A   1      31.875  27.742  25.979  1.00  0.00    -0.023 A 
ATOM     24  C   UNL A   1      33.216  27.420  25.712  1.00  0.00     0.006 A 
ATOM     25  C   UNL A   1      31.614  28.927  26.693  1.00  0.00     0.006 A 
ATOM     26  C   UNL A   1      34.255  28.239  26.166  1.00  0.00     0.000 A 
ATOM     27  C   UNL A   1      32.650  29.761  27.116  1.00  0.00     0.000 A 
ATOM     28  C   UNL A   1      33.971  29.412  26.861  1.00  0.00     0.000 A 
ENDBRANCH  13  23
ENDBRANCH   7   9
ENDBRANCH   4   5
ENDBRANCH   3   4
ENDBRANCH   2   3
ENDBRANCH   1   2
BRANCH   1  29
ATOM     29  C   UNL A   1      35.591  21.725  24.641  1.00  0.00     0.021 C 
BRANCH  29  30
ATOM     30  C   UNL A   1      37.094  21.895  24.427  1.00  0.00     0.116 C 
BRANCH  30  31
ATOM     31  N   UNL A   1      37.874  20.818  25.015  1.00  0.00    -0.352 N 
ATOM     32  C   UNL A   1      39.005  20.881  25.792  1.00  0.00     0.251 C 
ATOM     33  H   UNL A   1      37.544  19.909  24.827  1.00  0.00     0.163 HD
ATOM     34  O   UNL A   1      39.600  19.847  26.087  1.00  0.00    -0.269 OA
BRANCH  32  35
ATOM     35  C   UNL A   1      39.524  22.188  26.257  1.00  0.00     0.039 A 
ATOM     36  C   UNL A   1      40.766  22.227  26.901  1.00  0.00     0.014 A 
ATOM     37  C   UNL A   1      38.795  23.366  26.079  1.00  0.00     0.014 A 
ATOM     38  C   UNL A   1      41.302  23.452  27.309  1.00  0.00     0.010 A 
ATOM     39  C   UNL A   1      39.355  24.593  26.435  1.00  0.00     0.010 A 
ATOM     40  C   UNL A   1      40.615  24.649  27.051  1.00  0.00    -0.014 A 
BRANCH  40  41
ATOM     41  C   UNL A   1      41.204  25.969  27.397  1.00  0.00     0.031 A 
ATOM     42  C   UNL A   1      42.629  26.289  27.032  1.00  0.00     0.074 A 
ATOM     43  C   UNL A   1      40.486  26.846  28.126  1.00  0.00     0.049 A 
ATOM     44  N   UNL A   1      43.334  27.352  27.318  1.00  0.00    -0.248 NA
ATOM     45  C   UNL A   1      43.366  25.269  26.269  1.00  0.00     0.031 C 
ATOM     46  C   UNL A   1      39.122  26.624  28.613  1.00  0.00     0.029 A 
ATOM     47  N   UNL A   1      40.813  28.087  28.613  1.00  0.00    -0.354 N 
ATOM     48  C   UNL A   1      44.602  27.120  26.801  1.00  0.00     0.074 A 
ATOM     49  C   UNL A   1      44.578  25.802  26.205  1.00  0.00     0.031 C 
ATOM     50  C   UNL A   1      38.735  27.686  29.336  1.00  0.00     0.029 A 
ATOM     51  C   UNL A   1      39.824  28.657  29.382  1.00  0.00     0.049 A 
ATOM     52  H   UNL A   1      41.674  28.528  28.430  1.00  0.00     0.167 HD
ATOM     53  C   UNL A   1      45.680  27.941  26.791  1.00  0.00     0.034 A 
ATOM     54  C   UNL A   1      39.799  29.826  30.053  1.00  0.00     0.034 A 
ATOM     55  C   UNL A   1      45.689  29.272  27.335  1.00  0.00     0.049 A 
ATOM     56  C   UNL A   1      40.988  30.744  29.974  1.00  0.00     0.074 A 
ATOM     57  C   UNL A   1      46.708  30.208  27.304  1.00  0.00     0.029 A 
ATOM     58  N   UNL A   1      44.627  29.861  28.005  1.00  0.00    -0.354 N 
ATOM     59  N   UNL A   1      42.123  30.569  29.342  1.00  0.00    -0.248 NA
ATOM     60  C   UNL A   1      40.879  32.037  30.667  1.00  0.00     0.031 C 
ATOM     61  C   UNL A   1      46.262  31.363  27.956  1.00  0.00     0.029 A 
ATOM     62  C   UNL A   1      44.964  31.148  28.388  1.00  0.00     0.049 A 
ATOM     63  H   UNL A   1      43.761  29.427  28.182  1.00  0.00     0.167 HD
ATOM     64  C   UNL A   1      42.850  31.739  29.534  1.00  0.00     0.074 A 
ATOM     65  C   UNL A   1      42.017  32.625  30.321  1.00  0.00     0.031 C 
ATOM     66  C   UNL A   1      44.102  32.044  29.114  1.00  0.00     0.034 A 
BRANCH  53  67
ATOM     67  C   UNL A   1      46.925  27.451  26.100  1.00  0.00     0.023 A 
ATOM     68  C   UNL A   1      47.111  27.747  24.735  1.00  0.00     0.012 A 
ATOM     69  C   UNL A   1      47.933  26.763  26.803  1.00  0.00     0.148 A 
ATOM     70  C   UNL A   1      48.268  27.343  24.071  1.00  0.00     0.002 A 
ATOM     71  C   UNL A   1      49.101  26.395  26.144  1.00  0.00     0.091 A 
ATOM     72  F   UNL A   1      47.727  26.471  28.095  1.00  0.00    -0.205 F 
ATOM     73  C   UNL A   1      49.266  26.678  24.777  1.00  0.00     0.022 A 
BRANCH  71  74
ATOM     74  S   UNL A   1      50.473  25.595  26.981  1.00  0.00     0.127 S 
ATOM     75  O   UNL A   1      51.411  25.387  25.880  1.00  0.00    -0.237 OA
ATOM     76  O   UNL A   1      50.886  26.613  27.947  1.00  0.00    -0.237 OA
ATOM     77  O   UNL A   1      49.926  24.384  27.576  1.00  0.00    -0.744 OA
ENDBRANCH  71  74
ENDBRANCH  53  67
BRANCH  54  78
ATOM     78  C   UNL A   1      38.570  30.227  30.794  1.00  0.00     0.023 A 
ATOM     79  C   UNL A   1      38.416  29.830  32.137  1.00  0.00     0.012 A 
ATOM     80  C   UNL A   1      37.578  31.025  30.196  1.00  0.00     0.148 A 
ATOM     81  C   UNL A   1      37.281  30.195  32.861  1.00  0.00     0.002 A 
ATOM     82  C   UNL A   1      36.475  31.431  30.940  1.00  0.00     0.091 A 
ATOM     83  F   UNL A   1      37.731  31.379  28.912  1.00  0.00    -0.205 F 
ATOM     84  C   UNL A   1      36.316  31.006  32.267  1.00  0.00     0.022 A 
BRANCH  82  85
ATOM     85  S   UNL A   1      35.262  32.586  30.286  1.00  0.00     0.127 S 
ATOM     86  O   UNL A   1      34.404  32.806  31.445  1.00  0.00    -0.237 OA
ATOM     87  O   UNL A   1      36.094  33.728  29.909  1.00  0.00    -0.237 OA
ATOM     88  O   UNL A   1      34.653  31.897  29.156  1.00  0.00    -0.744 OA
ENDBRANCH  82  85
ENDBRANCH  54  78
BRANCH  66  89
ATOM     89  C   UNL A   1      44.649  33.400  29.471  1.00  0.00     0.023 A 
ATOM     90  C   UNL A   1      45.442  33.545  30.625  1.00  0.00     0.012 A 
ATOM     91  C   UNL A   1      44.445  34.508  28.626  1.00  0.00     0.148 A 
ATOM     92  C   UNL A   1      46.006  34.780  30.948  1.00  0.00     0.002 A 
ATOM     93  C   UNL A   1      45.044  35.726  28.931  1.00  0.00     0.091 A 
ATOM     94  F   UNL A   1      43.668  34.355  27.543  1.00  0.00    -0.205 F 
ATOM     95  C   UNL A   1      45.816  35.865  30.095  1.00  0.00     0.022 A 
BRANCH  93  96
ATOM     96  S   UNL A   1      44.922  37.150  27.841  1.00  0.00     0.127 S 
ATOM     97  O   UNL A   1      44.559  38.211  28.777  1.00  0.00    -0.237 OA
ATOM     98  O   UNL A   1      46.279  37.250  27.303  1.00  0.00    -0.237 OA
ATOM     99  O   UNL A   1      43.909  36.806  26.853  1.00  0.00    -0.744 OA
ENDBRANCH  93  96
ENDBRANCH  66  89
ENDBRANCH  40  41
ENDBRANCH  32  35
ENDBRANCH  30  31
ENDBRANCH  29  30
ENDBRANCH   1  29
TORSDOF 19
ENDMDL
MODEL 3
REMARK VINA RESULT:     -10.8      3.232      4.445
REMARK SMILES O=C(NCCCCCCNC(=O)c1ccc(-c2c3nc(c(-c4cccc(S(=O)(=O)[O-])c4F)c4ccc([nH]4)c(-c4cccc(S(=O)(=O)[O-])c4F)c4nc(c(-c5cccc(S(=O)(=O)[O-])c5F)c5ccc2[nH]5)C=C4)C=C3)cc1)C1=NN(c2ccc([N+](=O)[O-])cc2)[C@H](c2ccccc2)C1
REMARK SMILES IDX 7 1 6 2 5 3 4 4 3 5 1 6 2 7 76 9 77 10 95 11 78 12 88 13
REMARK SMILES IDX 79 14 80 15 87 16 81 17 86 18 82 19 83 20 84 21 85 22 89 23
REMARK SMILES IDX 90 24 94 25 91 26 93 27 92 28 8 29 9 30 10 31 11 32 12 34
REMARK SMILES IDX 13 35 14 36 75 37 15 38 74 39 16 40 17 41 18 42 68 43 19 44
REMARK SMILES IDX 73 45 67 46 69 47 20 48 72 49 66 50 65 51 21 53 53 54 33 55
REMARK SMILES IDX 52 56 34 57 37 58 51 59 70 60 35 61 36 62 50 64 71 65 38 66
REMARK SMILES IDX 22 67 23 68 31 69 24 70 26 71 32 72 25 73 27 74 28 75 29 76
REMARK SMILES IDX 30 77 54 78 55 79 63 80 56 81 58 82 64 83 57 84 59 85 60 86
REMARK SMILES IDX 61 87 62 88 39 89 40 90 48 91 41 92 43 93 49 94 42 95 44 96
REMARK SMILES IDX 45 97 46 98 47 99
REMARK H PARENT 3 8 10 33 69 52 37 63
REMARK Flexibility Score: inf
ROOT
ATOM      1  C   UNL A   1      34.755  21.410  25.387  1.00  0.00     0.002 C 
ENDROOT
BRANCH   1   2
ATOM      2  C   UNL A   1      33.293  20.981  25.244  1.00  0.00     0.002 C 
BRANCH   2   3
ATOM      3  C   UNL A   1      32.251  22.065  25.536  1.00  0.00     0.021 C 
BRANCH   3   4
ATOM      4  C   UNL A   1      31.583  22.682  24.311  1.00  0.00     0.116 C 
BRANCH   4   5
ATOM      5  N   UNL A   1      32.424  22.598  23.117  1.00  0.00    -0.351 N 
ATOM      6  O   UNL A   1      33.636  23.448  21.386  1.00  0.00    -0.268 OA
ATOM      7  C   UNL A   1      32.939  23.628  22.383  1.00  0.00     0.267 C 
ATOM      8  H   UNL A   1      32.644  21.691  22.805  1.00  0.00     0.163 HD
BRANCH   7   9
ATOM      9  C   UNL A   1      32.600  25.039  22.769  1.00  0.00     0.128 C 
ATOM     10  N   UNL A   1      32.975  25.573  23.890  1.00  0.00    -0.171 NA
ATOM     11  C   UNL A   1      31.843  25.914  21.829  1.00  0.00     0.096 C 
ATOM     12  N   UNL A   1      32.338  26.770  23.967  1.00  0.00    -0.257 N 
ATOM     13  C   UNL A   1      31.596  27.123  22.746  1.00  0.00     0.144 C 
BRANCH  12  14
ATOM     14  C   UNL A   1      32.813  27.718  24.866  1.00  0.00     0.061 A 
ATOM     15  C   UNL A   1      32.809  29.083  24.545  1.00  0.00     0.035 A 
ATOM     16  C   UNL A   1      33.349  27.327  26.101  1.00  0.00     0.035 A 
ATOM     17  C   UNL A   1      33.284  30.040  25.447  1.00  0.00     0.088 A 
ATOM     18  C   UNL A   1      33.834  28.268  27.013  1.00  0.00     0.088 A 
ATOM     19  C   UNL A   1      33.787  29.627  26.685  1.00  0.00     0.269 A 
BRANCH  19  20
ATOM     20  N   UNL A   1      34.245  30.627  27.657  1.00  0.00     0.062 N 
ATOM     21  O   UNL A   1      35.400  30.518  28.094  1.00  0.00    -0.258 OA
ATOM     22  O   UNL A   1      33.470  31.550  27.943  1.00  0.00    -0.258 OA
ENDBRANCH  19  20
ENDBRANCH  12  14
BRANCH  13  23
ATOM     23  C   UNL A   1      30.136  27.448  23.025  1.00  0.00    -0.023 A 
ATOM     24  C   UNL A   1      29.514  28.637  22.609  1.00  0.00     0.006 A 
ATOM     25  C   UNL A   1      29.349  26.496  23.700  1.00  0.00     0.006 A 
ATOM     26  C   UNL A   1      28.164  28.874  22.884  1.00  0.00     0.000 A 
ATOM     27  C   UNL A   1      27.993  26.719  23.944  1.00  0.00     0.000 A 
ATOM     28  C   UNL A   1      27.403  27.912  23.544  1.00  0.00     0.000 A 
ENDBRANCH  13  23
ENDBRANCH   7   9
ENDBRANCH   4   5
ENDBRANCH   3   4
ENDBRANCH   2   3
ENDBRANCH   1   2
BRANCH   1  29
ATOM     29  C   UNL A   1      34.990  22.859  25.821  1.00  0.00     0.021 C 
BRANCH  29  30
ATOM     30  C   UNL A   1      36.447  23.255  26.054  1.00  0.00     0.116 C 
BRANCH  30  31
ATOM     31  N   UNL A   1      37.364  22.133  25.930  1.00  0.00    -0.352 N 
ATOM     32  C   UNL A   1      38.719  22.084  26.148  1.00  0.00     0.251 C 
ATOM     33  H   UNL A   1      36.952  21.284  25.647  1.00  0.00     0.163 HD
ATOM     34  O   UNL A   1      39.345  21.066  25.860  1.00  0.00    -0.269 OA
BRANCH  32  35
ATOM     35  C   UNL A   1      39.434  23.256  26.704  1.00  0.00     0.039 A 
ATOM     36  C   UNL A   1      40.401  23.046  27.693  1.00  0.00     0.014 A 
ATOM     37  C   UNL A   1      39.148  24.554  26.273  1.00  0.00     0.014 A 
ATOM     38  C   UNL A   1      41.124  24.129  28.203  1.00  0.00     0.010 A 
ATOM     39  C   UNL A   1      39.908  25.625  26.741  1.00  0.00     0.010 A 
ATOM     40  C   UNL A   1      40.905  25.424  27.709  1.00  0.00    -0.014 A 
BRANCH  40  41
ATOM     41  C   UNL A   1      41.720  26.577  28.173  1.00  0.00     0.031 A 
ATOM     42  C   UNL A   1      43.136  26.754  27.692  1.00  0.00     0.074 A 
ATOM     43  C   UNL A   1      41.219  27.414  29.103  1.00  0.00     0.049 A 
ATOM     44  N   UNL A   1      44.020  27.651  28.045  1.00  0.00    -0.248 NA
ATOM     45  C   UNL A   1      43.630  25.782  26.703  1.00  0.00     0.031 C 
ATOM     46  C   UNL A   1      39.890  27.303  29.711  1.00  0.00     0.029 A 
ATOM     47  N   UNL A   1      41.778  28.502  29.725  1.00  0.00    -0.354 N 
ATOM     48  C   UNL A   1      45.181  27.335  27.352  1.00  0.00     0.074 A 
ATOM     49  C   UNL A   1      44.898  26.147  26.576  1.00  0.00     0.031 C 
ATOM     50  C   UNL A   1      39.742  28.276  30.623  1.00  0.00     0.029 A 
ATOM     51  C   UNL A   1      40.967  29.068  30.682  1.00  0.00     0.049 A 
ATOM     52  H   UNL A   1      42.675  28.845  29.508  1.00  0.00     0.167 HD
ATOM     53  C   UNL A   1      46.367  27.991  27.334  1.00  0.00     0.034 A 
ATOM     54  C   UNL A   1      41.186  30.104  31.515  1.00  0.00     0.034 A 
ATOM     55  C   UNL A   1      46.632  29.202  28.063  1.00  0.00     0.049 A 
ATOM     56  C   UNL A   1      42.489  30.852  31.432  1.00  0.00     0.074 A 
ATOM     57  C   UNL A   1      47.775  29.982  28.049  1.00  0.00     0.029 A 
ATOM     58  N   UNL A   1      45.743  29.813  28.935  1.00  0.00    -0.354 N 
ATOM     59  N   UNL A   1      43.518  30.629  30.650  1.00  0.00    -0.248 NA
ATOM     60  C   UNL A   1      42.647  32.017  32.315  1.00  0.00     0.031 C 
ATOM     61  C   UNL A   1      47.576  31.066  28.912  1.00  0.00     0.029 A 
ATOM     62  C   UNL A   1      46.309  30.962  29.459  1.00  0.00     0.049 A 
ATOM     63  H   UNL A   1      44.841  29.478  29.147  1.00  0.00     0.167 HD
ATOM     64  C   UNL A   1      44.430  31.641  30.924  1.00  0.00     0.074 A 
ATOM     65  C   UNL A   1      43.824  32.493  31.926  1.00  0.00     0.031 C 
ATOM     66  C   UNL A   1      45.668  31.837  30.407  1.00  0.00     0.034 A 
BRANCH  53  67
ATOM     67  C   UNL A   1      47.449  27.455  26.436  1.00  0.00     0.023 A 
ATOM     68  C   UNL A   1      48.374  26.528  26.957  1.00  0.00     0.012 A 
ATOM     69  C   UNL A   1      47.514  27.808  25.074  1.00  0.00     0.148 A 
ATOM     70  C   UNL A   1      49.366  25.981  26.145  1.00  0.00     0.002 A 
ATOM     71  C   UNL A   1      48.484  27.229  24.261  1.00  0.00     0.091 A 
ATOM     72  F   UNL A   1      46.640  28.708  24.603  1.00  0.00    -0.205 F 
ATOM     73  C   UNL A   1      49.414  26.322  24.797  1.00  0.00     0.022 A 
BRANCH  71  74
ATOM     74  S   UNL A   1      48.586  27.553  22.497  1.00  0.00     0.127 S 
ATOM     75  O   UNL A   1      49.847  28.285  22.404  1.00  0.00    -0.237 OA
ATOM     76  O   UNL A   1      48.623  26.203  21.934  1.00  0.00    -0.237 OA
ATOM     77  O   UNL A   1      47.392  28.315  22.162  1.00  0.00    -0.744 OA
ENDBRANCH  71  74
ENDBRANCH  53  67
BRANCH  54  78
ATOM     78  C   UNL A   1      40.111  30.543  32.449  1.00  0.00     0.023 A 
ATOM     79  C   UNL A   1      40.107  30.057  33.771  1.00  0.00     0.012 A 
ATOM     80  C   UNL A   1      39.122  31.462  32.052  1.00  0.00     0.148 A 
ATOM     81  C   UNL A   1      39.119  30.454  34.672  1.00  0.00     0.002 A 
ATOM     82  C   UNL A   1      38.171  31.895  32.970  1.00  0.00     0.091 A 
ATOM     83  F   UNL A   1      39.129  31.900  30.784  1.00  0.00    -0.205 F 
ATOM     84  C   UNL A   1      38.158  31.382  34.276  1.00  0.00     0.022 A 
BRANCH  82  85
ATOM     85  S   UNL A   1      36.988  33.189  32.573  1.00  0.00     0.127 S 
ATOM     86  O   UNL A   1      36.638  32.860  31.196  1.00  0.00    -0.237 OA
ATOM     87  O   UNL A   1      35.929  32.952  33.553  1.00  0.00    -0.237 OA
ATOM     88  O   UNL A   1      37.712  34.438  32.771  1.00  0.00    -0.744 OA
ENDBRANCH  82  85
ENDBRANCH  54  78
BRANCH  66  89
ATOM     89  C   UNL A   1      46.449  33.029  30.893  1.00  0.00     0.023 A 
ATOM     90  C   UNL A   1      46.305  34.266  30.237  1.00  0.00     0.012 A 
ATOM     91  C   UNL A   1      47.261  32.944  32.040  1.00  0.00     0.148 A 
ATOM     92  C   UNL A   1      46.975  35.398  30.700  1.00  0.00     0.002 A 
ATOM     93  C   UNL A   1      47.894  34.085  32.522  1.00  0.00     0.091 A 
ATOM     94  F   UNL A   1      47.404  31.752  32.638  1.00  0.00    -0.205 F 
ATOM     95  C   UNL A   1      47.760  35.309  31.848  1.00  0.00     0.022 A 
BRANCH  93  96
ATOM     96  S   UNL A   1      48.851  34.076  34.043  1.00  0.00     0.127 S 
ATOM     97  O   UNL A   1      49.954  33.183  33.696  1.00  0.00    -0.237 OA
ATOM     98  O   UNL A   1      49.228  35.483  34.185  1.00  0.00    -0.237 OA
ATOM     99  O   UNL A   1      47.948  33.591  35.076  1.00  0.00    -0.744 OA
ENDBRANCH  93  96
ENDBRANCH  66  89
ENDBRANCH  40  41
ENDBRANCH  32  35
ENDBRANCH  30  31
ENDBRANCH  29  30
ENDBRANCH   1  29
TORSDOF 19
ENDMDL
