MODEL 1
REMARK VINA RESULT:     -11.7      0.000      0.000
REMARK SMILES CCC[C@]1(C(=O)NCCCCCCNC(=O)c2ccc(-c3c4nc(c(-c5cccc(S(=O)(=O)[O-])c5F)c5ccc([nH]5)c(-c5cccc(S(=O)(=O)[O-])c5F)c5nc(c(-c6cccc(S(=O)(=O)[O-])c6F)c6ccc3[nH]6)C=C5)C=C4)cc2)CCN(C(=O)N[C@H]2CCOC2)C1
REMARK SMILES IDX 11 1 10 2 9 3 8 4 7 5 5 6 6 7 4 9 80 10 91 11 81 12 82 13
REMARK SMILES IDX 3 14 2 15 1 16 83 17 84 18 85 19 86 21 87 22 90 23 88 24
REMARK SMILES IDX 89 25 12 26 13 27 14 28 15 29 16 31 17 32 18 33 79 34 19 35
REMARK SMILES IDX 78 36 20 37 21 38 22 39 72 40 23 41 77 42 71 43 73 44 24 45
REMARK SMILES IDX 76 46 70 47 69 48 25 50 57 51 37 52 56 53 38 54 41 55 55 56
REMARK SMILES IDX 74 57 39 58 40 59 54 61 75 62 42 63 26 64 27 65 35 66 28 67
REMARK SMILES IDX 30 68 36 69 29 70 31 71 32 72 33 73 34 74 58 75 59 76 67 77
REMARK SMILES IDX 60 78 62 79 68 80 61 81 63 82 64 83 65 84 66 85 43 86 44 87
REMARK SMILES IDX 52 88 45 89 47 90 53 91 46 92 48 93 49 94 50 95 51 96
REMARK H PARENT 7 8 85 20 14 30 73 49 41 60
REMARK Flexibility Score: inf
ROOT
ATOM      1  C   UNL A   1      32.350  30.054  26.405  1.00  0.00     0.002 C 
ENDROOT
BRANCH   1   2
ATOM      2  C   UNL A   1      31.693  28.930  27.211  1.00  0.00     0.002 C 
BRANCH   2   3
ATOM      3  C   UNL A   1      32.320  27.542  27.029  1.00  0.00     0.021 C 
BRANCH   3   4
ATOM      4  C   UNL A   1      31.398  26.513  26.364  1.00  0.00     0.116 C 
BRANCH   4   5
ATOM      5  N   UNL A   1      32.096  25.256  26.160  1.00  0.00    -0.356 N 
ATOM      6  C   UNL A   1      32.216  24.564  24.997  1.00  0.00     0.228 C 
ATOM      7  O   UNL A   1      31.831  23.390  25.034  1.00  0.00    -0.274 OA
ATOM      8  H   UNL A   1      32.529  24.861  26.951  1.00  0.00     0.163 HD
BRANCH   6   9
ATOM      9  C   UNL A   1      32.743  25.175  23.690  1.00  0.00     0.068 C 
ATOM     10  C   UNL A   1      31.619  25.124  22.637  1.00  0.00     0.040 C 
ATOM     11  C   UNL A   1      33.137  26.664  23.738  1.00  0.00     0.138 C 
ATOM     12  C   UNL A   1      31.075  26.521  22.541  1.00  0.00     0.122 C 
ATOM     13  N   UNL A   1      32.040  27.408  23.102  1.00  0.00    -0.324 N 
BRANCH   9  14
ATOM     14  C   UNL A   1      33.890  24.288  23.105  1.00  0.00     0.018 C 
BRANCH  14  15
ATOM     15  C   UNL A   1      35.078  23.906  23.994  1.00  0.00    -0.002 C 
ATOM     16  C   UNL A   1      36.112  23.021  23.300  1.00  0.00     0.004 C 
ENDBRANCH  14  15
ENDBRANCH   9  14
BRANCH  13  17
ATOM     17  C   UNL A   1      32.084  28.757  22.966  1.00  0.00     0.317 C 
ATOM     18  O   UNL A   1      33.168  29.341  22.880  1.00  0.00    -0.249 OA
ATOM     19  N   UNL A   1      30.980  29.522  22.831  1.00  0.00    -0.333 N 
ATOM     20  H   UNL A   1      31.165  30.262  22.208  1.00  0.00     0.165 HD
BRANCH  19  21
ATOM     21  C   UNL A   1      29.587  29.612  23.314  1.00  0.00     0.112 C 
ATOM     22  C   UNL A   1      29.273  31.044  23.756  1.00  0.00     0.056 C 
ATOM     23  C   UNL A   1      28.356  29.282  22.488  1.00  0.00     0.185 C 
ATOM     24  C   UNL A   1      27.783  31.230  23.515  1.00  0.00     0.162 C 
ATOM     25  O   UNL A   1      27.266  29.954  23.132  1.00  0.00    -0.379 OA
ENDBRANCH  19  21
ENDBRANCH  13  17
ENDBRANCH   6   9
ENDBRANCH   4   5
ENDBRANCH   3   4
ENDBRANCH   2   3
ENDBRANCH   1   2
BRANCH   1  26
ATOM     26  C   UNL A   1      31.934  31.465  26.818  1.00  0.00     0.021 C 
BRANCH  26  27
ATOM     27  C   UNL A   1      33.056  32.290  27.435  1.00  0.00     0.116 C 
BRANCH  27  28
ATOM     28  N   UNL A   1      32.664  33.679  27.629  1.00  0.00    -0.352 N 
ATOM     29  C   UNL A   1      33.118  34.570  28.577  1.00  0.00     0.251 C 
ATOM     30  H   UNL A   1      31.988  34.026  27.003  1.00  0.00     0.163 HD
ATOM     31  O   UNL A   1      32.557  35.639  28.754  1.00  0.00    -0.269 OA
BRANCH  29  32
ATOM     32  C   UNL A   1      34.295  34.192  29.388  1.00  0.00     0.039 A 
ATOM     33  C   UNL A   1      34.112  33.468  30.569  1.00  0.00     0.014 A 
ATOM     34  C   UNL A   1      35.579  34.512  28.942  1.00  0.00     0.014 A 
ATOM     35  C   UNL A   1      35.228  33.000  31.269  1.00  0.00     0.010 A 
ATOM     36  C   UNL A   1      36.683  33.980  29.596  1.00  0.00     0.010 A 
ATOM     37  C   UNL A   1      36.521  33.221  30.766  1.00  0.00    -0.014 A 
BRANCH  37  38
ATOM     38  C   UNL A   1      37.735  32.683  31.432  1.00  0.00     0.031 A 
ATOM     39  C   UNL A   1      38.470  31.530  30.807  1.00  0.00     0.074 A 
ATOM     40  C   UNL A   1      38.093  33.137  32.650  1.00  0.00     0.049 A 
ATOM     41  N   UNL A   1      39.430  30.796  31.302  1.00  0.00    -0.248 NA
ATOM     42  C   UNL A   1      38.041  31.128  29.456  1.00  0.00     0.031 C 
ATOM     43  C   UNL A   1      37.428  34.215  33.384  1.00  0.00     0.029 A 
ATOM     44  N   UNL A   1      39.081  32.713  33.505  1.00  0.00    -0.354 N 
ATOM     45  C   UNL A   1      39.687  29.818  30.350  1.00  0.00     0.074 A 
ATOM     46  C   UNL A   1      38.762  30.035  29.259  1.00  0.00     0.031 C 
ATOM     47  C   UNL A   1      38.019  34.361  34.582  1.00  0.00     0.029 A 
ATOM     48  C   UNL A   1      39.071  33.359  34.720  1.00  0.00     0.049 A 
ATOM     49  H   UNL A   1      39.734  32.014  33.271  1.00  0.00     0.167 HD
ATOM     50  C   UNL A   1      40.622  28.839  30.370  1.00  0.00     0.034 A 
ATOM     51  C   UNL A   1      39.808  33.150  35.830  1.00  0.00     0.034 A 
ATOM     52  C   UNL A   1      41.564  28.653  31.440  1.00  0.00     0.049 A 
ATOM     53  C   UNL A   1      40.849  32.062  35.825  1.00  0.00     0.074 A 
ATOM     54  C   UNL A   1      42.600  27.741  31.522  1.00  0.00     0.029 A 
ATOM     55  N   UNL A   1      41.579  29.386  32.616  1.00  0.00    -0.354 N 
ATOM     56  N   UNL A   1      41.161  31.226  34.866  1.00  0.00    -0.248 NA
ATOM     57  C   UNL A   1      41.659  31.907  37.042  1.00  0.00     0.031 C 
ATOM     58  C   UNL A   1      43.223  27.901  32.763  1.00  0.00     0.029 A 
ATOM     59  C   UNL A   1      42.601  28.943  33.435  1.00  0.00     0.049 A 
ATOM     60  H   UNL A   1      40.955  30.115  32.835  1.00  0.00     0.167 HD
ATOM     61  C   UNL A   1      42.234  30.480  35.343  1.00  0.00     0.074 A 
ATOM     62  C   UNL A   1      42.521  30.967  36.676  1.00  0.00     0.031 C 
ATOM     63  C   UNL A   1      42.917  29.481  34.732  1.00  0.00     0.034 A 
BRANCH  50  64
ATOM     64  C   UNL A   1      40.696  27.915  29.183  1.00  0.00     0.023 A 
ATOM     65  C   UNL A   1      39.829  26.807  29.102  1.00  0.00     0.012 A 
ATOM     66  C   UNL A   1      41.587  28.173  28.122  1.00  0.00     0.148 A 
ATOM     67  C   UNL A   1      39.873  25.947  28.006  1.00  0.00     0.002 A 
ATOM     68  C   UNL A   1      41.591  27.340  27.009  1.00  0.00     0.091 A 
ATOM     69  F   UNL A   1      42.419  29.219  28.224  1.00  0.00    -0.205 F 
ATOM     70  C   UNL A   1      40.746  26.219  26.956  1.00  0.00     0.022 A 
BRANCH  68  71
ATOM     71  S   UNL A   1      42.617  27.653  25.568  1.00  0.00     0.127 S 
ATOM     72  O   UNL A   1      42.369  26.457  24.765  1.00  0.00    -0.237 OA
ATOM     73  O   UNL A   1      42.025  28.880  25.033  1.00  0.00    -0.237 OA
ATOM     74  O   UNL A   1      43.977  27.800  26.066  1.00  0.00    -0.744 OA
ENDBRANCH  68  71
ENDBRANCH  50  64
BRANCH  51  75
ATOM     75  C   UNL A   1      39.618  34.016  37.028  1.00  0.00     0.023 A 
ATOM     76  C   UNL A   1      40.051  35.356  36.987  1.00  0.00     0.012 A 
ATOM     77  C   UNL A   1      39.000  33.530  38.196  1.00  0.00     0.148 A 
ATOM     78  C   UNL A   1      39.904  36.187  38.099  1.00  0.00     0.002 A 
ATOM     79  C   UNL A   1      38.806  34.378  39.281  1.00  0.00     0.091 A 
ATOM     80  F   UNL A   1      38.603  32.250  38.219  1.00  0.00    -0.205 F 
ATOM     81  C   UNL A   1      39.274  35.701  39.242  1.00  0.00     0.022 A 
BRANCH  79  82
ATOM     82  S   UNL A   1      37.895  33.878  40.745  1.00  0.00     0.127 S 
ATOM     83  O   UNL A   1      36.762  33.164  40.161  1.00  0.00    -0.237 OA
ATOM     84  O   UNL A   1      38.871  33.031  41.431  1.00  0.00    -0.237 OA
ATOM     85  O   UNL A   1      37.568  35.111  41.448  1.00  0.00    -0.744 OA
ENDBRANCH  79  82
ENDBRANCH  51  75
BRANCH  63  86
ATOM     86  C   UNL A   1      44.092  28.880  35.456  1.00  0.00     0.023 A 
ATOM     87  C   UNL A   1      45.360  29.490  35.382  1.00  0.00     0.012 A 
ATOM     88  C   UNL A   1      43.903  27.772  36.305  1.00  0.00     0.148 A 
ATOM     89  C   UNL A   1      46.427  28.991  36.128  1.00  0.00     0.002 A 
ATOM     90  C   UNL A   1      44.958  27.314  37.086  1.00  0.00     0.091 A 
ATOM     91  F   UNL A   1      42.692  27.198  36.347  1.00  0.00    -0.205 F 
ATOM     92  C   UNL A   1      46.222  27.915  36.990  1.00  0.00     0.022 A 
BRANCH  90  93
ATOM     93  S   UNL A   1      44.762  26.004  38.300  1.00  0.00     0.127 S 
ATOM     94  O   UNL A   1      46.152  25.695  38.629  1.00  0.00    -0.237 OA
ATOM     95  O   UNL A   1      44.018  26.680  39.363  1.00  0.00    -0.237 OA
ATOM     96  O   UNL A   1      44.031  24.937  37.630  1.00  0.00    -0.744 OA
ENDBRANCH  90  93
ENDBRANCH  63  86
ENDBRANCH  37  38
ENDBRANCH  29  32
ENDBRANCH  27  28
ENDBRANCH  26  27
ENDBRANCH   1  26
TORSDOF 20
ENDMDL
MODEL 2
REMARK VINA RESULT:     -11.5      1.442      8.304
REMARK SMILES CCC[C@]1(C(=O)NCCCCCCNC(=O)c2ccc(-c3c4nc(c(-c5cccc(S(=O)(=O)[O-])c5F)c5ccc([nH]5)c(-c5cccc(S(=O)(=O)[O-])c5F)c5nc(c(-c6cccc(S(=O)(=O)[O-])c6F)c6ccc3[nH]6)C=C5)C=C4)cc2)CCN(C(=O)N[C@H]2CCOC2)C1
REMARK SMILES IDX 11 1 10 2 9 3 8 4 7 5 5 6 6 7 4 9 80 10 91 11 81 12 82 13
REMARK SMILES IDX 3 14 2 15 1 16 83 17 84 18 85 19 86 21 87 22 90 23 88 24
REMARK SMILES IDX 89 25 12 26 13 27 14 28 15 29 16 31 17 32 18 33 79 34 19 35
REMARK SMILES IDX 78 36 20 37 21 38 22 39 72 40 23 41 77 42 71 43 73 44 24 45
REMARK SMILES IDX 76 46 70 47 69 48 25 50 57 51 37 52 56 53 38 54 41 55 55 56
REMARK SMILES IDX 74 57 39 58 40 59 54 61 75 62 42 63 26 64 27 65 35 66 28 67
REMARK SMILES IDX 30 68 36 69 29 70 31 71 32 72 33 73 34 74 58 75 59 76 67 77
REMARK SMILES IDX 60 78 62 79 68 80 61 81 63 82 64 83 65 84 66 85 43 86 44 87
REMARK SMILES IDX 52 88 45 89 47 90 53 91 46 92 48 93 49 94 50 95 51 96
REMARK H PARENT 7 8 85 20 14 30 73 49 41 60
REMARK Flexibility Score: inf
ROOT
ATOM      1  C   UNL A   1      31.635  30.997  26.485  1.00  0.00     0.002 C 
ENDROOT
BRANCH   1   2
ATOM      2  C   UNL A   1      32.991  30.304  26.633  1.00  0.00     0.002 C 
BRANCH   2   3
ATOM      3  C   UNL A   1      32.949  28.914  27.282  1.00  0.00     0.021 C 
BRANCH   3   4
ATOM      4  C   UNL A   1      31.558  28.269  27.306  1.00  0.00     0.116 C 
BRANCH   4   5
ATOM      5  N   UNL A   1      31.655  26.836  27.095  1.00  0.00    -0.356 N 
ATOM      6  C   UNL A   1      31.106  26.117  26.081  1.00  0.00     0.228 C 
ATOM      7  O   UNL A   1      30.377  25.180  26.427  1.00  0.00    -0.274 OA
ATOM      8  H   UNL A   1      32.175  26.329  27.759  1.00  0.00     0.163 HD
BRANCH   6   9
ATOM      9  C   UNL A   1      31.311  26.443  24.595  1.00  0.00     0.068 C 
ATOM     10  C   UNL A   1      32.716  27.048  24.415  1.00  0.00     0.040 C 
ATOM     11  C   UNL A   1      31.297  25.248  23.621  1.00  0.00     0.138 C 
ATOM     12  C   UNL A   1      33.568  25.959  23.828  1.00  0.00     0.122 C 
ATOM     13  N   UNL A   1      32.699  24.971  23.277  1.00  0.00    -0.324 N 
BRANCH   9  14
ATOM     14  C   UNL A   1      30.322  27.569  24.148  1.00  0.00     0.018 C 
BRANCH  14  15
ATOM     15  C   UNL A   1      30.197  27.919  22.662  1.00  0.00    -0.002 C 
ATOM     16  C   UNL A   1      30.783  29.280  22.295  1.00  0.00     0.004 C 
ENDBRANCH  14  15
ENDBRANCH   9  14
BRANCH  13  17
ATOM     17  C   UNL A   1      33.035  23.978  22.417  1.00  0.00     0.317 C 
ATOM     18  O   UNL A   1      33.249  24.229  21.227  1.00  0.00    -0.249 OA
ATOM     19  N   UNL A   1      33.239  22.701  22.804  1.00  0.00    -0.333 N 
ATOM     20  H   UNL A   1      33.971  22.308  22.276  1.00  0.00     0.165 HD
BRANCH  19  21
ATOM     21  C   UNL A   1      32.721  21.701  23.761  1.00  0.00     0.112 C 
ATOM     22  C   UNL A   1      32.283  20.437  23.016  1.00  0.00     0.056 C 
ATOM     23  C   UNL A   1      33.511  21.106  24.913  1.00  0.00     0.185 C 
ATOM     24  C   UNL A   1      32.486  19.293  23.997  1.00  0.00     0.162 C 
ATOM     25  O   UNL A   1      32.844  19.883  25.248  1.00  0.00    -0.379 OA
ENDBRANCH  19  21
ENDBRANCH  13  17
ENDBRANCH   6   9
ENDBRANCH   4   5
ENDBRANCH   3   4
ENDBRANCH   2   3
ENDBRANCH   1   2
BRANCH   1  26
ATOM     26  C   UNL A   1      31.679  32.521  26.592  1.00  0.00     0.021 C 
BRANCH  26  27
ATOM     27  C   UNL A   1      32.773  33.048  27.512  1.00  0.00     0.116 C 
BRANCH  27  28
ATOM     28  N   UNL A   1      32.617  34.471  27.779  1.00  0.00    -0.352 N 
ATOM     29  C   UNL A   1      33.191  35.220  28.783  1.00  0.00     0.251 C 
ATOM     30  H   UNL A   1      32.024  34.962  27.164  1.00  0.00     0.163 HD
ATOM     31  O   UNL A   1      32.814  36.357  29.013  1.00  0.00    -0.269 OA
BRANCH  29  32
ATOM     32  C   UNL A   1      34.267  34.605  29.590  1.00  0.00     0.039 A 
ATOM     33  C   UNL A   1      33.954  34.010  30.815  1.00  0.00     0.014 A 
ATOM     34  C   UNL A   1      35.573  34.572  29.097  1.00  0.00     0.014 A 
ATOM     35  C   UNL A   1      34.945  33.317  31.516  1.00  0.00     0.010 A 
ATOM     36  C   UNL A   1      36.535  33.818  29.756  1.00  0.00     0.010 A 
ATOM     37  C   UNL A   1      36.233  33.184  30.972  1.00  0.00    -0.014 A 
BRANCH  37  38
ATOM     38  C   UNL A   1      37.300  32.397  31.642  1.00  0.00     0.031 A 
ATOM     39  C   UNL A   1      37.829  32.854  32.973  1.00  0.00     0.074 A 
ATOM     40  C   UNL A   1      37.879  31.363  31.000  1.00  0.00     0.049 A 
ATOM     41  N   UNL A   1      38.869  32.430  33.640  1.00  0.00    -0.248 NA
ATOM     42  C   UNL A   1      37.109  33.963  33.625  1.00  0.00     0.031 C 
ATOM     43  C   UNL A   1      37.491  30.856  29.683  1.00  0.00     0.029 A 
ATOM     44  N   UNL A   1      38.951  30.580  31.354  1.00  0.00    -0.354 N 
ATOM     45  C   UNL A   1      38.960  33.247  34.759  1.00  0.00     0.074 A 
ATOM     46  C   UNL A   1      37.886  34.211  34.669  1.00  0.00     0.031 C 
ATOM     47  C   UNL A   1      38.318  29.856  29.335  1.00  0.00     0.029 A 
ATOM     48  C   UNL A   1      39.322  29.682  30.380  1.00  0.00     0.049 A 
ATOM     49  H   UNL A   1      39.410  30.654  32.222  1.00  0.00     0.167 HD
ATOM     50  C   UNL A   1      39.845  33.188  35.783  1.00  0.00     0.034 A 
ATOM     51  C   UNL A   1      40.368  28.832  30.322  1.00  0.00     0.034 A 
ATOM     52  C   UNL A   1      40.886  32.203  35.886  1.00  0.00     0.049 A 
ATOM     53  C   UNL A   1      41.332  28.778  31.478  1.00  0.00     0.074 A 
ATOM     54  C   UNL A   1      41.785  32.009  36.919  1.00  0.00     0.029 A 
ATOM     55  N   UNL A   1      41.173  31.252  34.919  1.00  0.00    -0.354 N 
ATOM     56  N   UNL A   1      41.328  29.475  32.587  1.00  0.00    -0.248 NA
ATOM     57  C   UNL A   1      42.427  27.800  31.388  1.00  0.00     0.031 C 
ATOM     58  C   UNL A   1      42.638  30.960  36.562  1.00  0.00     0.029 A 
ATOM     59  C   UNL A   1      42.241  30.473  35.326  1.00  0.00     0.049 A 
ATOM     60  H   UNL A   1      40.689  31.146  34.069  1.00  0.00     0.167 HD
ATOM     61  C   UNL A   1      42.386  28.989  33.348  1.00  0.00     0.074 A 
ATOM     62  C   UNL A   1      43.007  27.934  32.574  1.00  0.00     0.031 C 
ATOM     63  C   UNL A   1      42.806  29.383  34.574  1.00  0.00     0.034 A 
BRANCH  50  64
ATOM     64  C   UNL A   1      39.702  34.197  36.892  1.00  0.00     0.023 A 
ATOM     65  C   UNL A   1      40.020  35.548  36.655  1.00  0.00     0.012 A 
ATOM     66  C   UNL A   1      39.201  33.816  38.154  1.00  0.00     0.148 A 
ATOM     67  C   UNL A   1      39.883  36.500  37.664  1.00  0.00     0.002 A 
ATOM     68  C   UNL A   1      39.020  34.779  39.140  1.00  0.00     0.091 A 
ATOM     69  F   UNL A   1      38.923  32.523  38.369  1.00  0.00    -0.205 F 
ATOM     70  C   UNL A   1      39.374  36.117  38.902  1.00  0.00     0.022 A 
BRANCH  68  71
ATOM     71  S   UNL A   1      38.291  34.403  40.738  1.00  0.00     0.127 S 
ATOM     72  O   UNL A   1      37.168  33.548  40.356  1.00  0.00    -0.237 OA
ATOM     73  O   UNL A   1      39.385  33.706  41.416  1.00  0.00    -0.237 OA
ATOM     74  O   UNL A   1      37.928  35.684  41.327  1.00  0.00    -0.744 OA
ENDBRANCH  68  71
ENDBRANCH  50  64
BRANCH  51  75
ATOM     75  C   UNL A   1      40.536  27.931  29.147  1.00  0.00     0.023 A 
ATOM     76  C   UNL A   1      39.762  26.758  29.059  1.00  0.00     0.012 A 
ATOM     77  C   UNL A   1      41.442  28.236  28.112  1.00  0.00     0.148 A 
ATOM     78  C   UNL A   1      39.911  25.886  27.980  1.00  0.00     0.002 A 
ATOM     79  C   UNL A   1      41.545  27.391  27.012  1.00  0.00     0.091 A 
ATOM     80  F   UNL A   1      42.175  29.353  28.218  1.00  0.00    -0.205 F 
ATOM     81  C   UNL A   1      40.795  26.206  26.953  1.00  0.00     0.022 A 
BRANCH  79  82
ATOM     82  S   UNL A   1      42.562  27.785  25.586  1.00  0.00     0.127 S 
ATOM     83  O   UNL A   1      43.885  27.917  26.191  1.00  0.00    -0.237 OA
ATOM     84  O   UNL A   1      42.381  26.597  24.751  1.00  0.00    -0.237 OA
ATOM     85  O   UNL A   1      42.001  29.006  25.025  1.00  0.00    -0.744 OA
ENDBRANCH  79  82
ENDBRANCH  51  75
BRANCH  63  86
ATOM     86  C   UNL A   1      43.949  28.635  35.207  1.00  0.00     0.023 A 
ATOM     87  C   UNL A   1      45.278  29.039  34.975  1.00  0.00     0.012 A 
ATOM     88  C   UNL A   1      43.690  27.600  36.127  1.00  0.00     0.148 A 
ATOM     89  C   UNL A   1      46.333  28.410  35.635  1.00  0.00     0.002 A 
ATOM     90  C   UNL A   1      44.741  27.014  36.821  1.00  0.00     0.091 A 
ATOM     91  F   UNL A   1      42.418  27.221  36.320  1.00  0.00    -0.205 F 
ATOM     92  C   UNL A   1      46.064  27.410  36.568  1.00  0.00     0.022 A 
BRANCH  90  93
ATOM     93  S   UNL A   1      44.484  25.794  38.114  1.00  0.00     0.127 S 
ATOM     94  O   UNL A   1      43.566  24.861  37.464  1.00  0.00    -0.237 OA
ATOM     95  O   UNL A   1      45.837  25.276  38.321  1.00  0.00    -0.237 OA
ATOM     96  O   UNL A   1      43.931  26.519  39.250  1.00  0.00    -0.744 OA
ENDBRANCH  90  93
ENDBRANCH  63  86
ENDBRANCH  37  38
ENDBRANCH  29  32
ENDBRANCH  27  28
ENDBRANCH  26  27
ENDBRANCH   1  26
TORSDOF 20
ENDMDL
MODEL 3
REMARK VINA RESULT:     -11.4      5.732     11.574
REMARK SMILES CCC[C@]1(C(=O)NCCCCCCNC(=O)c2ccc(-c3c4nc(c(-c5cccc(S(=O)(=O)[O-])c5F)c5ccc([nH]5)c(-c5cccc(S(=O)(=O)[O-])c5F)c5nc(c(-c6cccc(S(=O)(=O)[O-])c6F)c6ccc3[nH]6)C=C5)C=C4)cc2)CCN(C(=O)N[C@H]2CCOC2)C1
REMARK SMILES IDX 11 1 10 2 9 3 8 4 7 5 5 6 6 7 4 9 80 10 91 11 81 12 82 13
REMARK SMILES IDX 3 14 2 15 1 16 83 17 84 18 85 19 86 21 87 22 90 23 88 24
REMARK SMILES IDX 89 25 12 26 13 27 14 28 15 29 16 31 17 32 18 33 79 34 19 35
REMARK SMILES IDX 78 36 20 37 21 38 22 39 72 40 23 41 77 42 71 43 73 44 24 45
REMARK SMILES IDX 76 46 70 47 69 48 25 50 57 51 37 52 56 53 38 54 41 55 55 56
REMARK SMILES IDX 74 57 39 58 40 59 54 61 75 62 42 63 26 64 27 65 35 66 28 67
REMARK SMILES IDX 30 68 36 69 29 70 31 71 32 72 33 73 34 74 58 75 59 76 67 77
REMARK SMILES IDX 60 78 62 79 68 80 61 81 63 82 64 83 65 84 66 85 43 86 44 87
REMARK SMILES IDX 52 88 45 89 47 90 53 91 46 92 48 93 49 94 50 95 51 96
REMARK H PARENT 7 8 85 20 14 30 73 49 41 60
REMARK Flexibility Score: inf
ROOT
ATOM      1  C   UNL A   1      36.988  20.474  25.023  1.00  0.00     0.002 C 
ENDROOT
BRANCH   1   2
ATOM      2  C   UNL A   1      37.068  21.838  24.333  1.00  0.00     0.002 C 
BRANCH   2   3
ATOM      3  C   UNL A   1      37.416  23.017  25.252  1.00  0.00     0.021 C 
BRANCH   3   4
ATOM      4  C   UNL A   1      36.303  24.064  25.386  1.00  0.00     0.116 C 
BRANCH   4   5
ATOM      5  N   UNL A   1      35.151  23.501  26.068  1.00  0.00    -0.356 N 
ATOM      6  C   UNL A   1      33.849  23.593  25.690  1.00  0.00     0.228 C 
ATOM      7  O   UNL A   1      33.081  24.062  26.537  1.00  0.00    -0.274 OA
ATOM      8  H   UNL A   1      35.332  22.999  26.895  1.00  0.00     0.163 HD
BRANCH   6   9
ATOM      9  C   UNL A   1      33.334  23.198  24.298  1.00  0.00     0.068 C 
ATOM     10  C   UNL A   1      31.810  23.417  24.259  1.00  0.00     0.040 C 
ATOM     11  C   UNL A   1      33.857  24.030  23.110  1.00  0.00     0.138 C 
ATOM     12  C   UNL A   1      31.590  24.684  23.482  1.00  0.00     0.122 C 
ATOM     13  N   UNL A   1      32.776  24.955  22.739  1.00  0.00    -0.324 N 
BRANCH   9  14
ATOM     14  C   UNL A   1      33.532  21.665  24.065  1.00  0.00     0.018 C 
BRANCH  14  15
ATOM     15  C   UNL A   1      32.305  20.757  23.927  1.00  0.00    -0.002 C 
ATOM     16  C   UNL A   1      32.149  20.134  22.542  1.00  0.00     0.004 C 
ENDBRANCH  14  15
ENDBRANCH   9  14
BRANCH  13  17
ATOM     17  C   UNL A   1      32.910  25.824  21.706  1.00  0.00     0.317 C 
ATOM     18  O   UNL A   1      33.270  25.424  20.596  1.00  0.00    -0.249 OA
ATOM     19  N   UNL A   1      32.586  27.132  21.794  1.00  0.00    -0.333 N 
ATOM     20  H   UNL A   1      32.197  27.434  20.941  1.00  0.00     0.165 HD
BRANCH  19  21
ATOM     21  C   UNL A   1      32.626  28.256  22.751  1.00  0.00     0.112 C 
ATOM     22  C   UNL A   1      31.204  28.717  23.084  1.00  0.00     0.056 C 
ATOM     23  C   UNL A   1      33.249  28.202  24.135  1.00  0.00     0.185 C 
ATOM     24  C   UNL A   1      31.272  29.266  24.499  1.00  0.00     0.162 C 
ATOM     25  O   UNL A   1      32.652  29.276  24.871  1.00  0.00    -0.379 OA
ENDBRANCH  19  21
ENDBRANCH  13  17
ENDBRANCH   6   9
ENDBRANCH   4   5
ENDBRANCH   3   4
ENDBRANCH   2   3
ENDBRANCH   1   2
BRANCH   1  26
ATOM     26  C   UNL A   1      38.257  19.629  24.921  1.00  0.00     0.021 C 
BRANCH  26  27
ATOM     27  C   UNL A   1      39.298  19.937  25.991  1.00  0.00     0.116 C 
BRANCH  27  28
ATOM     28  N   UNL A   1      40.462  19.070  25.879  1.00  0.00    -0.352 N 
ATOM     29  C   UNL A   1      41.794  19.420  25.925  1.00  0.00     0.251 C 
ATOM     30  H   UNL A   1      40.274  18.112  25.755  1.00  0.00     0.163 HD
ATOM     31  O   UNL A   1      42.664  18.622  25.614  1.00  0.00    -0.269 OA
BRANCH  29  32
ATOM     32  C   UNL A   1      42.146  20.793  26.344  1.00  0.00     0.039 A 
ATOM     33  C   UNL A   1      42.363  21.064  27.697  1.00  0.00     0.014 A 
ATOM     34  C   UNL A   1      42.314  21.792  25.383  1.00  0.00     0.014 A 
ATOM     35  C   UNL A   1      42.821  22.329  28.080  1.00  0.00     0.010 A 
ATOM     36  C   UNL A   1      42.842  23.021  25.758  1.00  0.00     0.010 A 
ATOM     37  C   UNL A   1      43.099  23.303  27.109  1.00  0.00    -0.014 A 
BRANCH  37  38
ATOM     38  C   UNL A   1      43.655  24.636  27.457  1.00  0.00     0.031 A 
ATOM     39  C   UNL A   1      42.730  25.717  27.944  1.00  0.00     0.074 A 
ATOM     40  C   UNL A   1      44.952  24.911  27.211  1.00  0.00     0.049 A 
ATOM     41  N   UNL A   1      42.969  26.988  28.128  1.00  0.00    -0.248 NA
ATOM     42  C   UNL A   1      41.341  25.319  28.230  1.00  0.00     0.031 C 
ATOM     43  C   UNL A   1      45.937  23.963  26.690  1.00  0.00     0.029 A 
ATOM     44  N   UNL A   1      45.652  26.088  27.326  1.00  0.00    -0.354 N 
ATOM     45  C   UNL A   1      41.754  27.550  28.500  1.00  0.00     0.074 A 
ATOM     46  C   UNL A   1      40.774  26.487  28.489  1.00  0.00     0.031 C 
ATOM     47  C   UNL A   1      47.110  24.596  26.520  1.00  0.00     0.029 A 
ATOM     48  C   UNL A   1      46.949  26.002  26.875  1.00  0.00     0.049 A 
ATOM     49  H   UNL A   1      45.263  26.913  27.697  1.00  0.00     0.167 HD
ATOM     50  C   UNL A   1      41.482  28.832  28.841  1.00  0.00     0.034 A 
ATOM     51  C   UNL A   1      47.893  26.955  26.736  1.00  0.00     0.034 A 
ATOM     52  C   UNL A   1      42.469  29.876  28.887  1.00  0.00     0.049 A 
ATOM     53  C   UNL A   1      47.569  28.372  27.132  1.00  0.00     0.074 A 
ATOM     54  C   UNL A   1      42.312  31.188  29.293  1.00  0.00     0.029 A 
ATOM     55  N   UNL A   1      43.793  29.728  28.507  1.00  0.00    -0.354 N 
ATOM     56  N   UNL A   1      46.447  28.860  27.601  1.00  0.00    -0.248 NA
ATOM     57  C   UNL A   1      48.649  29.362  27.008  1.00  0.00     0.031 C 
ATOM     58  C   UNL A   1      43.535  31.844  29.128  1.00  0.00     0.029 A 
ATOM     59  C   UNL A   1      44.465  30.928  28.660  1.00  0.00     0.049 A 
ATOM     60  H   UNL A   1      44.197  28.894  28.177  1.00  0.00     0.167 HD
ATOM     61  C   UNL A   1      46.698  30.200  27.874  1.00  0.00     0.074 A 
ATOM     62  C   UNL A   1      48.082  30.446  27.522  1.00  0.00     0.031 C 
ATOM     63  C   UNL A   1      45.858  31.141  28.369  1.00  0.00     0.034 A 
BRANCH  50  64
ATOM     64  C   UNL A   1      40.065  29.170  29.226  1.00  0.00     0.023 A 
ATOM     65  C   UNL A   1      39.125  29.488  28.227  1.00  0.00     0.012 A 
ATOM     66  C   UNL A   1      39.652  29.119  30.572  1.00  0.00     0.148 A 
ATOM     67  C   UNL A   1      37.805  29.791  28.561  1.00  0.00     0.002 A 
ATOM     68  C   UNL A   1      38.323  29.374  30.894  1.00  0.00     0.091 A 
ATOM     69  F   UNL A   1      40.564  28.834  31.512  1.00  0.00    -0.205 F 
ATOM     70  C   UNL A   1      37.404  29.724  29.892  1.00  0.00     0.022 A 
BRANCH  68  71
ATOM     71  S   UNL A   1      37.687  29.229  32.567  1.00  0.00     0.127 S 
ATOM     72  O   UNL A   1      38.585  30.119  33.302  1.00  0.00    -0.237 OA
ATOM     73  O   UNL A   1      36.320  29.731  32.419  1.00  0.00    -0.237 OA
ATOM     74  O   UNL A   1      37.783  27.819  32.915  1.00  0.00    -0.744 OA
ENDBRANCH  68  71
ENDBRANCH  50  64
BRANCH  51  75
ATOM     75  C   UNL A   1      49.251  26.595  26.238  1.00  0.00     0.023 A 
ATOM     76  C   UNL A   1      50.090  25.792  27.036  1.00  0.00     0.012 A 
ATOM     77  C   UNL A   1      49.710  27.027  24.978  1.00  0.00     0.148 A 
ATOM     78  C   UNL A   1      51.373  25.454  26.604  1.00  0.00     0.002 A 
ATOM     79  C   UNL A   1      50.968  26.640  24.530  1.00  0.00     0.091 A 
ATOM     80  F   UNL A   1      48.901  27.797  24.238  1.00  0.00    -0.205 F 
ATOM     81  C   UNL A   1      51.808  25.870  25.349  1.00  0.00     0.022 A 
BRANCH  79  82
ATOM     82  S   UNL A   1      51.564  27.023  22.880  1.00  0.00     0.127 S 
ATOM     83  O   UNL A   1      51.825  28.457  22.983  1.00  0.00    -0.237 OA
ATOM     84  O   UNL A   1      52.758  26.182  22.790  1.00  0.00    -0.237 OA
ATOM     85  O   UNL A   1      50.489  26.642  21.974  1.00  0.00    -0.744 OA
ENDBRANCH  79  82
ENDBRANCH  51  75
BRANCH  63  86
ATOM     86  C   UNL A   1      46.411  32.516  28.634  1.00  0.00     0.023 A 
ATOM     87  C   UNL A   1      46.950  32.834  29.896  1.00  0.00     0.012 A 
ATOM     88  C   UNL A   1      46.498  33.454  27.586  1.00  0.00     0.148 A 
ATOM     89  C   UNL A   1      47.550  34.074  30.115  1.00  0.00     0.002 A 
ATOM     90  C   UNL A   1      47.144  34.665  27.796  1.00  0.00     0.091 A 
ATOM     91  F   UNL A   1      45.964  33.135  26.398  1.00  0.00    -0.205 F 
ATOM     92  C   UNL A   1      47.660  34.982  29.063  1.00  0.00     0.022 A 
BRANCH  90  93
ATOM     93  S   UNL A   1      47.427  35.851  26.476  1.00  0.00     0.127 S 
ATOM     94  O   UNL A   1      48.368  35.127  25.624  1.00  0.00    -0.237 OA
ATOM     95  O   UNL A   1      46.086  36.007  25.912  1.00  0.00    -0.237 OA
ATOM     96  O   UNL A   1      47.961  37.047  27.114  1.00  0.00    -0.744 OA
ENDBRANCH  90  93
ENDBRANCH  63  86
ENDBRANCH  37  38
ENDBRANCH  29  32
ENDBRANCH  27  28
ENDBRANCH  26  27
ENDBRANCH   1  26
TORSDOF 20
ENDMDL
