MODEL 1
REMARK VINA RESULT:     -10.1      0.000      0.000
REMARK SMILES O=C(CCOCc1ccccc1)NCCCCCCNC(=O)c1ccc(-c2c3nc(c(-c4cccc(S(=O)(=O)[O-])c4F)c4ccc([nH]4)c(-c4cccc(S(=O)(=O)[O-])c4F)c4nc(c(-c5cccc(S(=O)(=O)[O-])c5F)c5ccc2[nH]5)C=C4)C=C3)cc1
REMARK SMILES IDX 16 1 15 2 14 3 13 4 1 5 2 6 3 8 4 9 5 10 6 11 7 12 8 13
REMARK SMILES IDX 12 14 9 15 11 16 10 17 17 18 18 19 19 20 20 21 21 22 22 24
REMARK SMILES IDX 23 25 24 26 85 27 25 28 84 29 26 30 27 31 28 32 78 33 29 34
REMARK SMILES IDX 83 35 77 36 79 37 30 38 82 39 76 40 75 41 31 43 63 44 43 45
REMARK SMILES IDX 62 46 44 47 47 48 61 49 80 50 45 51 46 52 60 54 81 55 48 56
REMARK SMILES IDX 32 57 33 58 41 59 34 60 36 61 42 62 35 63 37 64 38 65 39 66
REMARK SMILES IDX 40 67 64 68 65 69 73 70 66 71 68 72 74 73 67 74 69 75 70 76
REMARK SMILES IDX 71 77 72 78 49 79 50 80 58 81 51 82 53 83 59 84 52 85 54 86
REMARK SMILES IDX 55 87 56 88 57 89
REMARK H PARENT 13 7 20 23 79 42 47 53
REMARK Flexibility Score: inf
ROOT
ATOM      1  C   UNL A   1      31.830  25.923  26.029  1.00  0.00     0.002 C 
ENDROOT
BRANCH   1   2
ATOM      2  C   UNL A   1      30.374  26.194  25.611  1.00  0.00     0.021 C 
BRANCH   2   3
ATOM      3  C   UNL A   1      29.991  25.669  24.226  1.00  0.00     0.116 C 
BRANCH   3   4
ATOM      4  N   UNL A   1      31.039  25.931  23.259  1.00  0.00    -0.356 N 
ATOM      5  O   UNL A   1      30.119  27.812  22.302  1.00  0.00    -0.275 OA
ATOM      6  C   UNL A   1      31.065  27.051  22.461  1.00  0.00     0.222 C 
ATOM      7  H   UNL A   1      31.766  25.274  23.167  1.00  0.00     0.163 HD
BRANCH   6   8
ATOM      8  C   UNL A   1      32.414  27.276  21.815  1.00  0.00     0.128 C 
BRANCH   8   9
ATOM      9  C   UNL A   1      33.585  26.697  22.604  1.00  0.00     0.170 C 
BRANCH   9  10
ATOM     10  O   UNL A   1      34.001  25.363  22.343  1.00  0.00    -0.376 OA
BRANCH  10  11
ATOM     11  C   UNL A   1      34.244  24.443  23.406  1.00  0.00     0.195 C 
BRANCH  11  12
ATOM     12  C   UNL A   1      33.507  23.117  23.487  1.00  0.00    -0.022 A 
ATOM     13  C   UNL A   1      33.704  22.315  24.628  1.00  0.00     0.006 A 
ATOM     14  C   UNL A   1      32.750  22.565  22.448  1.00  0.00     0.006 A 
ATOM     15  C   UNL A   1      33.133  21.041  24.733  1.00  0.00     0.000 A 
ATOM     16  C   UNL A   1      32.169  21.299  22.552  1.00  0.00     0.000 A 
ATOM     17  C   UNL A   1      32.356  20.536  23.696  1.00  0.00     0.000 A 
ENDBRANCH  11  12
ENDBRANCH  10  11
ENDBRANCH   9  10
ENDBRANCH   8   9
ENDBRANCH   6   8
ENDBRANCH   3   4
ENDBRANCH   2   3
ENDBRANCH   1   2
BRANCH   1  18
ATOM     18  C   UNL A   1      32.691  27.162  26.288  1.00  0.00     0.002 C 
BRANCH  18  19
ATOM     19  C   UNL A   1      31.991  28.506  26.080  1.00  0.00     0.021 C 
BRANCH  19  20
ATOM     20  C   UNL A   1      32.870  29.628  25.532  1.00  0.00     0.116 C 
BRANCH  20  21
ATOM     21  N   UNL A   1      32.523  30.935  26.068  1.00  0.00    -0.352 N 
ATOM     22  C   UNL A   1      33.149  31.668  27.051  1.00  0.00     0.251 C 
ATOM     23  H   UNL A   1      31.726  31.356  25.671  1.00  0.00     0.163 HD
ATOM     24  O   UNL A   1      32.632  32.698  27.466  1.00  0.00    -0.269 OA
BRANCH  22  25
ATOM     25  C   UNL A   1      34.431  31.196  27.626  1.00  0.00     0.039 A 
ATOM     26  C   UNL A   1      35.453  32.124  27.839  1.00  0.00     0.014 A 
ATOM     27  C   UNL A   1      34.626  29.853  27.961  1.00  0.00     0.014 A 
ATOM     28  C   UNL A   1      36.642  31.718  28.452  1.00  0.00     0.010 A 
ATOM     29  C   UNL A   1      35.780  29.467  28.643  1.00  0.00     0.010 A 
ATOM     30  C   UNL A   1      36.801  30.394  28.896  1.00  0.00    -0.014 A 
BRANCH  30  31
ATOM     31  C   UNL A   1      38.008  29.987  29.663  1.00  0.00     0.031 A 
ATOM     32  C   UNL A   1      38.261  30.518  31.049  1.00  0.00     0.074 A 
ATOM     33  C   UNL A   1      38.920  29.186  29.079  1.00  0.00     0.049 A 
ATOM     34  N   UNL A   1      39.251  30.255  31.863  1.00  0.00    -0.248 NA
ATOM     35  C   UNL A   1      37.291  31.488  31.580  1.00  0.00     0.031 C 
ATOM     36  C   UNL A   1      38.840  28.673  27.709  1.00  0.00     0.029 A 
ATOM     37  N   UNL A   1      40.102  28.672  29.554  1.00  0.00    -0.354 N 
ATOM     38  C   UNL A   1      39.044  31.046  32.986  1.00  0.00     0.074 A 
ATOM     39  C   UNL A   1      37.852  31.827  32.732  1.00  0.00     0.031 C 
ATOM     40  C   UNL A   1      39.911  27.902  27.463  1.00  0.00     0.029 A 
ATOM     41  C   UNL A   1      40.771  27.889  28.642  1.00  0.00     0.049 A 
ATOM     42  H   UNL A   1      40.439  28.848  30.463  1.00  0.00     0.167 HD
ATOM     43  C   UNL A   1      39.763  31.103  34.133  1.00  0.00     0.034 A 
ATOM     44  C   UNL A   1      41.943  27.233  28.741  1.00  0.00     0.034 A 
ATOM     45  C   UNL A   1      40.934  30.306  34.392  1.00  0.00     0.049 A 
ATOM     46  C   UNL A   1      42.706  27.286  30.035  1.00  0.00     0.074 A 
ATOM     47  C   UNL A   1      41.674  30.216  35.557  1.00  0.00     0.029 A 
ATOM     48  N   UNL A   1      41.552  29.480  33.465  1.00  0.00    -0.354 N 
ATOM     49  N   UNL A   1      42.398  27.901  31.151  1.00  0.00    -0.248 NA
ATOM     50  C   UNL A   1      43.962  26.525  30.095  1.00  0.00     0.031 C 
ATOM     51  C   UNL A   1      42.761  29.368  35.323  1.00  0.00     0.029 A 
ATOM     52  C   UNL A   1      42.678  28.896  34.024  1.00  0.00     0.049 A 
ATOM     53  H   UNL A   1      41.237  29.331  32.544  1.00  0.00     0.167 HD
ATOM     54  C   UNL A   1      43.403  27.577  32.055  1.00  0.00     0.074 A 
ATOM     55  C   UNL A   1      44.314  26.689  31.363  1.00  0.00     0.031 C 
ATOM     56  C   UNL A   1      43.563  27.988  33.338  1.00  0.00     0.034 A 
BRANCH  43  57
ATOM     57  C   UNL A   1      39.283  32.039  35.214  1.00  0.00     0.023 A 
ATOM     58  C   UNL A   1      38.337  31.592  36.159  1.00  0.00     0.012 A 
ATOM     59  C   UNL A   1      39.797  33.346  35.321  1.00  0.00     0.148 A 
ATOM     60  C   UNL A   1      37.877  32.442  37.164  1.00  0.00     0.002 A 
ATOM     61  C   UNL A   1      39.370  34.172  36.356  1.00  0.00     0.091 A 
ATOM     62  F   UNL A   1      40.680  33.765  34.404  1.00  0.00    -0.205 F 
ATOM     63  C   UNL A   1      38.400  33.728  37.268  1.00  0.00     0.022 A 
BRANCH  61  64
ATOM     64  S   UNL A   1      40.045  35.815  36.624  1.00  0.00     0.127 S 
ATOM     65  O   UNL A   1      41.475  35.530  36.748  1.00  0.00    -0.237 OA
ATOM     66  O   UNL A   1      39.667  36.508  35.393  1.00  0.00    -0.237 OA
ATOM     67  O   UNL A   1      39.402  36.322  37.828  1.00  0.00    -0.744 OA
ENDBRANCH  61  64
ENDBRANCH  43  57
BRANCH  44  68
ATOM     68  C   UNL A   1      42.430  26.411  27.598  1.00  0.00     0.023 A 
ATOM     69  C   UNL A   1      43.300  26.988  26.652  1.00  0.00     0.012 A 
ATOM     70  C   UNL A   1      42.070  25.056  27.463  1.00  0.00     0.148 A 
ATOM     71  C   UNL A   1      43.780  26.240  25.577  1.00  0.00     0.002 A 
ATOM     72  C   UNL A   1      42.597  24.300  26.423  1.00  0.00     0.091 A 
ATOM     73  F   UNL A   1      41.235  24.529  28.370  1.00  0.00    -0.205 F 
ATOM     74  C   UNL A   1      43.437  24.895  25.467  1.00  0.00     0.022 A 
BRANCH  72  75
ATOM     75  S   UNL A   1      42.320  22.532  26.276  1.00  0.00     0.127 S 
ATOM     76  O   UNL A   1      40.867  22.467  26.140  1.00  0.00    -0.237 OA
ATOM     77  O   UNL A   1      43.069  22.213  25.061  1.00  0.00    -0.237 OA
ATOM     78  O   UNL A   1      42.865  21.944  27.492  1.00  0.00    -0.744 OA
ENDBRANCH  72  75
ENDBRANCH  44  68
BRANCH  56  79
ATOM     79  C   UNL A   1      44.760  27.464  34.092  1.00  0.00     0.023 A 
ATOM     80  C   UNL A   1      45.945  28.225  34.149  1.00  0.00     0.012 A 
ATOM     81  C   UNL A   1      44.695  26.238  34.784  1.00  0.00     0.148 A 
ATOM     82  C   UNL A   1      47.058  27.755  34.844  1.00  0.00     0.002 A 
ATOM     83  C   UNL A   1      45.790  25.802  35.520  1.00  0.00     0.091 A 
ATOM     84  F   UNL A   1      43.566  25.518  34.705  1.00  0.00    -0.205 F 
ATOM     85  C   UNL A   1      46.977  26.550  35.538  1.00  0.00     0.022 A 
BRANCH  83  86
ATOM     86  S   UNL A   1      45.745  24.313  36.523  1.00  0.00     0.127 S 
ATOM     87  O   UNL A   1      47.034  23.701  36.208  1.00  0.00    -0.237 OA
ATOM     88  O   UNL A   1      45.643  24.855  37.879  1.00  0.00    -0.237 OA
ATOM     89  O   UNL A   1      44.574  23.566  36.083  1.00  0.00    -0.744 OA
ENDBRANCH  83  86
ENDBRANCH  56  79
ENDBRANCH  30  31
ENDBRANCH  22  25
ENDBRANCH  20  21
ENDBRANCH  19  20
ENDBRANCH  18  19
ENDBRANCH   1  18
TORSDOF 20
ENDMDL
MODEL 2
REMARK VINA RESULT:      -9.4      6.039     10.843
REMARK SMILES O=C(CCOCc1ccccc1)NCCCCCCNC(=O)c1ccc(-c2c3nc(c(-c4cccc(S(=O)(=O)[O-])c4F)c4ccc([nH]4)c(-c4cccc(S(=O)(=O)[O-])c4F)c4nc(c(-c5cccc(S(=O)(=O)[O-])c5F)c5ccc2[nH]5)C=C4)C=C3)cc1
REMARK SMILES IDX 16 1 15 2 14 3 13 4 1 5 2 6 3 8 4 9 5 10 6 11 7 12 8 13
REMARK SMILES IDX 12 14 9 15 11 16 10 17 17 18 18 19 19 20 20 21 21 22 22 24
REMARK SMILES IDX 23 25 24 26 85 27 25 28 84 29 26 30 27 31 28 32 78 33 29 34
REMARK SMILES IDX 83 35 77 36 79 37 30 38 82 39 76 40 75 41 31 43 63 44 43 45
REMARK SMILES IDX 62 46 44 47 47 48 61 49 80 50 45 51 46 52 60 54 81 55 48 56
REMARK SMILES IDX 32 57 33 58 41 59 34 60 36 61 42 62 35 63 37 64 38 65 39 66
REMARK SMILES IDX 40 67 64 68 65 69 73 70 66 71 68 72 74 73 67 74 69 75 70 76
REMARK SMILES IDX 71 77 72 78 49 79 50 80 58 81 51 82 53 83 59 84 52 85 54 86
REMARK SMILES IDX 55 87 56 88 57 89
REMARK H PARENT 13 7 20 23 79 42 47 53
REMARK Flexibility Score: inf
ROOT
ATOM      1  C   UNL A   1      39.055  21.893  26.044  1.00  0.00     0.002 C 
ENDROOT
BRANCH   1   2
ATOM      2  C   UNL A   1      38.330  20.712  25.374  1.00  0.00     0.021 C 
BRANCH   2   3
ATOM      3  C   UNL A   1      37.109  21.095  24.536  1.00  0.00     0.116 C 
BRANCH   3   4
ATOM      4  N   UNL A   1      36.423  22.240  25.103  1.00  0.00    -0.356 N 
ATOM      5  O   UNL A   1      35.948  23.327  23.130  1.00  0.00    -0.275 OA
ATOM      6  C   UNL A   1      35.799  23.197  24.338  1.00  0.00     0.222 C 
ATOM      7  H   UNL A   1      36.405  22.337  26.082  1.00  0.00     0.163 HD
BRANCH   6   8
ATOM      8  C   UNL A   1      34.863  24.070  25.146  1.00  0.00     0.128 C 
BRANCH   8   9
ATOM      9  C   UNL A   1      33.475  23.470  25.350  1.00  0.00     0.170 C 
BRANCH   9  10
ATOM     10  O   UNL A   1      33.353  22.067  25.551  1.00  0.00    -0.376 OA
BRANCH  10  11
ATOM     11  C   UNL A   1      32.518  21.271  24.712  1.00  0.00     0.195 C 
BRANCH  11  12
ATOM     12  C   UNL A   1      32.982  19.923  24.186  1.00  0.00    -0.022 A 
ATOM     13  C   UNL A   1      32.216  19.302  23.180  1.00  0.00     0.006 A 
ATOM     14  C   UNL A   1      34.041  19.185  24.723  1.00  0.00     0.006 A 
ATOM     15  C   UNL A   1      32.528  18.021  22.711  1.00  0.00     0.000 A 
ATOM     16  C   UNL A   1      34.364  17.909  24.251  1.00  0.00     0.000 A 
ATOM     17  C   UNL A   1      33.610  17.327  23.242  1.00  0.00     0.000 A 
ENDBRANCH  11  12
ENDBRANCH  10  11
ENDBRANCH   9  10
ENDBRANCH   8   9
ENDBRANCH   6   8
ENDBRANCH   3   4
ENDBRANCH   2   3
ENDBRANCH   1   2
BRANCH   1  18
ATOM     18  C   UNL A   1      40.394  21.562  26.710  1.00  0.00     0.002 C 
BRANCH  18  19
ATOM     19  C   UNL A   1      40.746  20.075  26.776  1.00  0.00     0.021 C 
BRANCH  19  20
ATOM     20  C   UNL A   1      42.217  19.759  27.034  1.00  0.00     0.116 C 
BRANCH  20  21
ATOM     21  N   UNL A   1      42.925  19.329  25.837  1.00  0.00    -0.352 N 
ATOM     22  C   UNL A   1      43.757  20.049  25.011  1.00  0.00     0.251 C 
ATOM     23  H   UNL A   1      42.788  18.387  25.583  1.00  0.00     0.163 HD
ATOM     24  O   UNL A   1      44.160  19.550  23.967  1.00  0.00    -0.269 OA
BRANCH  22  25
ATOM     25  C   UNL A   1      44.140  21.435  25.369  1.00  0.00     0.039 A 
ATOM     26  C   UNL A   1      43.692  22.484  24.563  1.00  0.00     0.014 A 
ATOM     27  C   UNL A   1      44.927  21.704  26.492  1.00  0.00     0.014 A 
ATOM     28  C   UNL A   1      43.974  23.805  24.923  1.00  0.00     0.010 A 
ATOM     29  C   UNL A   1      45.141  23.023  26.891  1.00  0.00     0.010 A 
ATOM     30  C   UNL A   1      44.667  24.088  26.113  1.00  0.00    -0.014 A 
BRANCH  30  31
ATOM     31  C   UNL A   1      44.857  25.491  26.568  1.00  0.00     0.031 A 
ATOM     32  C   UNL A   1      46.203  26.159  26.484  1.00  0.00     0.074 A 
ATOM     33  C   UNL A   1      43.821  26.148  27.126  1.00  0.00     0.049 A 
ATOM     34  N   UNL A   1      46.540  27.377  26.819  1.00  0.00    -0.248 NA
ATOM     35  C   UNL A   1      47.322  25.345  25.981  1.00  0.00     0.031 C 
ATOM     36  C   UNL A   1      42.486  25.586  27.348  1.00  0.00     0.029 A 
ATOM     37  N   UNL A   1      43.728  27.425  27.623  1.00  0.00    -0.354 N 
ATOM     38  C   UNL A   1      47.909  27.470  26.601  1.00  0.00     0.074 A 
ATOM     39  C   UNL A   1      48.348  26.170  26.138  1.00  0.00     0.031 C 
ATOM     40  C   UNL A   1      41.704  26.518  27.914  1.00  0.00     0.029 A 
ATOM     41  C   UNL A   1      42.486  27.733  28.126  1.00  0.00     0.049 A 
ATOM     42  H   UNL A   1      44.481  28.060  27.619  1.00  0.00     0.167 HD
ATOM     43  C   UNL A   1      48.725  28.541  26.748  1.00  0.00     0.034 A 
ATOM     44  C   UNL A   1      42.024  28.864  28.694  1.00  0.00     0.034 A 
ATOM     45  C   UNL A   1      48.282  29.840  27.184  1.00  0.00     0.049 A 
ATOM     46  C   UNL A   1      42.940  30.049  28.815  1.00  0.00     0.074 A 
ATOM     47  C   UNL A   1      49.008  31.015  27.269  1.00  0.00     0.029 A 
ATOM     48  N   UNL A   1      47.002  30.132  27.632  1.00  0.00    -0.354 N 
ATOM     49  N   UNL A   1      44.189  30.171  28.436  1.00  0.00    -0.248 NA
ATOM     50  C   UNL A   1      42.372  31.266  29.413  1.00  0.00     0.031 C 
ATOM     51  C   UNL A   1      48.180  32.005  27.807  1.00  0.00     0.029 A 
ATOM     52  C   UNL A   1      46.924  31.460  28.019  1.00  0.00     0.049 A 
ATOM     53  H   UNL A   1      46.258  29.489  27.671  1.00  0.00     0.167 HD
ATOM     54  C   UNL A   1      44.547  31.484  28.719  1.00  0.00     0.074 A 
ATOM     55  C   UNL A   1      43.374  32.124  29.277  1.00  0.00     0.031 C 
ATOM     56  C   UNL A   1      45.744  32.099  28.545  1.00  0.00     0.034 A 
BRANCH  43  57
ATOM     57  C   UNL A   1      50.183  28.364  26.401  1.00  0.00     0.023 A 
ATOM     58  C   UNL A   1      50.611  28.529  25.068  1.00  0.00     0.012 A 
ATOM     59  C   UNL A   1      51.135  28.076  27.398  1.00  0.00     0.148 A 
ATOM     60  C   UNL A   1      51.953  28.365  24.725  1.00  0.00     0.002 A 
ATOM     61  C   UNL A   1      52.478  27.964  27.057  1.00  0.00     0.091 A 
ATOM     62  F   UNL A   1      50.711  27.902  28.658  1.00  0.00    -0.205 F 
ATOM     63  C   UNL A   1      52.887  28.093  25.720  1.00  0.00     0.022 A 
BRANCH  61  64
ATOM     64  S   UNL A   1      53.769  27.696  28.278  1.00  0.00     0.127 S 
ATOM     65  O   UNL A   1      53.613  26.269  28.563  1.00  0.00    -0.237 OA
ATOM     66  O   UNL A   1      54.977  28.040  27.529  1.00  0.00    -0.237 OA
ATOM     67  O   UNL A   1      53.465  28.591  29.385  1.00  0.00    -0.744 OA
ENDBRANCH  61  64
ENDBRANCH  43  57
BRANCH  44  68
ATOM     68  C   UNL A   1      40.600  28.948  29.124  1.00  0.00     0.023 A 
ATOM     69  C   UNL A   1      39.593  29.117  28.153  1.00  0.00     0.012 A 
ATOM     70  C   UNL A   1      40.234  28.824  30.479  1.00  0.00     0.148 A 
ATOM     71  C   UNL A   1      38.251  29.190  28.526  1.00  0.00     0.002 A 
ATOM     72  C   UNL A   1      38.892  28.840  30.837  1.00  0.00     0.091 A 
ATOM     73  F   UNL A   1      41.209  28.672  31.386  1.00  0.00    -0.205 F 
ATOM     74  C   UNL A   1      37.899  29.042  29.865  1.00  0.00     0.022 A 
BRANCH  72  75
ATOM     75  S   UNL A   1      38.335  28.524  32.515  1.00  0.00     0.127 S 
ATOM     76  O   UNL A   1      36.943  28.963  32.456  1.00  0.00    -0.237 OA
ATOM     77  O   UNL A   1      38.524  27.078  32.625  1.00  0.00    -0.237 OA
ATOM     78  O   UNL A   1      39.207  29.313  33.375  1.00  0.00    -0.744 OA
ENDBRANCH  72  75
ENDBRANCH  44  68
BRANCH  56  79
ATOM     79  C   UNL A   1      45.843  33.552  28.940  1.00  0.00     0.023 A 
ATOM     80  C   UNL A   1      46.250  33.901  30.243  1.00  0.00     0.012 A 
ATOM     81  C   UNL A   1      45.577  34.572  28.005  1.00  0.00     0.148 A 
ATOM     82  C   UNL A   1      46.350  35.238  30.623  1.00  0.00     0.002 A 
ATOM     83  C   UNL A   1      45.731  35.903  28.374  1.00  0.00     0.091 A 
ATOM     84  F   UNL A   1      45.173  34.224  26.775  1.00  0.00    -0.205 F 
ATOM     85  C   UNL A   1      46.101  36.239  29.686  1.00  0.00     0.022 A 
BRANCH  83  86
ATOM     86  S   UNL A   1      45.527  37.255  27.210  1.00  0.00     0.127 S 
ATOM     87  O   UNL A   1      46.411  36.846  26.119  1.00  0.00    -0.237 OA
ATOM     88  O   UNL A   1      44.099  37.183  26.896  1.00  0.00    -0.237 OA
ATOM     89  O   UNL A   1      45.929  38.462  27.920  1.00  0.00    -0.744 OA
ENDBRANCH  83  86
ENDBRANCH  56  79
ENDBRANCH  30  31
ENDBRANCH  22  25
ENDBRANCH  20  21
ENDBRANCH  19  20
ENDBRANCH  18  19
ENDBRANCH   1  18
TORSDOF 20
ENDMDL
MODEL 3
REMARK VINA RESULT:      -9.4      2.183      8.199
REMARK SMILES O=C(CCOCc1ccccc1)NCCCCCCNC(=O)c1ccc(-c2c3nc(c(-c4cccc(S(=O)(=O)[O-])c4F)c4ccc([nH]4)c(-c4cccc(S(=O)(=O)[O-])c4F)c4nc(c(-c5cccc(S(=O)(=O)[O-])c5F)c5ccc2[nH]5)C=C4)C=C3)cc1
REMARK SMILES IDX 16 1 15 2 14 3 13 4 1 5 2 6 3 8 4 9 5 10 6 11 7 12 8 13
REMARK SMILES IDX 12 14 9 15 11 16 10 17 17 18 18 19 19 20 20 21 21 22 22 24
REMARK SMILES IDX 23 25 24 26 85 27 25 28 84 29 26 30 27 31 28 32 78 33 29 34
REMARK SMILES IDX 83 35 77 36 79 37 30 38 82 39 76 40 75 41 31 43 63 44 43 45
REMARK SMILES IDX 62 46 44 47 47 48 61 49 80 50 45 51 46 52 60 54 81 55 48 56
REMARK SMILES IDX 32 57 33 58 41 59 34 60 36 61 42 62 35 63 37 64 38 65 39 66
REMARK SMILES IDX 40 67 64 68 65 69 73 70 66 71 68 72 74 73 67 74 69 75 70 76
REMARK SMILES IDX 71 77 72 78 49 79 50 80 58 81 51 82 53 83 59 84 52 85 54 86
REMARK SMILES IDX 55 87 56 88 57 89
REMARK H PARENT 13 7 20 23 79 42 47 53
REMARK Flexibility Score: inf
ROOT
ATOM      1  C   UNL A   1      32.633  25.581  24.998  1.00  0.00     0.002 C 
ENDROOT
BRANCH   1   2
ATOM      2  C   UNL A   1      31.135  25.315  25.234  1.00  0.00     0.021 C 
BRANCH   2   3
ATOM      3  C   UNL A   1      30.811  24.522  26.501  1.00  0.00     0.116 C 
BRANCH   3   4
ATOM      4  N   UNL A   1      31.798  23.486  26.738  1.00  0.00    -0.356 N 
ATOM      5  O   UNL A   1      30.662  21.741  25.756  1.00  0.00    -0.275 OA
ATOM      6  C   UNL A   1      31.686  22.211  26.237  1.00  0.00     0.222 C 
ATOM      7  H   UNL A   1      32.587  23.708  27.284  1.00  0.00     0.163 HD
BRANCH   6   8
ATOM      8  C   UNL A   1      32.986  21.439  26.308  1.00  0.00     0.128 C 
BRANCH   8   9
ATOM      9  C   UNL A   1      34.134  22.086  25.539  1.00  0.00     0.170 C 
BRANCH   9  10
ATOM     10  O   UNL A   1      34.905  23.099  26.174  1.00  0.00    -0.376 OA
BRANCH  10  11
ATOM     11  C   UNL A   1      35.985  23.738  25.497  1.00  0.00     0.195 C 
BRANCH  11  12
ATOM     12  C   UNL A   1      37.426  23.523  25.928  1.00  0.00    -0.022 A 
ATOM     13  C   UNL A   1      38.013  22.266  25.682  1.00  0.00     0.006 A 
ATOM     14  C   UNL A   1      38.174  24.435  26.678  1.00  0.00     0.006 A 
ATOM     15  C   UNL A   1      39.303  21.961  26.131  1.00  0.00     0.000 A 
ATOM     16  C   UNL A   1      39.467  24.141  27.120  1.00  0.00     0.000 A 
ATOM     17  C   UNL A   1      40.035  22.905  26.844  1.00  0.00     0.000 A 
ENDBRANCH  11  12
ENDBRANCH  10  11
ENDBRANCH   9  10
ENDBRANCH   8   9
ENDBRANCH   6   8
ENDBRANCH   3   4
ENDBRANCH   2   3
ENDBRANCH   1   2
BRANCH   1  18
ATOM     18  C   UNL A   1      33.245  26.720  25.818  1.00  0.00     0.002 C 
BRANCH  18  19
ATOM     19  C   UNL A   1      32.431  28.015  25.856  1.00  0.00     0.021 C 
BRANCH  19  20
ATOM     20  C   UNL A   1      33.177  29.273  25.418  1.00  0.00     0.116 C 
BRANCH  20  21
ATOM     21  N   UNL A   1      32.641  30.488  26.015  1.00  0.00    -0.352 N 
ATOM     22  C   UNL A   1      33.153  31.257  27.035  1.00  0.00     0.251 C 
ATOM     23  H   UNL A   1      31.790  30.805  25.633  1.00  0.00     0.163 HD
ATOM     24  O   UNL A   1      32.490  32.178  27.496  1.00  0.00    -0.269 OA
BRANCH  22  25
ATOM     25  C   UNL A   1      34.492  30.952  27.594  1.00  0.00     0.039 A 
ATOM     26  C   UNL A   1      35.420  31.989  27.714  1.00  0.00     0.014 A 
ATOM     27  C   UNL A   1      34.830  29.660  28.005  1.00  0.00     0.014 A 
ATOM     28  C   UNL A   1      36.660  31.744  28.309  1.00  0.00     0.010 A 
ATOM     29  C   UNL A   1      36.036  29.436  28.669  1.00  0.00     0.010 A 
ATOM     30  C   UNL A   1      36.965  30.474  28.829  1.00  0.00    -0.014 A 
BRANCH  30  31
ATOM     31  C   UNL A   1      38.228  30.240  29.578  1.00  0.00     0.031 A 
ATOM     32  C   UNL A   1      39.323  29.381  29.005  1.00  0.00     0.074 A 
ATOM     33  C   UNL A   1      38.361  30.752  30.818  1.00  0.00     0.049 A 
ATOM     34  N   UNL A   1      40.491  29.088  29.515  1.00  0.00    -0.248 NA
ATOM     35  C   UNL A   1      39.063  28.749  27.702  1.00  0.00     0.031 C 
ATOM     36  C   UNL A   1      37.340  31.527  31.527  1.00  0.00     0.029 A 
ATOM     37  N   UNL A   1      39.403  30.684  31.712  1.00  0.00    -0.354 N 
ATOM     38  C   UNL A   1      41.093  28.216  28.617  1.00  0.00     0.074 A 
ATOM     39  C   UNL A   1      40.144  27.998  27.546  1.00  0.00     0.031 C 
ATOM     40  C   UNL A   1      37.813  31.883  32.731  1.00  0.00     0.029 A 
ATOM     41  C   UNL A   1      39.156  31.336  32.898  1.00  0.00     0.049 A 
ATOM     42  H   UNL A   1      40.246  30.214  31.520  1.00  0.00     0.167 HD
ATOM     43  C   UNL A   1      42.330  27.664  28.663  1.00  0.00     0.034 A 
ATOM     44  C   UNL A   1      39.921  31.479  33.997  1.00  0.00     0.034 A 
ATOM     45  C   UNL A   1      43.281  27.902  29.717  1.00  0.00     0.049 A 
ATOM     46  C   UNL A   1      41.302  30.885  34.010  1.00  0.00     0.074 A 
ATOM     47  C   UNL A   1      44.593  27.473  29.806  1.00  0.00     0.029 A 
ATOM     48  N   UNL A   1      43.017  28.614  30.877  1.00  0.00    -0.354 N 
ATOM     49  N   UNL A   1      41.921  30.210  33.072  1.00  0.00    -0.248 NA
ATOM     50  C   UNL A   1      42.104  31.100  35.223  1.00  0.00     0.031 C 
ATOM     51  C   UNL A   1      45.109  27.889  31.038  1.00  0.00     0.029 A 
ATOM     52  C   UNL A   1      44.133  28.615  31.700  1.00  0.00     0.049 A 
ATOM     53  H   UNL A   1      42.162  29.055  31.087  1.00  0.00     0.167 HD
ATOM     54  C   UNL A   1      43.193  29.949  33.565  1.00  0.00     0.074 A 
ATOM     55  C   UNL A   1      43.265  30.561  34.876  1.00  0.00     0.031 C 
ATOM     56  C   UNL A   1      44.206  29.253  32.990  1.00  0.00     0.034 A 
BRANCH  43  57
ATOM     57  C   UNL A   1      42.740  26.770  27.519  1.00  0.00     0.023 A 
ATOM     58  C   UNL A   1      42.957  27.322  26.241  1.00  0.00     0.012 A 
ATOM     59  C   UNL A   1      42.952  25.391  27.718  1.00  0.00     0.148 A 
ATOM     60  C   UNL A   1      43.333  26.513  25.169  1.00  0.00     0.002 A 
ATOM     61  C   UNL A   1      43.375  24.599  26.656  1.00  0.00     0.091 A 
ATOM     62  F   UNL A   1      42.722  24.876  28.934  1.00  0.00    -0.205 F 
ATOM     63  C   UNL A   1      43.551  25.154  25.378  1.00  0.00     0.022 A 
BRANCH  61  64
ATOM     64  S   UNL A   1      43.762  22.854  26.844  1.00  0.00     0.127 S 
ATOM     65  O   UNL A   1      43.311  22.313  25.562  1.00  0.00    -0.237 OA
ATOM     66  O   UNL A   1      45.214  22.879  27.018  1.00  0.00    -0.237 OA
ATOM     67  O   UNL A   1      43.018  22.402  28.010  1.00  0.00    -0.744 OA
ENDBRANCH  61  64
ENDBRANCH  43  57
BRANCH  44  68
ATOM     68  C   UNL A   1      39.421  32.280  35.149  1.00  0.00     0.023 A 
ATOM     69  C   UNL A   1      39.557  33.683  35.126  1.00  0.00     0.012 A 
ATOM     70  C   UNL A   1      38.780  31.670  36.244  1.00  0.00     0.148 A 
ATOM     71  C   UNL A   1      39.090  34.460  36.185  1.00  0.00     0.002 A 
ATOM     72  C   UNL A   1      38.265  32.455  37.269  1.00  0.00     0.091 A 
ATOM     73  F   UNL A   1      38.668  30.334  36.248  1.00  0.00    -0.205 F 
ATOM     74  C   UNL A   1      38.436  33.848  37.251  1.00  0.00     0.022 A 
BRANCH  72  75
ATOM     75  S   UNL A   1      37.292  31.770  38.615  1.00  0.00     0.127 S 
ATOM     76  O   UNL A   1      38.185  31.960  39.756  1.00  0.00    -0.237 OA
ATOM     77  O   UNL A   1      36.114  32.637  38.602  1.00  0.00    -0.237 OA
ATOM     78  O   UNL A   1      37.027  30.387  38.246  1.00  0.00    -0.744 OA
ENDBRANCH  72  75
ENDBRANCH  44  68
BRANCH  56  79
ATOM     79  C   UNL A   1      45.495  29.133  33.765  1.00  0.00     0.023 A 
ATOM     80  C   UNL A   1      46.502  30.108  33.612  1.00  0.00     0.012 A 
ATOM     81  C   UNL A   1      45.690  28.080  34.681  1.00  0.00     0.148 A 
ATOM     82  C   UNL A   1      47.697  30.013  34.324  1.00  0.00     0.002 A 
ATOM     83  C   UNL A   1      46.861  28.021  35.427  1.00  0.00     0.091 A 
ATOM     84  F   UNL A   1      44.730  27.151  34.801  1.00  0.00    -0.205 F 
ATOM     85  C   UNL A   1      47.872  28.977  35.238  1.00  0.00     0.022 A 
BRANCH  83  86
ATOM     86  S   UNL A   1      47.134  26.781  36.697  1.00  0.00     0.127 S 
ATOM     87  O   UNL A   1      47.223  25.556  35.904  1.00  0.00    -0.237 OA
ATOM     88  O   UNL A   1      48.399  27.216  37.290  1.00  0.00    -0.237 OA
ATOM     89  O   UNL A   1      45.988  26.864  37.592  1.00  0.00    -0.744 OA
ENDBRANCH  83  86
ENDBRANCH  56  79
ENDBRANCH  30  31
ENDBRANCH  22  25
ENDBRANCH  20  21
ENDBRANCH  19  20
ENDBRANCH  18  19
ENDBRANCH   1  18
TORSDOF 20
ENDMDL
