MODEL 1
REMARK VINA RESULT:     -12.7      0.000      0.000
REMARK SMILES COc1ccc(N2C(=O)/C(=C/c3c(C(=O)NCCCCCCNC(=O)c4ccc(-c5c6nc(c(-c7cccc(S(=O)(=O)[O-])c7F)c7ccc([nH]7)c(-c7cccc(S(=O)(=O)[O-])c7F)c7nc(c(-c8cccc(S(=O)(=O)[O-])c8F)c8ccc5[nH]8)C=C7)C=C6)cc4)[nH]c4cc(OC)ccc34)SC2=S)cc1
REMARK SMILES IDX 19 1 18 2 17 3 16 4 14 5 15 6 13 8 12 9 97 10 89 11 90 12
REMARK SMILES IDX 96 13 91 15 95 16 92 17 11 18 7 19 8 20 99 21 9 22 10 23
REMARK SMILES IDX 98 24 100 25 6 26 3 27 4 28 102 29 5 30 101 31 2 32 1 33
REMARK SMILES IDX 93 34 94 35 20 36 21 37 22 38 23 39 24 40 25 42 26 43 27 44
REMARK SMILES IDX 88 45 28 46 87 47 29 48 30 49 31 50 81 51 32 52 86 53 80 54
REMARK SMILES IDX 82 55 33 56 85 57 79 58 78 59 34 61 66 62 46 63 65 64 47 65
REMARK SMILES IDX 50 66 64 67 83 68 48 69 49 70 63 72 84 73 51 74 35 75 36 76
REMARK SMILES IDX 44 77 37 78 39 79 45 80 38 81 40 82 41 83 42 84 43 85 67 86
REMARK SMILES IDX 68 87 76 88 69 89 71 90 77 91 70 92 72 93 73 94 74 95 75 96
REMARK SMILES IDX 52 97 53 98 61 99 54 100 56 101 62 102 55 103 57 104 58 105
REMARK SMILES IDX 59 106 60 107
REMARK H PARENT 16 7 89 14 23 41 82 60 50 71
REMARK Flexibility Score: inf
ROOT
ATOM      1  C   UNL A   1      32.745  28.210  27.348  1.00  0.00     0.002 C 
ENDROOT
BRANCH   1   2
ATOM      2  C   UNL A   1      33.768  28.264  26.200  1.00  0.00     0.021 C 
BRANCH   2   3
ATOM      3  C   UNL A   1      33.720  27.081  25.239  1.00  0.00     0.116 C 
BRANCH   3   4
ATOM      4  N   UNL A   1      34.000  27.425  23.861  1.00  0.00    -0.351 N 
ATOM      5  C   UNL A   1      33.073  27.794  22.918  1.00  0.00     0.268 C 
ATOM      6  O   UNL A   1      33.402  27.782  21.729  1.00  0.00    -0.268 OA
ATOM      7  H   UNL A   1      34.942  27.392  23.575  1.00  0.00     0.163 HD
BRANCH   5   8
ATOM      8  C   UNL A   1      31.714  28.041  23.335  1.00  0.00     0.112 A 
ATOM      9  C   UNL A   1      30.516  27.312  23.330  1.00  0.00     0.014 A 
ATOM     10  C   UNL A   1      29.476  28.343  23.286  1.00  0.00     0.008 A 
ATOM     11  N   UNL A   1      31.413  29.253  23.892  1.00  0.00    -0.350 N 
ATOM     12  C   UNL A   1      30.113  29.549  23.600  1.00  0.00     0.050 A 
ATOM     13  C   UNL A   1      28.093  28.455  22.973  1.00  0.00     0.015 A 
ATOM     14  H   UNL A   1      32.027  29.817  24.413  1.00  0.00     0.167 HD
ATOM     15  C   UNL A   1      29.511  30.806  23.572  1.00  0.00     0.073 A 
ATOM     16  C   UNL A   1      27.468  29.744  22.907  1.00  0.00     0.047 A 
ATOM     17  C   UNL A   1      28.182  30.907  23.185  1.00  0.00     0.120 A 
BRANCH   9  18
ATOM     18  C   UNL A   1      30.478  25.867  23.108  1.00  0.00     0.032 C 
ATOM     19  N   UNL A   1      31.870  23.074  24.954  1.00  0.00    -0.261 N 
ATOM     20  C   UNL A   1      31.142  23.500  23.824  1.00  0.00     0.270 C 
ATOM     21  C   UNL A   1      31.778  23.889  26.072  1.00  0.00     0.152 C 
ATOM     22  O   UNL A   1      31.027  22.925  22.752  1.00  0.00    -0.268 OA
ATOM     23  C   UNL A   1      30.635  24.910  24.062  1.00  0.00     0.081 C 
ATOM     24  S   UNL A   1      30.592  25.152  25.773  1.00  0.00    -0.054 SA
ATOM     25  S   UNL A   1      32.547  23.776  27.555  1.00  0.00    -0.051 S 
BRANCH  19  26
ATOM     26  C   UNL A   1      32.707  21.906  24.928  1.00  0.00     0.051 A 
ATOM     27  C   UNL A   1      34.315  19.580  24.711  1.00  0.00     0.119 A 
ATOM     28  C   UNL A   1      32.941  19.470  24.905  1.00  0.00     0.048 A 
ATOM     29  C   UNL A   1      34.887  20.849  24.613  1.00  0.00     0.048 A 
ATOM     30  C   UNL A   1      32.144  20.618  25.001  1.00  0.00     0.030 A 
ATOM     31  C   UNL A   1      34.091  22.007  24.745  1.00  0.00     0.030 A 
BRANCH  27  32
ATOM     32  O   UNL A   1      34.980  18.394  24.571  1.00  0.00    -0.497 OA
ATOM     33  C   UNL A   1      34.305  17.385  23.827  1.00  0.00     0.278 C 
ENDBRANCH  27  32
ENDBRANCH  19  26
ENDBRANCH   9  18
BRANCH  17  34
ATOM     34  O   UNL A   1      27.778  32.209  23.097  1.00  0.00    -0.497 OA
ATOM     35  C   UNL A   1      28.743  33.233  22.945  1.00  0.00     0.278 C 
ENDBRANCH  17  34
ENDBRANCH   5   8
ENDBRANCH   3   4
ENDBRANCH   2   3
ENDBRANCH   1   2
BRANCH   1  36
ATOM     36  C   UNL A   1      31.879  29.471  27.369  1.00  0.00     0.002 C 
BRANCH  36  37
ATOM     37  C   UNL A   1      32.306  30.754  26.672  1.00  0.00     0.021 C 
BRANCH  37  38
ATOM     38  C   UNL A   1      33.343  31.609  27.359  1.00  0.00     0.116 C 
BRANCH  38  39
ATOM     39  N   UNL A   1      32.915  32.997  27.501  1.00  0.00    -0.352 N 
ATOM     40  C   UNL A   1      33.326  33.921  28.442  1.00  0.00     0.251 C 
ATOM     41  H   UNL A   1      32.251  33.314  26.847  1.00  0.00     0.163 HD
ATOM     42  O   UNL A   1      32.756  34.998  28.565  1.00  0.00    -0.269 OA
BRANCH  40  43
ATOM     43  C   UNL A   1      34.468  33.575  29.318  1.00  0.00     0.039 A 
ATOM     44  C   UNL A   1      34.289  32.726  30.413  1.00  0.00     0.014 A 
ATOM     45  C   UNL A   1      35.741  34.033  28.982  1.00  0.00     0.014 A 
ATOM     46  C   UNL A   1      35.408  32.280  31.124  1.00  0.00     0.010 A 
ATOM     47  C   UNL A   1      36.849  33.460  29.578  1.00  0.00     0.010 A 
ATOM     48  C   UNL A   1      36.699  32.614  30.687  1.00  0.00    -0.014 A 
BRANCH  48  49
ATOM     49  C   UNL A   1      37.937  32.188  31.390  1.00  0.00     0.031 A 
ATOM     50  C   UNL A   1      38.796  31.126  30.746  1.00  0.00     0.074 A 
ATOM     51  C   UNL A   1      38.206  32.626  32.636  1.00  0.00     0.049 A 
ATOM     52  N   UNL A   1      39.776  30.428  31.254  1.00  0.00    -0.248 NA
ATOM     53  C   UNL A   1      38.452  30.746  29.361  1.00  0.00     0.031 C 
ATOM     54  C   UNL A   1      37.401  33.585  33.396  1.00  0.00     0.029 A 
ATOM     55  N   UNL A   1      39.215  32.284  33.501  1.00  0.00    -0.354 N 
ATOM     56  C   UNL A   1      40.102  29.481  30.288  1.00  0.00     0.074 A 
ATOM     57  C   UNL A   1      39.182  29.656  29.190  1.00  0.00     0.031 C 
ATOM     58  C   UNL A   1      37.950  33.759  34.610  1.00  0.00     0.029 A 
ATOM     59  C   UNL A   1      39.119  32.895  34.732  1.00  0.00     0.049 A 
ATOM     60  H   UNL A   1      39.939  31.661  33.265  1.00  0.00     0.167 HD
ATOM     61  C   UNL A   1      41.105  28.573  30.295  1.00  0.00     0.034 A 
ATOM     62  C   UNL A   1      39.882  32.758  35.833  1.00  0.00     0.034 A 
ATOM     63  C   UNL A   1      42.070  28.481  31.353  1.00  0.00     0.049 A 
ATOM     64  C   UNL A   1      41.055  31.814  35.781  1.00  0.00     0.074 A 
ATOM     65  C   UNL A   1      43.201  27.691  31.422  1.00  0.00     0.029 A 
ATOM     66  N   UNL A   1      42.021  29.220  32.526  1.00  0.00    -0.354 N 
ATOM     67  N   UNL A   1      41.434  31.023  34.805  1.00  0.00    -0.248 NA
ATOM     68  C   UNL A   1      41.928  31.770  36.963  1.00  0.00     0.031 C 
ATOM     69  C   UNL A   1      43.826  27.937  32.649  1.00  0.00     0.029 A 
ATOM     70  C   UNL A   1      43.101  28.905  33.327  1.00  0.00     0.049 A 
ATOM     71  H   UNL A   1      41.320  29.872  32.753  1.00  0.00     0.167 HD
ATOM     72  C   UNL A   1      42.607  30.415  35.239  1.00  0.00     0.074 A 
ATOM     73  C   UNL A   1      42.886  30.947  36.557  1.00  0.00     0.031 C 
ATOM     74  C   UNL A   1      43.379  29.494  34.612  1.00  0.00     0.034 A 
BRANCH  61  75
ATOM     75  C   UNL A   1      41.240  27.661  29.100  1.00  0.00     0.023 A 
ATOM     76  C   UNL A   1      40.447  26.499  29.009  1.00  0.00     0.012 A 
ATOM     77  C   UNL A   1      42.127  27.971  28.050  1.00  0.00     0.148 A 
ATOM     78  C   UNL A   1      40.570  25.632  27.924  1.00  0.00     0.002 A 
ATOM     79  C   UNL A   1      42.205  27.131  26.944  1.00  0.00     0.091 A 
ATOM     80  F   UNL A   1      42.890  29.068  28.158  1.00  0.00    -0.205 F 
ATOM     81  C   UNL A   1      41.441  25.954  26.887  1.00  0.00     0.022 A 
BRANCH  79  82
ATOM     82  S   UNL A   1      43.228  27.498  25.514  1.00  0.00     0.127 S 
ATOM     83  O   UNL A   1      42.299  28.252  24.672  1.00  0.00    -0.237 OA
ATOM     84  O   UNL A   1      44.302  28.298  26.105  1.00  0.00    -0.237 OA
ATOM     85  O   UNL A   1      43.651  26.213  24.978  1.00  0.00    -0.744 OA
ENDBRANCH  79  82
ENDBRANCH  61  75
BRANCH  62  86
ATOM     86  C   UNL A   1      39.610  33.588  37.043  1.00  0.00     0.023 A 
ATOM     87  C   UNL A   1      40.056  34.925  37.076  1.00  0.00     0.012 A 
ATOM     88  C   UNL A   1      38.885  33.082  38.140  1.00  0.00     0.148 A 
ATOM     89  C   UNL A   1      39.813  35.731  38.189  1.00  0.00     0.002 A 
ATOM     90  C   UNL A   1      38.599  33.908  39.222  1.00  0.00     0.091 A 
ATOM     91  F   UNL A   1      38.476  31.806  38.096  1.00  0.00    -0.205 F 
ATOM     92  C   UNL A   1      39.077  35.228  39.256  1.00  0.00     0.022 A 
BRANCH  90  93
ATOM     93  S   UNL A   1      37.549  33.389  40.584  1.00  0.00     0.127 S 
ATOM     94  O   UNL A   1      36.343  32.954  39.884  1.00  0.00    -0.237 OA
ATOM     95  O   UNL A   1      38.338  32.310  41.180  1.00  0.00    -0.237 OA
ATOM     96  O   UNL A   1      37.398  34.563  41.434  1.00  0.00    -0.744 OA
ENDBRANCH  90  93
ENDBRANCH  62  86
BRANCH  74  97
ATOM     97  C   UNL A   1      44.626  29.035  35.319  1.00  0.00     0.023 A 
ATOM     98  C   UNL A   1      45.873  29.591  34.977  1.00  0.00     0.012 A 
ATOM     99  C   UNL A   1      44.541  28.115  36.381  1.00  0.00     0.148 A 
ATOM    100  C   UNL A   1      47.026  29.210  35.662  1.00  0.00     0.002 A 
ATOM    101  C   UNL A   1      45.684  27.782  37.095  1.00  0.00     0.091 A 
ATOM    102  F   UNL A   1      43.344  27.588  36.678  1.00  0.00    -0.205 F 
ATOM    103  C   UNL A   1      46.930  28.318  36.728  1.00  0.00     0.022 A 
BRANCH 101 104
ATOM    104  S   UNL A   1      45.638  26.726  38.546  1.00  0.00     0.127 S 
ATOM    105  O   UNL A   1      44.989  27.594  39.525  1.00  0.00    -0.237 OA
ATOM    106  O   UNL A   1      44.820  25.604  38.087  1.00  0.00    -0.237 OA
ATOM    107  O   UNL A   1      47.024  26.384  38.838  1.00  0.00    -0.744 OA
ENDBRANCH 101 104
ENDBRANCH  74  97
ENDBRANCH  48  49
ENDBRANCH  40  43
ENDBRANCH  38  39
ENDBRANCH  37  38
ENDBRANCH  36  37
ENDBRANCH   1  36
TORSDOF 20
ENDMDL
MODEL 2
REMARK VINA RESULT:     -12.5      1.712      7.388
REMARK SMILES COc1ccc(N2C(=O)/C(=C/c3c(C(=O)NCCCCCCNC(=O)c4ccc(-c5c6nc(c(-c7cccc(S(=O)(=O)[O-])c7F)c7ccc([nH]7)c(-c7cccc(S(=O)(=O)[O-])c7F)c7nc(c(-c8cccc(S(=O)(=O)[O-])c8F)c8ccc5[nH]8)C=C7)C=C6)cc4)[nH]c4cc(OC)ccc34)SC2=S)cc1
REMARK SMILES IDX 19 1 18 2 17 3 16 4 14 5 15 6 13 8 12 9 97 10 89 11 90 12
REMARK SMILES IDX 96 13 91 15 95 16 92 17 11 18 7 19 8 20 99 21 9 22 10 23
REMARK SMILES IDX 98 24 100 25 6 26 3 27 4 28 102 29 5 30 101 31 2 32 1 33
REMARK SMILES IDX 93 34 94 35 20 36 21 37 22 38 23 39 24 40 25 42 26 43 27 44
REMARK SMILES IDX 88 45 28 46 87 47 29 48 30 49 31 50 81 51 32 52 86 53 80 54
REMARK SMILES IDX 82 55 33 56 85 57 79 58 78 59 34 61 66 62 46 63 65 64 47 65
REMARK SMILES IDX 50 66 64 67 83 68 48 69 49 70 63 72 84 73 51 74 35 75 36 76
REMARK SMILES IDX 44 77 37 78 39 79 45 80 38 81 40 82 41 83 42 84 43 85 67 86
REMARK SMILES IDX 68 87 76 88 69 89 71 90 77 91 70 92 72 93 73 94 74 95 75 96
REMARK SMILES IDX 52 97 53 98 61 99 54 100 56 101 62 102 55 103 57 104 58 105
REMARK SMILES IDX 59 106 60 107
REMARK H PARENT 16 7 89 14 23 41 82 60 50 71
REMARK Flexibility Score: inf
ROOT
ATOM      1  C   UNL A   1      34.243  28.785  26.218  1.00  0.00     0.002 C 
ENDROOT
BRANCH   1   2
ATOM      2  C   UNL A   1      34.011  27.268  26.323  1.00  0.00     0.021 C 
BRANCH   2   3
ATOM      3  C   UNL A   1      33.689  26.573  25.005  1.00  0.00     0.116 C 
BRANCH   3   4
ATOM      4  N   UNL A   1      34.082  27.321  23.828  1.00  0.00    -0.351 N 
ATOM      5  C   UNL A   1      33.235  27.980  22.972  1.00  0.00     0.268 C 
ATOM      6  O   UNL A   1      33.664  28.330  21.870  1.00  0.00    -0.268 OA
ATOM      7  H   UNL A   1      35.045  27.360  23.625  1.00  0.00     0.163 HD
BRANCH   5   8
ATOM      8  C   UNL A   1      31.844  28.112  23.331  1.00  0.00     0.112 A 
ATOM      9  C   UNL A   1      30.695  27.318  23.201  1.00  0.00     0.014 A 
ATOM     10  C   UNL A   1      29.597  28.287  23.182  1.00  0.00     0.008 A 
ATOM     11  N   UNL A   1      31.440  29.253  23.967  1.00  0.00    -0.350 N 
ATOM     12  C   UNL A   1      30.140  29.497  23.628  1.00  0.00     0.050 A 
ATOM     13  C   UNL A   1      28.228  28.345  22.803  1.00  0.00     0.015 A 
ATOM     14  H   UNL A   1      31.991  29.806  24.566  1.00  0.00     0.167 HD
ATOM     15  C   UNL A   1      29.464  30.715  23.669  1.00  0.00     0.073 A 
ATOM     16  C   UNL A   1      27.528  29.596  22.806  1.00  0.00     0.047 A 
ATOM     17  C   UNL A   1      28.152  30.771  23.218  1.00  0.00     0.120 A 
BRANCH   9  18
ATOM     18  C   UNL A   1      30.759  25.897  22.860  1.00  0.00     0.032 C 
ATOM     19  N   UNL A   1      31.880  22.988  24.712  1.00  0.00    -0.261 N 
ATOM     20  C   UNL A   1      31.367  23.493  23.499  1.00  0.00     0.270 C 
ATOM     21  C   UNL A   1      31.541  23.701  25.852  1.00  0.00     0.152 C 
ATOM     22  O   UNL A   1      31.484  23.011  22.382  1.00  0.00    -0.268 OA
ATOM     23  C   UNL A   1      30.768  24.865  23.746  1.00  0.00     0.081 C 
ATOM     24  S   UNL A   1      30.386  24.957  25.429  1.00  0.00    -0.054 SA
ATOM     25  S   UNL A   1      32.014  23.478  27.443  1.00  0.00    -0.051 S 
BRANCH  19  26
ATOM     26  C   UNL A   1      32.753  21.848  24.756  1.00  0.00     0.051 A 
ATOM     27  C   UNL A   1      34.436  19.566  24.678  1.00  0.00     0.119 A 
ATOM     28  C   UNL A   1      33.061  19.421  24.837  1.00  0.00     0.048 A 
ATOM     29  C   UNL A   1      34.972  20.848  24.545  1.00  0.00     0.048 A 
ATOM     30  C   UNL A   1      32.227  20.546  24.865  1.00  0.00     0.030 A 
ATOM     31  C   UNL A   1      34.137  21.985  24.608  1.00  0.00     0.030 A 
BRANCH  27  32
ATOM     32  O   UNL A   1      35.141  18.398  24.604  1.00  0.00    -0.497 OA
ATOM     33  C   UNL A   1      34.423  17.266  24.122  1.00  0.00     0.278 C 
ENDBRANCH  27  32
ENDBRANCH  19  26
ENDBRANCH   9  18
BRANCH  17  34
ATOM     34  O   UNL A   1      27.673  32.050  23.213  1.00  0.00    -0.497 OA
ATOM     35  C   UNL A   1      28.396  33.067  22.545  1.00  0.00     0.278 C 
ENDBRANCH  17  34
ENDBRANCH   5   8
ENDBRANCH   3   4
ENDBRANCH   2   3
ENDBRANCH   1   2
BRANCH   1  36
ATOM     36  C   UNL A   1      33.086  29.561  26.851  1.00  0.00     0.002 C 
BRANCH  36  37
ATOM     37  C   UNL A   1      32.886  31.049  26.608  1.00  0.00     0.021 C 
BRANCH  37  38
ATOM     38  C   UNL A   1      32.525  31.907  27.796  1.00  0.00     0.116 C 
BRANCH  38  39
ATOM     39  N   UNL A   1      32.879  33.309  27.599  1.00  0.00    -0.352 N 
ATOM     40  C   UNL A   1      34.057  33.943  27.941  1.00  0.00     0.251 C 
ATOM     41  H   UNL A   1      32.194  33.872  27.172  1.00  0.00     0.163 HD
ATOM     42  O   UNL A   1      34.160  35.163  27.888  1.00  0.00    -0.269 OA
BRANCH  40  43
ATOM     43  C   UNL A   1      35.198  33.117  28.393  1.00  0.00     0.039 A 
ATOM     44  C   UNL A   1      36.509  33.575  28.241  1.00  0.00     0.014 A 
ATOM     45  C   UNL A   1      34.944  31.916  29.055  1.00  0.00     0.014 A 
ATOM     46  C   UNL A   1      37.558  32.856  28.825  1.00  0.00     0.010 A 
ATOM     47  C   UNL A   1      35.958  31.305  29.768  1.00  0.00     0.010 A 
ATOM     48  C   UNL A   1      37.285  31.736  29.625  1.00  0.00    -0.014 A 
BRANCH  48  49
ATOM     49  C   UNL A   1      38.342  30.916  30.272  1.00  0.00     0.031 A 
ATOM     50  C   UNL A   1      38.712  31.227  31.703  1.00  0.00     0.074 A 
ATOM     51  C   UNL A   1      39.054  30.023  29.557  1.00  0.00     0.049 A 
ATOM     52  N   UNL A   1      39.739  30.824  32.402  1.00  0.00    -0.248 NA
ATOM     53  C   UNL A   1      37.843  32.182  32.420  1.00  0.00     0.031 C 
ATOM     54  C   UNL A   1      38.847  29.702  28.143  1.00  0.00     0.029 A 
ATOM     55  N   UNL A   1      40.130  29.250  29.917  1.00  0.00    -0.354 N 
ATOM     56  C   UNL A   1      39.683  31.537  33.596  1.00  0.00     0.074 A 
ATOM     57  C   UNL A   1      38.557  32.436  33.504  1.00  0.00     0.031 C 
ATOM     58  C   UNL A   1      39.760  28.796  27.757  1.00  0.00     0.029 A 
ATOM     59  C   UNL A   1      40.644  28.503  28.881  1.00  0.00     0.049 A 
ATOM     60  H   UNL A   1      40.500  29.232  30.828  1.00  0.00     0.167 HD
ATOM     61  C   UNL A   1      40.472  31.426  34.688  1.00  0.00     0.034 A 
ATOM     62  C   UNL A   1      41.715  27.686  28.844  1.00  0.00     0.034 A 
ATOM     63  C   UNL A   1      41.526  30.458  34.798  1.00  0.00     0.049 A 
ATOM     64  C   UNL A   1      42.520  27.502  30.105  1.00  0.00     0.074 A 
ATOM     65  C   UNL A   1      42.315  30.161  35.892  1.00  0.00     0.029 A 
ATOM     66  N   UNL A   1      41.926  29.616  33.770  1.00  0.00    -0.354 N 
ATOM     67  N   UNL A   1      42.370  28.082  31.272  1.00  0.00    -0.248 NA
ATOM     68  C   UNL A   1      43.615  26.523  30.058  1.00  0.00     0.031 C 
ATOM     69  C   UNL A   1      43.209  29.153  35.519  1.00  0.00     0.029 A 
ATOM     70  C   UNL A   1      42.953  28.798  34.203  1.00  0.00     0.049 A 
ATOM     71  H   UNL A   1      41.536  29.603  32.867  1.00  0.00     0.167 HD
ATOM     72  C   UNL A   1      43.325  27.515  32.107  1.00  0.00     0.074 A 
ATOM     73  C   UNL A   1      44.034  26.530  31.316  1.00  0.00     0.031 C 
ATOM     74  C   UNL A   1      43.601  27.789  33.406  1.00  0.00     0.034 A 
BRANCH  61  75
ATOM     75  C   UNL A   1      40.183  32.327  35.864  1.00  0.00     0.023 A 
ATOM     76  C   UNL A   1      40.928  33.511  36.043  1.00  0.00     0.012 A 
ATOM     77  C   UNL A   1      39.151  32.021  36.773  1.00  0.00     0.148 A 
ATOM     78  C   UNL A   1      40.691  34.346  37.134  1.00  0.00     0.002 A 
ATOM     79  C   UNL A   1      38.881  32.888  37.827  1.00  0.00     0.091 A 
ATOM     80  F   UNL A   1      38.463  30.883  36.602  1.00  0.00    -0.205 F 
ATOM     81  C   UNL A   1      39.661  34.040  38.019  1.00  0.00     0.022 A 
BRANCH  79  82
ATOM     82  S   UNL A   1      37.521  32.634  38.972  1.00  0.00     0.127 S 
ATOM     83  O   UNL A   1      37.757  31.258  39.409  1.00  0.00    -0.237 OA
ATOM     84  O   UNL A   1      37.785  33.651  39.990  1.00  0.00    -0.237 OA
ATOM     85  O   UNL A   1      36.302  32.842  38.205  1.00  0.00    -0.744 OA
ENDBRANCH  79  82
ENDBRANCH  61  75
BRANCH  62  86
ATOM     86  C   UNL A   1      42.039  26.928  27.601  1.00  0.00     0.023 A 
ATOM     87  C   UNL A   1      42.605  27.611  26.505  1.00  0.00     0.012 A 
ATOM     88  C   UNL A   1      41.829  25.538  27.505  1.00  0.00     0.148 A 
ATOM     89  C   UNL A   1      42.926  26.932  25.329  1.00  0.00     0.002 A 
ATOM     90  C   UNL A   1      42.202  24.858  26.351  1.00  0.00     0.091 A 
ATOM     91  F   UNL A   1      41.282  24.906  28.553  1.00  0.00    -0.205 F 
ATOM     92  C   UNL A   1      42.734  25.556  25.255  1.00  0.00     0.022 A 
BRANCH  90  93
ATOM     93  S   UNL A   1      42.115  23.069  26.211  1.00  0.00     0.127 S 
ATOM     94  O   UNL A   1      42.926  22.639  27.347  1.00  0.00    -0.237 OA
ATOM     95  O   UNL A   1      40.679  22.825  26.350  1.00  0.00    -0.237 OA
ATOM     96  O   UNL A   1      42.653  22.751  24.895  1.00  0.00    -0.744 OA
ENDBRANCH  90  93
ENDBRANCH  62  86
BRANCH  74  97
ATOM     97  C   UNL A   1      44.682  26.982  34.072  1.00  0.00     0.023 A 
ATOM     98  C   UNL A   1      46.023  27.403  33.996  1.00  0.00     0.012 A 
ATOM     99  C   UNL A   1      44.349  25.853  34.845  1.00  0.00     0.148 A 
ATOM    100  C   UNL A   1      47.024  26.691  34.655  1.00  0.00     0.002 A 
ATOM    101  C   UNL A   1      45.343  25.181  35.542  1.00  0.00     0.091 A 
ATOM    102  F   UNL A   1      43.067  25.463  34.889  1.00  0.00    -0.205 F 
ATOM    103  C   UNL A   1      46.684  25.589  35.437  1.00  0.00     0.022 A 
BRANCH 101 104
ATOM    104  S   UNL A   1      44.984  23.820  36.656  1.00  0.00     0.127 S 
ATOM    105  O   UNL A   1      44.107  24.460  37.635  1.00  0.00    -0.237 OA
ATOM    106  O   UNL A   1      44.318  22.863  35.773  1.00  0.00    -0.237 OA
ATOM    107  O   UNL A   1      46.271  23.372  37.172  1.00  0.00    -0.744 OA
ENDBRANCH 101 104
ENDBRANCH  74  97
ENDBRANCH  48  49
ENDBRANCH  40  43
ENDBRANCH  38  39
ENDBRANCH  37  38
ENDBRANCH  36  37
ENDBRANCH   1  36
TORSDOF 20
ENDMDL
MODEL 3
REMARK VINA RESULT:     -12.0      5.110      7.327
REMARK SMILES COc1ccc(N2C(=O)/C(=C/c3c(C(=O)NCCCCCCNC(=O)c4ccc(-c5c6nc(c(-c7cccc(S(=O)(=O)[O-])c7F)c7ccc([nH]7)c(-c7cccc(S(=O)(=O)[O-])c7F)c7nc(c(-c8cccc(S(=O)(=O)[O-])c8F)c8ccc5[nH]8)C=C7)C=C6)cc4)[nH]c4cc(OC)ccc34)SC2=S)cc1
REMARK SMILES IDX 19 1 18 2 17 3 16 4 14 5 15 6 13 8 12 9 97 10 89 11 90 12
REMARK SMILES IDX 96 13 91 15 95 16 92 17 11 18 7 19 8 20 99 21 9 22 10 23
REMARK SMILES IDX 98 24 100 25 6 26 3 27 4 28 102 29 5 30 101 31 2 32 1 33
REMARK SMILES IDX 93 34 94 35 20 36 21 37 22 38 23 39 24 40 25 42 26 43 27 44
REMARK SMILES IDX 88 45 28 46 87 47 29 48 30 49 31 50 81 51 32 52 86 53 80 54
REMARK SMILES IDX 82 55 33 56 85 57 79 58 78 59 34 61 66 62 46 63 65 64 47 65
REMARK SMILES IDX 50 66 64 67 83 68 48 69 49 70 63 72 84 73 51 74 35 75 36 76
REMARK SMILES IDX 44 77 37 78 39 79 45 80 38 81 40 82 41 83 42 84 43 85 67 86
REMARK SMILES IDX 68 87 76 88 69 89 71 90 77 91 70 92 72 93 73 94 74 95 75 96
REMARK SMILES IDX 52 97 53 98 61 99 54 100 56 101 62 102 55 103 57 104 58 105
REMARK SMILES IDX 59 106 60 107
REMARK H PARENT 16 7 89 14 23 41 82 60 50 71
REMARK Flexibility Score: inf
ROOT
ATOM      1  C   UNL A   1      34.469  23.506  23.115  1.00  0.00     0.002 C 
ENDROOT
BRANCH   1   2
ATOM      2  C   UNL A   1      33.965  24.608  22.168  1.00  0.00     0.021 C 
BRANCH   2   3
ATOM      3  C   UNL A   1      33.646  25.939  22.841  1.00  0.00     0.116 C 
BRANCH   3   4
ATOM      4  N   UNL A   1      34.013  25.999  24.241  1.00  0.00    -0.351 N 
ATOM      5  C   UNL A   1      33.281  26.590  25.241  1.00  0.00     0.268 C 
ATOM      6  O   UNL A   1      33.832  26.817  26.321  1.00  0.00    -0.268 OA
ATOM      7  H   UNL A   1      34.864  25.576  24.498  1.00  0.00     0.163 HD
BRANCH   5   8
ATOM      8  C   UNL A   1      31.946  27.050  24.950  1.00  0.00     0.112 A 
ATOM      9  C   UNL A   1      30.839  26.541  24.255  1.00  0.00     0.014 A 
ATOM     10  C   UNL A   1      30.111  27.737  23.826  1.00  0.00     0.008 A 
ATOM     11  N   UNL A   1      31.557  28.271  25.428  1.00  0.00    -0.350 N 
ATOM     12  C   UNL A   1      30.642  28.800  24.565  1.00  0.00     0.050 A 
ATOM     13  C   UNL A   1      29.112  28.101  22.880  1.00  0.00     0.015 A 
ATOM     14  H   UNL A   1      31.882  28.698  26.253  1.00  0.00     0.167 HD
ATOM     15  C   UNL A   1      30.306  30.142  24.398  1.00  0.00     0.073 A 
ATOM     16  C   UNL A   1      28.780  29.480  22.672  1.00  0.00     0.047 A 
ATOM     17  C   UNL A   1      29.389  30.489  23.414  1.00  0.00     0.120 A 
BRANCH   9  18
ATOM     18  C   UNL A   1      30.738  25.135  23.864  1.00  0.00     0.032 C 
ATOM     19  N   UNL A   1      32.055  22.091  25.329  1.00  0.00    -0.261 N 
ATOM     20  C   UNL A   1      31.321  22.676  24.276  1.00  0.00     0.270 C 
ATOM     21  C   UNL A   1      32.020  22.769  26.537  1.00  0.00     0.152 C 
ATOM     22  O   UNL A   1      31.160  22.238  23.147  1.00  0.00    -0.268 OA
ATOM     23  C   UNL A   1      30.877  24.066  24.693  1.00  0.00     0.081 C 
ATOM     24  S   UNL A   1      30.880  24.103  26.421  1.00  0.00    -0.054 SA
ATOM     25  S   UNL A   1      32.816  22.452  27.976  1.00  0.00    -0.051 S 
BRANCH  19  26
ATOM     26  C   UNL A   1      32.844  20.904  25.142  1.00  0.00     0.051 A 
ATOM     27  C   UNL A   1      34.375  18.579  24.604  1.00  0.00     0.119 A 
ATOM     28  C   UNL A   1      32.984  18.519  24.615  1.00  0.00     0.048 A 
ATOM     29  C   UNL A   1      35.003  19.801  24.849  1.00  0.00     0.048 A 
ATOM     30  C   UNL A   1      32.227  19.669  24.870  1.00  0.00     0.030 A 
ATOM     31  C   UNL A   1      34.242  20.953  25.141  1.00  0.00     0.030 A 
BRANCH  27  32
ATOM     32  O   UNL A   1      35.006  17.410  24.284  1.00  0.00    -0.497 OA
ATOM     33  C   UNL A   1      34.247  16.482  23.515  1.00  0.00     0.278 C 
ENDBRANCH  27  32
ENDBRANCH  19  26
ENDBRANCH   9  18
BRANCH  17  34
ATOM     34  O   UNL A   1      29.258  31.843  23.300  1.00  0.00    -0.497 OA
ATOM     35  C   UNL A   1      28.773  32.401  22.093  1.00  0.00     0.278 C 
ENDBRANCH  17  34
ENDBRANCH   5   8
ENDBRANCH   3   4
ENDBRANCH   2   3
ENDBRANCH   1   2
BRANCH   1  36
ATOM     36  C   UNL A   1      35.925  23.148  22.813  1.00  0.00     0.002 C 
BRANCH  36  37
ATOM     37  C   UNL A   1      37.063  23.556  23.737  1.00  0.00     0.021 C 
BRANCH  37  38
ATOM     38  C   UNL A   1      36.921  23.232  25.204  1.00  0.00     0.116 C 
BRANCH  38  39
ATOM     39  N   UNL A   1      37.947  22.306  25.672  1.00  0.00    -0.352 N 
ATOM     40  C   UNL A   1      39.120  22.603  26.337  1.00  0.00     0.251 C 
ATOM     41  H   UNL A   1      37.783  21.352  25.492  1.00  0.00     0.163 HD
ATOM     42  O   UNL A   1      39.983  21.751  26.514  1.00  0.00    -0.269 OA
BRANCH  40  43
ATOM     43  C   UNL A   1      39.325  23.986  26.821  1.00  0.00     0.039 A 
ATOM     44  C   UNL A   1      38.985  24.337  28.130  1.00  0.00     0.014 A 
ATOM     45  C   UNL A   1      39.947  24.912  25.983  1.00  0.00     0.014 A 
ATOM     46  C   UNL A   1      39.343  25.599  28.616  1.00  0.00     0.010 A 
ATOM     47  C   UNL A   1      40.444  26.086  26.517  1.00  0.00     0.010 A 
ATOM     48  C   UNL A   1      40.108  26.468  27.824  1.00  0.00    -0.014 A 
BRANCH  48  49
ATOM     49  C   UNL A   1      40.521  27.827  28.263  1.00  0.00     0.031 A 
ATOM     50  C   UNL A   1      41.997  28.121  28.387  1.00  0.00     0.074 A 
ATOM     51  C   UNL A   1      39.605  28.721  28.684  1.00  0.00     0.049 A 
ATOM     52  N   UNL A   1      42.599  29.127  28.961  1.00  0.00    -0.248 NA
ATOM     53  C   UNL A   1      42.922  27.101  27.853  1.00  0.00     0.031 C 
ATOM     54  C   UNL A   1      38.154  28.517  28.696  1.00  0.00     0.029 A 
ATOM     55  N   UNL A   1      39.766  29.971  29.227  1.00  0.00    -0.354 N 
ATOM     56  C   UNL A   1      43.955  28.819  28.932  1.00  0.00     0.074 A 
ATOM     57  C   UNL A   1      44.084  27.511  28.336  1.00  0.00     0.031 C 
ATOM     58  C   UNL A   1      37.559  29.604  29.212  1.00  0.00     0.029 A 
ATOM     59  C   UNL A   1      38.583  30.565  29.609  1.00  0.00     0.049 A 
ATOM     60  H   UNL A   1      40.643  30.404  29.334  1.00  0.00     0.167 HD
ATOM     61  C   UNL A   1      45.005  29.575  29.328  1.00  0.00     0.034 A 
ATOM     62  C   UNL A   1      38.358  31.744  30.220  1.00  0.00     0.034 A 
ATOM     63  C   UNL A   1      44.863  30.912  29.828  1.00  0.00     0.049 A 
ATOM     64  C   UNL A   1      39.542  32.613  30.560  1.00  0.00     0.074 A 
ATOM     65  C   UNL A   1      45.851  31.824  30.146  1.00  0.00     0.029 A 
ATOM     66  N   UNL A   1      43.646  31.534  30.068  1.00  0.00    -0.354 N 
ATOM     67  N   UNL A   1      40.820  32.365  30.399  1.00  0.00    -0.248 NA
ATOM     68  C   UNL A   1      39.253  33.937  31.128  1.00  0.00     0.031 C 
ATOM     69  C   UNL A   1      45.231  32.992  30.600  1.00  0.00     0.029 A 
ATOM     70  C   UNL A   1      43.857  32.819  30.532  1.00  0.00     0.049 A 
ATOM     71  H   UNL A   1      42.764  31.121  29.928  1.00  0.00     0.167 HD
ATOM     72  C   UNL A   1      41.487  33.513  30.811  1.00  0.00     0.074 A 
ATOM     73  C   UNL A   1      40.468  34.464  31.209  1.00  0.00     0.031 C 
ATOM     74  C   UNL A   1      42.819  33.759  30.867  1.00  0.00     0.034 A 
BRANCH  61  75
ATOM     75  C   UNL A   1      46.390  28.994  29.176  1.00  0.00     0.023 A 
ATOM     76  C   UNL A   1      46.902  28.127  30.163  1.00  0.00     0.012 A 
ATOM     77  C   UNL A   1      47.173  29.279  28.040  1.00  0.00     0.148 A 
ATOM     78  C   UNL A   1      48.186  27.596  30.052  1.00  0.00     0.002 A 
ATOM     79  C   UNL A   1      48.432  28.702  27.908  1.00  0.00     0.091 A 
ATOM     80  F   UNL A   1      46.683  30.121  27.118  1.00  0.00    -0.205 F 
ATOM     81  C   UNL A   1      48.946  27.875  28.920  1.00  0.00     0.022 A 
BRANCH  79  82
ATOM     82  S   UNL A   1      49.456  28.925  26.449  1.00  0.00     0.127 S 
ATOM     83  O   UNL A   1      48.567  28.448  25.389  1.00  0.00    -0.237 OA
ATOM     84  O   UNL A   1      49.681  30.370  26.452  1.00  0.00    -0.237 OA
ATOM     85  O   UNL A   1      50.650  28.122  26.667  1.00  0.00    -0.744 OA
ENDBRANCH  79  82
ENDBRANCH  61  75
BRANCH  62  86
ATOM     86  C   UNL A   1      36.962  32.202  30.477  1.00  0.00     0.023 A 
ATOM     87  C   UNL A   1      36.406  32.029  31.762  1.00  0.00     0.012 A 
ATOM     88  C   UNL A   1      36.196  32.839  29.482  1.00  0.00     0.148 A 
ATOM     89  C   UNL A   1      35.105  32.451  32.039  1.00  0.00     0.002 A 
ATOM     90  C   UNL A   1      34.921  33.306  29.780  1.00  0.00     0.091 A 
ATOM     91  F   UNL A   1      36.736  32.987  28.264  1.00  0.00    -0.205 F 
ATOM     92  C   UNL A   1      34.367  33.098  31.054  1.00  0.00     0.022 A 
BRANCH  90  93
ATOM     93  S   UNL A   1      33.944  34.266  28.617  1.00  0.00     0.127 S 
ATOM     94  O   UNL A   1      33.595  33.261  27.617  1.00  0.00    -0.237 OA
ATOM     95  O   UNL A   1      32.832  34.714  29.455  1.00  0.00    -0.237 OA
ATOM     96  O   UNL A   1      34.820  35.336  28.158  1.00  0.00    -0.744 OA
ENDBRANCH  90  93
ENDBRANCH  62  86
BRANCH  74  97
ATOM     97  C   UNL A   1      43.255  35.123  31.329  1.00  0.00     0.023 A 
ATOM     98  C   UNL A   1      43.523  35.352  32.692  1.00  0.00     0.012 A 
ATOM     99  C   UNL A   1      43.482  36.150  30.392  1.00  0.00     0.148 A 
ATOM    100  C   UNL A   1      43.979  36.598  33.121  1.00  0.00     0.002 A 
ATOM    101  C   UNL A   1      43.987  37.370  30.819  1.00  0.00     0.091 A 
ATOM    102  F   UNL A   1      43.204  35.912  29.102  1.00  0.00    -0.205 F 
ATOM    103  C   UNL A   1      44.223  37.601  32.185  1.00  0.00     0.022 A 
BRANCH 101 104
ATOM    104  S   UNL A   1      44.432  38.680  29.676  1.00  0.00     0.127 S 
ATOM    105  O   UNL A   1      43.151  38.954  29.026  1.00  0.00    -0.237 OA
ATOM    106  O   UNL A   1      44.897  39.734  30.577  1.00  0.00    -0.237 OA
ATOM    107  O   UNL A   1      45.464  38.125  28.810  1.00  0.00    -0.744 OA
ENDBRANCH 101 104
ENDBRANCH  74  97
ENDBRANCH  48  49
ENDBRANCH  40  43
ENDBRANCH  38  39
ENDBRANCH  37  38
ENDBRANCH  36  37
ENDBRANCH   1  36
TORSDOF 20
ENDMDL
