MODEL 1
REMARK VINA RESULT:     -12.4      0.000      0.000
REMARK SMILES O=C(NCCCCCCNC(=O)[C@H]1CC[C@@H]2CCCC[C@H]2N1C(=O)N1CCSCC1)c1ccc(-c2c3nc(c(-c4cccc(S(=O)(=O)[O-])c4F)c4ccc([nH]4)c(-c4cccc(S(=O)(=O)[O-])c4F)c4nc(c(-c5cccc(S(=O)(=O)[O-])c5F)c5ccc2[nH]5)C=C4)C=C3)cc1
REMARK SMILES IDX 5 1 4 2 3 3 1 4 2 5 31 7 32 8 93 9 33 10 92 11 34 12 35 13
REMARK SMILES IDX 36 14 86 15 37 16 91 17 85 18 87 19 38 20 90 21 84 22 83 23
REMARK SMILES IDX 39 25 71 26 51 27 70 28 52 29 55 30 69 31 88 32 53 33 54 34
REMARK SMILES IDX 68 36 89 37 56 38 40 39 41 40 49 41 42 42 44 43 50 44 43 45
REMARK SMILES IDX 45 46 46 47 47 48 48 49 72 50 73 51 81 52 74 53 76 54 82 55
REMARK SMILES IDX 75 56 77 57 78 58 79 59 80 60 57 61 58 62 66 63 59 64 61 65
REMARK SMILES IDX 67 66 60 67 62 68 63 69 64 70 65 71 6 72 7 73 8 74 9 75
REMARK SMILES IDX 10 76 11 77 12 79 13 80 14 81 22 82 15 83 21 84 16 85 20 86
REMARK SMILES IDX 17 87 19 88 18 89 23 90 24 91 25 92 26 93 30 94 27 95 29 96
REMARK SMILES IDX 28 97
REMARK H PARENT 3 6 87 24 55 35 10 78
REMARK Flexibility Score: inf
ROOT
ATOM      1  C   UNL A   1      31.413  31.675  26.620  1.00  0.00     0.021 C 
ENDROOT
BRANCH   1   2
ATOM      2  C   UNL A   1      32.702  32.321  27.104  1.00  0.00     0.116 C 
BRANCH   2   3
ATOM      3  N   UNL A   1      32.489  33.695  27.521  1.00  0.00    -0.352 N 
ATOM      4  O   UNL A   1      32.675  35.448  28.928  1.00  0.00    -0.269 OA
ATOM      5  C   UNL A   1      33.119  34.375  28.534  1.00  0.00     0.251 C 
ATOM      6  H   UNL A   1      31.811  34.201  27.016  1.00  0.00     0.163 HD
BRANCH   5   7
ATOM      7  C   UNL A   1      34.324  33.779  29.147  1.00  0.00     0.039 A 
ATOM      8  C   UNL A   1      34.196  32.708  30.039  1.00  0.00     0.014 A 
ATOM      9  C   UNL A   1      35.583  34.294  28.835  1.00  0.00     0.014 A 
ATOM     10  C   UNL A   1      35.316  32.223  30.701  1.00  0.00     0.010 A 
ATOM     11  C   UNL A   1      36.718  33.742  29.434  1.00  0.00     0.010 A 
ATOM     12  C   UNL A   1      36.592  32.707  30.374  1.00  0.00    -0.014 A 
BRANCH  12  13
ATOM     13  C   UNL A   1      37.786  32.002  30.899  1.00  0.00     0.031 A 
ATOM     14  C   UNL A   1      38.484  30.933  30.111  1.00  0.00     0.074 A 
ATOM     15  C   UNL A   1      38.201  32.320  32.142  1.00  0.00     0.049 A 
ATOM     16  N   UNL A   1      39.517  30.211  30.455  1.00  0.00    -0.248 NA
ATOM     17  C   UNL A   1      37.961  30.628  28.770  1.00  0.00     0.031 C 
ATOM     18  C   UNL A   1      37.557  33.308  33.016  1.00  0.00     0.029 A 
ATOM     19  N   UNL A   1      39.238  31.839  32.899  1.00  0.00    -0.354 N 
ATOM     20  C   UNL A   1      39.741  29.333  29.403  1.00  0.00     0.074 A 
ATOM     21  C   UNL A   1      38.744  29.622  28.395  1.00  0.00     0.031 C 
ATOM     22  C   UNL A   1      38.209  33.358  34.185  1.00  0.00     0.029 A 
ATOM     23  C   UNL A   1      39.272  32.363  34.170  1.00  0.00     0.049 A 
ATOM     24  H   UNL A   1      39.892  31.183  32.565  1.00  0.00     0.167 HD
ATOM     25  C   UNL A   1      40.695  28.378  29.295  1.00  0.00     0.034 A 
ATOM     26  C   UNL A   1      40.042  32.048  35.228  1.00  0.00     0.034 A 
ATOM     27  C   UNL A   1      41.700  28.124  30.294  1.00  0.00     0.049 A 
ATOM     28  C   UNL A   1      41.088  30.985  35.067  1.00  0.00     0.074 A 
ATOM     29  C   UNL A   1      42.776  27.256  30.226  1.00  0.00     0.029 A 
ATOM     30  N   UNL A   1      41.738  28.707  31.551  1.00  0.00    -0.354 N 
ATOM     31  N   UNL A   1      41.402  30.296  33.996  1.00  0.00    -0.248 NA
ATOM     32  C   UNL A   1      41.902  30.670  36.248  1.00  0.00     0.031 C 
ATOM     33  C   UNL A   1      43.439  27.282  31.456  1.00  0.00     0.029 A 
ATOM     34  C   UNL A   1      42.794  28.190  32.280  1.00  0.00     0.049 A 
ATOM     35  H   UNL A   1      41.106  29.388  31.876  1.00  0.00     0.167 HD
ATOM     36  C   UNL A   1      42.456  29.475  34.371  1.00  0.00     0.074 A 
ATOM     37  C   UNL A   1      42.754  29.783  35.755  1.00  0.00     0.031 C 
ATOM     38  C   UNL A   1      43.103  28.533  33.644  1.00  0.00     0.034 A 
BRANCH  25  39
ATOM     39  C   UNL A   1      40.732  27.532  28.050  1.00  0.00     0.023 A 
ATOM     40  C   UNL A   1      41.449  27.977  26.922  1.00  0.00     0.012 A 
ATOM     41  C   UNL A   1      40.171  26.239  28.049  1.00  0.00     0.148 A 
ATOM     42  C   UNL A   1      41.599  27.151  25.807  1.00  0.00     0.002 A 
ATOM     43  C   UNL A   1      40.358  25.408  26.951  1.00  0.00     0.091 A 
ATOM     44  F   UNL A   1      39.480  25.843  29.127  1.00  0.00    -0.205 F 
ATOM     45  C   UNL A   1      41.067  25.865  25.827  1.00  0.00     0.022 A 
BRANCH  43  46
ATOM     46  S   UNL A   1      39.781  23.707  26.907  1.00  0.00     0.127 S 
ATOM     47  O   UNL A   1      40.286  23.194  28.181  1.00  0.00    -0.237 OA
ATOM     48  O   UNL A   1      38.329  23.877  26.852  1.00  0.00    -0.237 OA
ATOM     49  O   UNL A   1      40.374  23.110  25.719  1.00  0.00    -0.744 OA
ENDBRANCH  43  46
ENDBRANCH  25  39
BRANCH  26  50
ATOM     50  C   UNL A   1      39.836  32.739  36.531  1.00  0.00     0.023 A 
ATOM     51  C   UNL A   1      40.622  33.859  36.859  1.00  0.00     0.012 A 
ATOM     52  C   UNL A   1      38.850  32.302  37.436  1.00  0.00     0.148 A 
ATOM     53  C   UNL A   1      40.453  34.509  38.082  1.00  0.00     0.002 A 
ATOM     54  C   UNL A   1      38.643  32.993  38.623  1.00  0.00     0.091 A 
ATOM     55  F   UNL A   1      38.122  31.222  37.114  1.00  0.00    -0.205 F 
ATOM     56  C   UNL A   1      39.458  34.083  38.958  1.00  0.00     0.022 A 
BRANCH  54  57
ATOM     57  S   UNL A   1      37.285  32.596  39.730  1.00  0.00     0.127 S 
ATOM     58  O   UNL A   1      37.660  31.265  40.198  1.00  0.00    -0.237 OA
ATOM     59  O   UNL A   1      37.390  33.655  40.735  1.00  0.00    -0.237 OA
ATOM     60  O   UNL A   1      36.084  32.672  38.909  1.00  0.00    -0.744 OA
ENDBRANCH  54  57
ENDBRANCH  26  50
BRANCH  38  61
ATOM     61  C   UNL A   1      44.205  27.768  34.328  1.00  0.00     0.023 A 
ATOM     62  C   UNL A   1      45.492  28.335  34.414  1.00  0.00     0.012 A 
ATOM     63  C   UNL A   1      43.950  26.527  34.940  1.00  0.00     0.148 A 
ATOM     64  C   UNL A   1      46.518  27.662  35.074  1.00  0.00     0.002 A 
ATOM     65  C   UNL A   1      44.964  25.886  35.641  1.00  0.00     0.091 A 
ATOM     66  F   UNL A   1      42.721  26.000  34.831  1.00  0.00    -0.205 F 
ATOM     67  C   UNL A   1      46.250  26.445  35.698  1.00  0.00     0.022 A 
BRANCH  65  68
ATOM     68  S   UNL A   1      44.694  24.363  36.553  1.00  0.00     0.127 S 
ATOM     69  O   UNL A   1      46.062  23.884  36.745  1.00  0.00    -0.237 OA
ATOM     70  O   UNL A   1      44.039  24.844  37.769  1.00  0.00    -0.237 OA
ATOM     71  O   UNL A   1      43.858  23.526  35.703  1.00  0.00    -0.744 OA
ENDBRANCH  65  68
ENDBRANCH  38  61
ENDBRANCH  12  13
ENDBRANCH   5   7
ENDBRANCH   2   3
ENDBRANCH   1   2
BRANCH   1  72
ATOM     72  C   UNL A   1      31.610  30.297  25.997  1.00  0.00     0.002 C 
BRANCH  72  73
ATOM     73  C   UNL A   1      32.356  29.297  26.884  1.00  0.00     0.002 C 
BRANCH  73  74
ATOM     74  C   UNL A   1      31.564  28.036  27.252  1.00  0.00     0.021 C 
BRANCH  74  75
ATOM     75  C   UNL A   1      32.143  26.740  26.689  1.00  0.00     0.116 C 
BRANCH  75  76
ATOM     76  N   UNL A   1      31.302  25.592  26.986  1.00  0.00    -0.354 N 
ATOM     77  C   UNL A   1      31.533  24.252  26.880  1.00  0.00     0.242 C 
ATOM     78  H   UNL A   1      30.407  25.823  27.323  1.00  0.00     0.163 HD
ATOM     79  O   UNL A   1      30.626  23.492  27.231  1.00  0.00    -0.273 OA
BRANCH  77  80
ATOM     80  C   UNL A   1      32.895  23.732  26.386  1.00  0.00     0.176 C 
ATOM     81  C   UNL A   1      32.929  22.252  26.809  1.00  0.00     0.036 C 
ATOM     82  N   UNL A   1      33.440  23.891  25.008  1.00  0.00    -0.309 N 
ATOM     83  C   UNL A   1      34.358  21.745  26.801  1.00  0.00     0.008 C 
ATOM     84  C   UNL A   1      34.856  23.389  24.903  1.00  0.00     0.091 C 
ATOM     85  C   UNL A   1      34.969  21.919  25.410  1.00  0.00     0.012 C 
ATOM     86  C   UNL A   1      35.574  23.497  23.538  1.00  0.00     0.025 C 
ATOM     87  C   UNL A   1      36.425  21.434  25.450  1.00  0.00     0.006 C 
ATOM     88  C   UNL A   1      37.019  22.997  23.585  1.00  0.00     0.002 C 
ATOM     89  C   UNL A   1      37.097  21.563  24.093  1.00  0.00     0.000 C 
BRANCH  82  90
ATOM     90  C   UNL A   1      32.702  24.175  23.863  1.00  0.00     0.321 C 
ATOM     91  O   UNL A   1      32.397  23.329  23.022  1.00  0.00    -0.248 OA
ATOM     92  N   UNL A   1      32.270  25.472  23.652  1.00  0.00    -0.323 N 
ATOM     93  C   UNL A   1      30.938  25.559  23.046  1.00  0.00     0.132 C 
ATOM     94  C   UNL A   1      33.224  26.444  23.109  1.00  0.00     0.132 C 
ATOM     95  C   UNL A   1      30.248  26.899  23.258  1.00  0.00     0.091 C 
ATOM     96  C   UNL A   1      32.786  27.912  23.216  1.00  0.00     0.091 C 
ATOM     97  S   UNL A   1      31.169  28.243  22.447  1.00  0.00    -0.158 SA
ENDBRANCH  82  90
ENDBRANCH  77  80
ENDBRANCH  75  76
ENDBRANCH  74  75
ENDBRANCH  73  74
ENDBRANCH  72  73
ENDBRANCH   1  72
TORSDOF 17
ENDMDL
MODEL 2
REMARK VINA RESULT:     -12.0      5.718     11.070
REMARK SMILES O=C(NCCCCCCNC(=O)[C@H]1CC[C@@H]2CCCC[C@H]2N1C(=O)N1CCSCC1)c1ccc(-c2c3nc(c(-c4cccc(S(=O)(=O)[O-])c4F)c4ccc([nH]4)c(-c4cccc(S(=O)(=O)[O-])c4F)c4nc(c(-c5cccc(S(=O)(=O)[O-])c5F)c5ccc2[nH]5)C=C4)C=C3)cc1
REMARK SMILES IDX 5 1 4 2 3 3 1 4 2 5 31 7 32 8 93 9 33 10 92 11 34 12 35 13
REMARK SMILES IDX 36 14 86 15 37 16 91 17 85 18 87 19 38 20 90 21 84 22 83 23
REMARK SMILES IDX 39 25 71 26 51 27 70 28 52 29 55 30 69 31 88 32 53 33 54 34
REMARK SMILES IDX 68 36 89 37 56 38 40 39 41 40 49 41 42 42 44 43 50 44 43 45
REMARK SMILES IDX 45 46 46 47 47 48 48 49 72 50 73 51 81 52 74 53 76 54 82 55
REMARK SMILES IDX 75 56 77 57 78 58 79 59 80 60 57 61 58 62 66 63 59 64 61 65
REMARK SMILES IDX 67 66 60 67 62 68 63 69 64 70 65 71 6 72 7 73 8 74 9 75
REMARK SMILES IDX 10 76 11 77 12 79 13 80 14 81 22 82 15 83 21 84 16 85 20 86
REMARK SMILES IDX 17 87 19 88 18 89 23 90 24 91 25 92 26 93 30 94 27 95 29 96
REMARK SMILES IDX 28 97
REMARK H PARENT 3 6 87 24 55 35 10 78
REMARK Flexibility Score: inf
ROOT
ATOM      1  C   UNL A   1      37.795  19.642  25.003  1.00  0.00     0.021 C 
ENDROOT
BRANCH   1   2
ATOM      2  C   UNL A   1      39.018  20.187  25.724  1.00  0.00     0.116 C 
BRANCH   2   3
ATOM      3  N   UNL A   1      40.063  19.186  25.839  1.00  0.00    -0.352 N 
ATOM      4  O   UNL A   1      42.201  18.469  25.873  1.00  0.00    -0.269 OA
ATOM      5  C   UNL A   1      41.406  19.390  26.033  1.00  0.00     0.251 C 
ATOM      6  H   UNL A   1      39.773  18.247  25.769  1.00  0.00     0.163 HD
BRANCH   5   7
ATOM      7  C   UNL A   1      41.872  20.739  26.417  1.00  0.00     0.039 A 
ATOM      8  C   UNL A   1      42.060  21.718  25.434  1.00  0.00     0.014 A 
ATOM      9  C   UNL A   1      42.127  21.025  27.758  1.00  0.00     0.014 A 
ATOM     10  C   UNL A   1      42.604  22.947  25.779  1.00  0.00     0.010 A 
ATOM     11  C   UNL A   1      42.588  22.294  28.115  1.00  0.00     0.010 A 
ATOM     12  C   UNL A   1      42.834  23.263  27.128  1.00  0.00    -0.014 A 
BRANCH  12  13
ATOM     13  C   UNL A   1      43.168  24.659  27.494  1.00  0.00     0.031 A 
ATOM     14  C   UNL A   1      42.143  25.596  28.060  1.00  0.00     0.074 A 
ATOM     15  C   UNL A   1      44.426  25.083  27.254  1.00  0.00     0.049 A 
ATOM     16  N   UNL A   1      42.283  26.852  28.395  1.00  0.00    -0.248 NA
ATOM     17  C   UNL A   1      40.787  25.067  28.275  1.00  0.00     0.031 C 
ATOM     18  C   UNL A   1      45.488  24.266  26.653  1.00  0.00     0.029 A 
ATOM     19  N   UNL A   1      45.025  26.299  27.457  1.00  0.00    -0.354 N 
ATOM     20  C   UNL A   1      41.031  27.281  28.813  1.00  0.00     0.074 A 
ATOM     21  C   UNL A   1      40.139  26.145  28.705  1.00  0.00     0.031 C 
ATOM     22  C   UNL A   1      46.600  25.001  26.535  1.00  0.00     0.029 A 
ATOM     23  C   UNL A   1      46.317  26.355  26.988  1.00  0.00     0.049 A 
ATOM     24  H   UNL A   1      44.574  27.056  27.895  1.00  0.00     0.167 HD
ATOM     25  C   UNL A   1      40.666  28.510  29.248  1.00  0.00     0.034 A 
ATOM     26  C   UNL A   1      47.168  27.392  26.887  1.00  0.00     0.034 A 
ATOM     27  C   UNL A   1      41.573  29.621  29.379  1.00  0.00     0.049 A 
ATOM     28  C   UNL A   1      46.727  28.738  27.382  1.00  0.00     0.074 A 
ATOM     29  C   UNL A   1      41.323  30.872  29.917  1.00  0.00     0.029 A 
ATOM     30  N   UNL A   1      42.888  29.631  28.942  1.00  0.00    -0.354 N 
ATOM     31  N   UNL A   1      45.593  29.075  27.947  1.00  0.00    -0.248 NA
ATOM     32  C   UNL A   1      47.686  29.842  27.247  1.00  0.00     0.031 C 
ATOM     33  C   UNL A   1      42.473  31.652  29.766  1.00  0.00     0.029 A 
ATOM     34  C   UNL A   1      43.450  30.877  29.163  1.00  0.00     0.049 A 
ATOM     35  H   UNL A   1      43.353  28.865  28.535  1.00  0.00     0.167 HD
ATOM     36  C   UNL A   1      45.707  30.425  28.246  1.00  0.00     0.074 A 
ATOM     37  C   UNL A   1      47.035  30.834  27.837  1.00  0.00     0.031 C 
ATOM     38  C   UNL A   1      44.786  31.259  28.785  1.00  0.00     0.034 A 
BRANCH  25  39
ATOM     39  C   UNL A   1      39.231  28.742  29.639  1.00  0.00     0.023 A 
ATOM     40  C   UNL A   1      38.810  28.460  30.954  1.00  0.00     0.012 A 
ATOM     41  C   UNL A   1      38.339  29.365  28.744  1.00  0.00     0.148 A 
ATOM     42  C   UNL A   1      37.518  28.787  31.369  1.00  0.00     0.002 A 
ATOM     43  C   UNL A   1      37.067  29.723  29.176  1.00  0.00     0.091 A 
ATOM     44  F   UNL A   1      38.757  29.609  27.494  1.00  0.00    -0.205 F 
ATOM     45  C   UNL A   1      36.654  29.429  30.486  1.00  0.00     0.022 A 
BRANCH  43  46
ATOM     46  S   UNL A   1      35.905  30.623  28.144  1.00  0.00     0.127 S 
ATOM     47  O   UNL A   1      36.675  31.823  27.814  1.00  0.00    -0.237 OA
ATOM     48  O   UNL A   1      35.710  29.700  27.026  1.00  0.00    -0.237 OA
ATOM     49  O   UNL A   1      34.725  30.849  28.966  1.00  0.00    -0.744 OA
ENDBRANCH  43  46
ENDBRANCH  25  39
BRANCH  26  50
ATOM     50  C   UNL A   1      48.513  27.194  26.280  1.00  0.00     0.023 A 
ATOM     51  C   UNL A   1      49.574  26.715  27.071  1.00  0.00     0.012 A 
ATOM     52  C   UNL A   1      48.739  27.460  24.915  1.00  0.00     0.148 A 
ATOM     53  C   UNL A   1      50.844  26.538  26.523  1.00  0.00     0.002 A 
ATOM     54  C   UNL A   1      49.990  27.221  24.360  1.00  0.00     0.091 A 
ATOM     55  F   UNL A   1      47.722  27.933  24.180  1.00  0.00    -0.205 F 
ATOM     56  C   UNL A   1      51.049  26.781  25.166  1.00  0.00     0.022 A 
BRANCH  54  57
ATOM     57  S   UNL A   1      50.291  27.367  22.596  1.00  0.00     0.127 S 
ATOM     58  O   UNL A   1      50.147  28.805  22.386  1.00  0.00    -0.237 OA
ATOM     59  O   UNL A   1      51.658  26.860  22.475  1.00  0.00    -0.237 OA
ATOM     60  O   UNL A   1      49.286  26.524  21.962  1.00  0.00    -0.744 OA
ENDBRANCH  54  57
ENDBRANCH  26  50
BRANCH  38  61
ATOM     61  C   UNL A   1      45.184  32.698  28.975  1.00  0.00     0.023 A 
ATOM     62  C   UNL A   1      45.838  33.087  30.162  1.00  0.00     0.012 A 
ATOM     63  C   UNL A   1      44.973  33.646  27.956  1.00  0.00     0.148 A 
ATOM     64  C   UNL A   1      46.248  34.406  30.343  1.00  0.00     0.002 A 
ATOM     65  C   UNL A   1      45.431  34.947  28.122  1.00  0.00     0.091 A 
ATOM     66  F   UNL A   1      44.334  33.256  26.842  1.00  0.00    -0.205 F 
ATOM     67  C   UNL A   1      46.057  35.332  29.319  1.00  0.00     0.022 A 
BRANCH  65  68
ATOM     68  S   UNL A   1      45.313  36.186  26.828  1.00  0.00     0.127 S 
ATOM     69  O   UNL A   1      46.021  35.535  25.727  1.00  0.00    -0.237 OA
ATOM     70  O   UNL A   1      43.867  36.299  26.642  1.00  0.00    -0.237 OA
ATOM     71  O   UNL A   1      45.953  37.383  27.355  1.00  0.00    -0.744 OA
ENDBRANCH  65  68
ENDBRANCH  38  61
ENDBRANCH  12  13
ENDBRANCH   5   7
ENDBRANCH   2   3
ENDBRANCH   1   2
BRANCH   1  72
ATOM     72  C   UNL A   1      36.654  20.647  24.876  1.00  0.00     0.002 C 
BRANCH  72  73
ATOM     73  C   UNL A   1      37.102  22.098  24.686  1.00  0.00     0.002 C 
BRANCH  73  74
ATOM     74  C   UNL A   1      36.510  22.806  23.462  1.00  0.00     0.021 C 
BRANCH  74  75
ATOM     75  C   UNL A   1      35.347  23.745  23.775  1.00  0.00     0.116 C 
BRANCH  75  76
ATOM     76  N   UNL A   1      34.507  23.980  22.613  1.00  0.00    -0.354 N 
ATOM     77  C   UNL A   1      33.615  24.974  22.329  1.00  0.00     0.242 C 
ATOM     78  H   UNL A   1      34.596  23.302  21.906  1.00  0.00     0.163 HD
ATOM     79  O   UNL A   1      33.048  24.929  21.233  1.00  0.00    -0.273 OA
BRANCH  77  80
ATOM     80  C   UNL A   1      33.380  26.119  23.329  1.00  0.00     0.176 C 
ATOM     81  C   UNL A   1      32.681  27.220  22.510  1.00  0.00     0.036 C 
ATOM     82  N   UNL A   1      32.744  25.987  24.671  1.00  0.00    -0.309 N 
ATOM     83  C   UNL A   1      32.799  28.551  23.227  1.00  0.00     0.008 C 
ATOM     84  C   UNL A   1      32.798  27.277  25.447  1.00  0.00     0.091 C 
ATOM     85  C   UNL A   1      32.187  28.452  24.625  1.00  0.00     0.012 C 
ATOM     86  C   UNL A   1      32.193  27.303  26.869  1.00  0.00     0.025 C 
ATOM     87  C   UNL A   1      32.362  29.802  25.333  1.00  0.00     0.006 C 
ATOM     88  C   UNL A   1      32.359  28.658  27.561  1.00  0.00     0.002 C 
ATOM     89  C   UNL A   1      31.761  29.785  26.730  1.00  0.00     0.000 C 
BRANCH  82  90
ATOM     90  C   UNL A   1      31.932  24.940  25.092  1.00  0.00     0.321 C 
ATOM     91  O   UNL A   1      30.703  25.007  25.141  1.00  0.00    -0.248 OA
ATOM     92  N   UNL A   1      32.522  23.745  25.468  1.00  0.00    -0.323 N 
ATOM     93  C   UNL A   1      31.754  22.560  25.077  1.00  0.00     0.132 C 
ATOM     94  C   UNL A   1      33.104  23.649  26.810  1.00  0.00     0.132 C 
ATOM     95  C   UNL A   1      32.578  21.281  25.021  1.00  0.00     0.091 C 
ATOM     96  C   UNL A   1      34.021  22.438  27.033  1.00  0.00     0.091 C 
ATOM     97  S   UNL A   1      33.219  20.845  26.668  1.00  0.00    -0.158 SA
ENDBRANCH  82  90
ENDBRANCH  77  80
ENDBRANCH  75  76
ENDBRANCH  74  75
ENDBRANCH  73  74
ENDBRANCH  72  73
ENDBRANCH   1  72
TORSDOF 17
ENDMDL
MODEL 3
REMARK VINA RESULT:     -11.9      1.564      7.521
REMARK SMILES O=C(NCCCCCCNC(=O)[C@H]1CC[C@@H]2CCCC[C@H]2N1C(=O)N1CCSCC1)c1ccc(-c2c3nc(c(-c4cccc(S(=O)(=O)[O-])c4F)c4ccc([nH]4)c(-c4cccc(S(=O)(=O)[O-])c4F)c4nc(c(-c5cccc(S(=O)(=O)[O-])c5F)c5ccc2[nH]5)C=C4)C=C3)cc1
REMARK SMILES IDX 5 1 4 2 3 3 1 4 2 5 31 7 32 8 93 9 33 10 92 11 34 12 35 13
REMARK SMILES IDX 36 14 86 15 37 16 91 17 85 18 87 19 38 20 90 21 84 22 83 23
REMARK SMILES IDX 39 25 71 26 51 27 70 28 52 29 55 30 69 31 88 32 53 33 54 34
REMARK SMILES IDX 68 36 89 37 56 38 40 39 41 40 49 41 42 42 44 43 50 44 43 45
REMARK SMILES IDX 45 46 46 47 47 48 48 49 72 50 73 51 81 52 74 53 76 54 82 55
REMARK SMILES IDX 75 56 77 57 78 58 79 59 80 60 57 61 58 62 66 63 59 64 61 65
REMARK SMILES IDX 67 66 60 67 62 68 63 69 64 70 65 71 6 72 7 73 8 74 9 75
REMARK SMILES IDX 10 76 11 77 12 79 13 80 14 81 22 82 15 83 21 84 16 85 20 86
REMARK SMILES IDX 17 87 19 88 18 89 23 90 24 91 25 92 26 93 30 94 27 95 29 96
REMARK SMILES IDX 28 97
REMARK H PARENT 3 6 87 24 55 35 10 78
REMARK Flexibility Score: inf
ROOT
ATOM      1  C   UNL A   1      31.640  31.769  26.661  1.00  0.00     0.021 C 
ENDROOT
BRANCH   1   2
ATOM      2  C   UNL A   1      32.862  32.409  27.301  1.00  0.00     0.116 C 
BRANCH   2   3
ATOM      3  N   UNL A   1      32.636  33.809  27.608  1.00  0.00    -0.352 N 
ATOM      4  O   UNL A   1      32.725  35.649  28.910  1.00  0.00    -0.269 OA
ATOM      5  C   UNL A   1      33.184  34.547  28.627  1.00  0.00     0.251 C 
ATOM      6  H   UNL A   1      32.014  34.288  27.012  1.00  0.00     0.163 HD
BRANCH   5   7
ATOM      7  C   UNL A   1      34.320  33.980  29.383  1.00  0.00     0.039 A 
ATOM      8  C   UNL A   1      34.080  33.152  30.487  1.00  0.00     0.014 A 
ATOM      9  C   UNL A   1      35.626  34.279  28.994  1.00  0.00     0.014 A 
ATOM     10  C   UNL A   1      35.142  32.712  31.264  1.00  0.00     0.010 A 
ATOM     11  C   UNL A   1      36.697  33.759  29.724  1.00  0.00     0.010 A 
ATOM     12  C   UNL A   1      36.463  32.976  30.867  1.00  0.00    -0.014 A 
BRANCH  12  13
ATOM     13  C   UNL A   1      37.575  32.284  31.560  1.00  0.00     0.031 A 
ATOM     14  C   UNL A   1      38.103  32.762  32.881  1.00  0.00     0.074 A 
ATOM     15  C   UNL A   1      38.138  31.229  30.938  1.00  0.00     0.049 A 
ATOM     16  N   UNL A   1      39.090  32.277  33.587  1.00  0.00    -0.248 NA
ATOM     17  C   UNL A   1      37.450  33.932  33.489  1.00  0.00     0.031 C 
ATOM     18  C   UNL A   1      37.735  30.716  29.623  1.00  0.00     0.029 A 
ATOM     19  N   UNL A   1      39.177  30.412  31.304  1.00  0.00    -0.354 N 
ATOM     20  C   UNL A   1      39.214  33.105  34.695  1.00  0.00     0.074 A 
ATOM     21  C   UNL A   1      38.187  34.119  34.579  1.00  0.00     0.031 C 
ATOM     22  C   UNL A   1      38.515  29.679  29.293  1.00  0.00     0.029 A 
ATOM     23  C   UNL A   1      39.513  29.493  30.337  1.00  0.00     0.049 A 
ATOM     24  H   UNL A   1      39.635  30.478  32.172  1.00  0.00     0.167 HD
ATOM     25  C   UNL A   1      40.102  33.019  35.713  1.00  0.00     0.034 A 
ATOM     26  C   UNL A   1      40.540  28.627  30.271  1.00  0.00     0.034 A 
ATOM     27  C   UNL A   1      41.097  31.984  35.830  1.00  0.00     0.049 A 
ATOM     28  C   UNL A   1      41.502  28.560  31.420  1.00  0.00     0.074 A 
ATOM     29  C   UNL A   1      41.967  31.747  36.881  1.00  0.00     0.029 A 
ATOM     30  N   UNL A   1      41.379  31.038  34.858  1.00  0.00    -0.354 N 
ATOM     31  N   UNL A   1      41.486  29.232  32.546  1.00  0.00    -0.248 NA
ATOM     32  C   UNL A   1      42.611  27.603  31.304  1.00  0.00     0.031 C 
ATOM     33  C   UNL A   1      42.804  30.685  36.525  1.00  0.00     0.029 A 
ATOM     34  C   UNL A   1      42.434  30.240  35.266  1.00  0.00     0.049 A 
ATOM     35  H   UNL A   1      40.900  30.947  34.003  1.00  0.00     0.167 HD
ATOM     36  C   UNL A   1      42.573  28.771  33.276  1.00  0.00     0.074 A 
ATOM     37  C   UNL A   1      43.201  27.735  32.483  1.00  0.00     0.031 C 
ATOM     38  C   UNL A   1      43.026  29.187  34.483  1.00  0.00     0.034 A 
BRANCH  25  39
ATOM     39  C   UNL A   1      40.049  34.050  36.808  1.00  0.00     0.023 A 
ATOM     40  C   UNL A   1      40.420  35.382  36.534  1.00  0.00     0.012 A 
ATOM     41  C   UNL A   1      39.501  33.728  38.066  1.00  0.00     0.148 A 
ATOM     42  C   UNL A   1      40.257  36.375  37.500  1.00  0.00     0.002 A 
ATOM     43  C   UNL A   1      39.306  34.730  39.010  1.00  0.00     0.091 A 
ATOM     44  F   UNL A   1      39.170  32.452  38.309  1.00  0.00    -0.205 F 
ATOM     45  C   UNL A   1      39.688  36.052  38.730  1.00  0.00     0.022 A 
BRANCH  43  46
ATOM     46  S   UNL A   1      38.509  34.435  40.592  1.00  0.00     0.127 S 
ATOM     47  O   UNL A   1      38.268  35.801  41.058  1.00  0.00    -0.237 OA
ATOM     48  O   UNL A   1      37.305  33.705  40.198  1.00  0.00    -0.237 OA
ATOM     49  O   UNL A   1      39.459  33.668  41.386  1.00  0.00    -0.744 OA
ENDBRANCH  43  46
ENDBRANCH  25  39
BRANCH  26  50
ATOM     50  C   UNL A   1      40.713  27.767  29.067  1.00  0.00     0.023 A 
ATOM     51  C   UNL A   1      39.973  26.576  28.947  1.00  0.00     0.012 A 
ATOM     52  C   UNL A   1      41.594  28.137  28.032  1.00  0.00     0.148 A 
ATOM     53  C   UNL A   1      40.133  25.752  27.833  1.00  0.00     0.002 A 
ATOM     54  C   UNL A   1      41.701  27.344  26.897  1.00  0.00     0.091 A 
ATOM     55  F   UNL A   1      42.304  29.266  28.172  1.00  0.00    -0.205 F 
ATOM     56  C   UNL A   1      40.989  26.140  26.804  1.00  0.00     0.022 A 
BRANCH  54  57
ATOM     57  S   UNL A   1      42.666  27.853  25.470  1.00  0.00     0.127 S 
ATOM     58  O   UNL A   1      42.571  26.677  24.610  1.00  0.00    -0.237 OA
ATOM     59  O   UNL A   1      41.922  29.022  24.999  1.00  0.00    -0.237 OA
ATOM     60  O   UNL A   1      43.991  28.161  25.990  1.00  0.00    -0.744 OA
ENDBRANCH  54  57
ENDBRANCH  26  50
BRANCH  38  61
ATOM     61  C   UNL A   1      44.258  28.515  35.028  1.00  0.00     0.023 A 
ATOM     62  C   UNL A   1      45.530  29.016  34.688  1.00  0.00     0.012 A 
ATOM     63  C   UNL A   1      44.153  27.435  35.925  1.00  0.00     0.148 A 
ATOM     64  C   UNL A   1      46.682  28.433  35.210  1.00  0.00     0.002 A 
ATOM     65  C   UNL A   1      45.305  26.892  36.482  1.00  0.00     0.091 A 
ATOM     66  F   UNL A   1      42.932  26.965  36.221  1.00  0.00    -0.205 F 
ATOM     67  C   UNL A   1      46.569  27.380  36.116  1.00  0.00     0.022 A 
BRANCH  65  68
ATOM     68  S   UNL A   1      45.258  25.597  37.725  1.00  0.00     0.127 S 
ATOM     69  O   UNL A   1      44.714  24.473  36.965  1.00  0.00    -0.237 OA
ATOM     70  O   UNL A   1      46.669  25.465  38.085  1.00  0.00    -0.237 OA
ATOM     71  O   UNL A   1      44.403  26.094  38.794  1.00  0.00    -0.744 OA
ENDBRANCH  65  68
ENDBRANCH  38  61
ENDBRANCH  12  13
ENDBRANCH   5   7
ENDBRANCH   2   3
ENDBRANCH   1   2
BRANCH   1  72
ATOM     72  C   UNL A   1      31.861  30.329  26.209  1.00  0.00     0.002 C 
BRANCH  72  73
ATOM     73  C   UNL A   1      32.534  29.431  27.250  1.00  0.00     0.002 C 
BRANCH  73  74
ATOM     74  C   UNL A   1      31.766  28.150  27.598  1.00  0.00     0.021 C 
BRANCH  74  75
ATOM     75  C   UNL A   1      31.959  27.008  26.603  1.00  0.00     0.116 C 
BRANCH  75  76
ATOM     76  N   UNL A   1      31.054  25.900  26.861  1.00  0.00    -0.354 N 
ATOM     77  C   UNL A   1      31.232  24.550  26.775  1.00  0.00     0.242 C 
ATOM     78  H   UNL A   1      30.154  26.172  27.149  1.00  0.00     0.163 HD
ATOM     79  O   UNL A   1      30.275  23.833  27.082  1.00  0.00    -0.273 OA
BRANCH  77  80
ATOM     80  C   UNL A   1      32.594  23.968  26.357  1.00  0.00     0.176 C 
ATOM     81  C   UNL A   1      32.522  22.480  26.744  1.00  0.00     0.036 C 
ATOM     82  N   UNL A   1      33.236  24.127  25.022  1.00  0.00    -0.309 N 
ATOM     83  C   UNL A   1      33.919  21.895  26.814  1.00  0.00     0.008 C 
ATOM     84  C   UNL A   1      34.628  23.552  24.996  1.00  0.00     0.091 C 
ATOM     85  C   UNL A   1      34.629  22.067  25.471  1.00  0.00     0.012 C 
ATOM     86  C   UNL A   1      35.439  23.650  23.683  1.00  0.00     0.025 C 
ATOM     87  C   UNL A   1      36.052  21.503  25.593  1.00  0.00     0.006 C 
ATOM     88  C   UNL A   1      36.850  23.072  23.811  1.00  0.00     0.002 C 
ATOM     89  C   UNL A   1      36.818  21.625  24.286  1.00  0.00     0.000 C 
BRANCH  82  90
ATOM     90  C   UNL A   1      32.592  24.476  23.840  1.00  0.00     0.321 C 
ATOM     91  O   UNL A   1      32.275  23.663  22.970  1.00  0.00    -0.248 OA
ATOM     92  N   UNL A   1      32.271  25.804  23.620  1.00  0.00    -0.323 N 
ATOM     93  C   UNL A   1      30.988  25.996  22.938  1.00  0.00     0.132 C 
ATOM     94  C   UNL A   1      33.326  26.706  23.148  1.00  0.00     0.132 C 
ATOM     95  C   UNL A   1      30.388  27.382  23.127  1.00  0.00     0.091 C 
ATOM     96  C   UNL A   1      32.992  28.202  23.249  1.00  0.00     0.091 C 
ATOM     97  S   UNL A   1      31.454  28.661  22.390  1.00  0.00    -0.158 SA
ENDBRANCH  82  90
ENDBRANCH  77  80
ENDBRANCH  75  76
ENDBRANCH  74  75
ENDBRANCH  73  74
ENDBRANCH  72  73
ENDBRANCH   1  72
TORSDOF 17
ENDMDL
