MODEL 1
REMARK VINA RESULT:     -12.2      0.000      0.000
REMARK SMILES Cn1cc(-c2cc(C(F)(F)F)c3c(C4CC4)nn(CC(=O)NCCCCCCNC(=O)c4ccc(-c5c6nc(c(-c7cccc(S(=O)(=O)[O-])c7F)c7ccc([nH]7)c(-c7cccc(S(=O)(=O)[O-])c7F)c7nc(c(-c8cccc(S(=O)(=O)[O-])c8F)c8ccc5[nH]8)C=C7)C=C6)cc4)c3n2)cn1
REMARK SMILES IDX 26 1 25 2 24 3 23 4 22 5 20 6 21 7 19 9 18 10 5 11 6 12
REMARK SMILES IDX 96 13 7 14 95 15 12 16 13 17 17 18 4 19 1 20 2 21 3 22 98 23
REMARK SMILES IDX 97 24 8 25 9 26 10 27 11 28 14 29 15 30 16 31 27 32 28 33
REMARK SMILES IDX 29 34 30 35 31 37 32 38 33 39 94 40 34 41 93 42 35 43 36 44
REMARK SMILES IDX 37 45 87 46 38 47 92 48 86 49 88 50 39 51 91 52 85 53 84 54
REMARK SMILES IDX 40 56 72 57 52 58 71 59 53 60 56 61 70 62 89 63 54 64 55 65
REMARK SMILES IDX 69 67 90 68 57 69 41 70 42 71 50 72 43 73 45 74 51 75 44 76
REMARK SMILES IDX 46 77 47 78 48 79 49 80 73 81 74 82 82 83 75 84 77 85 83 86
REMARK SMILES IDX 76 87 78 88 79 89 80 90 81 91 58 92 59 93 67 94 60 95 62 96
REMARK SMILES IDX 68 97 61 98 63 99 64 100 65 101 66 102
REMARK H PARENT 22 8 29 36 88 55 56 66
REMARK Flexibility Score: inf
ROOT
ATOM      1  C   UNL A   1      33.471  29.388  26.432  1.00  0.00     0.002 C 
ENDROOT
BRANCH   1   2
ATOM      2  C   UNL A   1      32.913  28.233  27.275  1.00  0.00     0.002 C 
BRANCH   2   3
ATOM      3  C   UNL A   1      31.427  27.959  27.050  1.00  0.00     0.021 C 
BRANCH   3   4
ATOM      4  C   UNL A   1      31.182  26.868  26.015  1.00  0.00     0.116 C 
BRANCH   4   5
ATOM      5  N   UNL A   1      30.643  25.673  26.626  1.00  0.00    -0.354 N 
ATOM      6  C   UNL A   1      31.320  24.506  26.835  1.00  0.00     0.241 C 
ATOM      7  O   UNL A   1      30.752  23.557  27.376  1.00  0.00    -0.273 OA
ATOM      8  H   UNL A   1      29.704  25.703  26.916  1.00  0.00     0.163 HD
BRANCH   6   9
ATOM      9  C   UNL A   1      32.780  24.488  26.513  1.00  0.00     0.246 C 
BRANCH   9  10
ATOM     10  N   UNL A   1      33.312  23.165  26.245  1.00  0.00    -0.237 N 
ATOM     11  C   UNL A   1      32.260  22.407  23.155  1.00  0.00     0.077 A 
ATOM     12  C   UNL A   1      32.786  21.135  22.945  1.00  0.00     0.043 A 
ATOM     13  N   UNL A   1      31.846  22.740  24.399  1.00  0.00    -0.228 NA
ATOM     14  C   UNL A   1      33.310  20.426  24.057  1.00  0.00     0.071 A 
ATOM     15  C   UNL A   1      32.799  22.366  25.272  1.00  0.00     0.159 A 
ATOM     16  C   UNL A   1      33.652  21.286  25.116  1.00  0.00     0.055 A 
ATOM     17  C   UNL A   1      34.762  21.641  25.935  1.00  0.00     0.076 A 
ATOM     18  N   UNL A   1      34.521  22.747  26.673  1.00  0.00    -0.175 NA
BRANCH  11  19
ATOM     19  C   UNL A   1      32.928  23.617  22.600  1.00  0.00     0.038 A 
ATOM     20  C   UNL A   1      31.536  26.807  21.825  1.00  0.00     0.173 C 
ATOM     21  N   UNL A   1      32.445  25.681  21.947  1.00  0.00    -0.275 N 
ATOM     22  C   UNL A   1      32.575  24.886  23.058  1.00  0.00     0.118 A 
ATOM     23  N   UNL A   1      32.976  25.118  20.843  1.00  0.00    -0.181 NA
ATOM     24  C   UNL A   1      33.194  23.850  21.221  1.00  0.00     0.145 A 
ENDBRANCH  11  19
BRANCH  14  25
ATOM     25  C   UNL A   1      33.181  18.929  24.184  1.00  0.00     0.417 C 
ATOM     26  F   UNL A   1      32.166  18.494  24.956  1.00  0.00    -0.166 F 
ATOM     27  F   UNL A   1      32.999  18.359  22.957  1.00  0.00    -0.166 F 
ATOM     28  F   UNL A   1      34.313  18.363  24.686  1.00  0.00    -0.166 F 
ENDBRANCH  14  25
BRANCH  17  29
ATOM     29  C   UNL A   1      36.207  21.145  25.846  1.00  0.00     0.041 C 
ATOM     30  C   UNL A   1      36.766  20.291  24.740  1.00  0.00     0.011 C 
ATOM     31  C   UNL A   1      37.103  21.741  24.765  1.00  0.00     0.011 C 
ENDBRANCH  17  29
ENDBRANCH   9  10
ENDBRANCH   6   9
ENDBRANCH   4   5
ENDBRANCH   3   4
ENDBRANCH   2   3
ENDBRANCH   1   2
BRANCH   1  32
ATOM     32  C   UNL A   1      33.337  30.790  27.053  1.00  0.00     0.021 C 
BRANCH  32  33
ATOM     33  C   UNL A   1      34.628  31.265  27.680  1.00  0.00     0.116 C 
BRANCH  33  34
ATOM     34  N   UNL A   1      34.344  32.095  28.845  1.00  0.00    -0.352 N 
ATOM     35  C   UNL A   1      34.948  32.064  30.070  1.00  0.00     0.251 C 
ATOM     36  H   UNL A   1      33.627  32.760  28.735  1.00  0.00     0.163 HD
ATOM     37  O   UNL A   1      34.377  32.537  31.059  1.00  0.00    -0.269 OA
BRANCH  35  38
ATOM     38  C   UNL A   1      36.295  31.501  30.182  1.00  0.00     0.039 A 
ATOM     39  C   UNL A   1      37.425  32.280  29.919  1.00  0.00     0.014 A 
ATOM     40  C   UNL A   1      36.409  30.145  30.498  1.00  0.00     0.014 A 
ATOM     41  C   UNL A   1      38.671  31.674  29.964  1.00  0.00     0.010 A 
ATOM     42  C   UNL A   1      37.636  29.591  30.707  1.00  0.00     0.010 A 
ATOM     43  C   UNL A   1      38.750  30.326  30.337  1.00  0.00    -0.014 A 
BRANCH  43  44
ATOM     44  C   UNL A   1      40.011  29.628  30.404  1.00  0.00     0.031 A 
ATOM     45  C   UNL A   1      40.603  29.627  31.760  1.00  0.00     0.074 A 
ATOM     46  C   UNL A   1      40.429  28.854  29.380  1.00  0.00     0.049 A 
ATOM     47  N   UNL A   1      41.606  30.328  32.174  1.00  0.00    -0.248 NA
ATOM     48  C   UNL A   1      39.875  28.928  32.835  1.00  0.00     0.031 C 
ATOM     49  C   UNL A   1      39.720  28.513  28.139  1.00  0.00     0.029 A 
ATOM     50  N   UNL A   1      41.542  28.087  29.300  1.00  0.00    -0.354 N 
ATOM     51  C   UNL A   1      41.797  29.930  33.491  1.00  0.00     0.074 A 
ATOM     52  C   UNL A   1      40.576  29.294  33.910  1.00  0.00     0.031 C 
ATOM     53  C   UNL A   1      40.309  27.440  27.562  1.00  0.00     0.029 A 
ATOM     54  C   UNL A   1      41.516  27.119  28.298  1.00  0.00     0.049 A 
ATOM     55  H   UNL A   1      42.311  28.205  29.903  1.00  0.00     0.167 HD
ATOM     56  C   UNL A   1      43.045  29.860  34.031  1.00  0.00     0.034 A 
ATOM     57  C   UNL A   1      42.407  26.102  28.163  1.00  0.00     0.034 A 
ATOM     58  C   UNL A   1      44.020  30.514  33.199  1.00  0.00     0.049 A 
ATOM     59  C   UNL A   1      43.618  26.525  28.911  1.00  0.00     0.074 A 
ATOM     60  C   UNL A   1      44.190  31.794  32.711  1.00  0.00     0.029 A 
ATOM     61  N   UNL A   1      44.769  29.694  32.386  1.00  0.00    -0.354 N 
ATOM     62  N   UNL A   1      44.348  27.556  28.588  1.00  0.00    -0.248 NA
ATOM     63  C   UNL A   1      43.758  26.059  30.282  1.00  0.00     0.031 C 
ATOM     64  C   UNL A   1      44.643  31.620  31.370  1.00  0.00     0.029 A 
ATOM     65  C   UNL A   1      44.795  30.252  31.134  1.00  0.00     0.049 A 
ATOM     66  H   UNL A   1      45.207  28.856  32.655  1.00  0.00     0.167 HD
ATOM     67  C   UNL A   1      44.677  28.139  29.805  1.00  0.00     0.074 A 
ATOM     68  C   UNL A   1      44.377  27.119  30.809  1.00  0.00     0.031 C 
ATOM     69  C   UNL A   1      44.870  29.486  29.909  1.00  0.00     0.034 A 
BRANCH  56  70
ATOM     70  C   UNL A   1      43.444  28.870  35.092  1.00  0.00     0.023 A 
ATOM     71  C   UNL A   1      44.126  29.359  36.225  1.00  0.00     0.012 A 
ATOM     72  C   UNL A   1      43.402  27.466  34.920  1.00  0.00     0.148 A 
ATOM     73  C   UNL A   1      44.732  28.493  37.140  1.00  0.00     0.002 A 
ATOM     74  C   UNL A   1      43.931  26.608  35.875  1.00  0.00     0.091 A 
ATOM     75  F   UNL A   1      42.975  26.950  33.763  1.00  0.00    -0.205 F 
ATOM     76  C   UNL A   1      44.619  27.117  36.977  1.00  0.00     0.022 A 
BRANCH  74  77
ATOM     77  S   UNL A   1      43.774  24.824  35.725  1.00  0.00     0.127 S 
ATOM     78  O   UNL A   1      42.351  24.681  35.435  1.00  0.00    -0.237 OA
ATOM     79  O   UNL A   1      44.670  24.539  34.604  1.00  0.00    -0.237 OA
ATOM     80  O   UNL A   1      44.228  24.289  37.002  1.00  0.00    -0.744 OA
ENDBRANCH  74  77
ENDBRANCH  56  70
BRANCH  57  81
ATOM     81  C   UNL A   1      42.215  24.677  27.771  1.00  0.00     0.023 A 
ATOM     82  C   UNL A   1      40.917  24.126  27.885  1.00  0.00     0.012 A 
ATOM     83  C   UNL A   1      43.157  23.980  26.984  1.00  0.00     0.148 A 
ATOM     84  C   UNL A   1      40.541  22.990  27.159  1.00  0.00     0.002 A 
ATOM     85  C   UNL A   1      42.779  22.843  26.268  1.00  0.00     0.091 A 
ATOM     86  F   UNL A   1      44.393  24.478  26.854  1.00  0.00    -0.205 F 
ATOM     87  C   UNL A   1      41.465  22.362  26.333  1.00  0.00     0.022 A 
BRANCH  85  88
ATOM     88  S   UNL A   1      43.918  21.975  25.178  1.00  0.00     0.127 S 
ATOM     89  O   UNL A   1      45.177  22.052  25.922  1.00  0.00    -0.237 OA
ATOM     90  O   UNL A   1      43.329  20.641  25.113  1.00  0.00    -0.237 OA
ATOM     91  O   UNL A   1      43.920  22.726  23.928  1.00  0.00    -0.744 OA
ENDBRANCH  85  88
ENDBRANCH  57  81
BRANCH  69  92
ATOM     92  C   UNL A   1      44.952  30.284  28.632  1.00  0.00     0.023 A 
ATOM     93  C   UNL A   1      43.812  30.616  27.865  1.00  0.00     0.012 A 
ATOM     94  C   UNL A   1      46.184  30.868  28.305  1.00  0.00     0.148 A 
ATOM     95  C   UNL A   1      43.904  31.513  26.796  1.00  0.00     0.002 A 
ATOM     96  C   UNL A   1      46.266  31.785  27.265  1.00  0.00     0.091 A 
ATOM     97  F   UNL A   1      47.249  30.546  29.054  1.00  0.00    -0.205 F 
ATOM     98  C   UNL A   1      45.130  32.109  26.505  1.00  0.00     0.022 A 
BRANCH  96  99
ATOM     99  S   UNL A   1      47.788  32.661  26.900  1.00  0.00     0.127 S 
ATOM    100  O   UNL A   1      47.382  33.534  25.801  1.00  0.00    -0.237 OA
ATOM    101  O   UNL A   1      48.058  33.351  28.163  1.00  0.00    -0.237 OA
ATOM    102  O   UNL A   1      48.770  31.642  26.552  1.00  0.00    -0.744 OA
ENDBRANCH  96  99
ENDBRANCH  69  92
ENDBRANCH  43  44
ENDBRANCH  35  38
ENDBRANCH  33  34
ENDBRANCH  32  33
ENDBRANCH   1  32
TORSDOF 20
ENDMDL
MODEL 2
REMARK VINA RESULT:     -11.6      3.514      9.004
REMARK SMILES Cn1cc(-c2cc(C(F)(F)F)c3c(C4CC4)nn(CC(=O)NCCCCCCNC(=O)c4ccc(-c5c6nc(c(-c7cccc(S(=O)(=O)[O-])c7F)c7ccc([nH]7)c(-c7cccc(S(=O)(=O)[O-])c7F)c7nc(c(-c8cccc(S(=O)(=O)[O-])c8F)c8ccc5[nH]8)C=C7)C=C6)cc4)c3n2)cn1
REMARK SMILES IDX 26 1 25 2 24 3 23 4 22 5 20 6 21 7 19 9 18 10 5 11 6 12
REMARK SMILES IDX 96 13 7 14 95 15 12 16 13 17 17 18 4 19 1 20 2 21 3 22 98 23
REMARK SMILES IDX 97 24 8 25 9 26 10 27 11 28 14 29 15 30 16 31 27 32 28 33
REMARK SMILES IDX 29 34 30 35 31 37 32 38 33 39 94 40 34 41 93 42 35 43 36 44
REMARK SMILES IDX 37 45 87 46 38 47 92 48 86 49 88 50 39 51 91 52 85 53 84 54
REMARK SMILES IDX 40 56 72 57 52 58 71 59 53 60 56 61 70 62 89 63 54 64 55 65
REMARK SMILES IDX 69 67 90 68 57 69 41 70 42 71 50 72 43 73 45 74 51 75 44 76
REMARK SMILES IDX 46 77 47 78 48 79 49 80 73 81 74 82 82 83 75 84 77 85 83 86
REMARK SMILES IDX 76 87 78 88 79 89 80 90 81 91 58 92 59 93 67 94 60 95 62 96
REMARK SMILES IDX 68 97 61 98 63 99 64 100 65 101 66 102
REMARK H PARENT 22 8 29 36 88 55 56 66
REMARK Flexibility Score: inf
ROOT
ATOM      1  C   UNL A   1      37.695  22.124  25.350  1.00  0.00     0.002 C 
ENDROOT
BRANCH   1   2
ATOM      2  C   UNL A   1      36.420  21.514  25.950  1.00  0.00     0.002 C 
BRANCH   2   3
ATOM      3  C   UNL A   1      35.688  20.556  25.015  1.00  0.00     0.021 C 
BRANCH   3   4
ATOM      4  C   UNL A   1      34.231  20.347  25.411  1.00  0.00     0.116 C 
BRANCH   4   5
ATOM      5  N   UNL A   1      33.963  20.873  26.731  1.00  0.00    -0.354 N 
ATOM      6  C   UNL A   1      33.053  21.844  27.036  1.00  0.00     0.241 C 
ATOM      7  O   UNL A   1      32.908  22.203  28.205  1.00  0.00    -0.273 OA
ATOM      8  H   UNL A   1      34.484  20.499  27.476  1.00  0.00     0.163 HD
BRANCH   6   9
ATOM      9  C   UNL A   1      32.168  22.332  25.934  1.00  0.00     0.246 C 
BRANCH   9  10
ATOM     10  N   UNL A   1      31.705  23.696  26.105  1.00  0.00    -0.237 N 
ATOM     11  C   UNL A   1      34.291  25.623  25.196  1.00  0.00     0.077 A 
ATOM     12  C   UNL A   1      33.803  26.914  25.383  1.00  0.00     0.043 A 
ATOM     13  N   UNL A   1      33.900  24.653  26.054  1.00  0.00    -0.228 NA
ATOM     14  C   UNL A   1      32.598  27.086  26.112  1.00  0.00     0.071 A 
ATOM     15  C   UNL A   1      32.566  24.743  26.208  1.00  0.00     0.159 A 
ATOM     16  C   UNL A   1      31.825  25.910  26.135  1.00  0.00     0.055 A 
ATOM     17  C   UNL A   1      30.525  25.438  25.796  1.00  0.00     0.076 A 
ATOM     18  N   UNL A   1      30.439  24.091  25.850  1.00  0.00    -0.175 NA
BRANCH  11  19
ATOM     19  C   UNL A   1      34.319  24.998  23.845  1.00  0.00     0.038 A 
ATOM     20  C   UNL A   1      32.048  22.668  22.389  1.00  0.00     0.173 C 
ATOM     21  N   UNL A   1      33.192  23.530  22.623  1.00  0.00    -0.275 N 
ATOM     22  C   UNL A   1      33.133  24.800  23.138  1.00  0.00     0.118 A 
ATOM     23  N   UNL A   1      34.434  23.006  22.680  1.00  0.00    -0.181 NA
ATOM     24  C   UNL A   1      35.088  23.857  23.482  1.00  0.00     0.145 A 
ENDBRANCH  11  19
BRANCH  14  25
ATOM     25  C   UNL A   1      32.371  28.272  27.014  1.00  0.00     0.417 C 
ATOM     26  F   UNL A   1      33.396  28.587  27.831  1.00  0.00    -0.166 F 
ATOM     27  F   UNL A   1      32.113  29.392  26.278  1.00  0.00    -0.166 F 
ATOM     28  F   UNL A   1      31.283  28.101  27.815  1.00  0.00    -0.166 F 
ENDBRANCH  14  25
BRANCH  17  29
ATOM     29  C   UNL A   1      29.384  26.198  25.115  1.00  0.00     0.041 C 
ATOM     30  C   UNL A   1      29.555  27.320  24.127  1.00  0.00     0.011 C 
ATOM     31  C   UNL A   1      29.166  25.974  23.623  1.00  0.00     0.011 C 
ENDBRANCH  17  29
ENDBRANCH   9  10
ENDBRANCH   6   9
ENDBRANCH   4   5
ENDBRANCH   3   4
ENDBRANCH   2   3
ENDBRANCH   1   2
BRANCH   1  32
ATOM     32  C   UNL A   1      37.975  23.589  25.731  1.00  0.00     0.021 C 
BRANCH  32  33
ATOM     33  C   UNL A   1      38.926  23.704  26.901  1.00  0.00     0.116 C 
BRANCH  33  34
ATOM     34  N   UNL A   1      40.241  23.195  26.530  1.00  0.00    -0.352 N 
ATOM     35  C   UNL A   1      41.400  23.897  26.357  1.00  0.00     0.251 C 
ATOM     36  H   UNL A   1      40.300  22.223  26.386  1.00  0.00     0.163 HD
ATOM     37  O   UNL A   1      42.325  23.421  25.690  1.00  0.00    -0.269 OA
BRANCH  35  38
ATOM     38  C   UNL A   1      41.542  25.202  27.007  1.00  0.00     0.039 A 
ATOM     39  C   UNL A   1      42.164  25.321  28.253  1.00  0.00     0.014 A 
ATOM     40  C   UNL A   1      40.978  26.310  26.372  1.00  0.00     0.014 A 
ATOM     41  C   UNL A   1      42.201  26.568  28.857  1.00  0.00     0.010 A 
ATOM     42  C   UNL A   1      41.161  27.560  26.883  1.00  0.00     0.010 A 
ATOM     43  C   UNL A   1      41.673  27.665  28.165  1.00  0.00    -0.014 A 
BRANCH  43  44
ATOM     44  C   UNL A   1      41.674  28.993  28.731  1.00  0.00     0.031 A 
ATOM     45  C   UNL A   1      42.834  29.806  28.303  1.00  0.00     0.074 A 
ATOM     46  C   UNL A   1      40.583  29.478  29.360  1.00  0.00     0.049 A 
ATOM     47  N   UNL A   1      43.874  30.112  29.004  1.00  0.00    -0.248 NA
ATOM     48  C   UNL A   1      42.953  30.147  26.873  1.00  0.00     0.031 C 
ATOM     49  C   UNL A   1      39.258  28.858  29.507  1.00  0.00     0.029 A 
ATOM     50  N   UNL A   1      40.390  30.710  29.888  1.00  0.00    -0.354 N 
ATOM     51  C   UNL A   1      44.636  30.924  28.174  1.00  0.00     0.074 A 
ATOM     52  C   UNL A   1      44.171  30.691  26.832  1.00  0.00     0.031 C 
ATOM     53  C   UNL A   1      38.356  29.802  29.866  1.00  0.00     0.029 A 
ATOM     54  C   UNL A   1      39.057  31.045  30.123  1.00  0.00     0.049 A 
ATOM     55  H   UNL A   1      41.133  31.322  30.092  1.00  0.00     0.167 HD
ATOM     56  C   UNL A   1      45.365  31.958  28.675  1.00  0.00     0.034 A 
ATOM     57  C   UNL A   1      38.601  32.285  30.438  1.00  0.00     0.034 A 
ATOM     58  C   UNL A   1      45.468  31.888  30.109  1.00  0.00     0.049 A 
ATOM     59  C   UNL A   1      39.774  33.022  30.973  1.00  0.00     0.074 A 
ATOM     60  C   UNL A   1      45.962  30.966  31.010  1.00  0.00     0.029 A 
ATOM     61  N   UNL A   1      44.601  32.686  30.819  1.00  0.00    -0.354 N 
ATOM     62  N   UNL A   1      40.404  32.691  32.064  1.00  0.00    -0.248 NA
ATOM     63  C   UNL A   1      40.517  33.863  30.047  1.00  0.00     0.031 C 
ATOM     64  C   UNL A   1      45.025  30.962  32.085  1.00  0.00     0.029 A 
ATOM     65  C   UNL A   1      44.052  31.928  31.820  1.00  0.00     0.049 A 
ATOM     66  H   UNL A   1      44.409  33.635  30.639  1.00  0.00     0.167 HD
ATOM     67  C   UNL A   1      41.745  32.887  31.761  1.00  0.00     0.074 A 
ATOM     68  C   UNL A   1      41.745  33.706  30.549  1.00  0.00     0.031 C 
ATOM     69  C   UNL A   1      42.715  32.120  32.338  1.00  0.00     0.034 A 
BRANCH  56  70
ATOM     70  C   UNL A   1      45.638  33.233  27.923  1.00  0.00     0.023 A 
ATOM     71  C   UNL A   1      44.531  33.982  27.477  1.00  0.00     0.012 A 
ATOM     72  C   UNL A   1      46.910  33.601  27.424  1.00  0.00     0.148 A 
ATOM     73  C   UNL A   1      44.684  35.045  26.581  1.00  0.00     0.002 A 
ATOM     74  C   UNL A   1      47.068  34.709  26.604  1.00  0.00     0.091 A 
ATOM     75  F   UNL A   1      47.961  32.799  27.626  1.00  0.00    -0.205 F 
ATOM     76  C   UNL A   1      45.955  35.422  26.158  1.00  0.00     0.022 A 
BRANCH  74  77
ATOM     77  S   UNL A   1      48.693  35.255  26.066  1.00  0.00     0.127 S 
ATOM     78  O   UNL A   1      49.055  34.204  25.119  1.00  0.00    -0.237 OA
ATOM     79  O   UNL A   1      48.387  36.555  25.465  1.00  0.00    -0.237 OA
ATOM     80  O   UNL A   1      49.495  35.334  27.279  1.00  0.00    -0.744 OA
ENDBRANCH  74  77
ENDBRANCH  56  70
BRANCH  57  81
ATOM     81  C   UNL A   1      37.374  33.015  30.010  1.00  0.00     0.023 A 
ATOM     82  C   UNL A   1      36.904  32.808  28.692  1.00  0.00     0.012 A 
ATOM     83  C   UNL A   1      36.490  33.608  30.937  1.00  0.00     0.148 A 
ATOM     84  C   UNL A   1      35.576  33.078  28.340  1.00  0.00     0.002 A 
ATOM     85  C   UNL A   1      35.169  33.882  30.579  1.00  0.00     0.091 A 
ATOM     86  F   UNL A   1      36.904  33.814  32.193  1.00  0.00    -0.205 F 
ATOM     87  C   UNL A   1      34.703  33.594  29.290  1.00  0.00     0.022 A 
BRANCH  85  88
ATOM     88  S   UNL A   1      33.978  34.549  31.753  1.00  0.00     0.127 S 
ATOM     89  O   UNL A   1      33.669  33.380  32.578  1.00  0.00    -0.237 OA
ATOM     90  O   UNL A   1      34.755  35.583  32.429  1.00  0.00    -0.237 OA
ATOM     91  O   UNL A   1      32.856  35.025  30.951  1.00  0.00    -0.744 OA
ENDBRANCH  85  88
ENDBRANCH  57  81
BRANCH  69  92
ATOM     92  C   UNL A   1      42.314  31.225  33.484  1.00  0.00     0.023 A 
ATOM     93  C   UNL A   1      41.644  29.996  33.293  1.00  0.00     0.012 A 
ATOM     94  C   UNL A   1      42.791  31.548  34.763  1.00  0.00     0.148 A 
ATOM     95  C   UNL A   1      41.459  29.109  34.359  1.00  0.00     0.002 A 
ATOM     96  C   UNL A   1      42.637  30.650  35.811  1.00  0.00     0.091 A 
ATOM     97  F   UNL A   1      43.433  32.716  34.916  1.00  0.00    -0.205 F 
ATOM     98  C   UNL A   1      41.969  29.430  35.615  1.00  0.00     0.022 A 
BRANCH  96  99
ATOM     99  S   UNL A   1      43.352  30.956  37.426  1.00  0.00     0.127 S 
ATOM    100  O   UNL A   1      42.204  31.455  38.180  1.00  0.00    -0.237 OA
ATOM    101  O   UNL A   1      43.811  29.622  37.819  1.00  0.00    -0.237 OA
ATOM    102  O   UNL A   1      44.426  31.921  37.219  1.00  0.00    -0.744 OA
ENDBRANCH  96  99
ENDBRANCH  69  92
ENDBRANCH  43  44
ENDBRANCH  35  38
ENDBRANCH  33  34
ENDBRANCH  32  33
ENDBRANCH   1  32
TORSDOF 20
ENDMDL
MODEL 3
REMARK VINA RESULT:     -11.5      3.498      8.665
REMARK SMILES Cn1cc(-c2cc(C(F)(F)F)c3c(C4CC4)nn(CC(=O)NCCCCCCNC(=O)c4ccc(-c5c6nc(c(-c7cccc(S(=O)(=O)[O-])c7F)c7ccc([nH]7)c(-c7cccc(S(=O)(=O)[O-])c7F)c7nc(c(-c8cccc(S(=O)(=O)[O-])c8F)c8ccc5[nH]8)C=C7)C=C6)cc4)c3n2)cn1
REMARK SMILES IDX 26 1 25 2 24 3 23 4 22 5 20 6 21 7 19 9 18 10 5 11 6 12
REMARK SMILES IDX 96 13 7 14 95 15 12 16 13 17 17 18 4 19 1 20 2 21 3 22 98 23
REMARK SMILES IDX 97 24 8 25 9 26 10 27 11 28 14 29 15 30 16 31 27 32 28 33
REMARK SMILES IDX 29 34 30 35 31 37 32 38 33 39 94 40 34 41 93 42 35 43 36 44
REMARK SMILES IDX 37 45 87 46 38 47 92 48 86 49 88 50 39 51 91 52 85 53 84 54
REMARK SMILES IDX 40 56 72 57 52 58 71 59 53 60 56 61 70 62 89 63 54 64 55 65
REMARK SMILES IDX 69 67 90 68 57 69 41 70 42 71 50 72 43 73 45 74 51 75 44 76
REMARK SMILES IDX 46 77 47 78 48 79 49 80 73 81 74 82 82 83 75 84 77 85 83 86
REMARK SMILES IDX 76 87 78 88 79 89 80 90 81 91 58 92 59 93 67 94 60 95 62 96
REMARK SMILES IDX 68 97 61 98 63 99 64 100 65 101 66 102
REMARK H PARENT 22 8 29 36 88 55 56 66
REMARK Flexibility Score: inf
ROOT
ATOM      1  C   UNL A   1      36.720  21.015  25.034  1.00  0.00     0.002 C 
ENDROOT
BRANCH   1   2
ATOM      2  C   UNL A   1      35.244  21.031  25.458  1.00  0.00     0.002 C 
BRANCH   2   3
ATOM      3  C   UNL A   1      34.322  20.239  24.534  1.00  0.00     0.021 C 
BRANCH   3   4
ATOM      4  C   UNL A   1      33.027  20.980  24.222  1.00  0.00     0.116 C 
BRANCH   4   5
ATOM      5  N   UNL A   1      33.082  21.614  22.924  1.00  0.00    -0.354 N 
ATOM      6  C   UNL A   1      33.365  22.928  22.686  1.00  0.00     0.241 C 
ATOM      7  O   UNL A   1      33.391  23.350  21.529  1.00  0.00    -0.273 OA
ATOM      8  H   UNL A   1      32.896  21.048  22.141  1.00  0.00     0.163 HD
BRANCH   6   9
ATOM      9  C   UNL A   1      33.770  23.769  23.853  1.00  0.00     0.246 C 
BRANCH   9  10
ATOM     10  N   UNL A   1      33.365  25.158  23.753  1.00  0.00    -0.237 N 
ATOM     11  C   UNL A   1      30.159  25.211  24.726  1.00  0.00     0.077 A 
ATOM     12  C   UNL A   1      29.815  26.555  24.607  1.00  0.00     0.043 A 
ATOM     13  N   UNL A   1      31.020  24.680  23.826  1.00  0.00    -0.228 NA
ATOM     14  C   UNL A   1      30.690  27.419  23.900  1.00  0.00     0.071 A 
ATOM     15  C   UNL A   1      32.058  25.526  23.692  1.00  0.00     0.159 A 
ATOM     16  C   UNL A   1      31.996  26.902  23.829  1.00  0.00     0.055 A 
ATOM     17  C   UNL A   1      33.339  27.246  24.158  1.00  0.00     0.076 A 
ATOM     18  N   UNL A   1      34.180  26.195  24.041  1.00  0.00    -0.175 NA
BRANCH  11  19
ATOM     19  C   UNL A   1      30.520  24.622  26.045  1.00  0.00     0.038 A 
ATOM     20  C   UNL A   1      33.692  23.507  27.228  1.00  0.00     0.173 C 
ATOM     21  N   UNL A   1      32.272  23.783  27.115  1.00  0.00    -0.275 N 
ATOM     22  C   UNL A   1      31.727  24.956  26.656  1.00  0.00     0.118 A 
ATOM     23  N   UNL A   1      31.383  22.768  27.121  1.00  0.00    -0.181 NA
ATOM     24  C   UNL A   1      30.359  23.255  26.407  1.00  0.00     0.145 A 
ENDBRANCH  11  19
BRANCH  14  25
ATOM     25  C   UNL A   1      30.179  28.561  23.058  1.00  0.00     0.417 C 
ATOM     26  F   UNL A   1      29.313  28.223  22.083  1.00  0.00    -0.166 F 
ATOM     27  F   UNL A   1      29.538  29.480  23.836  1.00  0.00    -0.166 F 
ATOM     28  F   UNL A   1      31.193  29.238  22.451  1.00  0.00    -0.166 F 
ENDBRANCH  14  25
BRANCH  17  29
ATOM     29  C   UNL A   1      33.851  28.490  24.887  1.00  0.00     0.041 C 
ATOM     30  C   UNL A   1      32.988  29.603  25.418  1.00  0.00     0.011 C 
ATOM     31  C   UNL A   1      33.558  28.618  26.378  1.00  0.00     0.011 C 
ENDBRANCH  17  29
ENDBRANCH   9  10
ENDBRANCH   6   9
ENDBRANCH   4   5
ENDBRANCH   3   4
ENDBRANCH   2   3
ENDBRANCH   1   2
BRANCH   1  32
ATOM     32  C   UNL A   1      37.392  22.395  24.915  1.00  0.00     0.021 C 
BRANCH  32  33
ATOM     33  C   UNL A   1      38.274  22.706  26.104  1.00  0.00     0.116 C 
BRANCH  33  34
ATOM     34  N   UNL A   1      39.553  22.019  25.973  1.00  0.00    -0.352 N 
ATOM     35  C   UNL A   1      40.809  22.548  26.073  1.00  0.00     0.251 C 
ATOM     36  H   UNL A   1      39.506  21.054  25.789  1.00  0.00     0.163 HD
ATOM     37  O   UNL A   1      41.775  21.959  25.577  1.00  0.00    -0.269 OA
BRANCH  35  38
ATOM     38  C   UNL A   1      40.994  23.800  26.810  1.00  0.00     0.039 A 
ATOM     39  C   UNL A   1      41.890  23.879  27.880  1.00  0.00     0.014 A 
ATOM     40  C   UNL A   1      40.199  24.891  26.450  1.00  0.00     0.014 A 
ATOM     41  C   UNL A   1      41.967  25.067  28.591  1.00  0.00     0.010 A 
ATOM     42  C   UNL A   1      40.395  26.105  27.037  1.00  0.00     0.010 A 
ATOM     43  C   UNL A   1      41.195  26.155  28.167  1.00  0.00    -0.014 A 
BRANCH  43  44
ATOM     44  C   UNL A   1      41.221  27.422  28.859  1.00  0.00     0.031 A 
ATOM     45  C   UNL A   1      42.198  28.375  28.287  1.00  0.00     0.074 A 
ATOM     46  C   UNL A   1      40.259  27.744  29.749  1.00  0.00     0.049 A 
ATOM     47  N   UNL A   1      43.340  28.714  28.785  1.00  0.00    -0.248 NA
ATOM     48  C   UNL A   1      41.980  28.850  26.909  1.00  0.00     0.031 C 
ATOM     49  C   UNL A   1      39.046  26.992  30.102  1.00  0.00     0.029 A 
ATOM     50  N   UNL A   1      40.095  28.901  30.434  1.00  0.00    -0.354 N 
ATOM     51  C   UNL A   1      43.843  29.664  27.905  1.00  0.00     0.074 A 
ATOM     52  C   UNL A   1      43.117  29.509  26.673  1.00  0.00     0.031 C 
ATOM     53  C   UNL A   1      38.177  27.811  30.738  1.00  0.00     0.029 A 
ATOM     54  C   UNL A   1      38.824  29.087  30.975  1.00  0.00     0.049 A 
ATOM     55  H   UNL A   1      40.818  29.560  30.542  1.00  0.00     0.167 HD
ATOM     56  C   UNL A   1      44.585  30.714  28.352  1.00  0.00     0.034 A 
ATOM     57  C   UNL A   1      38.358  30.246  31.508  1.00  0.00     0.034 A 
ATOM     58  C   UNL A   1      45.001  30.528  29.717  1.00  0.00     0.049 A 
ATOM     59  C   UNL A   1      39.562  31.040  31.862  1.00  0.00     0.074 A 
ATOM     60  C   UNL A   1      45.745  29.581  30.392  1.00  0.00     0.029 A 
ATOM     61  N   UNL A   1      44.252  31.175  30.672  1.00  0.00    -0.354 N 
ATOM     62  N   UNL A   1      40.435  30.674  32.757  1.00  0.00    -0.248 NA
ATOM     63  C   UNL A   1      40.023  32.026  30.898  1.00  0.00     0.031 C 
ATOM     64  C   UNL A   1      45.065  29.394  31.632  1.00  0.00     0.029 A 
ATOM     65  C   UNL A   1      43.990  30.283  31.678  1.00  0.00     0.049 A 
ATOM     66  H   UNL A   1      43.957  32.113  30.638  1.00  0.00     0.167 HD
ATOM     67  C   UNL A   1      41.661  31.022  32.204  1.00  0.00     0.074 A 
ATOM     68  C   UNL A   1      41.339  31.941  31.113  1.00  0.00     0.031 C 
ATOM     69  C   UNL A   1      42.787  30.302  32.482  1.00  0.00     0.034 A 
BRANCH  56  70
ATOM     70  C   UNL A   1      44.595  32.071  27.699  1.00  0.00     0.023 A 
ATOM     71  C   UNL A   1      45.677  32.385  26.852  1.00  0.00     0.012 A 
ATOM     72  C   UNL A   1      43.732  33.131  28.063  1.00  0.00     0.148 A 
ATOM     73  C   UNL A   1      45.887  33.688  26.391  1.00  0.00     0.002 A 
ATOM     74  C   UNL A   1      43.893  34.404  27.536  1.00  0.00     0.091 A 
ATOM     75  F   UNL A   1      42.830  32.951  29.034  1.00  0.00    -0.205 F 
ATOM     76  C   UNL A   1      44.985  34.696  26.717  1.00  0.00     0.022 A 
BRANCH  74  77
ATOM     77  S   UNL A   1      42.731  35.726  27.897  1.00  0.00     0.127 S 
ATOM     78  O   UNL A   1      43.633  36.846  28.150  1.00  0.00    -0.237 OA
ATOM     79  O   UNL A   1      41.973  35.808  26.647  1.00  0.00    -0.237 OA
ATOM     80  O   UNL A   1      41.953  35.256  29.035  1.00  0.00    -0.744 OA
ENDBRANCH  74  77
ENDBRANCH  56  70
BRANCH  57  81
ATOM     81  C   UNL A   1      37.017  30.892  31.425  1.00  0.00     0.023 A 
ATOM     82  C   UNL A   1      36.498  31.498  32.593  1.00  0.00     0.012 A 
ATOM     83  C   UNL A   1      36.419  31.227  30.191  1.00  0.00     0.148 A 
ATOM     84  C   UNL A   1      35.501  32.478  32.526  1.00  0.00     0.002 A 
ATOM     85  C   UNL A   1      35.420  32.199  30.130  1.00  0.00     0.091 A 
ATOM     86  F   UNL A   1      36.890  30.673  29.067  1.00  0.00    -0.205 F 
ATOM     87  C   UNL A   1      34.978  32.844  31.291  1.00  0.00     0.022 A 
BRANCH  85  88
ATOM     88  S   UNL A   1      34.693  32.728  28.570  1.00  0.00     0.127 S 
ATOM     89  O   UNL A   1      33.985  31.523  28.135  1.00  0.00    -0.237 OA
ATOM     90  O   UNL A   1      33.826  33.825  28.989  1.00  0.00    -0.237 OA
ATOM     91  O   UNL A   1      35.815  33.100  27.716  1.00  0.00    -0.744 OA
ENDBRANCH  85  88
ENDBRANCH  57  81
BRANCH  69  92
ATOM     92  C   UNL A   1      42.709  29.275  33.584  1.00  0.00     0.023 A 
ATOM     93  C   UNL A   1      42.190  27.977  33.382  1.00  0.00     0.012 A 
ATOM     94  C   UNL A   1      43.348  29.571  34.797  1.00  0.00     0.148 A 
ATOM     95  C   UNL A   1      42.309  26.996  34.372  1.00  0.00     0.002 A 
ATOM     96  C   UNL A   1      43.496  28.585  35.764  1.00  0.00     0.091 A 
ATOM     97  F   UNL A   1      43.843  30.807  34.960  1.00  0.00    -0.205 F 
ATOM     98  C   UNL A   1      42.975  27.297  35.559  1.00  0.00     0.022 A 
BRANCH  96  99
ATOM     99  S   UNL A   1      44.426  28.875  37.270  1.00  0.00     0.127 S 
ATOM    100  O   UNL A   1      44.260  27.609  37.980  1.00  0.00    -0.237 OA
ATOM    101  O   UNL A   1      45.776  29.118  36.758  1.00  0.00    -0.237 OA
ATOM    102  O   UNL A   1      43.811  30.031  37.911  1.00  0.00    -0.744 OA
ENDBRANCH  96  99
ENDBRANCH  69  92
ENDBRANCH  43  44
ENDBRANCH  35  38
ENDBRANCH  33  34
ENDBRANCH  32  33
ENDBRANCH   1  32
TORSDOF 20
ENDMDL
