MODEL 1
REMARK VINA RESULT:     -12.1      0.000      0.000
REMARK SMILES O=C(NCCCCCCNC(=O)[C@@H]1[C@@H](C(=O)NCc2ccccc2OCc2ccccc2)[C@@H]2C=C[C@H]1C2)c1ccc(-c2c3nc(c(-c4cccc(S(=O)(=O)[O-])c4F)c4ccc([nH]4)c(-c4cccc(S(=O)(=O)[O-])c4F)c4nc(c(-c5cccc(S(=O)(=O)[O-])c5F)c5ccc2[nH]5)C=C4)C=C3)cc1
REMARK SMILES IDX 8 1 7 2 6 3 5 4 4 5 3 6 1 7 2 8 38 10 39 11 100 12 40 13
REMARK SMILES IDX 99 14 41 15 42 16 43 17 93 18 44 19 98 20 92 21 94 22 45 23
REMARK SMILES IDX 97 24 91 25 90 26 46 28 78 29 58 30 77 31 59 32 62 33 76 34
REMARK SMILES IDX 95 35 60 36 61 37 75 39 96 40 63 41 47 42 48 43 56 44 49 45
REMARK SMILES IDX 51 46 57 47 50 48 52 49 53 50 54 51 55 52 79 53 80 54 88 55
REMARK SMILES IDX 81 56 83 57 89 58 82 59 84 60 85 61 86 62 87 63 64 64 65 65
REMARK SMILES IDX 73 66 66 67 68 68 74 69 67 70 69 71 70 72 71 73 72 74 9 75
REMARK SMILES IDX 10 76 11 77 12 79 13 80 14 81 36 82 33 83 35 84 37 85 34 86
REMARK SMILES IDX 15 87 16 88 17 89 18 91 19 92 20 93 24 94 21 95 23 96 22 97
REMARK SMILES IDX 25 98 26 99 27 100 28 101 32 102 29 103 31 104 30 105
REMARK H PARENT 3 9 94 27 62 38 10 78 17 90
REMARK Flexibility Score: inf
ROOT
ATOM      1  C   UNL A   1      33.928  28.780  27.196  1.00  0.00     0.021 C 
ENDROOT
BRANCH   1   2
ATOM      2  C   UNL A   1      34.978  29.857  27.492  1.00  0.00     0.002 C 
BRANCH   2   3
ATOM      3  C   UNL A   1      34.449  31.104  28.213  1.00  0.00     0.002 C 
BRANCH   3   4
ATOM      4  C   UNL A   1      33.891  32.199  27.302  1.00  0.00     0.021 C 
BRANCH   4   5
ATOM      5  C   UNL A   1      32.557  32.787  27.754  1.00  0.00     0.116 C 
BRANCH   5   6
ATOM      6  N   UNL A   1      32.630  34.230  27.893  1.00  0.00    -0.352 N 
ATOM      7  O   UNL A   1      33.134  36.169  28.910  1.00  0.00    -0.269 OA
ATOM      8  C   UNL A   1      33.404  34.984  28.742  1.00  0.00     0.251 C 
ATOM      9  H   UNL A   1      32.040  34.743  27.295  1.00  0.00     0.163 HD
BRANCH   8  10
ATOM     10  C   UNL A   1      34.548  34.371  29.457  1.00  0.00     0.039 A 
ATOM     11  C   UNL A   1      34.361  33.640  30.636  1.00  0.00     0.014 A 
ATOM     12  C   UNL A   1      35.825  34.474  28.898  1.00  0.00     0.014 A 
ATOM     13  C   UNL A   1      35.458  33.096  31.303  1.00  0.00     0.010 A 
ATOM     14  C   UNL A   1      36.915  33.878  29.537  1.00  0.00     0.010 A 
ATOM     15  C   UNL A   1      36.746  33.201  30.755  1.00  0.00    -0.014 A 
BRANCH  15  16
ATOM     16  C   UNL A   1      37.907  32.550  31.417  1.00  0.00     0.031 A 
ATOM     17  C   UNL A   1      38.598  31.377  30.779  1.00  0.00     0.074 A 
ATOM     18  C   UNL A   1      38.294  32.977  32.635  1.00  0.00     0.049 A 
ATOM     19  N   UNL A   1      39.564  30.632  31.252  1.00  0.00    -0.248 NA
ATOM     20  C   UNL A   1      38.136  30.981  29.440  1.00  0.00     0.031 C 
ATOM     21  C   UNL A   1      37.677  34.078  33.376  1.00  0.00     0.029 A 
ATOM     22  N   UNL A   1      39.272  32.513  33.480  1.00  0.00    -0.354 N 
ATOM     23  C   UNL A   1      39.796  29.653  30.293  1.00  0.00     0.074 A 
ATOM     24  C   UNL A   1      38.866  29.897  29.211  1.00  0.00     0.031 C 
ATOM     25  C   UNL A   1      38.279  34.198  34.567  1.00  0.00     0.029 A 
ATOM     26  C   UNL A   1      39.290  33.153  34.696  1.00  0.00     0.049 A 
ATOM     27  H   UNL A   1      39.898  31.793  33.238  1.00  0.00     0.167 HD
ATOM     28  C   UNL A   1      40.706  28.648  30.310  1.00  0.00     0.034 A 
ATOM     29  C   UNL A   1      40.012  32.909  35.808  1.00  0.00     0.034 A 
ATOM     30  C   UNL A   1      41.644  28.424  31.378  1.00  0.00     0.049 A 
ATOM     31  C   UNL A   1      41.022  31.798  35.798  1.00  0.00     0.074 A 
ATOM     32  C   UNL A   1      42.650  27.477  31.454  1.00  0.00     0.029 A 
ATOM     33  N   UNL A   1      41.683  29.142  32.564  1.00  0.00    -0.354 N 
ATOM     34  N   UNL A   1      41.317  30.964  34.831  1.00  0.00    -0.248 NA
ATOM     35  C   UNL A   1      41.821  31.611  37.018  1.00  0.00     0.031 C 
ATOM     36  C   UNL A   1      43.281  27.606  32.696  1.00  0.00     0.029 A 
ATOM     37  C   UNL A   1      42.688  28.654  33.382  1.00  0.00     0.049 A 
ATOM     38  H   UNL A   1      41.083  29.889  32.791  1.00  0.00     0.167 HD
ATOM     39  C   UNL A   1      42.359  30.178  35.309  1.00  0.00     0.074 A 
ATOM     40  C   UNL A   1      42.651  30.643  36.650  1.00  0.00     0.031 C 
ATOM     41  C   UNL A   1      43.009  29.161  34.693  1.00  0.00     0.034 A 
BRANCH  28  42
ATOM     42  C   UNL A   1      40.748  27.725  29.119  1.00  0.00     0.023 A 
ATOM     43  C   UNL A   1      39.859  26.635  29.047  1.00  0.00     0.012 A 
ATOM     44  C   UNL A   1      41.632  27.965  28.048  1.00  0.00     0.148 A 
ATOM     45  C   UNL A   1      39.875  25.772  27.950  1.00  0.00     0.002 A 
ATOM     46  C   UNL A   1      41.614  27.126  26.938  1.00  0.00     0.091 A 
ATOM     47  F   UNL A   1      42.487  28.994  28.139  1.00  0.00    -0.205 F 
ATOM     48  C   UNL A   1      40.745  26.024  26.894  1.00  0.00     0.022 A 
BRANCH  46  49
ATOM     49  S   UNL A   1      42.644  27.420  25.496  1.00  0.00     0.127 S 
ATOM     50  O   UNL A   1      42.098  28.680  24.994  1.00  0.00    -0.237 OA
ATOM     51  O   UNL A   1      43.980  27.528  26.084  1.00  0.00    -0.237 OA
ATOM     52  O   UNL A   1      42.458  26.262  24.633  1.00  0.00    -0.744 OA
ENDBRANCH  46  49
ENDBRANCH  28  42
BRANCH  29  53
ATOM     53  C   UNL A   1      39.822  33.776  37.004  1.00  0.00     0.023 A 
ATOM     54  C   UNL A   1      38.704  33.573  37.835  1.00  0.00     0.012 A 
ATOM     55  C   UNL A   1      40.780  34.745  37.362  1.00  0.00     0.148 A 
ATOM     56  C   UNL A   1      38.534  34.331  38.994  1.00  0.00     0.002 A 
ATOM     57  C   UNL A   1      40.634  35.457  38.546  1.00  0.00     0.091 A 
ATOM     58  F   UNL A   1      41.832  34.925  36.551  1.00  0.00    -0.205 F 
ATOM     59  C   UNL A   1      39.504  35.262  39.356  1.00  0.00     0.022 A 
BRANCH  57  60
ATOM     60  S   UNL A   1      41.897  36.574  39.164  1.00  0.00     0.127 S 
ATOM     61  O   UNL A   1      41.996  37.544  38.076  1.00  0.00    -0.237 OA
ATOM     62  O   UNL A   1      41.274  37.082  40.388  1.00  0.00    -0.237 OA
ATOM     63  O   UNL A   1      43.078  35.754  39.386  1.00  0.00    -0.744 OA
ENDBRANCH  57  60
ENDBRANCH  29  53
BRANCH  41  64
ATOM     64  C   UNL A   1      44.143  28.500  35.429  1.00  0.00     0.023 A 
ATOM     65  C   UNL A   1      45.458  28.983  35.279  1.00  0.00     0.012 A 
ATOM     66  C   UNL A   1      43.888  27.462  36.348  1.00  0.00     0.148 A 
ATOM     67  C   UNL A   1      46.504  28.429  36.017  1.00  0.00     0.002 A 
ATOM     68  C   UNL A   1      44.926  26.949  37.114  1.00  0.00     0.091 A 
ATOM     69  F   UNL A   1      42.633  27.004  36.460  1.00  0.00    -0.205 F 
ATOM     70  C   UNL A   1      46.236  27.424  36.943  1.00  0.00     0.022 A 
BRANCH  68  71
ATOM     71  S   UNL A   1      44.659  25.722  38.400  1.00  0.00     0.127 S 
ATOM     72  O   UNL A   1      43.797  26.448  39.331  1.00  0.00    -0.237 OA
ATOM     73  O   UNL A   1      43.994  24.644  37.666  1.00  0.00    -0.237 OA
ATOM     74  O   UNL A   1      45.979  25.381  38.912  1.00  0.00    -0.744 OA
ENDBRANCH  68  71
ENDBRANCH  41  64
ENDBRANCH  15  16
ENDBRANCH   8  10
ENDBRANCH   5   6
ENDBRANCH   4   5
ENDBRANCH   3   4
ENDBRANCH   2   3
ENDBRANCH   1   2
BRANCH   1  75
ATOM     75  C   UNL A   1      34.253  27.912  25.977  1.00  0.00     0.116 C 
BRANCH  75  76
ATOM     76  N   UNL A   1      33.826  28.562  24.758  1.00  0.00    -0.356 N 
ATOM     77  C   UNL A   1      32.743  28.395  23.961  1.00  0.00     0.224 C 
ATOM     78  H   UNL A   1      34.443  29.262  24.446  1.00  0.00     0.163 HD
ATOM     79  O   UNL A   1      32.727  29.088  22.935  1.00  0.00    -0.275 OA
BRANCH  77  80
ATOM     80  C   UNL A   1      31.530  27.542  24.334  1.00  0.00     0.098 C 
ATOM     81  C   UNL A   1      31.697  26.048  24.775  1.00  0.00     0.098 C 
ATOM     82  C   UNL A   1      30.588  27.406  23.095  1.00  0.00     0.025 C 
ATOM     83  C   UNL A   1      30.776  25.289  23.779  1.00  0.00     0.025 C 
ATOM     84  C   UNL A   1      31.316  26.644  22.005  1.00  0.00    -0.027 C 
ATOM     85  C   UNL A   1      29.641  26.290  23.535  1.00  0.00     0.017 C 
ATOM     86  C   UNL A   1      31.434  25.372  22.416  1.00  0.00    -0.027 C 
BRANCH  81  87
ATOM     87  C   UNL A   1      31.204  25.884  26.215  1.00  0.00     0.224 C 
ATOM     88  O   UNL A   1      30.692  26.814  26.839  1.00  0.00    -0.275 OA
ATOM     89  N   UNL A   1      31.364  24.708  26.879  1.00  0.00    -0.352 N 
ATOM     90  H   UNL A   1      31.403  24.778  27.861  1.00  0.00     0.163 HD
BRANCH  89  91
ATOM     91  C   UNL A   1      31.484  23.367  26.345  1.00  0.00     0.155 C 
BRANCH  91  92
ATOM     92  C   UNL A   1      32.869  22.844  26.066  1.00  0.00     0.013 A 
ATOM     93  C   UNL A   1      33.986  23.603  26.492  1.00  0.00     0.009 A 
ATOM     94  C   UNL A   1      33.112  21.605  25.437  1.00  0.00     0.124 A 
ATOM     95  C   UNL A   1      35.296  23.144  26.339  1.00  0.00     0.001 A 
ATOM     96  C   UNL A   1      34.443  21.160  25.305  1.00  0.00     0.047 A 
ATOM     97  C   UNL A   1      35.525  21.914  25.750  1.00  0.00     0.004 A 
BRANCH  94  98
ATOM     98  O   UNL A   1      32.264  20.686  24.886  1.00  0.00    -0.489 OA
BRANCH  98  99
ATOM     99  C   UNL A   1      32.511  19.876  23.739  1.00  0.00     0.265 C 
BRANCH  99 100
ATOM    100  C   UNL A   1      32.851  18.442  24.072  1.00  0.00    -0.011 A 
ATOM    101  C   UNL A   1      32.573  17.923  25.348  1.00  0.00     0.007 A 
ATOM    102  C   UNL A   1      33.520  17.635  23.142  1.00  0.00     0.007 A 
ATOM    103  C   UNL A   1      33.098  16.689  25.732  1.00  0.00     0.000 A 
ATOM    104  C   UNL A   1      34.010  16.386  23.517  1.00  0.00     0.000 A 
ATOM    105  C   UNL A   1      33.830  15.929  24.822  1.00  0.00     0.000 A 
ENDBRANCH  99 100
ENDBRANCH  98  99
ENDBRANCH  94  98
ENDBRANCH  91  92
ENDBRANCH  89  91
ENDBRANCH  81  87
ENDBRANCH  77  80
ENDBRANCH  75  76
ENDBRANCH   1  75
TORSDOF 22
ENDMDL
MODEL 2
REMARK VINA RESULT:     -12.1      5.690     10.101
REMARK SMILES O=C(NCCCCCCNC(=O)[C@@H]1[C@@H](C(=O)NCc2ccccc2OCc2ccccc2)[C@@H]2C=C[C@H]1C2)c1ccc(-c2c3nc(c(-c4cccc(S(=O)(=O)[O-])c4F)c4ccc([nH]4)c(-c4cccc(S(=O)(=O)[O-])c4F)c4nc(c(-c5cccc(S(=O)(=O)[O-])c5F)c5ccc2[nH]5)C=C4)C=C3)cc1
REMARK SMILES IDX 8 1 7 2 6 3 5 4 4 5 3 6 1 7 2 8 38 10 39 11 100 12 40 13
REMARK SMILES IDX 99 14 41 15 42 16 43 17 93 18 44 19 98 20 92 21 94 22 45 23
REMARK SMILES IDX 97 24 91 25 90 26 46 28 78 29 58 30 77 31 59 32 62 33 76 34
REMARK SMILES IDX 95 35 60 36 61 37 75 39 96 40 63 41 47 42 48 43 56 44 49 45
REMARK SMILES IDX 51 46 57 47 50 48 52 49 53 50 54 51 55 52 79 53 80 54 88 55
REMARK SMILES IDX 81 56 83 57 89 58 82 59 84 60 85 61 86 62 87 63 64 64 65 65
REMARK SMILES IDX 73 66 66 67 68 68 74 69 67 70 69 71 70 72 71 73 72 74 9 75
REMARK SMILES IDX 10 76 11 77 12 79 13 80 14 81 36 82 33 83 35 84 37 85 34 86
REMARK SMILES IDX 15 87 16 88 17 89 18 91 19 92 20 93 24 94 21 95 23 96 22 97
REMARK SMILES IDX 25 98 26 99 27 100 28 101 32 102 29 103 31 104 30 105
REMARK H PARENT 3 9 94 27 62 38 10 78 17 90
REMARK Flexibility Score: inf
ROOT
ATOM      1  C   UNL A   1      35.547  24.170  24.134  1.00  0.00     0.021 C 
ENDROOT
BRANCH   1   2
ATOM      2  C   UNL A   1      36.521  23.169  24.766  1.00  0.00     0.002 C 
BRANCH   2   3
ATOM      3  C   UNL A   1      36.797  21.911  23.932  1.00  0.00     0.002 C 
BRANCH   3   4
ATOM      4  C   UNL A   1      37.426  20.744  24.697  1.00  0.00     0.021 C 
BRANCH   4   5
ATOM      5  C   UNL A   1      38.285  21.151  25.890  1.00  0.00     0.116 C 
BRANCH   5   6
ATOM      6  N   UNL A   1      39.355  20.200  26.127  1.00  0.00    -0.352 N 
ATOM      7  O   UNL A   1      41.487  19.515  26.302  1.00  0.00    -0.269 OA
ATOM      8  C   UNL A   1      40.681  20.434  26.402  1.00  0.00     0.251 C 
ATOM      9  H   UNL A   1      39.095  19.252  26.084  1.00  0.00     0.163 HD
BRANCH   8  10
ATOM     10  C   UNL A   1      41.135  21.785  26.807  1.00  0.00     0.039 A 
ATOM     11  C   UNL A   1      41.524  22.057  28.122  1.00  0.00     0.014 A 
ATOM     12  C   UNL A   1      41.237  22.781  25.831  1.00  0.00     0.014 A 
ATOM     13  C   UNL A   1      41.923  23.344  28.482  1.00  0.00     0.010 A 
ATOM     14  C   UNL A   1      41.692  24.055  26.181  1.00  0.00     0.010 A 
ATOM     15  C   UNL A   1      42.021  24.355  27.513  1.00  0.00    -0.014 A 
BRANCH  15  16
ATOM     16  C   UNL A   1      42.526  25.705  27.873  1.00  0.00     0.031 A 
ATOM     17  C   UNL A   1      41.625  26.715  28.528  1.00  0.00     0.074 A 
ATOM     18  C   UNL A   1      43.787  26.045  27.541  1.00  0.00     0.049 A 
ATOM     19  N   UNL A   1      41.869  27.965  28.828  1.00  0.00    -0.248 NA
ATOM     20  C   UNL A   1      40.269  26.267  28.880  1.00  0.00     0.031 C 
ATOM     21  C   UNL A   1      44.745  25.168  26.867  1.00  0.00     0.029 A 
ATOM     22  N   UNL A   1      44.467  27.228  27.691  1.00  0.00    -0.354 N 
ATOM     23  C   UNL A   1      40.687  28.467  29.361  1.00  0.00     0.074 A 
ATOM     24  C   UNL A   1      39.725  27.385  29.341  1.00  0.00     0.031 C 
ATOM     25  C   UNL A   1      45.883  25.844  26.650  1.00  0.00     0.029 A 
ATOM     26  C   UNL A   1      45.718  27.214  27.122  1.00  0.00     0.049 A 
ATOM     27  H   UNL A   1      44.095  28.010  28.161  1.00  0.00     0.167 HD
ATOM     28  C   UNL A   1      40.431  29.712  29.832  1.00  0.00     0.034 A 
ATOM     29  C   UNL A   1      46.624  28.200  26.966  1.00  0.00     0.034 A 
ATOM     30  C   UNL A   1      41.398  30.776  29.872  1.00  0.00     0.049 A 
ATOM     31  C   UNL A   1      46.322  29.568  27.505  1.00  0.00     0.074 A 
ATOM     32  C   UNL A   1      41.254  32.050  30.395  1.00  0.00     0.029 A 
ATOM     33  N   UNL A   1      42.683  30.702  29.355  1.00  0.00    -0.354 N 
ATOM     34  N   UNL A   1      45.245  29.988  28.125  1.00  0.00    -0.248 NA
ATOM     35  C   UNL A   1      47.367  30.591  27.356  1.00  0.00     0.031 C 
ATOM     36  C   UNL A   1      42.443  32.753  30.171  1.00  0.00     0.029 A 
ATOM     37  C   UNL A   1      43.338  31.907  29.537  1.00  0.00     0.049 A 
ATOM     38  H   UNL A   1      43.071  29.907  28.921  1.00  0.00     0.167 HD
ATOM     39  C   UNL A   1      45.497  31.310  28.472  1.00  0.00     0.074 A 
ATOM     40  C   UNL A   1      46.831  31.619  28.002  1.00  0.00     0.031 C 
ATOM     41  C   UNL A   1      44.689  32.188  29.116  1.00  0.00     0.034 A 
BRANCH  28  42
ATOM     42  C   UNL A   1      39.049  29.984  30.370  1.00  0.00     0.023 A 
ATOM     43  C   UNL A   1      38.626  29.357  31.559  1.00  0.00     0.012 A 
ATOM     44  C   UNL A   1      38.189  30.896  29.729  1.00  0.00     0.148 A 
ATOM     45  C   UNL A   1      37.354  29.600  32.079  1.00  0.00     0.002 A 
ATOM     46  C   UNL A   1      36.939  31.168  30.276  1.00  0.00     0.091 A 
ATOM     47  F   UNL A   1      38.597  31.470  28.587  1.00  0.00    -0.205 F 
ATOM     48  C   UNL A   1      36.516  30.511  31.443  1.00  0.00     0.022 A 
BRANCH  46  49
ATOM     49  S   UNL A   1      35.824  32.386  29.569  1.00  0.00     0.127 S 
ATOM     50  O   UNL A   1      34.634  32.216  30.402  1.00  0.00    -0.237 OA
ATOM     51  O   UNL A   1      36.549  33.638  29.792  1.00  0.00    -0.237 OA
ATOM     52  O   UNL A   1      35.672  32.019  28.169  1.00  0.00    -0.744 OA
ENDBRANCH  46  49
ENDBRANCH  28  42
BRANCH  29  53
ATOM     53  C   UNL A   1      47.920  27.897  26.298  1.00  0.00     0.023 A 
ATOM     54  C   UNL A   1      49.044  27.572  27.081  1.00  0.00     0.012 A 
ATOM     55  C   UNL A   1      48.024  27.856  24.893  1.00  0.00     0.148 A 
ATOM     56  C   UNL A   1      50.253  27.227  26.478  1.00  0.00     0.002 A 
ATOM     57  C   UNL A   1      49.215  27.457  24.299  1.00  0.00     0.091 A 
ATOM     58  F   UNL A   1      46.943  28.176  24.168  1.00  0.00    -0.205 F 
ATOM     59  C   UNL A   1      50.336  27.156  25.090  1.00  0.00     0.022 A 
BRANCH  57  60
ATOM     60  S   UNL A   1      49.375  27.202  22.528  1.00  0.00     0.127 S 
ATOM     61  O   UNL A   1      48.942  28.495  22.001  1.00  0.00    -0.237 OA
ATOM     62  O   UNL A   1      50.807  26.930  22.394  1.00  0.00    -0.237 OA
ATOM     63  O   UNL A   1      48.515  26.072  22.211  1.00  0.00    -0.744 OA
ENDBRANCH  57  60
ENDBRANCH  29  53
BRANCH  41  64
ATOM     64  C   UNL A   1      45.232  33.561  29.409  1.00  0.00     0.023 A 
ATOM     65  C   UNL A   1      46.010  33.781  30.562  1.00  0.00     0.012 A 
ATOM     66  C   UNL A   1      45.051  34.610  28.485  1.00  0.00     0.148 A 
ATOM     67  C   UNL A   1      46.583  35.030  30.801  1.00  0.00     0.002 A 
ATOM     68  C   UNL A   1      45.665  35.836  28.705  1.00  0.00     0.091 A 
ATOM     69  F   UNL A   1      44.289  34.385  27.404  1.00  0.00    -0.205 F 
ATOM     70  C   UNL A   1      46.423  36.051  29.867  1.00  0.00     0.022 A 
BRANCH  68  71
ATOM     71  S   UNL A   1      45.594  37.177  27.511  1.00  0.00     0.127 S 
ATOM     72  O   UNL A   1      45.982  38.325  28.328  1.00  0.00    -0.237 OA
ATOM     73  O   UNL A   1      46.594  36.765  26.523  1.00  0.00    -0.237 OA
ATOM     74  O   UNL A   1      44.226  37.201  27.012  1.00  0.00    -0.744 OA
ENDBRANCH  68  71
ENDBRANCH  41  64
ENDBRANCH  15  16
ENDBRANCH   8  10
ENDBRANCH   5   6
ENDBRANCH   4   5
ENDBRANCH   3   4
ENDBRANCH   2   3
ENDBRANCH   1   2
BRANCH   1  75
ATOM     75  C   UNL A   1      34.394  24.580  25.054  1.00  0.00     0.116 C 
BRANCH  75  76
ATOM     76  N   UNL A   1      34.452  25.995  25.348  1.00  0.00    -0.356 N 
ATOM     77  C   UNL A   1      33.685  27.044  24.962  1.00  0.00     0.224 C 
ATOM     78  H   UNL A   1      35.194  26.245  25.943  1.00  0.00     0.163 HD
ATOM     79  O   UNL A   1      34.069  28.155  25.353  1.00  0.00    -0.275 OA
BRANCH  77  80
ATOM     80  C   UNL A   1      32.350  26.903  24.231  1.00  0.00     0.098 C 
ATOM     81  C   UNL A   1      31.803  25.497  23.808  1.00  0.00     0.098 C 
ATOM     82  C   UNL A   1      32.428  27.642  22.856  1.00  0.00     0.025 C 
ATOM     83  C   UNL A   1      31.581  25.659  22.279  1.00  0.00     0.025 C 
ATOM     84  C   UNL A   1      33.458  26.949  21.984  1.00  0.00    -0.027 C 
ATOM     85  C   UNL A   1      31.175  27.132  22.147  1.00  0.00     0.017 C 
ATOM     86  C   UNL A   1      32.952  25.756  21.640  1.00  0.00    -0.027 C 
BRANCH  81  87
ATOM     87  C   UNL A   1      30.481  25.227  24.531  1.00  0.00     0.224 C 
ATOM     88  O   UNL A   1      29.587  26.073  24.594  1.00  0.00    -0.275 OA
ATOM     89  N   UNL A   1      30.266  24.051  25.179  1.00  0.00    -0.352 N 
ATOM     90  H   UNL A   1      29.617  24.088  25.919  1.00  0.00     0.163 HD
BRANCH  89  91
ATOM     91  C   UNL A   1      30.856  22.752  24.933  1.00  0.00     0.155 C 
BRANCH  91  92
ATOM     92  C   UNL A   1      32.018  22.335  25.796  1.00  0.00     0.013 A 
ATOM     93  C   UNL A   1      32.140  22.887  27.095  1.00  0.00     0.009 A 
ATOM     94  C   UNL A   1      32.975  21.380  25.391  1.00  0.00     0.124 A 
ATOM     95  C   UNL A   1      33.145  22.488  27.979  1.00  0.00     0.001 A 
ATOM     96  C   UNL A   1      33.972  20.987  26.307  1.00  0.00     0.047 A 
ATOM     97  C   UNL A   1      34.060  21.528  27.586  1.00  0.00     0.004 A 
BRANCH  94  98
ATOM     98  O   UNL A   1      33.150  20.716  24.209  1.00  0.00    -0.489 OA
BRANCH  98  99
ATOM     99  C   UNL A   1      32.418  19.581  23.752  1.00  0.00     0.265 C 
BRANCH  99 100
ATOM    100  C   UNL A   1      32.977  18.264  24.238  1.00  0.00    -0.011 A 
ATOM    101  C   UNL A   1      32.242  17.465  25.130  1.00  0.00     0.007 A 
ATOM    102  C   UNL A   1      34.268  17.860  23.871  1.00  0.00     0.007 A 
ATOM    103  C   UNL A   1      32.848  16.379  25.762  1.00  0.00     0.000 A 
ATOM    104  C   UNL A   1      34.858  16.752  24.476  1.00  0.00     0.000 A 
ATOM    105  C   UNL A   1      34.161  16.034  25.447  1.00  0.00     0.000 A 
ENDBRANCH  99 100
ENDBRANCH  98  99
ENDBRANCH  94  98
ENDBRANCH  91  92
ENDBRANCH  89  91
ENDBRANCH  81  87
ENDBRANCH  77  80
ENDBRANCH  75  76
ENDBRANCH   1  75
TORSDOF 22
ENDMDL
MODEL 3
REMARK VINA RESULT:     -11.9      5.171      8.419
REMARK SMILES O=C(NCCCCCCNC(=O)[C@@H]1[C@@H](C(=O)NCc2ccccc2OCc2ccccc2)[C@@H]2C=C[C@H]1C2)c1ccc(-c2c3nc(c(-c4cccc(S(=O)(=O)[O-])c4F)c4ccc([nH]4)c(-c4cccc(S(=O)(=O)[O-])c4F)c4nc(c(-c5cccc(S(=O)(=O)[O-])c5F)c5ccc2[nH]5)C=C4)C=C3)cc1
REMARK SMILES IDX 8 1 7 2 6 3 5 4 4 5 3 6 1 7 2 8 38 10 39 11 100 12 40 13
REMARK SMILES IDX 99 14 41 15 42 16 43 17 93 18 44 19 98 20 92 21 94 22 45 23
REMARK SMILES IDX 97 24 91 25 90 26 46 28 78 29 58 30 77 31 59 32 62 33 76 34
REMARK SMILES IDX 95 35 60 36 61 37 75 39 96 40 63 41 47 42 48 43 56 44 49 45
REMARK SMILES IDX 51 46 57 47 50 48 52 49 53 50 54 51 55 52 79 53 80 54 88 55
REMARK SMILES IDX 81 56 83 57 89 58 82 59 84 60 85 61 86 62 87 63 64 64 65 65
REMARK SMILES IDX 73 66 66 67 68 68 74 69 67 70 69 71 70 72 71 73 72 74 9 75
REMARK SMILES IDX 10 76 11 77 12 79 13 80 14 81 36 82 33 83 35 84 37 85 34 86
REMARK SMILES IDX 15 87 16 88 17 89 18 91 19 92 20 93 24 94 21 95 23 96 22 97
REMARK SMILES IDX 25 98 26 99 27 100 28 101 32 102 29 103 31 104 30 105
REMARK H PARENT 3 9 94 27 62 38 10 78 17 90
REMARK Flexibility Score: inf
ROOT
ATOM      1  C   UNL A   1      35.210  24.453  24.222  1.00  0.00     0.021 C 
ENDROOT
BRANCH   1   2
ATOM      2  C   UNL A   1      36.385  23.577  24.674  1.00  0.00     0.002 C 
BRANCH   2   3
ATOM      3  C   UNL A   1      36.494  22.217  23.973  1.00  0.00     0.002 C 
BRANCH   3   4
ATOM      4  C   UNL A   1      37.431  21.209  24.642  1.00  0.00     0.021 C 
BRANCH   4   5
ATOM      5  C   UNL A   1      38.278  21.780  25.775  1.00  0.00     0.116 C 
BRANCH   5   6
ATOM      6  N   UNL A   1      39.383  20.900  26.111  1.00  0.00    -0.352 N 
ATOM      7  O   UNL A   1      41.533  20.350  26.458  1.00  0.00    -0.269 OA
ATOM      8  C   UNL A   1      40.667  21.220  26.479  1.00  0.00     0.251 C 
ATOM      9  H   UNL A   1      39.184  19.937  26.069  1.00  0.00     0.163 HD
BRANCH   8  10
ATOM     10  C   UNL A   1      41.008  22.602  26.887  1.00  0.00     0.039 A 
ATOM     11  C   UNL A   1      41.544  22.876  28.150  1.00  0.00     0.014 A 
ATOM     12  C   UNL A   1      40.849  23.637  25.960  1.00  0.00     0.014 A 
ATOM     13  C   UNL A   1      41.831  24.190  28.518  1.00  0.00     0.010 A 
ATOM     14  C   UNL A   1      41.192  24.945  26.310  1.00  0.00     0.010 A 
ATOM     15  C   UNL A   1      41.668  25.238  27.599  1.00  0.00    -0.014 A 
BRANCH  15  16
ATOM     16  C   UNL A   1      42.053  26.628  27.956  1.00  0.00     0.031 A 
ATOM     17  C   UNL A   1      43.484  27.080  27.860  1.00  0.00     0.074 A 
ATOM     18  C   UNL A   1      41.115  27.467  28.439  1.00  0.00     0.049 A 
ATOM     19  N   UNL A   1      44.013  28.222  28.214  1.00  0.00    -0.248 NA
ATOM     20  C   UNL A   1      44.449  26.118  27.304  1.00  0.00     0.031 C 
ATOM     21  C   UNL A   1      39.701  27.134  28.618  1.00  0.00     0.029 A 
ATOM     22  N   UNL A   1      41.215  28.755  28.901  1.00  0.00    -0.354 N 
ATOM     23  C   UNL A   1      45.376  28.104  27.969  1.00  0.00     0.074 A 
ATOM     24  C   UNL A   1      45.593  26.775  27.437  1.00  0.00     0.031 C 
ATOM     25  C   UNL A   1      39.068  28.182  29.163  1.00  0.00     0.029 A 
ATOM     26  C   UNL A   1      40.038  29.243  29.417  1.00  0.00     0.049 A 
ATOM     27  H   UNL A   1      42.048  29.279  28.865  1.00  0.00     0.167 HD
ATOM     28  C   UNL A   1      46.355  29.022  28.162  1.00  0.00     0.034 A 
ATOM     29  C   UNL A   1      39.769  30.399  30.055  1.00  0.00     0.034 A 
ATOM     30  C   UNL A   1      46.131  30.349  28.668  1.00  0.00     0.049 A 
ATOM     31  C   UNL A   1      40.868  31.405  30.246  1.00  0.00     0.074 A 
ATOM     32  C   UNL A   1      47.047  31.374  28.831  1.00  0.00     0.029 A 
ATOM     33  N   UNL A   1      44.909  30.835  29.110  1.00  0.00    -0.354 N 
ATOM     34  N   UNL A   1      42.126  31.325  29.888  1.00  0.00    -0.248 NA
ATOM     35  C   UNL A   1      40.507  32.671  30.899  1.00  0.00     0.031 C 
ATOM     36  C   UNL A   1      46.385  32.469  29.395  1.00  0.00     0.029 A 
ATOM     37  C   UNL A   1      45.049  32.138  29.554  1.00  0.00     0.049 A 
ATOM     38  H   UNL A   1      44.066  30.326  29.108  1.00  0.00     0.167 HD
ATOM     39  C   UNL A   1      42.700  32.543  30.237  1.00  0.00     0.074 A 
ATOM     40  C   UNL A   1      41.648  33.346  30.826  1.00  0.00     0.031 C 
ATOM     41  C   UNL A   1      43.983  32.951  30.087  1.00  0.00     0.034 A 
BRANCH  28  42
ATOM     42  C   UNL A   1      47.763  28.627  27.796  1.00  0.00     0.023 A 
ATOM     43  C   UNL A   1      48.251  28.896  26.501  1.00  0.00     0.012 A 
ATOM     44  C   UNL A   1      48.620  28.036  28.746  1.00  0.00     0.148 A 
ATOM     45  C   UNL A   1      49.554  28.546  26.144  1.00  0.00     0.002 A 
ATOM     46  C   UNL A   1      49.932  27.730  28.396  1.00  0.00     0.091 A 
ATOM     47  F   UNL A   1      48.137  27.767  29.967  1.00  0.00    -0.205 F 
ATOM     48  C   UNL A   1      50.395  27.973  27.093  1.00  0.00     0.022 A 
BRANCH  46  49
ATOM     49  S   UNL A   1      51.109  27.061  29.576  1.00  0.00     0.127 S 
ATOM     50  O   UNL A   1      52.384  27.402  28.946  1.00  0.00    -0.237 OA
ATOM     51  O   UNL A   1      50.806  27.827  30.787  1.00  0.00    -0.237 OA
ATOM     52  O   UNL A   1      50.811  25.640  29.672  1.00  0.00    -0.744 OA
ENDBRANCH  46  49
ENDBRANCH  28  42
BRANCH  29  53
ATOM     53  C   UNL A   1      38.379  30.670  30.517  1.00  0.00     0.023 A 
ATOM     54  C   UNL A   1      37.982  30.249  31.800  1.00  0.00     0.012 A 
ATOM     55  C   UNL A   1      37.477  31.406  29.723  1.00  0.00     0.148 A 
ATOM     56  C   UNL A   1      36.706  30.542  32.279  1.00  0.00     0.002 A 
ATOM     57  C   UNL A   1      36.228  31.743  30.228  1.00  0.00     0.091 A 
ATOM     58  F   UNL A   1      37.876  31.790  28.502  1.00  0.00    -0.205 F 
ATOM     59  C   UNL A   1      35.834  31.300  31.501  1.00  0.00     0.022 A 
BRANCH  57  60
ATOM     60  S   UNL A   1      35.094  32.830  29.357  1.00  0.00     0.127 S 
ATOM     61  O   UNL A   1      34.029  33.002  30.343  1.00  0.00    -0.237 OA
ATOM     62  O   UNL A   1      35.926  34.014  29.136  1.00  0.00    -0.237 OA
ATOM     63  O   UNL A   1      34.720  32.122  28.143  1.00  0.00    -0.744 OA
ENDBRANCH  57  60
ENDBRANCH  29  53
BRANCH  41  64
ATOM     64  C   UNL A   1      44.332  34.352  30.515  1.00  0.00     0.023 A 
ATOM     65  C   UNL A   1      44.851  34.587  31.802  1.00  0.00     0.012 A 
ATOM     66  C   UNL A   1      44.235  35.421  29.601  1.00  0.00     0.148 A 
ATOM     67  C   UNL A   1      45.251  35.869  32.181  1.00  0.00     0.002 A 
ATOM     68  C   UNL A   1      44.679  36.684  29.968  1.00  0.00     0.091 A 
ATOM     69  F   UNL A   1      43.718  35.178  28.388  1.00  0.00    -0.205 F 
ATOM     70  C   UNL A   1      45.179  36.912  31.260  1.00  0.00     0.022 A 
BRANCH  68  71
ATOM     71  S   UNL A   1      44.715  38.065  28.818  1.00  0.00     0.127 S 
ATOM     72  O   UNL A   1      45.447  39.072  29.584  1.00  0.00    -0.237 OA
ATOM     73  O   UNL A   1      45.453  37.504  27.684  1.00  0.00    -0.237 OA
ATOM     74  O   UNL A   1      43.324  38.388  28.534  1.00  0.00    -0.744 OA
ENDBRANCH  68  71
ENDBRANCH  41  64
ENDBRANCH  15  16
ENDBRANCH   8  10
ENDBRANCH   5   6
ENDBRANCH   4   5
ENDBRANCH   3   4
ENDBRANCH   2   3
ENDBRANCH   1   2
BRANCH   1  75
ATOM     75  C   UNL A   1      34.313  24.931  25.367  1.00  0.00     0.116 C 
BRANCH  75  76
ATOM     76  N   UNL A   1      34.348  26.373  25.476  1.00  0.00    -0.356 N 
ATOM     77  C   UNL A   1      33.563  27.350  24.962  1.00  0.00     0.224 C 
ATOM     78  H   UNL A   1      35.086  26.709  26.032  1.00  0.00     0.163 HD
ATOM     79  O   UNL A   1      33.928  28.508  25.205  1.00  0.00    -0.275 OA
BRANCH  77  80
ATOM     80  C   UNL A   1      32.229  27.094  24.260  1.00  0.00     0.098 C 
ATOM     81  C   UNL A   1      31.755  25.638  23.928  1.00  0.00     0.098 C 
ATOM     82  C   UNL A   1      32.251  27.753  22.843  1.00  0.00     0.025 C 
ATOM     83  C   UNL A   1      31.507  25.696  22.395  1.00  0.00     0.025 C 
ATOM     84  C   UNL A   1      33.307  27.067  21.998  1.00  0.00    -0.027 C 
ATOM     85  C   UNL A   1      31.020  27.134  22.183  1.00  0.00     0.017 C 
ATOM     86  C   UNL A   1      32.864  25.829  21.732  1.00  0.00    -0.027 C 
BRANCH  81  87
ATOM     87  C   UNL A   1      30.458  25.340  24.684  1.00  0.00     0.224 C 
ATOM     88  O   UNL A   1      29.554  26.172  24.784  1.00  0.00    -0.275 OA
ATOM     89  N   UNL A   1      30.278  24.153  25.324  1.00  0.00    -0.352 N 
ATOM     90  H   UNL A   1      29.650  24.172  26.083  1.00  0.00     0.163 HD
BRANCH  89  91
ATOM     91  C   UNL A   1      30.879  22.866  25.044  1.00  0.00     0.155 C 
BRANCH  91  92
ATOM     92  C   UNL A   1      32.061  22.448  25.880  1.00  0.00     0.013 A 
ATOM     93  C   UNL A   1      32.180  22.953  27.198  1.00  0.00     0.009 A 
ATOM     94  C   UNL A   1      33.039  21.536  25.430  1.00  0.00     0.124 A 
ATOM     95  C   UNL A   1      33.204  22.548  28.057  1.00  0.00     0.001 A 
ATOM     96  C   UNL A   1      34.055  21.135  26.321  1.00  0.00     0.047 A 
ATOM     97  C   UNL A   1      34.141  21.629  27.620  1.00  0.00     0.004 A 
BRANCH  94  98
ATOM     98  O   UNL A   1      33.219  20.922  24.222  1.00  0.00    -0.489 OA
BRANCH  98  99
ATOM     99  C   UNL A   1      32.464  19.832  23.698  1.00  0.00     0.265 C 
BRANCH  99 100
ATOM    100  C   UNL A   1      32.945  18.480  24.169  1.00  0.00    -0.011 A 
ATOM    101  C   UNL A   1      33.747  17.681  23.337  1.00  0.00     0.007 A 
ATOM    102  C   UNL A   1      32.532  17.969  25.407  1.00  0.00     0.007 A 
ATOM    103  C   UNL A   1      33.990  16.347  23.667  1.00  0.00     0.000 A 
ATOM    104  C   UNL A   1      32.808  16.648  25.751  1.00  0.00     0.000 A 
ATOM    105  C   UNL A   1      33.507  15.827  24.866  1.00  0.00     0.000 A 
ENDBRANCH  99 100
ENDBRANCH  98  99
ENDBRANCH  94  98
ENDBRANCH  91  92
ENDBRANCH  89  91
ENDBRANCH  81  87
ENDBRANCH  77  80
ENDBRANCH  75  76
ENDBRANCH   1  75
TORSDOF 22
ENDMDL
