MODEL 1
REMARK VINA RESULT:     -10.0      0.000      0.000
REMARK SMILES O=C(CN(CC(F)(F)F)c1nc(-c2ccccc2)cs1)NCCCCCCNC(=O)c1ccc(-c2c3nc(c(-c4cccc(S(=O)(=O)[O-])c4F)c4ccc([nH]4)c(-c4cccc(S(=O)(=O)[O-])c4F)c4nc(c(-c5cccc(S(=O)(=O)[O-])c5F)c5ccc2[nH]5)C=C4)C=C3)cc1
REMARK SMILES IDX 24 1 23 2 22 3 21 4 1 5 2 6 3 8 4 9 5 10 6 11 7 12 8 13 9 14
REMARK SMILES IDX 10 15 11 16 20 17 12 18 19 19 13 20 14 21 18 22 15 23 17 24
REMARK SMILES IDX 16 25 25 26 26 27 27 28 28 29 29 30 30 32 31 33 32 34 93 35
REMARK SMILES IDX 33 36 92 37 34 38 35 39 36 40 86 41 37 42 91 43 85 44 87 45
REMARK SMILES IDX 38 46 90 47 84 48 83 49 39 51 71 52 51 53 70 54 52 55 55 56
REMARK SMILES IDX 69 57 88 58 53 59 54 60 68 62 89 63 56 64 40 65 41 66 49 67
REMARK SMILES IDX 42 68 44 69 50 70 43 71 45 72 46 73 47 74 48 75 72 76 73 77
REMARK SMILES IDX 81 78 74 79 76 80 82 81 75 82 77 83 78 84 79 85 80 86 57 87
REMARK SMILES IDX 58 88 66 89 59 90 61 91 67 92 60 93 62 94 63 95 64 96 65 97
REMARK H PARENT 21 7 28 31 87 50 55 61
REMARK Flexibility Score: inf
ROOT
ATOM      1  C   UNL A   1      40.041  23.277  26.414  1.00  0.00     0.002 C 
ENDROOT
BRANCH   1   2
ATOM      2  C   UNL A   1      38.581  23.747  26.426  1.00  0.00     0.021 C 
BRANCH   2   3
ATOM      3  C   UNL A   1      37.592  22.792  25.755  1.00  0.00     0.116 C 
BRANCH   3   4
ATOM      4  N   UNL A   1      36.337  22.697  26.472  1.00  0.00    -0.355 N 
ATOM      5  O   UNL A   1      35.269  24.382  25.331  1.00  0.00    -0.273 OA
ATOM      6  C   UNL A   1      35.240  23.469  26.156  1.00  0.00     0.239 C 
ATOM      7  H   UNL A   1      36.265  22.055  27.214  1.00  0.00     0.163 HD
BRANCH   6   8
ATOM      8  C   UNL A   1      33.995  23.218  27.022  1.00  0.00     0.219 C 
BRANCH   8   9
ATOM      9  N   UNL A   1      32.727  23.093  26.276  1.00  0.00    -0.330 N 
BRANCH   9  10
ATOM     10  C   UNL A   1      31.709  24.152  26.416  1.00  0.00     0.234 C 
BRANCH  10  11
ATOM     11  C   UNL A   1      32.009  25.534  25.813  1.00  0.00     0.406 C 
ATOM     12  F   UNL A   1      30.934  26.353  25.835  1.00  0.00    -0.169 F 
ATOM     13  F   UNL A   1      32.975  26.155  26.537  1.00  0.00    -0.169 F 
ATOM     14  F   UNL A   1      32.457  25.458  24.540  1.00  0.00    -0.169 F 
ENDBRANCH  10  11
ENDBRANCH   9  10
BRANCH   9  15
ATOM     15  C   UNL A   1      32.631  22.099  25.349  1.00  0.00     0.186 A 
ATOM     16  N   UNL A   1      32.941  20.851  25.616  1.00  0.00    -0.220 NA
ATOM     17  S   UNL A   1      32.140  22.356  23.711  1.00  0.00    -0.105 S 
ATOM     18  C   UNL A   1      32.779  20.047  24.503  1.00  0.00     0.083 A 
ATOM     19  C   UNL A   1      32.371  20.704  23.363  1.00  0.00     0.097 A 
BRANCH  18  20
ATOM     20  C   UNL A   1      32.961  18.608  24.554  1.00  0.00     0.001 A 
ATOM     21  C   UNL A   1      32.623  17.879  25.703  1.00  0.00     0.010 A 
ATOM     22  C   UNL A   1      33.526  17.944  23.459  1.00  0.00     0.010 A 
ATOM     23  C   UNL A   1      32.870  16.506  25.761  1.00  0.00     0.001 A 
ATOM     24  C   UNL A   1      33.781  16.573  23.523  1.00  0.00     0.001 A 
ATOM     25  C   UNL A   1      33.456  15.856  24.675  1.00  0.00     0.000 A 
ENDBRANCH  18  20
ENDBRANCH   9  15
ENDBRANCH   8   9
ENDBRANCH   6   8
ENDBRANCH   3   4
ENDBRANCH   2   3
ENDBRANCH   1   2
BRANCH   1  26
ATOM     26  C   UNL A   1      40.499  22.509  27.658  1.00  0.00     0.002 C 
BRANCH  26  27
ATOM     27  C   UNL A   1      40.813  21.026  27.441  1.00  0.00     0.021 C 
BRANCH  27  28
ATOM     28  C   UNL A   1      40.813  20.565  25.986  1.00  0.00     0.116 C 
BRANCH  28  29
ATOM     29  N   UNL A   1      41.969  19.739  25.661  1.00  0.00    -0.352 N 
ATOM     30  C   UNL A   1      43.284  20.099  25.493  1.00  0.00     0.251 C 
ATOM     31  H   UNL A   1      41.780  18.780  25.548  1.00  0.00     0.163 HD
ATOM     32  O   UNL A   1      44.089  19.278  25.056  1.00  0.00    -0.269 OA
BRANCH  30  33
ATOM     33  C   UNL A   1      43.730  21.474  25.810  1.00  0.00     0.039 A 
ATOM     34  C   UNL A   1      43.705  22.443  24.802  1.00  0.00     0.014 A 
ATOM     35  C   UNL A   1      44.172  21.812  27.093  1.00  0.00     0.014 A 
ATOM     36  C   UNL A   1      44.053  23.763  25.100  1.00  0.00     0.010 A 
ATOM     37  C   UNL A   1      44.445  23.142  27.404  1.00  0.00     0.010 A 
ATOM     38  C   UNL A   1      44.386  24.133  26.413  1.00  0.00    -0.014 A 
BRANCH  38  39
ATOM     39  C   UNL A   1      44.626  25.557  26.772  1.00  0.00     0.031 A 
ATOM     40  C   UNL A   1      46.012  26.139  26.730  1.00  0.00     0.074 A 
ATOM     41  C   UNL A   1      43.601  26.304  27.227  1.00  0.00     0.049 A 
ATOM     42  N   UNL A   1      46.410  27.344  27.052  1.00  0.00    -0.248 NA
ATOM     43  C   UNL A   1      47.096  25.246  26.294  1.00  0.00     0.031 C 
ATOM     44  C   UNL A   1      42.226  25.832  27.402  1.00  0.00     0.029 A 
ATOM     45  N   UNL A   1      43.562  27.607  27.658  1.00  0.00    -0.354 N 
ATOM     46  C   UNL A   1      47.790  27.346  26.888  1.00  0.00     0.074 A 
ATOM     47  C   UNL A   1      48.164  26.010  26.474  1.00  0.00     0.031 C 
ATOM     48  C   UNL A   1      41.479  26.827  27.903  1.00  0.00     0.029 A 
ATOM     49  C   UNL A   1      42.326  27.996  28.120  1.00  0.00     0.049 A 
ATOM     50  H   UNL A   1      44.343  28.205  27.638  1.00  0.00     0.167 HD
ATOM     51  C   UNL A   1      48.664  28.370  27.038  1.00  0.00     0.034 A 
ATOM     52  C   UNL A   1      41.920  29.155  28.675  1.00  0.00     0.034 A 
ATOM     53  C   UNL A   1      48.287  29.701  27.435  1.00  0.00     0.049 A 
ATOM     54  C   UNL A   1      42.899  30.285  28.814  1.00  0.00     0.074 A 
ATOM     55  C   UNL A   1      49.082  30.829  27.533  1.00  0.00     0.029 A 
ATOM     56  N   UNL A   1      47.010  30.081  27.824  1.00  0.00    -0.354 N 
ATOM     57  N   UNL A   1      44.169  30.320  28.492  1.00  0.00    -0.248 NA
ATOM     58  C   UNL A   1      42.383  31.548  29.361  1.00  0.00     0.031 C 
ATOM     59  C   UNL A   1      48.295  31.881  28.017  1.00  0.00     0.029 A 
ATOM     60  C   UNL A   1      46.999  31.420  28.182  1.00  0.00     0.049 A 
ATOM     61  H   UNL A   1      46.225  29.486  27.842  1.00  0.00     0.167 HD
ATOM     62  C   UNL A   1      44.600  31.611  28.773  1.00  0.00     0.074 A 
ATOM     63  C   UNL A   1      43.446  32.336  29.267  1.00  0.00     0.031 C 
ATOM     64  C   UNL A   1      45.842  32.143  28.646  1.00  0.00     0.034 A 
BRANCH  51  65
ATOM     65  C   UNL A   1      50.116  28.093  26.736  1.00  0.00     0.023 A 
ATOM     66  C   UNL A   1      50.998  27.769  27.788  1.00  0.00     0.012 A 
ATOM     67  C   UNL A   1      50.604  28.121  25.414  1.00  0.00     0.148 A 
ATOM     68  C   UNL A   1      52.350  27.533  27.538  1.00  0.00     0.002 A 
ATOM     69  C   UNL A   1      51.942  27.835  25.167  1.00  0.00     0.091 A 
ATOM     70  F   UNL A   1      49.758  28.446  24.426  1.00  0.00    -0.205 F 
ATOM     71  C   UNL A   1      52.819  27.558  26.229  1.00  0.00     0.022 A 
BRANCH  69  72
ATOM     72  S   UNL A   1      52.625  27.760  23.507  1.00  0.00     0.127 S 
ATOM     73  O   UNL A   1      53.983  28.256  23.725  1.00  0.00    -0.237 OA
ATOM     74  O   UNL A   1      52.540  26.331  23.205  1.00  0.00    -0.237 OA
ATOM     75  O   UNL A   1      51.772  28.606  22.685  1.00  0.00    -0.744 OA
ENDBRANCH  69  72
ENDBRANCH  51  65
BRANCH  52  76
ATOM     76  C   UNL A   1      40.499  29.304  29.099  1.00  0.00     0.023 A 
ATOM     77  C   UNL A   1      39.505  29.553  28.133  1.00  0.00     0.012 A 
ATOM     78  C   UNL A   1      40.123  29.137  30.447  1.00  0.00     0.148 A 
ATOM     79  C   UNL A   1      38.164  29.655  28.505  1.00  0.00     0.002 A 
ATOM     80  C   UNL A   1      38.781  29.182  30.802  1.00  0.00     0.091 A 
ATOM     81  F   UNL A   1      41.087  28.908  31.349  1.00  0.00    -0.205 F 
ATOM     82  C   UNL A   1      37.801  29.458  29.836  1.00  0.00     0.022 A 
BRANCH  80  83
ATOM     83  S   UNL A   1      38.207  28.799  32.459  1.00  0.00     0.127 S 
ATOM     84  O   UNL A   1      38.960  29.757  33.265  1.00  0.00    -0.237 OA
ATOM     85  O   UNL A   1      36.774  29.076  32.352  1.00  0.00    -0.237 OA
ATOM     86  O   UNL A   1      38.534  27.398  32.680  1.00  0.00    -0.744 OA
ENDBRANCH  80  83
ENDBRANCH  52  76
BRANCH  64  87
ATOM     87  C   UNL A   1      46.024  33.590  29.030  1.00  0.00     0.023 A 
ATOM     88  C   UNL A   1      46.476  33.923  30.323  1.00  0.00     0.012 A 
ATOM     89  C   UNL A   1      45.809  34.616  28.089  1.00  0.00     0.148 A 
ATOM     90  C   UNL A   1      46.678  35.255  30.683  1.00  0.00     0.002 A 
ATOM     91  C   UNL A   1      46.062  35.938  28.439  1.00  0.00     0.091 A 
ATOM     92  F   UNL A   1      45.362  34.282  26.869  1.00  0.00    -0.205 F 
ATOM     93  C   UNL A   1      46.483  36.260  29.739  1.00  0.00     0.022 A 
BRANCH  91  94
ATOM     94  S   UNL A   1      45.930  37.291  27.264  1.00  0.00     0.127 S 
ATOM     95  O   UNL A   1      44.494  37.306  26.988  1.00  0.00    -0.237 OA
ATOM     96  O   UNL A   1      46.412  38.428  28.048  1.00  0.00    -0.237 OA
ATOM     97  O   UNL A   1      46.777  36.930  26.136  1.00  0.00    -0.744 OA
ENDBRANCH  91  94
ENDBRANCH  64  87
ENDBRANCH  38  39
ENDBRANCH  30  33
ENDBRANCH  28  29
ENDBRANCH  27  28
ENDBRANCH  26  27
ENDBRANCH   1  26
TORSDOF 21
ENDMDL
MODEL 2
REMARK VINA RESULT:      -9.9      1.645      1.974
REMARK SMILES O=C(CN(CC(F)(F)F)c1nc(-c2ccccc2)cs1)NCCCCCCNC(=O)c1ccc(-c2c3nc(c(-c4cccc(S(=O)(=O)[O-])c4F)c4ccc([nH]4)c(-c4cccc(S(=O)(=O)[O-])c4F)c4nc(c(-c5cccc(S(=O)(=O)[O-])c5F)c5ccc2[nH]5)C=C4)C=C3)cc1
REMARK SMILES IDX 24 1 23 2 22 3 21 4 1 5 2 6 3 8 4 9 5 10 6 11 7 12 8 13 9 14
REMARK SMILES IDX 10 15 11 16 20 17 12 18 19 19 13 20 14 21 18 22 15 23 17 24
REMARK SMILES IDX 16 25 25 26 26 27 27 28 28 29 29 30 30 32 31 33 32 34 93 35
REMARK SMILES IDX 33 36 92 37 34 38 35 39 36 40 86 41 37 42 91 43 85 44 87 45
REMARK SMILES IDX 38 46 90 47 84 48 83 49 39 51 71 52 51 53 70 54 52 55 55 56
REMARK SMILES IDX 69 57 88 58 53 59 54 60 68 62 89 63 56 64 40 65 41 66 49 67
REMARK SMILES IDX 42 68 44 69 50 70 43 71 45 72 46 73 47 74 48 75 72 76 73 77
REMARK SMILES IDX 81 78 74 79 76 80 82 81 75 82 77 83 78 84 79 85 80 86 57 87
REMARK SMILES IDX 58 88 66 89 59 90 61 91 67 92 60 93 62 94 63 95 64 96 65 97
REMARK H PARENT 21 7 28 31 87 50 55 61
REMARK Flexibility Score: inf
ROOT
ATOM      1  C   UNL A   1      41.187  22.319  26.672  1.00  0.00     0.002 C 
ENDROOT
BRANCH   1   2
ATOM      2  C   UNL A   1      39.673  22.095  26.570  1.00  0.00     0.021 C 
BRANCH   2   3
ATOM      3  C   UNL A   1      38.857  23.349  26.253  1.00  0.00     0.116 C 
BRANCH   3   4
ATOM      4  N   UNL A   1      37.950  23.155  25.140  1.00  0.00    -0.355 N 
ATOM      5  O   UNL A   1      36.031  23.687  26.284  1.00  0.00    -0.273 OA
ATOM      6  C   UNL A   1      36.597  23.403  25.230  1.00  0.00     0.239 C 
ATOM      7  H   UNL A   1      38.316  22.835  24.284  1.00  0.00     0.163 HD
BRANCH   6   8
ATOM      8  C   UNL A   1      35.801  23.150  23.940  1.00  0.00     0.219 C 
BRANCH   8   9
ATOM      9  N   UNL A   1      34.347  23.385  24.045  1.00  0.00    -0.330 N 
BRANCH   9  10
ATOM     10  C   UNL A   1      33.789  24.650  23.531  1.00  0.00     0.234 C 
BRANCH  10  11
ATOM     11  C   UNL A   1      33.031  24.620  22.193  1.00  0.00     0.406 C 
ATOM     12  F   UNL A   1      33.355  25.660  21.392  1.00  0.00    -0.169 F 
ATOM     13  F   UNL A   1      33.355  23.496  21.505  1.00  0.00    -0.169 F 
ATOM     14  F   UNL A   1      31.691  24.613  22.356  1.00  0.00    -0.169 F 
ENDBRANCH  10  11
ENDBRANCH   9  10
BRANCH   9  15
ATOM     15  C   UNL A   1      33.563  22.345  24.445  1.00  0.00     0.186 A 
ATOM     16  N   UNL A   1      33.872  21.092  24.199  1.00  0.00    -0.220 NA
ATOM     17  S   UNL A   1      32.058  22.537  25.274  1.00  0.00    -0.105 S 
ATOM     18  C   UNL A   1      32.905  20.234  24.687  1.00  0.00     0.083 A 
ATOM     19  C   UNL A   1      31.825  20.849  25.283  1.00  0.00     0.097 A 
BRANCH  18  20
ATOM     20  C   UNL A   1      33.050  18.791  24.633  1.00  0.00     0.001 A 
ATOM     21  C   UNL A   1      32.648  17.986  25.708  1.00  0.00     0.010 A 
ATOM     22  C   UNL A   1      33.643  18.197  23.514  1.00  0.00     0.010 A 
ATOM     23  C   UNL A   1      32.858  16.606  25.670  1.00  0.00     0.001 A 
ATOM     24  C   UNL A   1      33.862  16.818  23.482  1.00  0.00     0.001 A 
ATOM     25  C   UNL A   1      33.473  16.025  24.561  1.00  0.00     0.000 A 
ENDBRANCH  18  20
ENDBRANCH   9  15
ENDBRANCH   8   9
ENDBRANCH   6   8
ENDBRANCH   3   4
ENDBRANCH   2   3
ENDBRANCH   1   2
BRANCH   1  26
ATOM     26  C   UNL A   1      41.921  21.430  27.681  1.00  0.00     0.002 C 
BRANCH  26  27
ATOM     27  C   UNL A   1      42.132  19.976  27.251  1.00  0.00     0.021 C 
BRANCH  27  28
ATOM     28  C   UNL A   1      41.928  19.699  25.764  1.00  0.00     0.116 C 
BRANCH  28  29
ATOM     29  N   UNL A   1      43.087  19.065  25.149  1.00  0.00    -0.352 N 
ATOM     30  C   UNL A   1      44.278  19.618  24.747  1.00  0.00     0.251 C 
ATOM     31  H   UNL A   1      43.005  18.095  25.002  1.00  0.00     0.163 HD
ATOM     32  O   UNL A   1      45.073  18.944  24.093  1.00  0.00    -0.269 OA
BRANCH  30  33
ATOM     33  C   UNL A   1      44.598  21.026  25.073  1.00  0.00     0.039 A 
ATOM     34  C   UNL A   1      44.099  22.041  24.252  1.00  0.00     0.014 A 
ATOM     35  C   UNL A   1      45.385  21.349  26.183  1.00  0.00     0.014 A 
ATOM     36  C   UNL A   1      44.329  23.378  24.584  1.00  0.00     0.010 A 
ATOM     37  C   UNL A   1      45.548  22.682  26.553  1.00  0.00     0.010 A 
ATOM     38  C   UNL A   1      45.019  23.712  25.760  1.00  0.00    -0.014 A 
BRANCH  38  39
ATOM     39  C   UNL A   1      45.154  25.127  26.197  1.00  0.00     0.031 A 
ATOM     40  C   UNL A   1      46.471  25.845  26.091  1.00  0.00     0.074 A 
ATOM     41  C   UNL A   1      44.104  25.741  26.779  1.00  0.00     0.049 A 
ATOM     42  N   UNL A   1      46.780  27.061  26.464  1.00  0.00    -0.248 NA
ATOM     43  C   UNL A   1      47.595  25.092  25.513  1.00  0.00     0.031 C 
ATOM     44  C   UNL A   1      42.799  25.125  27.024  1.00  0.00     0.029 A 
ATOM     45  N   UNL A   1      43.978  27.005  27.300  1.00  0.00    -0.354 N 
ATOM     46  C   UNL A   1      48.136  27.210  26.196  1.00  0.00     0.074 A 
ATOM     47  C   UNL A   1      48.598  25.945  25.665  1.00  0.00     0.031 C 
ATOM     48  C   UNL A   1      42.005  26.009  27.647  1.00  0.00     0.029 A 
ATOM     49  C   UNL A   1      42.754  27.241  27.880  1.00  0.00     0.049 A 
ATOM     50  H   UNL A   1      44.696  27.677  27.261  1.00  0.00     0.167 HD
ATOM     51  C   UNL A   1      48.919  28.304  26.351  1.00  0.00     0.034 A 
ATOM     52  C   UNL A   1      42.287  28.318  28.541  1.00  0.00     0.034 A 
ATOM     53  C   UNL A   1      48.453  29.565  26.865  1.00  0.00     0.049 A 
ATOM     54  C   UNL A   1      43.164  29.529  28.684  1.00  0.00     0.074 A 
ATOM     55  C   UNL A   1      49.144  30.758  26.979  1.00  0.00     0.029 A 
ATOM     56  N   UNL A   1      47.182  29.792  27.374  1.00  0.00    -0.354 N 
ATOM     57  N   UNL A   1      44.395  29.709  28.269  1.00  0.00    -0.248 NA
ATOM     58  C   UNL A   1      42.579  30.699  29.353  1.00  0.00     0.031 C 
ATOM     59  C   UNL A   1      48.305  31.695  27.593  1.00  0.00     0.029 A 
ATOM     60  C   UNL A   1      47.075  31.099  27.823  1.00  0.00     0.049 A 
ATOM     61  H   UNL A   1      46.460  29.123  27.411  1.00  0.00     0.167 HD
ATOM     62  C   UNL A   1      44.725  31.016  28.606  1.00  0.00     0.074 A 
ATOM     63  C   UNL A   1      43.553  31.593  29.234  1.00  0.00     0.031 C 
ATOM     64  C   UNL A   1      45.897  31.674  28.422  1.00  0.00     0.034 A 
BRANCH  51  65
ATOM     65  C   UNL A   1      50.361  28.190  25.921  1.00  0.00     0.023 A 
ATOM     66  C   UNL A   1      51.373  28.072  26.897  1.00  0.00     0.012 A 
ATOM     67  C   UNL A   1      50.717  28.170  24.558  1.00  0.00     0.148 A 
ATOM     68  C   UNL A   1      52.715  27.991  26.527  1.00  0.00     0.002 A 
ATOM     69  C   UNL A   1      52.052  28.038  24.195  1.00  0.00     0.091 A 
ATOM     70  F   UNL A   1      49.746  28.300  23.641  1.00  0.00    -0.205 F 
ATOM     71  C   UNL A   1      53.054  27.965  25.178  1.00  0.00     0.022 A 
BRANCH  69  72
ATOM     72  S   UNL A   1      52.583  27.912  22.484  1.00  0.00     0.127 S 
ATOM     73  O   UNL A   1      52.170  29.209  21.951  1.00  0.00    -0.237 OA
ATOM     74  O   UNL A   1      54.030  27.743  22.623  1.00  0.00    -0.237 OA
ATOM     75  O   UNL A   1      51.888  26.757  21.934  1.00  0.00    -0.744 OA
ENDBRANCH  69  72
ENDBRANCH  51  65
BRANCH  52  76
ATOM     76  C   UNL A   1      40.898  28.300  29.081  1.00  0.00     0.023 A 
ATOM     77  C   UNL A   1      40.629  27.636  30.293  1.00  0.00     0.012 A 
ATOM     78  C   UNL A   1      39.859  28.992  28.430  1.00  0.00     0.148 A 
ATOM     79  C   UNL A   1      39.343  27.642  30.836  1.00  0.00     0.002 A 
ATOM     80  C   UNL A   1      38.595  29.045  29.005  1.00  0.00     0.091 A 
ATOM     81  F   UNL A   1      40.137  29.612  27.274  1.00  0.00    -0.205 F 
ATOM     82  C   UNL A   1      38.331  28.356  30.199  1.00  0.00     0.022 A 
BRANCH  80  83
ATOM     83  S   UNL A   1      37.270  30.054  28.334  1.00  0.00     0.127 S 
ATOM     84  O   UNL A   1      37.251  29.632  26.936  1.00  0.00    -0.237 OA
ATOM     85  O   UNL A   1      36.124  29.609  29.128  1.00  0.00    -0.237 OA
ATOM     86  O   UNL A   1      37.664  31.436  28.569  1.00  0.00    -0.744 OA
ENDBRANCH  80  83
ENDBRANCH  52  76
BRANCH  64  87
ATOM     87  C   UNL A   1      45.974  33.106  28.889  1.00  0.00     0.023 A 
ATOM     88  C   UNL A   1      46.451  33.400  30.183  1.00  0.00     0.012 A 
ATOM     89  C   UNL A   1      45.634  34.165  28.023  1.00  0.00     0.148 A 
ATOM     90  C   UNL A   1      46.556  34.720  30.619  1.00  0.00     0.002 A 
ATOM     91  C   UNL A   1      45.791  35.480  28.447  1.00  0.00     0.091 A 
ATOM     92  F   UNL A   1      45.166  33.867  26.802  1.00  0.00    -0.205 F 
ATOM     93  C   UNL A   1      46.238  35.759  29.748  1.00  0.00     0.022 A 
BRANCH  91  94
ATOM     94  S   UNL A   1      45.497  36.884  27.365  1.00  0.00     0.127 S 
ATOM     95  O   UNL A   1      44.068  36.751  27.085  1.00  0.00    -0.237 OA
ATOM     96  O   UNL A   1      45.846  38.015  28.226  1.00  0.00    -0.237 OA
ATOM     97  O   UNL A   1      46.376  36.702  26.219  1.00  0.00    -0.744 OA
ENDBRANCH  91  94
ENDBRANCH  64  87
ENDBRANCH  38  39
ENDBRANCH  30  33
ENDBRANCH  28  29
ENDBRANCH  27  28
ENDBRANCH  26  27
ENDBRANCH   1  26
TORSDOF 21
ENDMDL
MODEL 3
REMARK VINA RESULT:      -9.7      1.184      7.724
REMARK SMILES O=C(CN(CC(F)(F)F)c1nc(-c2ccccc2)cs1)NCCCCCCNC(=O)c1ccc(-c2c3nc(c(-c4cccc(S(=O)(=O)[O-])c4F)c4ccc([nH]4)c(-c4cccc(S(=O)(=O)[O-])c4F)c4nc(c(-c5cccc(S(=O)(=O)[O-])c5F)c5ccc2[nH]5)C=C4)C=C3)cc1
REMARK SMILES IDX 24 1 23 2 22 3 21 4 1 5 2 6 3 8 4 9 5 10 6 11 7 12 8 13 9 14
REMARK SMILES IDX 10 15 11 16 20 17 12 18 19 19 13 20 14 21 18 22 15 23 17 24
REMARK SMILES IDX 16 25 25 26 26 27 27 28 28 29 29 30 30 32 31 33 32 34 93 35
REMARK SMILES IDX 33 36 92 37 34 38 35 39 36 40 86 41 37 42 91 43 85 44 87 45
REMARK SMILES IDX 38 46 90 47 84 48 83 49 39 51 71 52 51 53 70 54 52 55 55 56
REMARK SMILES IDX 69 57 88 58 53 59 54 60 68 62 89 63 56 64 40 65 41 66 49 67
REMARK SMILES IDX 42 68 44 69 50 70 43 71 45 72 46 73 47 74 48 75 72 76 73 77
REMARK SMILES IDX 81 78 74 79 76 80 82 81 75 82 77 83 78 84 79 85 80 86 57 87
REMARK SMILES IDX 58 88 66 89 59 90 61 91 67 92 60 93 62 94 63 95 64 96 65 97
REMARK H PARENT 21 7 28 31 87 50 55 61
REMARK Flexibility Score: inf
ROOT
ATOM      1  C   UNL A   1      41.328  21.835  27.010  1.00  0.00     0.002 C 
ENDROOT
BRANCH   1   2
ATOM      2  C   UNL A   1      40.158  22.723  27.453  1.00  0.00     0.021 C 
BRANCH   2   3
ATOM      3  C   UNL A   1      39.543  23.579  26.345  1.00  0.00     0.116 C 
BRANCH   3   4
ATOM      4  N   UNL A   1      38.115  23.760  26.510  1.00  0.00    -0.355 N 
ATOM      5  O   UNL A   1      37.484  22.357  24.804  1.00  0.00    -0.273 OA
ATOM      6  C   UNL A   1      37.186  23.077  25.756  1.00  0.00     0.239 C 
ATOM      7  H   UNL A   1      37.797  24.397  27.190  1.00  0.00     0.163 HD
BRANCH   6   8
ATOM      8  C   UNL A   1      35.718  23.396  26.084  1.00  0.00     0.219 C 
BRANCH   8   9
ATOM      9  N   UNL A   1      34.765  23.171  24.979  1.00  0.00    -0.330 N 
BRANCH   9  10
ATOM     10  C   UNL A   1      34.933  23.934  23.726  1.00  0.00     0.234 C 
BRANCH  10  11
ATOM     11  C   UNL A   1      33.733  24.739  23.200  1.00  0.00     0.406 C 
ATOM     12  F   UNL A   1      32.819  23.960  22.579  1.00  0.00    -0.169 F 
ATOM     13  F   UNL A   1      33.085  25.333  24.235  1.00  0.00    -0.169 F 
ATOM     14  F   UNL A   1      34.101  25.720  22.348  1.00  0.00    -0.169 F 
ENDBRANCH  10  11
ENDBRANCH   9  10
BRANCH   9  15
ATOM     15  C   UNL A   1      33.887  22.137  25.098  1.00  0.00     0.186 A 
ATOM     16  N   UNL A   1      34.214  20.896  24.818  1.00  0.00    -0.220 NA
ATOM     17  S   UNL A   1      32.238  22.327  25.581  1.00  0.00    -0.105 S 
ATOM     18  C   UNL A   1      33.140  20.044  24.999  1.00  0.00     0.083 A 
ATOM     19  C   UNL A   1      31.969  20.655  25.389  1.00  0.00     0.097 A 
BRANCH  18  20
ATOM     20  C   UNL A   1      33.260  18.605  24.852  1.00  0.00     0.001 A 
ATOM     21  C   UNL A   1      32.569  17.734  25.706  1.00  0.00     0.010 A 
ATOM     22  C   UNL A   1      34.112  18.078  23.876  1.00  0.00     0.010 A 
ATOM     23  C   UNL A   1      32.748  16.353  25.597  1.00  0.00     0.001 A 
ATOM     24  C   UNL A   1      34.299  16.698  23.775  1.00  0.00     0.001 A 
ATOM     25  C   UNL A   1      33.620  15.838  24.637  1.00  0.00     0.000 A 
ENDBRANCH  18  20
ENDBRANCH   9  15
ENDBRANCH   8   9
ENDBRANCH   6   8
ENDBRANCH   3   4
ENDBRANCH   2   3
ENDBRANCH   1   2
BRANCH   1  26
ATOM     26  C   UNL A   1      41.613  20.622  27.900  1.00  0.00     0.002 C 
BRANCH  26  27
ATOM     27  C   UNL A   1      42.226  19.411  27.192  1.00  0.00     0.021 C 
BRANCH  27  28
ATOM     28  C   UNL A   1      42.100  19.411  25.671  1.00  0.00     0.116 C 
BRANCH  28  29
ATOM     29  N   UNL A   1      43.348  19.056  25.007  1.00  0.00    -0.352 N 
ATOM     30  C   UNL A   1      44.429  19.844  24.694  1.00  0.00     0.251 C 
ATOM     31  H   UNL A   1      43.429  18.111  24.745  1.00  0.00     0.163 HD
ATOM     32  O   UNL A   1      45.324  19.394  23.980  1.00  0.00    -0.269 OA
BRANCH  30  33
ATOM     33  C   UNL A   1      44.509  21.236  25.190  1.00  0.00     0.039 A 
ATOM     34  C   UNL A   1      44.995  21.467  26.480  1.00  0.00     0.014 A 
ATOM     35  C   UNL A   1      44.110  22.312  24.391  1.00  0.00     0.014 A 
ATOM     36  C   UNL A   1      45.148  22.777  26.940  1.00  0.00     0.010 A 
ATOM     37  C   UNL A   1      44.334  23.617  24.823  1.00  0.00     0.010 A 
ATOM     38  C   UNL A   1      44.858  23.865  26.100  1.00  0.00    -0.014 A 
BRANCH  38  39
ATOM     39  C   UNL A   1      45.143  25.262  26.527  1.00  0.00     0.031 A 
ATOM     40  C   UNL A   1      44.037  26.164  27.001  1.00  0.00     0.074 A 
ATOM     41  C   UNL A   1      46.393  25.749  26.398  1.00  0.00     0.049 A 
ATOM     42  N   UNL A   1      44.097  27.419  27.367  1.00  0.00    -0.248 NA
ATOM     43  C   UNL A   1      42.683  25.589  27.048  1.00  0.00     0.031 C 
ATOM     44  C   UNL A   1      47.536  25.005  25.865  1.00  0.00     0.029 A 
ATOM     45  N   UNL A   1      46.905  26.993  26.672  1.00  0.00    -0.354 N 
ATOM     46  C   UNL A   1      42.791  27.794  27.658  1.00  0.00     0.074 A 
ATOM     47  C   UNL A   1      41.955  26.643  27.387  1.00  0.00     0.031 C 
ATOM     48  C   UNL A   1      48.613  25.804  25.850  1.00  0.00     0.029 A 
ATOM     49  C   UNL A   1      48.232  27.128  26.336  1.00  0.00     0.049 A 
ATOM     50  H   UNL A   1      46.373  27.718  27.072  1.00  0.00     0.167 HD
ATOM     51  C   UNL A   1      42.329  28.976  28.132  1.00  0.00     0.034 A 
ATOM     52  C   UNL A   1      49.049  28.197  26.393  1.00  0.00     0.034 A 
ATOM     53  C   UNL A   1      43.165  30.114  28.414  1.00  0.00     0.049 A 
ATOM     54  C   UNL A   1      48.524  29.493  26.941  1.00  0.00     0.074 A 
ATOM     55  C   UNL A   1      42.809  31.327  28.977  1.00  0.00     0.029 A 
ATOM     56  N   UNL A   1      44.522  30.191  28.132  1.00  0.00    -0.354 N 
ATOM     57  N   UNL A   1      47.320  29.779  27.372  1.00  0.00    -0.248 NA
ATOM     58  C   UNL A   1      49.479  30.606  27.045  1.00  0.00     0.031 C 
ATOM     59  C   UNL A   1      43.941  32.149  29.000  1.00  0.00     0.029 A 
ATOM     60  C   UNL A   1      45.013  31.436  28.490  1.00  0.00     0.049 A 
ATOM     61  H   UNL A   1      45.058  29.466  27.736  1.00  0.00     0.167 HD
ATOM     62  C   UNL A   1      47.374  31.094  27.819  1.00  0.00     0.074 A 
ATOM     63  C   UNL A   1      48.741  31.540  27.632  1.00  0.00     0.031 C 
ATOM     64  C   UNL A   1      46.380  31.864  28.327  1.00  0.00     0.034 A 
BRANCH  51  65
ATOM     65  C   UNL A   1      40.850  29.083  28.409  1.00  0.00     0.023 A 
ATOM     66  C   UNL A   1      39.952  29.281  27.340  1.00  0.00     0.012 A 
ATOM     67  C   UNL A   1      40.343  28.958  29.718  1.00  0.00     0.148 A 
ATOM     68  C   UNL A   1      38.583  29.407  27.572  1.00  0.00     0.002 A 
ATOM     69  C   UNL A   1      38.972  29.035  29.936  1.00  0.00     0.091 A 
ATOM     70  F   UNL A   1      41.210  28.787  30.727  1.00  0.00    -0.205 F 
ATOM     71  C   UNL A   1      38.093  29.276  28.867  1.00  0.00     0.022 A 
BRANCH  69  72
ATOM     72  S   UNL A   1      38.235  28.796  31.557  1.00  0.00     0.127 S 
ATOM     73  O   UNL A   1      36.814  28.980  31.264  1.00  0.00    -0.237 OA
ATOM     74  O   UNL A   1      38.619  27.419  31.869  1.00  0.00    -0.237 OA
ATOM     75  O   UNL A   1      38.834  29.803  32.421  1.00  0.00    -0.744 OA
ENDBRANCH  69  72
ENDBRANCH  51  65
BRANCH  52  76
ATOM     76  C   UNL A   1      50.465  28.060  25.950  1.00  0.00     0.023 A 
ATOM     77  C   UNL A   1      51.482  27.884  26.908  1.00  0.00     0.012 A 
ATOM     78  C   UNL A   1      50.799  28.041  24.582  1.00  0.00     0.148 A 
ATOM     79  C   UNL A   1      52.809  27.713  26.512  1.00  0.00     0.002 A 
ATOM     80  C   UNL A   1      52.112  27.812  24.192  1.00  0.00     0.091 A 
ATOM     81  F   UNL A   1      49.815  28.217  23.688  1.00  0.00    -0.205 F 
ATOM     82  C   UNL A   1      53.122  27.664  25.156  1.00  0.00     0.022 A 
BRANCH  80  83
ATOM     83  S   UNL A   1      52.586  27.591  22.474  1.00  0.00     0.127 S 
ATOM     84  O   UNL A   1      53.895  26.957  22.604  1.00  0.00    -0.237 OA
ATOM     85  O   UNL A   1      51.523  26.715  21.980  1.00  0.00    -0.237 OA
ATOM     86  O   UNL A   1      52.588  28.924  21.888  1.00  0.00    -0.744 OA
ENDBRANCH  80  83
ENDBRANCH  52  76
BRANCH  64  87
ATOM     87  C   UNL A   1      46.730  33.273  28.737  1.00  0.00     0.023 A 
ATOM     88  C   UNL A   1      47.319  33.514  29.994  1.00  0.00     0.012 A 
ATOM     89  C   UNL A   1      46.533  34.350  27.850  1.00  0.00     0.148 A 
ATOM     90  C   UNL A   1      47.676  34.806  30.376  1.00  0.00     0.002 A 
ATOM     91  C   UNL A   1      46.939  35.628  28.216  1.00  0.00     0.091 A 
ATOM     92  F   UNL A   1      45.956  34.105  26.665  1.00  0.00    -0.205 F 
ATOM     93  C   UNL A   1      47.497  35.861  29.483  1.00  0.00     0.022 A 
BRANCH  91  94
ATOM     94  S   UNL A   1      46.837  37.032  27.099  1.00  0.00     0.127 S 
ATOM     95  O   UNL A   1      47.505  38.078  27.873  1.00  0.00    -0.237 OA
ATOM     96  O   UNL A   1      47.589  36.558  25.938  1.00  0.00    -0.237 OA
ATOM     97  O   UNL A   1      45.418  37.250  26.854  1.00  0.00    -0.744 OA
ENDBRANCH  91  94
ENDBRANCH  64  87
ENDBRANCH  38  39
ENDBRANCH  30  33
ENDBRANCH  28  29
ENDBRANCH  27  28
ENDBRANCH  26  27
ENDBRANCH   1  26
TORSDOF 21
ENDMDL
