MODEL 1
REMARK VINA RESULT:     -10.6      0.000      0.000
REMARK SMILES C[C@H](CC(=O)NCCCCCCNC(=O)c1ccc(-c2c3nc(c(-c4cccc(S(=O)(=O)[O-])c4F)c4ccc([nH]4)c(-c4cccc(S(=O)(=O)[O-])c4F)c4nc(c(-c5cccc(S(=O)(=O)[O-])c5F)c5ccc2[nH]5)C=C4)C=C3)cc1)NC(=O)Cc1cn2ccsc2n1
REMARK SMILES IDX 9 1 8 2 7 3 6 4 4 5 5 6 3 8 2 9 1 10 79 11 80 12 81 14 82 15
REMARK SMILES IDX 83 16 84 17 90 18 85 19 89 20 86 21 88 22 87 23 10 24 11 25
REMARK SMILES IDX 12 26 13 27 14 28 15 30 16 31 17 32 78 33 18 34 77 35 19 36
REMARK SMILES IDX 20 37 21 38 71 39 22 40 76 41 70 42 72 43 23 44 75 45 69 46
REMARK SMILES IDX 68 47 24 49 56 50 36 51 55 52 37 53 40 54 54 55 73 56 38 57
REMARK SMILES IDX 39 58 53 60 74 61 41 62 25 63 26 64 34 65 27 66 29 67 35 68
REMARK SMILES IDX 28 69 30 70 31 71 32 72 33 73 57 74 58 75 66 76 59 77 61 78
REMARK SMILES IDX 67 79 60 80 62 81 63 82 64 83 65 84 42 85 43 86 51 87 44 88
REMARK SMILES IDX 46 89 52 90 45 91 47 92 48 93 49 94 50 95
REMARK H PARENT 6 7 79 13 13 29 72 48 40 59
REMARK Flexibility Score: inf
ROOT
ATOM      1  C   UNL A   1      34.352  28.975  26.527  1.00  0.00     0.002 C 
ENDROOT
BRANCH   1   2
ATOM      2  C   UNL A   1      32.923  28.747  26.038  1.00  0.00     0.021 C 
BRANCH   2   3
ATOM      3  C   UNL A   1      32.630  29.331  24.658  1.00  0.00     0.116 C 
BRANCH   3   4
ATOM      4  N   UNL A   1      31.280  29.862  24.610  1.00  0.00    -0.356 N 
ATOM      5  C   UNL A   1      30.352  29.736  23.622  1.00  0.00     0.222 C 
ATOM      6  O   UNL A   1      29.303  30.374  23.692  1.00  0.00    -0.275 OA
ATOM      7  H   UNL A   1      30.996  30.379  25.399  1.00  0.00     0.163 HD
BRANCH   5   8
ATOM      8  C   UNL A   1      30.620  28.776  22.490  1.00  0.00     0.124 C 
BRANCH   8   9
ATOM      9  C   UNL A   1      30.957  27.324  22.859  1.00  0.00     0.088 C 
ATOM     10  C   UNL A   1      29.852  26.426  23.395  1.00  0.00     0.031 C 
BRANCH   9  11
ATOM     11  N   UNL A   1      31.563  26.660  21.693  1.00  0.00    -0.353 N 
ATOM     12  C   UNL A   1      32.816  26.144  21.528  1.00  0.00     0.226 C 
ATOM     13  H   UNL A   1      30.971  26.576  20.910  1.00  0.00     0.163 HD
ATOM     14  O   UNL A   1      33.077  25.580  20.464  1.00  0.00    -0.275 OA
BRANCH  12  15
ATOM     15  C   UNL A   1      33.835  26.260  22.640  1.00  0.00     0.157 C 
BRANCH  15  16
ATOM     16  C   UNL A   1      33.731  25.161  23.644  1.00  0.00     0.070 A 
ATOM     17  C   UNL A   1      34.206  25.111  24.954  1.00  0.00     0.118 A 
ATOM     18  N   UNL A   1      32.952  24.045  23.357  1.00  0.00    -0.223 NA
ATOM     19  N   UNL A   1      33.596  24.022  25.492  1.00  0.00    -0.297 N 
ATOM     20  C   UNL A   1      32.923  23.398  24.488  1.00  0.00     0.193 A 
ATOM     21  C   UNL A   1      33.446  23.475  26.744  1.00  0.00     0.104 A 
ATOM     22  S   UNL A   1      32.077  22.001  25.080  1.00  0.00    -0.105 S 
ATOM     23  C   UNL A   1      32.657  22.389  26.712  1.00  0.00     0.087 A 
ENDBRANCH  15  16
ENDBRANCH  12  15
ENDBRANCH   9  11
ENDBRANCH   8   9
ENDBRANCH   5   8
ENDBRANCH   3   4
ENDBRANCH   2   3
ENDBRANCH   1   2
BRANCH   1  24
ATOM     24  C   UNL A   1      34.485  30.011  27.642  1.00  0.00     0.002 C 
BRANCH  24  25
ATOM     25  C   UNL A   1      34.113  31.438  27.234  1.00  0.00     0.021 C 
BRANCH  25  26
ATOM     26  C   UNL A   1      32.736  31.894  27.705  1.00  0.00     0.116 C 
BRANCH  26  27
ATOM     27  N   UNL A   1      32.602  33.342  27.670  1.00  0.00    -0.352 N 
ATOM     28  C   UNL A   1      33.257  34.281  28.424  1.00  0.00     0.251 C 
ATOM     29  H   UNL A   1      31.955  33.695  27.018  1.00  0.00     0.163 HD
ATOM     30  O   UNL A   1      32.876  35.451  28.429  1.00  0.00    -0.269 OA
BRANCH  28  31
ATOM     31  C   UNL A   1      34.411  33.868  29.244  1.00  0.00     0.039 A 
ATOM     32  C   UNL A   1      34.196  33.070  30.368  1.00  0.00     0.014 A 
ATOM     33  C   UNL A   1      35.707  34.245  28.876  1.00  0.00     0.014 A 
ATOM     34  C   UNL A   1      35.292  32.597  31.092  1.00  0.00     0.010 A 
ATOM     35  C   UNL A   1      36.797  33.710  29.554  1.00  0.00     0.010 A 
ATOM     36  C   UNL A   1      36.601  32.884  30.671  1.00  0.00    -0.014 A 
BRANCH  36  37
ATOM     37  C   UNL A   1      37.778  32.313  31.372  1.00  0.00     0.031 A 
ATOM     38  C   UNL A   1      38.544  31.171  30.761  1.00  0.00     0.074 A 
ATOM     39  C   UNL A   1      38.103  32.765  32.599  1.00  0.00     0.049 A 
ATOM     40  N   UNL A   1      39.557  30.505  31.251  1.00  0.00    -0.248 NA
ATOM     41  C   UNL A   1      38.099  30.700  29.439  1.00  0.00     0.031 C 
ATOM     42  C   UNL A   1      37.391  33.817  33.329  1.00  0.00     0.029 A 
ATOM     43  N   UNL A   1      39.096  32.378  33.463  1.00  0.00    -0.354 N 
ATOM     44  C   UNL A   1      39.847  29.517  30.318  1.00  0.00     0.074 A 
ATOM     45  C   UNL A   1      38.883  29.651  29.247  1.00  0.00     0.031 C 
ATOM     46  C   UNL A   1      37.971  33.992  34.527  1.00  0.00     0.029 A 
ATOM     47  C   UNL A   1      39.070  33.043  34.668  1.00  0.00     0.049 A 
ATOM     48  H   UNL A   1      39.764  31.689  33.243  1.00  0.00     0.167 HD
ATOM     49  C   UNL A   1      40.842  28.599  30.337  1.00  0.00     0.034 A 
ATOM     50  C   UNL A   1      39.833  32.895  35.768  1.00  0.00     0.034 A 
ATOM     51  C   UNL A   1      41.817  28.492  31.387  1.00  0.00     0.049 A 
ATOM     52  C   UNL A   1      40.942  31.878  35.756  1.00  0.00     0.074 A 
ATOM     53  C   UNL A   1      42.917  27.655  31.457  1.00  0.00     0.029 A 
ATOM     54  N   UNL A   1      41.803  29.230  32.561  1.00  0.00    -0.354 N 
ATOM     55  N   UNL A   1      41.303  31.062  34.795  1.00  0.00    -0.248 NA
ATOM     56  C   UNL A   1      41.770  31.781  36.967  1.00  0.00     0.031 C 
ATOM     57  C   UNL A   1      43.545  27.861  32.689  1.00  0.00     0.029 A 
ATOM     58  C   UNL A   1      42.861  28.855  33.371  1.00  0.00     0.049 A 
ATOM     59  H   UNL A   1      41.136  29.920  32.785  1.00  0.00     0.167 HD
ATOM     60  C   UNL A   1      42.417  30.381  35.271  1.00  0.00     0.074 A 
ATOM     61  C   UNL A   1      42.686  30.896  36.598  1.00  0.00     0.031 C 
ATOM     62  C   UNL A   1      43.145  29.408  34.670  1.00  0.00     0.034 A 
BRANCH  49  63
ATOM     63  C   UNL A   1      40.955  27.660  29.163  1.00  0.00     0.023 A 
ATOM     64  C   UNL A   1      40.163  26.493  29.123  1.00  0.00     0.012 A 
ATOM     65  C   UNL A   1      41.796  27.961  28.074  1.00  0.00     0.148 A 
ATOM     66  C   UNL A   1      40.233  25.625  28.035  1.00  0.00     0.002 A 
ATOM     67  C   UNL A   1      41.824  27.115  26.972  1.00  0.00     0.091 A 
ATOM     68  F   UNL A   1      42.556  29.064  28.139  1.00  0.00    -0.205 F 
ATOM     69  C   UNL A   1      41.053  25.941  26.956  1.00  0.00     0.022 A 
BRANCH  67  70
ATOM     70  S   UNL A   1      42.785  27.474  25.497  1.00  0.00     0.127 S 
ATOM     71  O   UNL A   1      42.476  26.317  24.657  1.00  0.00    -0.237 OA
ATOM     72  O   UNL A   1      42.192  28.732  25.044  1.00  0.00    -0.237 OA
ATOM     73  O   UNL A   1      44.170  27.576  25.932  1.00  0.00    -0.744 OA
ENDBRANCH  67  70
ENDBRANCH  49  63
BRANCH  50  74
ATOM     74  C   UNL A   1      39.603  33.762  36.959  1.00  0.00     0.023 A 
ATOM     75  C   UNL A   1      40.014  35.109  36.926  1.00  0.00     0.012 A 
ATOM     76  C   UNL A   1      38.963  33.268  38.112  1.00  0.00     0.148 A 
ATOM     77  C   UNL A   1      39.824  35.938  38.033  1.00  0.00     0.002 A 
ATOM     78  C   UNL A   1      38.724  34.114  39.188  1.00  0.00     0.091 A 
ATOM     79  F   UNL A   1      38.587  31.981  38.127  1.00  0.00    -0.205 F 
ATOM     80  C   UNL A   1      39.171  35.444  39.159  1.00  0.00     0.022 A 
BRANCH  78  81
ATOM     81  S   UNL A   1      37.772  33.603  40.622  1.00  0.00     0.127 S 
ATOM     82  O   UNL A   1      36.544  33.105  40.005  1.00  0.00    -0.237 OA
ATOM     83  O   UNL A   1      38.632  32.572  41.204  1.00  0.00    -0.237 OA
ATOM     84  O   UNL A   1      37.627  34.797  41.445  1.00  0.00    -0.744 OA
ENDBRANCH  78  81
ENDBRANCH  50  74
BRANCH  62  85
ATOM     85  C   UNL A   1      44.328  28.852  35.419  1.00  0.00     0.023 A 
ATOM     86  C   UNL A   1      45.595  29.451  35.279  1.00  0.00     0.012 A 
ATOM     87  C   UNL A   1      44.164  27.786  36.326  1.00  0.00     0.148 A 
ATOM     88  C   UNL A   1      46.687  28.979  36.006  1.00  0.00     0.002 A 
ATOM     89  C   UNL A   1      45.243  27.355  37.086  1.00  0.00     0.091 A 
ATOM     90  F   UNL A   1      42.953  27.219  36.434  1.00  0.00    -0.205 F 
ATOM     91  C   UNL A   1      46.508  27.941  36.918  1.00  0.00     0.022 A 
BRANCH  89  92
ATOM     92  S   UNL A   1      45.091  26.093  38.355  1.00  0.00     0.127 S 
ATOM     93  O   UNL A   1      46.491  25.792  38.646  1.00  0.00    -0.237 OA
ATOM     94  O   UNL A   1      44.385  26.808  39.418  1.00  0.00    -0.237 OA
ATOM     95  O   UNL A   1      44.334  25.003  37.752  1.00  0.00    -0.744 OA
ENDBRANCH  89  92
ENDBRANCH  62  85
ENDBRANCH  36  37
ENDBRANCH  28  31
ENDBRANCH  26  27
ENDBRANCH  25  26
ENDBRANCH  24  25
ENDBRANCH   1  24
TORSDOF 20
ENDMDL
MODEL 2
REMARK VINA RESULT:     -10.4      6.061     10.207
REMARK SMILES C[C@H](CC(=O)NCCCCCCNC(=O)c1ccc(-c2c3nc(c(-c4cccc(S(=O)(=O)[O-])c4F)c4ccc([nH]4)c(-c4cccc(S(=O)(=O)[O-])c4F)c4nc(c(-c5cccc(S(=O)(=O)[O-])c5F)c5ccc2[nH]5)C=C4)C=C3)cc1)NC(=O)Cc1cn2ccsc2n1
REMARK SMILES IDX 9 1 8 2 7 3 6 4 4 5 5 6 3 8 2 9 1 10 79 11 80 12 81 14 82 15
REMARK SMILES IDX 83 16 84 17 90 18 85 19 89 20 86 21 88 22 87 23 10 24 11 25
REMARK SMILES IDX 12 26 13 27 14 28 15 30 16 31 17 32 78 33 18 34 77 35 19 36
REMARK SMILES IDX 20 37 21 38 71 39 22 40 76 41 70 42 72 43 23 44 75 45 69 46
REMARK SMILES IDX 68 47 24 49 56 50 36 51 55 52 37 53 40 54 54 55 73 56 38 57
REMARK SMILES IDX 39 58 53 60 74 61 41 62 25 63 26 64 34 65 27 66 29 67 35 68
REMARK SMILES IDX 28 69 30 70 31 71 32 72 33 73 57 74 58 75 66 76 59 77 61 78
REMARK SMILES IDX 67 79 60 80 62 81 63 82 64 83 65 84 42 85 43 86 51 87 44 88
REMARK SMILES IDX 46 89 52 90 45 91 47 92 48 93 49 94 50 95
REMARK H PARENT 6 7 79 13 13 29 72 48 40 59
REMARK Flexibility Score: inf
ROOT
ATOM      1  C   UNL A   1      40.121  22.891  26.318  1.00  0.00     0.002 C 
ENDROOT
BRANCH   1   2
ATOM      2  C   UNL A   1      38.849  23.726  26.461  1.00  0.00     0.021 C 
BRANCH   2   3
ATOM      3  C   UNL A   1      37.585  23.038  25.952  1.00  0.00     0.116 C 
BRANCH   3   4
ATOM      4  N   UNL A   1      37.492  23.155  24.509  1.00  0.00    -0.356 N 
ATOM      5  C   UNL A   1      36.402  22.984  23.710  1.00  0.00     0.222 C 
ATOM      6  O   UNL A   1      36.541  22.986  22.488  1.00  0.00    -0.275 OA
ATOM      7  H   UNL A   1      38.328  23.393  24.045  1.00  0.00     0.163 HD
BRANCH   5   8
ATOM      8  C   UNL A   1      35.045  22.845  24.352  1.00  0.00     0.124 C 
BRANCH   8   9
ATOM      9  C   UNL A   1      34.147  24.092  24.386  1.00  0.00     0.088 C 
ATOM     10  C   UNL A   1      34.326  25.096  25.515  1.00  0.00     0.031 C 
BRANCH   9  11
ATOM     11  N   UNL A   1      34.276  24.811  23.108  1.00  0.00    -0.353 N 
ATOM     12  C   UNL A   1      33.313  25.343  22.299  1.00  0.00     0.226 C 
ATOM     13  H   UNL A   1      35.200  24.926  22.787  1.00  0.00     0.163 HD
ATOM     14  O   UNL A   1      33.674  25.955  21.293  1.00  0.00    -0.275 OA
BRANCH  12  15
ATOM     15  C   UNL A   1      31.852  25.186  22.655  1.00  0.00     0.157 C 
BRANCH  15  16
ATOM     16  C   UNL A   1      31.211  26.468  23.071  1.00  0.00     0.070 A 
ATOM     17  C   UNL A   1      31.372  27.197  24.248  1.00  0.00     0.118 A 
ATOM     18  N   UNL A   1      30.428  27.167  22.159  1.00  0.00    -0.223 NA
ATOM     19  N   UNL A   1      30.790  28.397  23.983  1.00  0.00    -0.297 N 
ATOM     20  C   UNL A   1      30.194  28.297  22.764  1.00  0.00     0.193 A 
ATOM     21  C   UNL A   1      30.725  29.631  24.583  1.00  0.00     0.104 A 
ATOM     22  S   UNL A   1      29.443  29.797  22.315  1.00  0.00    -0.105 S 
ATOM     23  C   UNL A   1      30.046  30.508  23.825  1.00  0.00     0.087 A 
ENDBRANCH  15  16
ENDBRANCH  12  15
ENDBRANCH   9  11
ENDBRANCH   8   9
ENDBRANCH   5   8
ENDBRANCH   3   4
ENDBRANCH   2   3
ENDBRANCH   1   2
BRANCH   1  24
ATOM     24  C   UNL A   1      40.071  21.534  27.016  1.00  0.00     0.002 C 
BRANCH  24  25
ATOM     25  C   UNL A   1      40.588  20.365  26.175  1.00  0.00     0.021 C 
BRANCH  25  26
ATOM     26  C   UNL A   1      41.752  19.600  26.800  1.00  0.00     0.116 C 
BRANCH  26  27
ATOM     27  N   UNL A   1      42.789  19.299  25.825  1.00  0.00    -0.352 N 
ATOM     28  C   UNL A   1      43.619  20.165  25.162  1.00  0.00     0.251 C 
ATOM     29  H   UNL A   1      42.910  18.346  25.612  1.00  0.00     0.163 HD
ATOM     30  O   UNL A   1      44.293  19.775  24.209  1.00  0.00    -0.269 OA
BRANCH  28  31
ATOM     31  C   UNL A   1      43.682  21.574  25.594  1.00  0.00     0.039 A 
ATOM     32  C   UNL A   1      44.036  21.865  26.912  1.00  0.00     0.014 A 
ATOM     33  C   UNL A   1      43.422  22.602  24.682  1.00  0.00     0.014 A 
ATOM     34  C   UNL A   1      44.190  23.198  27.301  1.00  0.00     0.010 A 
ATOM     35  C   UNL A   1      43.651  23.923  25.053  1.00  0.00     0.010 A 
ATOM     36  C   UNL A   1      44.033  24.234  26.367  1.00  0.00    -0.014 A 
BRANCH  36  37
ATOM     37  C   UNL A   1      44.285  25.650  26.738  1.00  0.00     0.031 A 
ATOM     38  C   UNL A   1      45.673  26.222  26.646  1.00  0.00     0.074 A 
ATOM     39  C   UNL A   1      43.278  26.393  27.240  1.00  0.00     0.049 A 
ATOM     40  N   UNL A   1      46.096  27.413  26.983  1.00  0.00    -0.248 NA
ATOM     41  C   UNL A   1      46.729  25.334  26.133  1.00  0.00     0.031 C 
ATOM     42  C   UNL A   1      41.905  25.927  27.447  1.00  0.00     0.029 A 
ATOM     43  N   UNL A   1      43.261  27.687  27.695  1.00  0.00    -0.354 N 
ATOM     44  C   UNL A   1      47.467  27.406  26.757  1.00  0.00     0.074 A 
ATOM     45  C   UNL A   1      47.811  26.083  26.285  1.00  0.00     0.031 C 
ATOM     46  C   UNL A   1      41.180  26.921  27.985  1.00  0.00     0.029 A 
ATOM     47  C   UNL A   1      42.041  28.079  28.198  1.00  0.00     0.049 A 
ATOM     48  H   UNL A   1      44.047  28.279  27.667  1.00  0.00     0.167 HD
ATOM     49  C   UNL A   1      48.355  28.417  26.904  1.00  0.00     0.034 A 
ATOM     50  C   UNL A   1      41.662  29.234  28.778  1.00  0.00     0.034 A 
ATOM     51  C   UNL A   1      48.002  29.740  27.343  1.00  0.00     0.049 A 
ATOM     52  C   UNL A   1      42.666  30.347  28.914  1.00  0.00     0.074 A 
ATOM     53  C   UNL A   1      48.812  30.858  27.439  1.00  0.00     0.029 A 
ATOM     54  N   UNL A   1      46.742  30.122  27.776  1.00  0.00    -0.354 N 
ATOM     55  N   UNL A   1      43.923  30.374  28.543  1.00  0.00    -0.248 NA
ATOM     56  C   UNL A   1      42.192  31.600  29.521  1.00  0.00     0.031 C 
ATOM     57  C   UNL A   1      48.050  31.905  27.966  1.00  0.00     0.029 A 
ATOM     58  C   UNL A   1      46.755  31.451  28.161  1.00  0.00     0.049 A 
ATOM     59  H   UNL A   1      45.953  29.532  27.807  1.00  0.00     0.167 HD
ATOM     60  C   UNL A   1      44.380  31.653  28.838  1.00  0.00     0.074 A 
ATOM     61  C   UNL A   1      43.259  32.378  29.399  1.00  0.00     0.031 C 
ATOM     62  C   UNL A   1      45.621  32.176  28.673  1.00  0.00     0.034 A 
BRANCH  49  63
ATOM     63  C   UNL A   1      49.794  28.147  26.547  1.00  0.00     0.023 A 
ATOM     64  C   UNL A   1      50.206  28.225  25.200  1.00  0.00     0.012 A 
ATOM     65  C   UNL A   1      50.749  27.876  27.546  1.00  0.00     0.148 A 
ATOM     66  C   UNL A   1      51.537  28.004  24.850  1.00  0.00     0.002 A 
ATOM     67  C   UNL A   1      52.082  27.705  27.195  1.00  0.00     0.091 A 
ATOM     68  F   UNL A   1      50.335  27.786  28.818  1.00  0.00    -0.205 F 
ATOM     69  C   UNL A   1      52.476  27.756  25.848  1.00  0.00     0.022 A 
BRANCH  67  70
ATOM     70  S   UNL A   1      53.383  27.462  28.410  1.00  0.00     0.127 S 
ATOM     71  O   UNL A   1      53.272  28.685  29.206  1.00  0.00    -0.237 OA
ATOM     72  O   UNL A   1      52.940  26.248  29.095  1.00  0.00    -0.237 OA
ATOM     73  O   UNL A   1      54.619  27.320  27.656  1.00  0.00    -0.744 OA
ENDBRANCH  67  70
ENDBRANCH  49  63
BRANCH  50  74
ATOM     74  C   UNL A   1      40.254  29.413  29.235  1.00  0.00     0.023 A 
ATOM     75  C   UNL A   1      39.259  29.750  28.297  1.00  0.00     0.012 A 
ATOM     76  C   UNL A   1      39.893  29.232  30.584  1.00  0.00     0.148 A 
ATOM     77  C   UNL A   1      37.935  29.938  28.701  1.00  0.00     0.002 A 
ATOM     78  C   UNL A   1      38.565  29.363  30.969  1.00  0.00     0.091 A 
ATOM     79  F   UNL A   1      40.858  28.921  31.462  1.00  0.00    -0.205 F 
ATOM     80  C   UNL A   1      37.587  29.736  30.034  1.00  0.00     0.022 A 
BRANCH  78  81
ATOM     81  S   UNL A   1      38.003  28.989  32.634  1.00  0.00     0.127 S 
ATOM     82  O   UNL A   1      38.284  27.559  32.730  1.00  0.00    -0.237 OA
ATOM     83  O   UNL A   1      38.871  29.844  33.444  1.00  0.00    -0.237 OA
ATOM     84  O   UNL A   1      36.595  29.361  32.668  1.00  0.00    -0.744 OA
ENDBRANCH  78  81
ENDBRANCH  50  74
BRANCH  62  85
ATOM     85  C   UNL A   1      45.833  33.615  29.068  1.00  0.00     0.023 A 
ATOM     86  C   UNL A   1      46.342  33.926  30.343  1.00  0.00     0.012 A 
ATOM     87  C   UNL A   1      45.606  34.651  28.141  1.00  0.00     0.148 A 
ATOM     88  C   UNL A   1      46.592  35.251  30.702  1.00  0.00     0.002 A 
ATOM     89  C   UNL A   1      45.907  35.962  28.486  1.00  0.00     0.091 A 
ATOM     90  F   UNL A   1      45.107  34.334  26.937  1.00  0.00    -0.205 F 
ATOM     91  C   UNL A   1      46.387  36.266  29.770  1.00  0.00     0.022 A 
BRANCH  89  92
ATOM     92  S   UNL A   1      45.769  37.325  27.324  1.00  0.00     0.127 S 
ATOM     93  O   UNL A   1      44.333  37.340  27.051  1.00  0.00    -0.237 OA
ATOM     94  O   UNL A   1      46.252  38.456  28.116  1.00  0.00    -0.237 OA
ATOM     95  O   UNL A   1      46.612  36.975  26.189  1.00  0.00    -0.744 OA
ENDBRANCH  89  92
ENDBRANCH  62  85
ENDBRANCH  36  37
ENDBRANCH  28  31
ENDBRANCH  26  27
ENDBRANCH  25  26
ENDBRANCH  24  25
ENDBRANCH   1  24
TORSDOF 20
ENDMDL
MODEL 3
REMARK VINA RESULT:     -10.3      1.413      7.923
REMARK SMILES C[C@H](CC(=O)NCCCCCCNC(=O)c1ccc(-c2c3nc(c(-c4cccc(S(=O)(=O)[O-])c4F)c4ccc([nH]4)c(-c4cccc(S(=O)(=O)[O-])c4F)c4nc(c(-c5cccc(S(=O)(=O)[O-])c5F)c5ccc2[nH]5)C=C4)C=C3)cc1)NC(=O)Cc1cn2ccsc2n1
REMARK SMILES IDX 9 1 8 2 7 3 6 4 4 5 5 6 3 8 2 9 1 10 79 11 80 12 81 14 82 15
REMARK SMILES IDX 83 16 84 17 90 18 85 19 89 20 86 21 88 22 87 23 10 24 11 25
REMARK SMILES IDX 12 26 13 27 14 28 15 30 16 31 17 32 78 33 18 34 77 35 19 36
REMARK SMILES IDX 20 37 21 38 71 39 22 40 76 41 70 42 72 43 23 44 75 45 69 46
REMARK SMILES IDX 68 47 24 49 56 50 36 51 55 52 37 53 40 54 54 55 73 56 38 57
REMARK SMILES IDX 39 58 53 60 74 61 41 62 25 63 26 64 34 65 27 66 29 67 35 68
REMARK SMILES IDX 28 69 30 70 31 71 32 72 33 73 57 74 58 75 66 76 59 77 61 78
REMARK SMILES IDX 67 79 60 80 62 81 63 82 64 83 65 84 42 85 43 86 51 87 44 88
REMARK SMILES IDX 46 89 52 90 45 91 47 92 48 93 49 94 50 95
REMARK H PARENT 6 7 79 13 13 29 72 48 40 59
REMARK Flexibility Score: inf
ROOT
ATOM      1  C   UNL A   1      34.956  30.769  28.415  1.00  0.00     0.002 C 
ENDROOT
BRANCH   1   2
ATOM      2  C   UNL A   1      35.413  29.582  27.569  1.00  0.00     0.021 C 
BRANCH   2   3
ATOM      3  C   UNL A   1      34.325  28.990  26.677  1.00  0.00     0.116 C 
BRANCH   3   4
ATOM      4  N   UNL A   1      33.227  28.489  27.483  1.00  0.00    -0.356 N 
ATOM      5  C   UNL A   1      31.940  28.246  27.110  1.00  0.00     0.222 C 
ATOM      6  O   UNL A   1      31.107  27.955  27.966  1.00  0.00    -0.275 OA
ATOM      7  H   UNL A   1      33.442  28.296  28.424  1.00  0.00     0.163 HD
BRANCH   5   8
ATOM      8  C   UNL A   1      31.585  28.296  25.645  1.00  0.00     0.124 C 
BRANCH   8   9
ATOM      9  C   UNL A   1      31.434  26.957  24.908  1.00  0.00     0.088 C 
ATOM     10  C   UNL A   1      30.036  26.440  24.602  1.00  0.00     0.031 C 
BRANCH   9  11
ATOM     11  N   UNL A   1      32.188  27.016  23.645  1.00  0.00    -0.353 N 
ATOM     12  C   UNL A   1      33.315  26.347  23.263  1.00  0.00     0.226 C 
ATOM     13  H   UNL A   1      31.822  27.635  22.972  1.00  0.00     0.163 HD
ATOM     14  O   UNL A   1      33.735  26.525  22.119  1.00  0.00    -0.275 OA
BRANCH  12  15
ATOM     15  C   UNL A   1      34.003  25.408  24.229  1.00  0.00     0.157 C 
BRANCH  15  16
ATOM     16  C   UNL A   1      33.437  24.027  24.205  1.00  0.00     0.070 A 
ATOM     17  C   UNL A   1      32.570  23.442  23.284  1.00  0.00     0.118 A 
ATOM     18  N   UNL A   1      33.890  23.088  25.124  1.00  0.00    -0.223 NA
ATOM     19  N   UNL A   1      32.613  22.116  23.578  1.00  0.00    -0.297 N 
ATOM     20  C   UNL A   1      33.353  21.975  24.710  1.00  0.00     0.193 A 
ATOM     21  C   UNL A   1      32.173  20.948  23.001  1.00  0.00     0.104 A 
ATOM     22  S   UNL A   1      33.496  20.304  25.157  1.00  0.00    -0.105 S 
ATOM     23  C   UNL A   1      32.563  19.876  23.710  1.00  0.00     0.087 A 
ENDBRANCH  15  16
ENDBRANCH  12  15
ENDBRANCH   9  11
ENDBRANCH   8   9
ENDBRANCH   5   8
ENDBRANCH   3   4
ENDBRANCH   2   3
ENDBRANCH   1   2
BRANCH   1  24
ATOM     24  C   UNL A   1      34.772  32.070  27.637  1.00  0.00     0.002 C 
BRANCH  24  25
ATOM     25  C   UNL A   1      33.509  32.856  27.997  1.00  0.00     0.021 C 
BRANCH  25  26
ATOM     26  C   UNL A   1      33.650  34.371  27.878  1.00  0.00     0.116 C 
BRANCH  26  27
ATOM     27  N   UNL A   1      33.110  35.059  29.041  1.00  0.00    -0.352 N 
ATOM     28  C   UNL A   1      33.414  34.871  30.364  1.00  0.00     0.251 C 
ATOM     29  H   UNL A   1      32.437  35.751  28.853  1.00  0.00     0.163 HD
ATOM     30  O   UNL A   1      32.716  35.378  31.241  1.00  0.00    -0.269 OA
BRANCH  28  31
ATOM     31  C   UNL A   1      34.579  34.040  30.724  1.00  0.00     0.039 A 
ATOM     32  C   UNL A   1      35.855  34.459  30.345  1.00  0.00     0.014 A 
ATOM     33  C   UNL A   1      34.405  32.867  31.465  1.00  0.00     0.014 A 
ATOM     34  C   UNL A   1      36.968  33.727  30.764  1.00  0.00     0.010 A 
ATOM     35  C   UNL A   1      35.518  32.185  31.944  1.00  0.00     0.010 A 
ATOM     36  C   UNL A   1      36.811  32.606  31.595  1.00  0.00    -0.014 A 
BRANCH  36  37
ATOM     37  C   UNL A   1      37.986  31.872  32.129  1.00  0.00     0.031 A 
ATOM     38  C   UNL A   1      38.597  32.272  33.444  1.00  0.00     0.074 A 
ATOM     39  C   UNL A   1      38.555  30.903  31.385  1.00  0.00     0.049 A 
ATOM     40  N   UNL A   1      39.657  31.791  34.038  1.00  0.00    -0.248 NA
ATOM     41  C   UNL A   1      37.947  33.372  34.175  1.00  0.00     0.031 C 
ATOM     42  C   UNL A   1      38.100  30.475  30.060  1.00  0.00     0.029 A 
ATOM     43  N   UNL A   1      39.658  30.121  31.624  1.00  0.00    -0.354 N 
ATOM     44  C   UNL A   1      39.823  32.549  35.191  1.00  0.00     0.074 A 
ATOM     45  C   UNL A   1      38.772  33.544  35.197  1.00  0.00     0.031 C 
ATOM     46  C   UNL A   1      38.913  29.509  29.606  1.00  0.00     0.029 A 
ATOM     47  C   UNL A   1      39.969  29.274  30.585  1.00  0.00     0.049 A 
ATOM     48  H   UNL A   1      40.178  30.163  32.459  1.00  0.00     0.167 HD
ATOM     49  C   UNL A   1      40.748  32.413  36.170  1.00  0.00     0.034 A 
ATOM     50  C   UNL A   1      40.996  28.416  30.431  1.00  0.00     0.034 A 
ATOM     51  C   UNL A   1      41.770  31.402  36.175  1.00  0.00     0.049 A 
ATOM     52  C   UNL A   1      42.002  28.273  31.541  1.00  0.00     0.074 A 
ATOM     53  C   UNL A   1      42.699  31.125  37.162  1.00  0.00     0.029 A 
ATOM     54  N   UNL A   1      42.012  30.514  35.139  1.00  0.00    -0.354 N 
ATOM     55  N   UNL A   1      42.046  28.888  32.699  1.00  0.00    -0.248 NA
ATOM     56  C   UNL A   1      43.082  27.297  31.340  1.00  0.00     0.031 C 
ATOM     57  C   UNL A   1      43.526  30.094  36.706  1.00  0.00     0.029 A 
ATOM     58  C   UNL A   1      43.088  29.701  35.452  1.00  0.00     0.049 A 
ATOM     59  H   UNL A   1      41.494  30.468  34.302  1.00  0.00     0.167 HD
ATOM     60  C   UNL A   1      43.134  28.351  33.375  1.00  0.00     0.074 A 
ATOM     61  C   UNL A   1      43.709  27.344  32.507  1.00  0.00     0.031 C 
ATOM     62  C   UNL A   1      43.622  28.671  34.599  1.00  0.00     0.034 A 
BRANCH  49  63
ATOM     63  C   UNL A   1      40.674  33.357  37.343  1.00  0.00     0.023 A 
ATOM     64  C   UNL A   1      41.485  34.511  37.364  1.00  0.00     0.012 A 
ATOM     65  C   UNL A   1      39.762  33.135  38.393  1.00  0.00     0.148 A 
ATOM     66  C   UNL A   1      41.414  35.410  38.427  1.00  0.00     0.002 A 
ATOM     67  C   UNL A   1      39.663  34.061  39.425  1.00  0.00     0.091 A 
ATOM     68  F   UNL A   1      39.013  32.023  38.366  1.00  0.00    -0.205 F 
ATOM     69  C   UNL A   1      40.496  35.191  39.450  1.00  0.00     0.022 A 
BRANCH  67  70
ATOM     70  S   UNL A   1      38.455  33.914  40.747  1.00  0.00     0.127 S 
ATOM     71  O   UNL A   1      39.110  32.956  41.637  1.00  0.00    -0.237 OA
ATOM     72  O   UNL A   1      38.397  35.282  41.261  1.00  0.00    -0.237 OA
ATOM     73  O   UNL A   1      37.227  33.445  40.122  1.00  0.00    -0.744 OA
ENDBRANCH  67  70
ENDBRANCH  49  63
BRANCH  50  74
ATOM     74  C   UNL A   1      41.101  27.591  29.193  1.00  0.00     0.023 A 
ATOM     75  C   UNL A   1      40.373  26.389  29.097  1.00  0.00     0.012 A 
ATOM     76  C   UNL A   1      41.899  27.999  28.107  1.00  0.00     0.148 A 
ATOM     77  C   UNL A   1      40.465  25.591  27.955  1.00  0.00     0.002 A 
ATOM     78  C   UNL A   1      41.940  27.230  26.950  1.00  0.00     0.091 A 
ATOM     79  F   UNL A   1      42.591  29.142  28.222  1.00  0.00    -0.205 F 
ATOM     80  C   UNL A   1      41.240  26.016  26.879  1.00  0.00     0.022 A 
BRANCH  78  81
ATOM     81  S   UNL A   1      42.801  27.765  25.468  1.00  0.00     0.127 S 
ATOM     82  O   UNL A   1      42.730  26.569  24.632  1.00  0.00    -0.237 OA
ATOM     83  O   UNL A   1      41.966  28.881  25.021  1.00  0.00    -0.237 OA
ATOM     84  O   UNL A   1      44.135  28.153  25.905  1.00  0.00    -0.744 OA
ENDBRANCH  78  81
ENDBRANCH  50  74
BRANCH  62  85
ATOM     85  C   UNL A   1      44.820  27.905  35.099  1.00  0.00     0.023 A 
ATOM     86  C   UNL A   1      46.112  28.444  34.952  1.00  0.00     0.012 A 
ATOM     87  C   UNL A   1      44.653  26.688  35.790  1.00  0.00     0.148 A 
ATOM     88  C   UNL A   1      47.224  27.769  35.456  1.00  0.00     0.002 A 
ATOM     89  C   UNL A   1      45.757  26.047  36.335  1.00  0.00     0.091 A 
ATOM     90  F   UNL A   1      43.415  26.183  35.906  1.00  0.00    -0.205 F 
ATOM     91  C   UNL A   1      47.045  26.579  36.158  1.00  0.00     0.022 A 
BRANCH  89  92
ATOM     92  S   UNL A   1      45.618  24.563  37.338  1.00  0.00     0.127 S 
ATOM     93  O   UNL A   1      45.002  23.627  36.400  1.00  0.00    -0.237 OA
ATOM     94  O   UNL A   1      47.016  24.276  37.659  1.00  0.00    -0.237 OA
ATOM     95  O   UNL A   1      44.795  24.926  38.484  1.00  0.00    -0.744 OA
ENDBRANCH  89  92
ENDBRANCH  62  85
ENDBRANCH  36  37
ENDBRANCH  28  31
ENDBRANCH  26  27
ENDBRANCH  25  26
ENDBRANCH  24  25
ENDBRANCH   1  24
TORSDOF 20
ENDMDL
