MODEL 1
REMARK VINA RESULT:     -12.1      0.000      0.000
REMARK SMILES Cc1ccc(O)c(C(=O)[C@@H]2[C@@H](C(=O)NCCCCCCNC(=O)c3ccc(-c4c5nc(c(-c6cccc(S(=O)(=O)[O-])c6F)c6ccc([nH]6)c(-c6cccc(S(=O)(=O)[O-])c6F)c6nc(c(-c7cccc(S(=O)(=O)[O-])c7F)c7ccc4[nH]7)C=C6)C=C5)cc3)[C@H]3C=C[C@@H]2C3)c1
REMARK SMILES IDX 17 1 16 2 15 3 14 4 12 5 13 6 11 8 10 9 90 10 87 11 89 12
REMARK SMILES IDX 91 13 88 14 8 15 9 16 7 17 1 18 2 19 3 20 92 21 4 22 5 23
REMARK SMILES IDX 6 24 18 26 19 27 20 28 21 29 22 30 23 32 24 33 25 34 86 35
REMARK SMILES IDX 26 36 85 37 27 38 28 39 29 40 79 41 30 42 84 43 78 44 80 45
REMARK SMILES IDX 31 46 83 47 77 48 76 49 32 51 64 52 44 53 63 54 45 55 48 56
REMARK SMILES IDX 62 57 81 58 46 59 47 60 61 62 82 63 49 64 33 65 34 66 42 67
REMARK SMILES IDX 35 68 37 69 43 70 36 71 38 72 39 73 40 74 41 75 65 76 66 77
REMARK SMILES IDX 74 78 67 79 69 80 75 81 68 82 70 83 71 84 72 85 73 86 50 87
REMARK SMILES IDX 51 88 59 89 52 90 54 91 60 92 53 93 55 94 56 95 57 96 58 97
REMARK H PARENT 14 7 6 25 21 31 80 50 48 61
REMARK Flexibility Score: inf
ROOT
ATOM      1  C   UNL A   1      32.165  29.562  27.059  1.00  0.00     0.002 C 
ENDROOT
BRANCH   1   2
ATOM      2  C   UNL A   1      31.509  28.220  27.382  1.00  0.00     0.021 C 
BRANCH   2   3
ATOM      3  C   UNL A   1      31.928  27.077  26.459  1.00  0.00     0.116 C 
BRANCH   3   4
ATOM      4  N   UNL A   1      31.463  25.792  26.941  1.00  0.00    -0.356 N 
ATOM      5  C   UNL A   1      31.865  24.517  26.740  1.00  0.00     0.224 C 
ATOM      6  O   UNL A   1      31.201  23.649  27.327  1.00  0.00    -0.275 OA
ATOM      7  H   UNL A   1      30.690  25.863  27.547  1.00  0.00     0.163 HD
BRANCH   5   8
ATOM      8  C   UNL A   1      32.995  24.056  25.825  1.00  0.00     0.097 C 
ATOM      9  C   UNL A   1      32.760  22.912  24.810  1.00  0.00     0.081 C 
ATOM     10  C   UNL A   1      34.043  22.043  24.994  1.00  0.00     0.024 C 
ATOM     11  C   UNL A   1      34.288  23.620  26.575  1.00  0.00     0.025 C 
ATOM     12  C   UNL A   1      33.942  21.362  26.355  1.00  0.00    -0.027 C 
ATOM     13  C   UNL A   1      35.127  23.037  25.431  1.00  0.00     0.017 C 
ATOM     14  C   UNL A   1      34.090  22.314  27.294  1.00  0.00    -0.027 C 
BRANCH   9  15
ATOM     15  C   UNL A   1      32.351  23.382  23.404  1.00  0.00     0.171 C 
ATOM     16  O   UNL A   1      32.589  22.670  22.421  1.00  0.00    -0.294 OA
BRANCH  15  17
ATOM     17  C   UNL A   1      31.733  24.698  23.116  1.00  0.00     0.060 A 
ATOM     18  C   UNL A   1      28.548  26.581  23.945  1.00  0.00     0.044 C 
ATOM     19  C   UNL A   1      29.899  26.271  23.371  1.00  0.00    -0.050 A 
ATOM     20  C   UNL A   1      30.676  27.270  22.781  1.00  0.00     0.007 A 
ATOM     21  C   UNL A   1      30.408  24.969  23.444  1.00  0.00     0.019 A 
ATOM     22  C   UNL A   1      31.953  26.970  22.299  1.00  0.00     0.047 A 
ATOM     23  C   UNL A   1      32.479  25.692  22.475  1.00  0.00     0.126 A 
BRANCH  23  24
ATOM     24  O   UNL A   1      33.736  25.475  21.976  1.00  0.00    -0.507 OA
ATOM     25  H   UNL A   1      34.485  25.582  22.529  1.00  0.00     0.293 HD
ENDBRANCH  23  24
ENDBRANCH  15  17
ENDBRANCH   9  15
ENDBRANCH   5   8
ENDBRANCH   3   4
ENDBRANCH   2   3
ENDBRANCH   1   2
BRANCH   1  26
ATOM     26  C   UNL A   1      31.369  30.471  26.115  1.00  0.00     0.002 C 
BRANCH  26  27
ATOM     27  C   UNL A   1      31.408  31.968  26.442  1.00  0.00     0.021 C 
BRANCH  27  28
ATOM     28  C   UNL A   1      32.626  32.423  27.241  1.00  0.00     0.116 C 
BRANCH  28  29
ATOM     29  N   UNL A   1      32.529  33.820  27.635  1.00  0.00    -0.352 N 
ATOM     30  C   UNL A   1      33.200  34.499  28.618  1.00  0.00     0.251 C 
ATOM     31  H   UNL A   1      31.884  34.356  27.119  1.00  0.00     0.163 HD
ATOM     32  O   UNL A   1      32.831  35.622  28.947  1.00  0.00    -0.269 OA
BRANCH  30  33
ATOM     33  C   UNL A   1      34.365  33.877  29.284  1.00  0.00     0.039 A 
ATOM     34  C   UNL A   1      35.649  34.294  28.927  1.00  0.00     0.014 A 
ATOM     35  C   UNL A   1      34.189  32.865  30.233  1.00  0.00     0.014 A 
ATOM     36  C   UNL A   1      36.760  33.727  29.557  1.00  0.00     0.010 A 
ATOM     37  C   UNL A   1      35.294  32.348  30.905  1.00  0.00     0.010 A 
ATOM     38  C   UNL A   1      36.589  32.766  30.567  1.00  0.00    -0.014 A 
BRANCH  38  39
ATOM     39  C   UNL A   1      37.754  32.186  31.282  1.00  0.00     0.031 A 
ATOM     40  C   UNL A   1      38.527  31.048  30.671  1.00  0.00     0.074 A 
ATOM     41  C   UNL A   1      38.059  32.625  32.519  1.00  0.00     0.049 A 
ATOM     42  N   UNL A   1      39.530  30.372  31.169  1.00  0.00    -0.248 NA
ATOM     43  C   UNL A   1      38.099  30.592  29.338  1.00  0.00     0.031 C 
ATOM     44  C   UNL A   1      37.335  33.667  33.248  1.00  0.00     0.029 A 
ATOM     45  N   UNL A   1      39.041  32.229  33.392  1.00  0.00    -0.354 N 
ATOM     46  C   UNL A   1      39.829  29.392  30.232  1.00  0.00     0.074 A 
ATOM     47  C   UNL A   1      38.882  29.538  29.149  1.00  0.00     0.031 C 
ATOM     48  C   UNL A   1      37.896  33.828  34.458  1.00  0.00     0.029 A 
ATOM     49  C   UNL A   1      39.002  32.885  34.601  1.00  0.00     0.049 A 
ATOM     50  H   UNL A   1      39.710  31.540  33.175  1.00  0.00     0.167 HD
ATOM     51  C   UNL A   1      40.822  28.471  30.254  1.00  0.00     0.034 A 
ATOM     52  C   UNL A   1      39.767  32.741  35.700  1.00  0.00     0.034 A 
ATOM     53  C   UNL A   1      41.794  28.363  31.309  1.00  0.00     0.049 A 
ATOM     54  C   UNL A   1      40.894  31.744  35.679  1.00  0.00     0.074 A 
ATOM     55  C   UNL A   1      42.894  27.526  31.384  1.00  0.00     0.029 A 
ATOM     56  N   UNL A   1      41.781  29.111  32.476  1.00  0.00    -0.354 N 
ATOM     57  N   UNL A   1      41.263  30.937  34.715  1.00  0.00    -0.248 NA
ATOM     58  C   UNL A   1      41.736  31.667  36.882  1.00  0.00     0.031 C 
ATOM     59  C   UNL A   1      43.537  27.759  32.604  1.00  0.00     0.029 A 
ATOM     60  C   UNL A   1      42.850  28.753  33.280  1.00  0.00     0.049 A 
ATOM     61  H   UNL A   1      41.112  29.797  32.700  1.00  0.00     0.167 HD
ATOM     62  C   UNL A   1      42.397  30.281  35.179  1.00  0.00     0.074 A 
ATOM     63  C   UNL A   1      42.668  30.802  36.504  1.00  0.00     0.031 C 
ATOM     64  C   UNL A   1      43.139  29.322  34.572  1.00  0.00     0.034 A 
BRANCH  51  65
ATOM     65  C   UNL A   1      40.948  27.546  29.072  1.00  0.00     0.023 A 
ATOM     66  C   UNL A   1      40.178  26.365  29.032  1.00  0.00     0.012 A 
ATOM     67  C   UNL A   1      41.777  27.867  27.980  1.00  0.00     0.148 A 
ATOM     68  C   UNL A   1      40.256  25.502  27.940  1.00  0.00     0.002 A 
ATOM     69  C   UNL A   1      41.817  27.023  26.876  1.00  0.00     0.091 A 
ATOM     70  F   UNL A   1      42.520  28.981  28.044  1.00  0.00    -0.205 F 
ATOM     71  C   UNL A   1      41.066  25.836  26.859  1.00  0.00     0.022 A 
BRANCH  69  72
ATOM     72  S   UNL A   1      42.771  27.401  25.401  1.00  0.00     0.127 S 
ATOM     73  O   UNL A   1      42.592  26.182  24.613  1.00  0.00    -0.237 OA
ATOM     74  O   UNL A   1      42.074  28.575  24.874  1.00  0.00    -0.237 OA
ATOM     75  O   UNL A   1      44.129  27.656  25.858  1.00  0.00    -0.744 OA
ENDBRANCH  69  72
ENDBRANCH  51  65
BRANCH  52  76
ATOM     76  C   UNL A   1      39.537  33.615  36.884  1.00  0.00     0.023 A 
ATOM     77  C   UNL A   1      39.933  34.966  36.831  1.00  0.00     0.012 A 
ATOM     78  C   UNL A   1      38.902  33.130  38.044  1.00  0.00     0.148 A 
ATOM     79  C   UNL A   1      39.728  35.811  37.921  1.00  0.00     0.002 A 
ATOM     80  C   UNL A   1      38.652  33.992  39.107  1.00  0.00     0.091 A 
ATOM     81  F   UNL A   1      38.544  31.839  38.080  1.00  0.00    -0.205 F 
ATOM     82  C   UNL A   1      39.079  35.327  39.055  1.00  0.00     0.022 A 
BRANCH  80  83
ATOM     83  S   UNL A   1      37.706  33.488  40.548  1.00  0.00     0.127 S 
ATOM     84  O   UNL A   1      37.628  34.733  41.306  1.00  0.00    -0.237 OA
ATOM     85  O   UNL A   1      36.446  33.050  39.946  1.00  0.00    -0.237 OA
ATOM     86  O   UNL A   1      38.477  32.415  41.164  1.00  0.00    -0.744 OA
ENDBRANCH  80  83
ENDBRANCH  52  76
BRANCH  64  87
ATOM     87  C   UNL A   1      44.336  28.791  35.313  1.00  0.00     0.023 A 
ATOM     88  C   UNL A   1      45.602  29.374  35.105  1.00  0.00     0.012 A 
ATOM     89  C   UNL A   1      44.195  27.770  36.274  1.00  0.00     0.148 A 
ATOM     90  C   UNL A   1      46.713  28.929  35.819  1.00  0.00     0.002 A 
ATOM     91  C   UNL A   1      45.297  27.365  37.016  1.00  0.00     0.091 A 
ATOM     92  F   UNL A   1      42.986  27.215  36.444  1.00  0.00    -0.205 F 
ATOM     93  C   UNL A   1      46.559  27.935  36.782  1.00  0.00     0.022 A 
BRANCH  91  94
ATOM     94  S   UNL A   1      45.173  26.160  38.342  1.00  0.00     0.127 S 
ATOM     95  O   UNL A   1      44.380  25.104  37.712  1.00  0.00    -0.237 OA
ATOM     96  O   UNL A   1      46.574  25.812  38.580  1.00  0.00    -0.237 OA
ATOM     97  O   UNL A   1      44.528  26.851  39.451  1.00  0.00    -0.744 OA
ENDBRANCH  91  94
ENDBRANCH  64  87
ENDBRANCH  38  39
ENDBRANCH  30  33
ENDBRANCH  28  29
ENDBRANCH  27  28
ENDBRANCH  26  27
ENDBRANCH   1  26
TORSDOF 19
ENDMDL
MODEL 2
REMARK VINA RESULT:     -12.0      6.287     11.193
REMARK SMILES Cc1ccc(O)c(C(=O)[C@@H]2[C@@H](C(=O)NCCCCCCNC(=O)c3ccc(-c4c5nc(c(-c6cccc(S(=O)(=O)[O-])c6F)c6ccc([nH]6)c(-c6cccc(S(=O)(=O)[O-])c6F)c6nc(c(-c7cccc(S(=O)(=O)[O-])c7F)c7ccc4[nH]7)C=C6)C=C5)cc3)[C@H]3C=C[C@@H]2C3)c1
REMARK SMILES IDX 17 1 16 2 15 3 14 4 12 5 13 6 11 8 10 9 90 10 87 11 89 12
REMARK SMILES IDX 91 13 88 14 8 15 9 16 7 17 1 18 2 19 3 20 92 21 4 22 5 23
REMARK SMILES IDX 6 24 18 26 19 27 20 28 21 29 22 30 23 32 24 33 25 34 86 35
REMARK SMILES IDX 26 36 85 37 27 38 28 39 29 40 79 41 30 42 84 43 78 44 80 45
REMARK SMILES IDX 31 46 83 47 77 48 76 49 32 51 64 52 44 53 63 54 45 55 48 56
REMARK SMILES IDX 62 57 81 58 46 59 47 60 61 62 82 63 49 64 33 65 34 66 42 67
REMARK SMILES IDX 35 68 37 69 43 70 36 71 38 72 39 73 40 74 41 75 65 76 66 77
REMARK SMILES IDX 74 78 67 79 69 80 75 81 68 82 70 83 71 84 72 85 73 86 50 87
REMARK SMILES IDX 51 88 59 89 52 90 54 91 60 92 53 93 55 94 56 95 57 96 58 97
REMARK H PARENT 14 7 6 25 21 31 80 50 48 61
REMARK Flexibility Score: inf
ROOT
ATOM      1  C   UNL A   1      36.734  21.905  24.294  1.00  0.00     0.002 C 
ENDROOT
BRANCH   1   2
ATOM      2  C   UNL A   1      37.205  23.048  25.193  1.00  0.00     0.021 C 
BRANCH   2   3
ATOM      3  C   UNL A   1      36.116  24.059  25.546  1.00  0.00     0.116 C 
BRANCH   3   4
ATOM      4  N   UNL A   1      35.023  23.446  26.276  1.00  0.00    -0.356 N 
ATOM      5  C   UNL A   1      33.690  23.365  26.069  1.00  0.00     0.224 C 
ATOM      6  O   UNL A   1      33.051  22.751  26.937  1.00  0.00    -0.275 OA
ATOM      7  H   UNL A   1      35.316  22.991  27.099  1.00  0.00     0.163 HD
BRANCH   5   8
ATOM      8  C   UNL A   1      32.910  23.999  24.922  1.00  0.00     0.097 C 
ATOM      9  C   UNL A   1      31.378  23.809  24.821  1.00  0.00     0.081 C 
ATOM     10  C   UNL A   1      31.188  23.487  23.305  1.00  0.00     0.024 C 
ATOM     11  C   UNL A   1      33.422  23.606  23.505  1.00  0.00     0.025 C 
ATOM     12  C   UNL A   1      31.754  22.093  23.059  1.00  0.00    -0.027 C 
ATOM     13  C   UNL A   1      32.341  24.217  22.606  1.00  0.00     0.017 C 
ATOM     14  C   UNL A   1      33.092  22.175  23.181  1.00  0.00    -0.027 C 
BRANCH   9  15
ATOM     15  C   UNL A   1      30.552  24.930  25.473  1.00  0.00     0.171 C 
ATOM     16  O   UNL A   1      29.879  24.694  26.484  1.00  0.00    -0.294 OA
BRANCH  15  17
ATOM     17  C   UNL A   1      30.441  26.304  24.928  1.00  0.00     0.060 A 
ATOM     18  C   UNL A   1      32.475  29.503  24.859  1.00  0.00     0.044 C 
ATOM     19  C   UNL A   1      31.360  28.531  24.612  1.00  0.00    -0.050 A 
ATOM     20  C   UNL A   1      30.348  28.815  23.692  1.00  0.00     0.007 A 
ATOM     21  C   UNL A   1      31.336  27.307  25.290  1.00  0.00     0.019 A 
ATOM     22  C   UNL A   1      29.348  27.874  23.439  1.00  0.00     0.047 A 
ATOM     23  C   UNL A   1      29.401  26.622  24.049  1.00  0.00     0.126 A 
BRANCH  23  24
ATOM     24  O   UNL A   1      28.385  25.754  23.752  1.00  0.00    -0.507 OA
ATOM     25  H   UNL A   1      28.163  25.069  24.351  1.00  0.00     0.293 HD
ENDBRANCH  23  24
ENDBRANCH  15  17
ENDBRANCH   9  15
ENDBRANCH   5   8
ENDBRANCH   3   4
ENDBRANCH   2   3
ENDBRANCH   1   2
BRANCH   1  26
ATOM     26  C   UNL A   1      36.698  20.522  24.955  1.00  0.00     0.002 C 
BRANCH  26  27
ATOM     27  C   UNL A   1      38.009  19.728  24.908  1.00  0.00     0.021 C 
BRANCH  27  28
ATOM     28  C   UNL A   1      39.020  20.084  25.995  1.00  0.00     0.116 C 
BRANCH  28  29
ATOM     29  N   UNL A   1      40.137  19.155  26.025  1.00  0.00    -0.352 N 
ATOM     30  C   UNL A   1      41.483  19.409  26.088  1.00  0.00     0.251 C 
ATOM     31  H   UNL A   1      39.891  18.202  25.995  1.00  0.00     0.163 HD
ATOM     32  O   UNL A   1      42.287  18.503  25.887  1.00  0.00    -0.269 OA
BRANCH  30  33
ATOM     33  C   UNL A   1      41.965  20.773  26.392  1.00  0.00     0.039 A 
ATOM     34  C   UNL A   1      42.171  21.668  25.339  1.00  0.00     0.014 A 
ATOM     35  C   UNL A   1      42.241  21.157  27.708  1.00  0.00     0.014 A 
ATOM     36  C   UNL A   1      42.611  22.966  25.611  1.00  0.00     0.010 A 
ATOM     37  C   UNL A   1      42.616  22.469  27.982  1.00  0.00     0.010 A 
ATOM     38  C   UNL A   1      42.815  23.383  26.937  1.00  0.00    -0.014 A 
BRANCH  38  39
ATOM     39  C   UNL A   1      43.238  24.771  27.250  1.00  0.00     0.031 A 
ATOM     40  C   UNL A   1      42.263  25.737  27.868  1.00  0.00     0.074 A 
ATOM     41  C   UNL A   1      44.470  25.185  26.897  1.00  0.00     0.049 A 
ATOM     42  N   UNL A   1      42.427  27.002  28.156  1.00  0.00    -0.248 NA
ATOM     43  C   UNL A   1      40.919  25.221  28.178  1.00  0.00     0.031 C 
ATOM     44  C   UNL A   1      45.476  24.365  26.221  1.00  0.00     0.029 A 
ATOM     45  N   UNL A   1      45.075  26.409  27.032  1.00  0.00    -0.354 N 
ATOM     46  C   UNL A   1      41.204  27.443  28.644  1.00  0.00     0.074 A 
ATOM     47  C   UNL A   1      40.295  26.319  28.585  1.00  0.00     0.031 C 
ATOM     48  C   UNL A   1      46.573  25.107  25.999  1.00  0.00     0.029 A 
ATOM     49  C   UNL A   1      46.340  26.461  26.493  1.00  0.00     0.049 A 
ATOM     50  H   UNL A   1      44.645  27.178  27.471  1.00  0.00     0.167 HD
ATOM     51  C   UNL A   1      40.872  28.664  29.128  1.00  0.00     0.034 A 
ATOM     52  C   UNL A   1      47.212  27.484  26.404  1.00  0.00     0.034 A 
ATOM     53  C   UNL A   1      41.793  29.763  29.232  1.00  0.00     0.049 A 
ATOM     54  C   UNL A   1      46.837  28.817  26.994  1.00  0.00     0.074 A 
ATOM     55  C   UNL A   1      41.583  31.012  29.792  1.00  0.00     0.029 A 
ATOM     56  N   UNL A   1      43.098  29.749  28.764  1.00  0.00    -0.354 N 
ATOM     57  N   UNL A   1      45.729  29.168  27.600  1.00  0.00    -0.248 NA
ATOM     58  C   UNL A   1      47.846  29.884  26.923  1.00  0.00     0.031 C 
ATOM     59  C   UNL A   1      42.758  31.758  29.648  1.00  0.00     0.029 A 
ATOM     60  C   UNL A   1      43.705  30.968  29.017  1.00  0.00     0.049 A 
ATOM     61  H   UNL A   1      43.531  28.985  28.320  1.00  0.00     0.167 HD
ATOM     62  C   UNL A   1      45.918  30.481  28.013  1.00  0.00     0.074 A 
ATOM     63  C   UNL A   1      47.258  30.857  27.607  1.00  0.00     0.031 C 
ATOM     64  C   UNL A   1      45.058  31.308  28.656  1.00  0.00     0.034 A 
BRANCH  51  65
ATOM     65  C   UNL A   1      39.469  28.858  29.640  1.00  0.00     0.023 A 
ATOM     66  C   UNL A   1      39.165  28.513  30.974  1.00  0.00     0.012 A 
ATOM     67  C   UNL A   1      38.470  29.432  28.832  1.00  0.00     0.148 A 
ATOM     68  C   UNL A   1      37.882  28.704  31.483  1.00  0.00     0.002 A 
ATOM     69  C   UNL A   1      37.204  29.659  29.360  1.00  0.00     0.091 A 
ATOM     70  F   UNL A   1      38.769  29.734  27.560  1.00  0.00    -0.205 F 
ATOM     71  C   UNL A   1      36.906  29.286  30.680  1.00  0.00     0.022 A 
BRANCH  69  72
ATOM     72  S   UNL A   1      35.899  30.472  28.431  1.00  0.00     0.127 S 
ATOM     73  O   UNL A   1      36.664  31.389  27.587  1.00  0.00    -0.237 OA
ATOM     74  O   UNL A   1      35.284  29.354  27.715  1.00  0.00    -0.237 OA
ATOM     75  O   UNL A   1      35.038  31.105  29.421  1.00  0.00    -0.744 OA
ENDBRANCH  69  72
ENDBRANCH  51  65
BRANCH  52  76
ATOM     76  C   UNL A   1      48.554  27.265  25.796  1.00  0.00     0.023 A 
ATOM     77  C   UNL A   1      49.604  26.782  26.601  1.00  0.00     0.012 A 
ATOM     78  C   UNL A   1      48.788  27.498  24.427  1.00  0.00     0.148 A 
ATOM     79  C   UNL A   1      50.871  26.562  26.060  1.00  0.00     0.002 A 
ATOM     80  C   UNL A   1      50.039  27.226  23.883  1.00  0.00     0.091 A 
ATOM     81  F   UNL A   1      47.780  27.970  23.681  1.00  0.00    -0.205 F 
ATOM     82  C   UNL A   1      51.086  26.774  24.700  1.00  0.00     0.022 A 
BRANCH  80  83
ATOM     83  S   UNL A   1      50.365  27.344  22.121  1.00  0.00     0.127 S 
ATOM     84  O   UNL A   1      49.380  26.418  21.571  1.00  0.00    -0.237 OA
ATOM     85  O   UNL A   1      50.100  28.758  21.857  1.00  0.00    -0.237 OA
ATOM     86  O   UNL A   1      51.762  26.959  21.957  1.00  0.00    -0.744 OA
ENDBRANCH  80  83
ENDBRANCH  52  76
BRANCH  64  87
ATOM     87  C   UNL A   1      45.540  32.693  28.994  1.00  0.00     0.023 A 
ATOM     88  C   UNL A   1      46.194  32.925  30.220  1.00  0.00     0.012 A 
ATOM     89  C   UNL A   1      45.418  33.745  28.065  1.00  0.00     0.148 A 
ATOM     90  C   UNL A   1      46.692  34.190  30.529  1.00  0.00     0.002 A 
ATOM     91  C   UNL A   1      45.959  34.990  28.360  1.00  0.00     0.091 A 
ATOM     92  F   UNL A   1      44.775  33.508  26.912  1.00  0.00    -0.205 F 
ATOM     93  C   UNL A   1      46.586  35.218  29.595  1.00  0.00     0.022 A 
BRANCH  91  94
ATOM     94  S   UNL A   1      45.953  36.344  27.179  1.00  0.00     0.127 S 
ATOM     95  O   UNL A   1      46.990  37.220  27.724  1.00  0.00    -0.237 OA
ATOM     96  O   UNL A   1      46.316  35.672  25.931  1.00  0.00    -0.237 OA
ATOM     97  O   UNL A   1      44.600  36.887  27.199  1.00  0.00    -0.744 OA
ENDBRANCH  91  94
ENDBRANCH  64  87
ENDBRANCH  38  39
ENDBRANCH  30  33
ENDBRANCH  28  29
ENDBRANCH  27  28
ENDBRANCH  26  27
ENDBRANCH   1  26
TORSDOF 19
ENDMDL
MODEL 3
REMARK VINA RESULT:     -11.9      6.221     11.357
REMARK SMILES Cc1ccc(O)c(C(=O)[C@@H]2[C@@H](C(=O)NCCCCCCNC(=O)c3ccc(-c4c5nc(c(-c6cccc(S(=O)(=O)[O-])c6F)c6ccc([nH]6)c(-c6cccc(S(=O)(=O)[O-])c6F)c6nc(c(-c7cccc(S(=O)(=O)[O-])c7F)c7ccc4[nH]7)C=C6)C=C5)cc3)[C@H]3C=C[C@@H]2C3)c1
REMARK SMILES IDX 17 1 16 2 15 3 14 4 12 5 13 6 11 8 10 9 90 10 87 11 89 12
REMARK SMILES IDX 91 13 88 14 8 15 9 16 7 17 1 18 2 19 3 20 92 21 4 22 5 23
REMARK SMILES IDX 6 24 18 26 19 27 20 28 21 29 22 30 23 32 24 33 25 34 86 35
REMARK SMILES IDX 26 36 85 37 27 38 28 39 29 40 79 41 30 42 84 43 78 44 80 45
REMARK SMILES IDX 31 46 83 47 77 48 76 49 32 51 64 52 44 53 63 54 45 55 48 56
REMARK SMILES IDX 62 57 81 58 46 59 47 60 61 62 82 63 49 64 33 65 34 66 42 67
REMARK SMILES IDX 35 68 37 69 43 70 36 71 38 72 39 73 40 74 41 75 65 76 66 77
REMARK SMILES IDX 74 78 67 79 69 80 75 81 68 82 70 83 71 84 72 85 73 86 50 87
REMARK SMILES IDX 51 88 59 89 52 90 54 91 60 92 53 93 55 94 56 95 57 96 58 97
REMARK H PARENT 14 7 6 25 21 31 80 50 48 61
REMARK Flexibility Score: inf
ROOT
ATOM      1  C   UNL A   1      36.707  21.784  25.236  1.00  0.00     0.002 C 
ENDROOT
BRANCH   1   2
ATOM      2  C   UNL A   1      35.935  22.734  24.320  1.00  0.00     0.021 C 
BRANCH   2   3
ATOM      3  C   UNL A   1      35.408  23.988  25.015  1.00  0.00     0.116 C 
BRANCH   3   4
ATOM      4  N   UNL A   1      34.775  24.900  24.083  1.00  0.00    -0.356 N 
ATOM      5  C   UNL A   1      33.789  25.817  24.196  1.00  0.00     0.224 C 
ATOM      6  O   UNL A   1      33.497  26.419  23.152  1.00  0.00    -0.275 OA
ATOM      7  H   UNL A   1      35.143  24.837  23.171  1.00  0.00     0.163 HD
BRANCH   5   8
ATOM      8  C   UNL A   1      32.978  26.127  25.451  1.00  0.00     0.097 C 
ATOM      9  C   UNL A   1      31.438  25.986  25.439  1.00  0.00     0.081 C 
ATOM     10  C   UNL A   1      30.984  27.291  26.165  1.00  0.00     0.024 C 
ATOM     11  C   UNL A   1      33.211  27.556  26.027  1.00  0.00     0.025 C 
ATOM     12  C   UNL A   1      31.260  28.457  25.222  1.00  0.00    -0.027 C 
ATOM     13  C   UNL A   1      32.138  27.626  27.119  1.00  0.00     0.017 C 
ATOM     14  C   UNL A   1      32.594  28.608  25.146  1.00  0.00    -0.027 C 
BRANCH   9  15
ATOM     15  C   UNL A   1      30.920  24.622  25.925  1.00  0.00     0.171 C 
ATOM     16  O   UNL A   1      30.013  24.569  26.765  1.00  0.00    -0.294 OA
BRANCH  15  17
ATOM     17  C   UNL A   1      31.488  23.320  25.503  1.00  0.00     0.060 A 
ATOM     18  C   UNL A   1      32.241  21.459  22.286  1.00  0.00     0.044 C 
ATOM     19  C   UNL A   1      32.144  21.771  23.750  1.00  0.00    -0.050 A 
ATOM     20  C   UNL A   1      32.787  20.973  24.699  1.00  0.00     0.007 A 
ATOM     21  C   UNL A   1      31.420  22.888  24.182  1.00  0.00     0.019 A 
ATOM     22  C   UNL A   1      32.726  21.310  26.053  1.00  0.00     0.047 A 
ATOM     23  C   UNL A   1      32.087  22.482  26.450  1.00  0.00     0.126 A 
BRANCH  23  24
ATOM     24  O   UNL A   1      32.069  22.744  27.793  1.00  0.00    -0.507 OA
ATOM     25  H   UNL A   1      32.775  22.454  28.337  1.00  0.00     0.293 HD
ENDBRANCH  23  24
ENDBRANCH  15  17
ENDBRANCH   9  15
ENDBRANCH   5   8
ENDBRANCH   3   4
ENDBRANCH   2   3
ENDBRANCH   1   2
BRANCH   1  26
ATOM     26  C   UNL A   1      36.521  20.291  24.940  1.00  0.00     0.002 C 
BRANCH  26  27
ATOM     27  C   UNL A   1      37.804  19.453  24.919  1.00  0.00     0.021 C 
BRANCH  27  28
ATOM     28  C   UNL A   1      38.990  20.068  25.656  1.00  0.00     0.116 C 
BRANCH  28  29
ATOM     29  N   UNL A   1      40.059  19.105  25.867  1.00  0.00    -0.352 N 
ATOM     30  C   UNL A   1      41.395  19.318  26.091  1.00  0.00     0.251 C 
ATOM     31  H   UNL A   1      39.783  18.161  25.846  1.00  0.00     0.163 HD
ATOM     32  O   UNL A   1      42.182  18.378  26.032  1.00  0.00    -0.269 OA
BRANCH  30  33
ATOM     33  C   UNL A   1      41.886  20.679  26.397  1.00  0.00     0.039 A 
ATOM     34  C   UNL A   1      42.183  21.544  25.341  1.00  0.00     0.014 A 
ATOM     35  C   UNL A   1      42.082  21.087  27.720  1.00  0.00     0.014 A 
ATOM     36  C   UNL A   1      42.633  22.838  25.614  1.00  0.00     0.010 A 
ATOM     37  C   UNL A   1      42.468  22.397  27.990  1.00  0.00     0.010 A 
ATOM     38  C   UNL A   1      42.757  23.282  26.941  1.00  0.00    -0.014 A 
BRANCH  38  39
ATOM     39  C   UNL A   1      43.189  24.668  27.251  1.00  0.00     0.031 A 
ATOM     40  C   UNL A   1      42.229  25.635  27.890  1.00  0.00     0.074 A 
ATOM     41  C   UNL A   1      44.416  25.080  26.878  1.00  0.00     0.049 A 
ATOM     42  N   UNL A   1      42.401  26.898  28.178  1.00  0.00    -0.248 NA
ATOM     43  C   UNL A   1      40.888  25.121  28.221  1.00  0.00     0.031 C 
ATOM     44  C   UNL A   1      45.408  24.259  26.181  1.00  0.00     0.029 A 
ATOM     45  N   UNL A   1      45.028  26.301  27.006  1.00  0.00    -0.354 N 
ATOM     46  C   UNL A   1      41.188  27.340  28.690  1.00  0.00     0.074 A 
ATOM     47  C   UNL A   1      40.275  26.219  28.643  1.00  0.00     0.031 C 
ATOM     48  C   UNL A   1      46.502  24.999  25.942  1.00  0.00     0.029 A 
ATOM     49  C   UNL A   1      46.283  26.352  26.446  1.00  0.00     0.049 A 
ATOM     50  H   UNL A   1      44.608  27.070  27.456  1.00  0.00     0.167 HD
ATOM     51  C   UNL A   1      40.869  28.561  29.183  1.00  0.00     0.034 A 
ATOM     52  C   UNL A   1      47.156  27.373  26.344  1.00  0.00     0.034 A 
ATOM     53  C   UNL A   1      41.794  29.657  29.275  1.00  0.00     0.049 A 
ATOM     54  C   UNL A   1      46.795  28.704  26.945  1.00  0.00     0.074 A 
ATOM     55  C   UNL A   1      41.598  30.904  29.843  1.00  0.00     0.029 A 
ATOM     56  N   UNL A   1      43.091  29.641  28.784  1.00  0.00    -0.354 N 
ATOM     57  N   UNL A   1      45.699  29.056  27.572  1.00  0.00    -0.248 NA
ATOM     58  C   UNL A   1      47.805  29.769  26.860  1.00  0.00     0.031 C 
ATOM     59  C   UNL A   1      42.772  31.648  29.680  1.00  0.00     0.029 A 
ATOM     60  C   UNL A   1      43.706  30.857  29.030  1.00  0.00     0.049 A 
ATOM     61  H   UNL A   1      43.513  28.877  28.329  1.00  0.00     0.167 HD
ATOM     62  C   UNL A   1      45.900  30.367  27.986  1.00  0.00     0.074 A 
ATOM     63  C   UNL A   1      47.233  30.741  27.557  1.00  0.00     0.031 C 
ATOM     64  C   UNL A   1      45.053  31.194  28.647  1.00  0.00     0.034 A 
BRANCH  51  65
ATOM     65  C   UNL A   1      39.475  28.757  29.721  1.00  0.00     0.023 A 
ATOM     66  C   UNL A   1      39.176  28.342  31.036  1.00  0.00     0.012 A 
ATOM     67  C   UNL A   1      38.483  29.401  28.957  1.00  0.00     0.148 A 
ATOM     68  C   UNL A   1      37.902  28.533  31.568  1.00  0.00     0.002 A 
ATOM     69  C   UNL A   1      37.227  29.625  29.511  1.00  0.00     0.091 A 
ATOM     70  F   UNL A   1      38.777  29.768  27.702  1.00  0.00    -0.205 F 
ATOM     71  C   UNL A   1      36.932  29.183  30.811  1.00  0.00     0.022 A 
BRANCH  69  72
ATOM     72  S   UNL A   1      35.933  30.521  28.645  1.00  0.00     0.127 S 
ATOM     73  O   UNL A   1      35.481  31.456  29.675  1.00  0.00    -0.237 OA
ATOM     74  O   UNL A   1      36.669  31.140  27.542  1.00  0.00    -0.237 OA
ATOM     75  O   UNL A   1      34.957  29.520  28.238  1.00  0.00    -0.744 OA
ENDBRANCH  69  72
ENDBRANCH  51  65
BRANCH  52  76
ATOM     76  C   UNL A   1      48.486  27.151  25.712  1.00  0.00     0.023 A 
ATOM     77  C   UNL A   1      49.542  26.636  26.490  1.00  0.00     0.012 A 
ATOM     78  C   UNL A   1      48.704  27.415  24.346  1.00  0.00     0.148 A 
ATOM     79  C   UNL A   1      50.798  26.414  25.926  1.00  0.00     0.002 A 
ATOM     80  C   UNL A   1      49.944  27.141  23.778  1.00  0.00     0.091 A 
ATOM     81  F   UNL A   1      47.692  27.918  23.626  1.00  0.00    -0.205 F 
ATOM     82  C   UNL A   1      50.997  26.656  24.569  1.00  0.00     0.022 A 
BRANCH  80  83
ATOM     83  S   UNL A   1      50.247  27.298  22.014  1.00  0.00     0.127 S 
ATOM     84  O   UNL A   1      49.999  28.720  21.793  1.00  0.00    -0.237 OA
ATOM     85  O   UNL A   1      51.648  26.891  21.910  1.00  0.00    -0.237 OA
ATOM     86  O   UNL A   1      49.311  26.381  21.375  1.00  0.00    -0.744 OA
ENDBRANCH  80  83
ENDBRANCH  52  76
BRANCH  64  87
ATOM     87  C   UNL A   1      45.545  32.577  28.981  1.00  0.00     0.023 A 
ATOM     88  C   UNL A   1      46.198  32.809  30.207  1.00  0.00     0.012 A 
ATOM     89  C   UNL A   1      45.433  33.627  28.048  1.00  0.00     0.148 A 
ATOM     90  C   UNL A   1      46.705  34.071  30.513  1.00  0.00     0.002 A 
ATOM     91  C   UNL A   1      45.982  34.869  28.339  1.00  0.00     0.091 A 
ATOM     92  F   UNL A   1      44.790  33.391  26.894  1.00  0.00    -0.205 F 
ATOM     93  C   UNL A   1      46.609  35.096  29.575  1.00  0.00     0.022 A 
BRANCH  91  94
ATOM     94  S   UNL A   1      45.989  36.219  27.154  1.00  0.00     0.127 S 
ATOM     95  O   UNL A   1      46.515  35.562  25.957  1.00  0.00    -0.237 OA
ATOM     96  O   UNL A   1      44.572  36.577  27.081  1.00  0.00    -0.237 OA
ATOM     97  O   UNL A   1      46.842  37.251  27.728  1.00  0.00    -0.744 OA
ENDBRANCH  91  94
ENDBRANCH  64  87
ENDBRANCH  38  39
ENDBRANCH  30  33
ENDBRANCH  28  29
ENDBRANCH  27  28
ENDBRANCH  26  27
ENDBRANCH   1  26
TORSDOF 19
ENDMDL
