MODEL 1
REMARK VINA RESULT:      -9.8      0.000      0.000
REMARK SMILES COc1cc(/C=C2/S/C(=[NH+]\C(C)=O)NC2=O)cc(Br)c1OCC(=O)NCCCCCCNC(=O)c1ccc(-c2c3nc(c(-c4cccc(S(=O)(=O)[O-])c4F)c4ccc([nH]4)c(-c4cccc(S(=O)(=O)[O-])c4F)c4nc(c(-c5cccc(S(=O)(=O)[O-])c5F)c5ccc2[nH]5)C=C4)C=C3)cc1
REMARK SMILES IDX 28 1 27 2 26 3 25 4 23 5 24 6 22 8 21 9 20 10 3 11 4 12 5 13
REMARK SMILES IDX 18 14 17 15 19 16 2 17 1 18 6 19 7 20 8 21 15 22 9 23 14 24
REMARK SMILES IDX 16 25 10 26 11 28 12 30 13 31 29 32 30 33 31 34 32 35 33 36
REMARK SMILES IDX 34 38 35 39 36 40 97 41 37 42 96 43 38 44 39 45 40 46 90 47
REMARK SMILES IDX 41 48 95 49 89 50 91 51 42 52 94 53 88 54 87 55 43 57 75 58
REMARK SMILES IDX 55 59 74 60 56 61 59 62 73 63 92 64 57 65 58 66 72 68 93 69
REMARK SMILES IDX 60 70 44 71 45 72 53 73 46 74 48 75 54 76 47 77 49 78 50 79
REMARK SMILES IDX 51 80 52 81 76 82 77 83 85 84 78 85 80 86 86 87 79 88 81 89
REMARK SMILES IDX 82 90 83 91 84 92 61 93 62 94 70 95 63 96 65 97 71 98 64 99
REMARK SMILES IDX 66 100 67 101 68 102 69 103
REMARK H PARENT 25 7 14 27 10 29 32 37 91 56 59 67
REMARK Flexibility Score: inf
ROOT
ATOM      1  C   UNL A   1      39.627  26.883  29.126  1.00  0.00     0.002 C 
ENDROOT
BRANCH   1   2
ATOM      2  C   UNL A   1      40.126  25.731  28.242  1.00  0.00     0.021 C 
BRANCH   2   3
ATOM      3  C   UNL A   1      39.299  25.479  26.983  1.00  0.00     0.116 C 
BRANCH   3   4
ATOM      4  N   UNL A   1      39.431  24.110  26.528  1.00  0.00    -0.353 N 
ATOM      5  C   UNL A   1      38.453  23.202  26.254  1.00  0.00     0.257 C 
ATOM      6  O   UNL A   1      38.793  22.099  25.819  1.00  0.00    -0.271 OA
ATOM      7  H   UNL A   1      40.354  23.792  26.400  1.00  0.00     0.163 HD
BRANCH   5   8
ATOM      8  C   UNL A   1      36.975  23.600  26.402  1.00  0.00     0.329 C 
BRANCH   8   9
ATOM      9  O   UNL A   1      35.932  22.946  25.706  1.00  0.00    -0.479 OA
BRANCH   9  10
ATOM     10  C   UNL A   1      34.839  23.631  25.250  1.00  0.00     0.176 A 
ATOM     11  C   UNL A   1      34.997  24.171  23.947  1.00  0.00     0.162 A 
ATOM     12  C   UNL A   1      33.952  24.876  23.334  1.00  0.00     0.058 A 
ATOM     13  C   UNL A   1      32.744  25.064  24.001  1.00  0.00    -0.019 A 
ATOM     14  C   UNL A   1      33.591  23.758  25.877  1.00  0.00     0.064 A 
ATOM     15  C   UNL A   1      32.565  24.493  25.262  1.00  0.00     0.028 A 
ATOM     16  Br  UNL A   1      33.064  22.854  27.465  1.00  0.00    -0.047 Br
BRANCH  11  17
ATOM     17  O   UNL A   1      36.210  23.935  23.340  1.00  0.00    -0.493 OA
ATOM     18  C   UNL A   1      36.465  22.627  22.840  1.00  0.00     0.278 C 
ENDBRANCH  11  17
BRANCH  13  19
ATOM     19  C   UNL A   1      31.663  25.822  23.360  1.00  0.00     0.032 C 
ATOM     20  C   UNL A   1      31.529  27.153  23.427  1.00  0.00     0.110 C 
ATOM     21  S   UNL A   1      30.169  28.020  22.785  1.00  0.00     0.007 SA
ATOM     22  C   UNL A   1      32.432  28.116  24.118  1.00  0.00     0.346 C 
ATOM     23  C   UNL A   1      30.558  29.458  23.679  1.00  0.00     0.324 C 
ATOM     24  N   UNL A   1      31.790  29.317  24.232  1.00  0.00    -0.199 N 
ATOM     25  O   UNL A   1      33.553  27.898  24.531  1.00  0.00    -0.240 OA
ATOM     26  N   UNL A   1      29.934  30.554  23.901  1.00  0.00    -0.204 N 
ATOM     27  H   UNL A   1      32.214  30.068  24.706  1.00  0.00     0.316 HD
ATOM     28  C   UNL A   1      28.715  30.973  23.444  1.00  0.00     0.304 C 
ATOM     29  H   UNL A   1      30.403  31.190  24.488  1.00  0.00     0.316 HD
ATOM     30  C   UNL A   1      27.609  30.029  23.058  1.00  0.00     0.144 C 
ATOM     31  O   UNL A   1      28.464  32.179  23.406  1.00  0.00    -0.247 OA
ENDBRANCH  13  19
ENDBRANCH   9  10
ENDBRANCH   8   9
ENDBRANCH   5   8
ENDBRANCH   3   4
ENDBRANCH   2   3
ENDBRANCH   1   2
BRANCH   1  32
ATOM     32  C   UNL A   1      39.197  28.154  28.384  1.00  0.00     0.002 C 
BRANCH  32  33
ATOM     33  C   UNL A   1      37.954  28.845  28.944  1.00  0.00     0.021 C 
BRANCH  33  34
ATOM     34  C   UNL A   1      38.167  30.293  29.367  1.00  0.00     0.116 C 
BRANCH  34  35
ATOM     35  N   UNL A   1      37.370  30.657  30.531  1.00  0.00    -0.352 N 
ATOM     36  C   UNL A   1      37.598  30.351  31.853  1.00  0.00     0.251 C 
ATOM     37  H   UNL A   1      36.563  31.191  30.349  1.00  0.00     0.163 HD
ATOM     38  O   UNL A   1      36.752  30.590  32.707  1.00  0.00    -0.269 OA
BRANCH  36  39
ATOM     39  C   UNL A   1      38.875  29.707  32.226  1.00  0.00     0.039 A 
ATOM     40  C   UNL A   1      38.909  28.326  32.439  1.00  0.00     0.014 A 
ATOM     41  C   UNL A   1      40.046  30.466  32.304  1.00  0.00     0.014 A 
ATOM     42  C   UNL A   1      40.137  27.693  32.654  1.00  0.00     0.010 A 
ATOM     43  C   UNL A   1      41.271  29.824  32.439  1.00  0.00     0.010 A 
ATOM     44  C   UNL A   1      41.331  28.432  32.613  1.00  0.00    -0.014 A 
BRANCH  44  45
ATOM     45  C   UNL A   1      42.662  27.784  32.732  1.00  0.00     0.031 A 
ATOM     46  C   UNL A   1      43.269  27.572  34.092  1.00  0.00     0.074 A 
ATOM     47  C   UNL A   1      43.376  27.505  31.622  1.00  0.00     0.049 A 
ATOM     48  N   UNL A   1      44.473  27.173  34.406  1.00  0.00    -0.248 NA
ATOM     49  C   UNL A   1      42.417  27.882  35.253  1.00  0.00     0.031 C 
ATOM     50  C   UNL A   1      42.923  27.720  30.247  1.00  0.00     0.029 A 
ATOM     51  N   UNL A   1      44.653  27.020  31.478  1.00  0.00    -0.354 N 
ATOM     52  C   UNL A   1      44.540  27.227  35.793  1.00  0.00     0.074 A 
ATOM     53  C   UNL A   1      43.264  27.724  36.259  1.00  0.00     0.031 C 
ATOM     54  C   UNL A   1      43.906  27.377  29.400  1.00  0.00     0.029 A 
ATOM     55  C   UNL A   1      45.075  26.962  30.169  1.00  0.00     0.049 A 
ATOM     56  H   UNL A   1      45.212  26.740  32.237  1.00  0.00     0.167 HD
ATOM     57  C   UNL A   1      45.563  26.874  36.606  1.00  0.00     0.034 A 
ATOM     58  C   UNL A   1      46.276  26.639  29.648  1.00  0.00     0.034 A 
ATOM     59  C   UNL A   1      46.815  26.346  36.139  1.00  0.00     0.049 A 
ATOM     60  C   UNL A   1      47.394  26.240  30.574  1.00  0.00     0.074 A 
ATOM     61  C   UNL A   1      47.883  25.882  36.886  1.00  0.00     0.029 A 
ATOM     62  N   UNL A   1      47.175  26.222  34.806  1.00  0.00    -0.354 N 
ATOM     63  N   UNL A   1      47.393  26.167  31.883  1.00  0.00    -0.248 NA
ATOM     64  C   UNL A   1      48.668  25.849  29.953  1.00  0.00     0.031 C 
ATOM     65  C   UNL A   1      48.903  25.511  36.005  1.00  0.00     0.029 A 
ATOM     66  C   UNL A   1      48.453  25.702  34.709  1.00  0.00     0.049 A 
ATOM     67  H   UNL A   1      46.605  26.468  34.042  1.00  0.00     0.167 HD
ATOM     68  C   UNL A   1      48.647  25.680  32.238  1.00  0.00     0.074 A 
ATOM     69  C   UNL A   1      49.378  25.468  31.007  1.00  0.00     0.031 C 
ATOM     70  C   UNL A   1      49.148  25.438  33.474  1.00  0.00     0.034 A 
BRANCH  57  71
ATOM     71  C   UNL A   1      45.360  27.017  38.092  1.00  0.00     0.023 A 
ATOM     72  C   UNL A   1      44.888  25.921  38.843  1.00  0.00     0.012 A 
ATOM     73  C   UNL A   1      45.692  28.215  38.754  1.00  0.00     0.148 A 
ATOM     74  C   UNL A   1      44.713  26.026  40.222  1.00  0.00     0.002 A 
ATOM     75  C   UNL A   1      45.563  28.297  40.135  1.00  0.00     0.091 A 
ATOM     76  F   UNL A   1      46.122  29.253  38.022  1.00  0.00    -0.205 F 
ATOM     77  C   UNL A   1      45.061  27.209  40.868  1.00  0.00     0.022 A 
BRANCH  75  78
ATOM     78  S   UNL A   1      46.061  29.747  41.071  1.00  0.00     0.127 S 
ATOM     79  O   UNL A   1      45.046  30.720  40.667  1.00  0.00    -0.237 OA
ATOM     80  O   UNL A   1      45.939  29.277  42.451  1.00  0.00    -0.237 OA
ATOM     81  O   UNL A   1      47.420  30.052  40.649  1.00  0.00    -0.744 OA
ENDBRANCH  75  78
ENDBRANCH  57  71
BRANCH  58  82
ATOM     82  C   UNL A   1      46.475  26.640  28.171  1.00  0.00     0.023 A 
ATOM     83  C   UNL A   1      46.983  27.793  27.541  1.00  0.00     0.012 A 
ATOM     84  C   UNL A   1      46.181  25.505  27.390  1.00  0.00     0.148 A 
ATOM     85  C   UNL A   1      47.160  27.829  26.157  1.00  0.00     0.002 A 
ATOM     86  C   UNL A   1      46.413  25.528  26.019  1.00  0.00     0.091 A 
ATOM     87  F   UNL A   1      45.691  24.420  28.006  1.00  0.00    -0.205 F 
ATOM     88  C   UNL A   1      46.885  26.696  25.399  1.00  0.00     0.022 A 
BRANCH  86  89
ATOM     89  S   UNL A   1      46.209  24.077  24.980  1.00  0.00     0.127 S 
ATOM     90  O   UNL A   1      44.804  24.180  24.596  1.00  0.00    -0.237 OA
ATOM     91  O   UNL A   1      47.165  24.341  23.904  1.00  0.00    -0.237 OA
ATOM     92  O   UNL A   1      46.551  22.938  25.822  1.00  0.00    -0.744 OA
ENDBRANCH  86  89
ENDBRANCH  58  82
BRANCH  70  93
ATOM     93  C   UNL A   1      50.532  24.853  33.576  1.00  0.00     0.023 A 
ATOM     94  C   UNL A   1      51.656  25.699  33.641  1.00  0.00     0.012 A 
ATOM     95  C   UNL A   1      50.702  23.460  33.717  1.00  0.00     0.148 A 
ATOM     96  C   UNL A   1      52.932  25.164  33.823  1.00  0.00     0.002 A 
ATOM     97  C   UNL A   1      51.968  22.941  33.951  1.00  0.00     0.091 A 
ATOM     98  F   UNL A   1      49.619  22.674  33.636  1.00  0.00    -0.205 F 
ATOM     99  C   UNL A   1      53.085  23.789  33.992  1.00  0.00     0.022 A 
BRANCH  97 100
ATOM    100  S   UNL A   1      52.251  21.199  34.284  1.00  0.00     0.127 S 
ATOM    101  O   UNL A   1      53.703  21.160  34.449  1.00  0.00    -0.237 OA
ATOM    102  O   UNL A   1      51.490  20.995  35.517  1.00  0.00    -0.237 OA
ATOM    103  O   UNL A   1      51.738  20.476  33.127  1.00  0.00    -0.744 OA
ENDBRANCH  97 100
ENDBRANCH  70  93
ENDBRANCH  44  45
ENDBRANCH  36  39
ENDBRANCH  34  35
ENDBRANCH  33  34
ENDBRANCH  32  33
ENDBRANCH   1  32
TORSDOF 20
ENDMDL
MODEL 2
REMARK VINA RESULT:      -9.7      2.449      5.174
REMARK SMILES COc1cc(/C=C2/S/C(=[NH+]\C(C)=O)NC2=O)cc(Br)c1OCC(=O)NCCCCCCNC(=O)c1ccc(-c2c3nc(c(-c4cccc(S(=O)(=O)[O-])c4F)c4ccc([nH]4)c(-c4cccc(S(=O)(=O)[O-])c4F)c4nc(c(-c5cccc(S(=O)(=O)[O-])c5F)c5ccc2[nH]5)C=C4)C=C3)cc1
REMARK SMILES IDX 28 1 27 2 26 3 25 4 23 5 24 6 22 8 21 9 20 10 3 11 4 12 5 13
REMARK SMILES IDX 18 14 17 15 19 16 2 17 1 18 6 19 7 20 8 21 15 22 9 23 14 24
REMARK SMILES IDX 16 25 10 26 11 28 12 30 13 31 29 32 30 33 31 34 32 35 33 36
REMARK SMILES IDX 34 38 35 39 36 40 97 41 37 42 96 43 38 44 39 45 40 46 90 47
REMARK SMILES IDX 41 48 95 49 89 50 91 51 42 52 94 53 88 54 87 55 43 57 75 58
REMARK SMILES IDX 55 59 74 60 56 61 59 62 73 63 92 64 57 65 58 66 72 68 93 69
REMARK SMILES IDX 60 70 44 71 45 72 53 73 46 74 48 75 54 76 47 77 49 78 50 79
REMARK SMILES IDX 51 80 52 81 76 82 77 83 85 84 78 85 80 86 86 87 79 88 81 89
REMARK SMILES IDX 82 90 83 91 84 92 61 93 62 94 70 95 63 96 65 97 71 98 64 99
REMARK SMILES IDX 66 100 67 101 68 102 69 103
REMARK H PARENT 25 7 14 27 10 29 32 37 91 56 59 67
REMARK Flexibility Score: inf
ROOT
ATOM      1  C   UNL A   1      33.367  30.673  27.236  1.00  0.00     0.002 C 
ENDROOT
BRANCH   1   2
ATOM      2  C   UNL A   1      32.228  29.775  26.732  1.00  0.00     0.021 C 
BRANCH   2   3
ATOM      3  C   UNL A   1      32.299  29.411  25.251  1.00  0.00     0.116 C 
BRANCH   3   4
ATOM      4  N   UNL A   1      31.040  29.665  24.582  1.00  0.00    -0.353 N 
ATOM      5  C   UNL A   1      30.607  29.211  23.373  1.00  0.00     0.257 C 
ATOM      6  O   UNL A   1      29.464  29.508  23.019  1.00  0.00    -0.271 OA
ATOM      7  H   UNL A   1      30.410  30.246  25.068  1.00  0.00     0.163 HD
BRANCH   5   8
ATOM      8  C   UNL A   1      31.504  28.281  22.539  1.00  0.00     0.329 C 
BRANCH   8   9
ATOM      9  O   UNL A   1      31.121  26.968  22.179  1.00  0.00    -0.479 OA
BRANCH   9  10
ATOM     10  C   UNL A   1      31.731  25.872  22.725  1.00  0.00     0.176 A 
ATOM     11  C   UNL A   1      32.801  25.357  21.948  1.00  0.00     0.162 A 
ATOM     12  C   UNL A   1      33.540  24.252  22.390  1.00  0.00     0.058 A 
ATOM     13  C   UNL A   1      33.228  23.636  23.601  1.00  0.00    -0.019 A 
ATOM     14  C   UNL A   1      31.481  25.294  23.978  1.00  0.00     0.064 A 
ATOM     15  C   UNL A   1      32.210  24.168  24.394  1.00  0.00     0.028 A 
ATOM     16  Br  UNL A   1      30.322  26.011  25.305  1.00  0.00    -0.047 Br
BRANCH  11  17
ATOM     17  O   UNL A   1      33.064  26.022  20.771  1.00  0.00    -0.493 OA
ATOM     18  C   UNL A   1      32.546  25.475  19.564  1.00  0.00     0.278 C 
ENDBRANCH  11  17
BRANCH  13  19
ATOM     19  C   UNL A   1      33.993  22.467  24.047  1.00  0.00     0.032 C 
ATOM     20  C   UNL A   1      35.075  22.525  24.835  1.00  0.00     0.110 C 
ATOM     21  S   UNL A   1      36.052  21.148  25.239  1.00  0.00     0.007 SA
ATOM     22  C   UNL A   1      35.692  23.745  25.427  1.00  0.00     0.346 C 
ATOM     23  C   UNL A   1      37.361  22.139  25.806  1.00  0.00     0.324 C 
ATOM     24  N   UNL A   1      36.940  23.428  25.887  1.00  0.00    -0.199 N 
ATOM     25  O   UNL A   1      35.199  24.853  25.497  1.00  0.00    -0.240 OA
ATOM     26  N   UNL A   1      38.573  21.894  26.136  1.00  0.00    -0.204 N 
ATOM     27  H   UNL A   1      37.523  24.121  26.271  1.00  0.00     0.316 HD
ATOM     28  C   UNL A   1      39.240  20.701  26.187  1.00  0.00     0.304 C 
ATOM     29  H   UNL A   1      39.104  22.682  26.393  1.00  0.00     0.316 HD
ATOM     30  C   UNL A   1      38.878  19.516  25.333  1.00  0.00     0.144 C 
ATOM     31  O   UNL A   1      40.234  20.592  26.907  1.00  0.00    -0.247 OA
ENDBRANCH  13  19
ENDBRANCH   9  10
ENDBRANCH   8   9
ENDBRANCH   5   8
ENDBRANCH   3   4
ENDBRANCH   2   3
ENDBRANCH   1   2
BRANCH   1  32
ATOM     32  C   UNL A   1      34.724  29.985  27.426  1.00  0.00     0.002 C 
BRANCH  32  33
ATOM     33  C   UNL A   1      35.777  30.814  28.159  1.00  0.00     0.021 C 
BRANCH  33  34
ATOM     34  C   UNL A   1      36.217  30.243  29.501  1.00  0.00     0.116 C 
BRANCH  34  35
ATOM     35  N   UNL A   1      35.726  31.025  30.628  1.00  0.00    -0.352 N 
ATOM     36  C   UNL A   1      36.277  31.156  31.881  1.00  0.00     0.251 C 
ATOM     37  H   UNL A   1      34.892  31.524  30.473  1.00  0.00     0.163 HD
ATOM     38  O   UNL A   1      35.663  31.722  32.780  1.00  0.00    -0.269 OA
BRANCH  36  39
ATOM     39  C   UNL A   1      37.615  30.583  32.137  1.00  0.00     0.039 A 
ATOM     40  C   UNL A   1      37.721  29.269  32.601  1.00  0.00     0.014 A 
ATOM     41  C   UNL A   1      38.762  31.332  31.858  1.00  0.00     0.014 A 
ATOM     42  C   UNL A   1      38.982  28.677  32.710  1.00  0.00     0.010 A 
ATOM     43  C   UNL A   1      40.007  30.716  31.893  1.00  0.00     0.010 A 
ATOM     44  C   UNL A   1      40.131  29.382  32.316  1.00  0.00    -0.014 A 
BRANCH  44  45
ATOM     45  C   UNL A   1      41.478  28.756  32.317  1.00  0.00     0.031 A 
ATOM     46  C   UNL A   1      42.406  28.986  33.479  1.00  0.00     0.074 A 
ATOM     47  C   UNL A   1      41.913  28.094  31.226  1.00  0.00     0.049 A 
ATOM     48  N   UNL A   1      43.666  28.665  33.605  1.00  0.00    -0.248 NA
ATOM     49  C   UNL A   1      41.849  29.701  34.640  1.00  0.00     0.031 C 
ATOM     50  C   UNL A   1      41.130  27.855  30.012  1.00  0.00     0.029 A 
ATOM     51  N   UNL A   1      43.136  27.535  30.946  1.00  0.00    -0.354 N 
ATOM     52  C   UNL A   1      44.066  29.175  34.834  1.00  0.00     0.074 A 
ATOM     53  C   UNL A   1      42.921  29.853  35.403  1.00  0.00     0.031 C 
ATOM     54  C   UNL A   1      41.893  27.209  29.115  1.00  0.00     0.029 A 
ATOM     55  C   UNL A   1      43.230  27.026  29.670  1.00  0.00     0.049 A 
ATOM     56  H   UNL A   1      43.875  27.502  31.595  1.00  0.00     0.167 HD
ATOM     57  C   UNL A   1      45.270  29.072  35.444  1.00  0.00     0.034 A 
ATOM     58  C   UNL A   1      44.282  26.497  29.012  1.00  0.00     0.034 A 
ATOM     59  C   UNL A   1      46.393  28.367  34.890  1.00  0.00     0.049 A 
ATOM     60  C   UNL A   1      45.606  26.384  29.717  1.00  0.00     0.074 A 
ATOM     61  C   UNL A   1      47.629  28.134  35.466  1.00  0.00     0.029 A 
ATOM     62  N   UNL A   1      46.423  27.790  33.630  1.00  0.00    -0.354 N 
ATOM     63  N   UNL A   1      45.927  26.753  30.933  1.00  0.00    -0.248 NA
ATOM     64  C   UNL A   1      46.708  25.756  28.971  1.00  0.00     0.031 C 
ATOM     65  C   UNL A   1      48.419  27.449  34.539  1.00  0.00     0.029 A 
ATOM     66  C   UNL A   1      47.661  27.214  33.404  1.00  0.00     0.049 A 
ATOM     67  H   UNL A   1      45.674  27.790  32.991  1.00  0.00     0.167 HD
ATOM     68  C   UNL A   1      47.249  26.361  31.115  1.00  0.00     0.074 A 
ATOM     69  C   UNL A   1      47.668  25.719  29.886  1.00  0.00     0.031 C 
ATOM     70  C   UNL A   1      48.045  26.525  32.199  1.00  0.00     0.034 A 
BRANCH  57  71
ATOM     71  C   UNL A   1      45.428  29.711  36.799  1.00  0.00     0.023 A 
ATOM     72  C   UNL A   1      45.346  28.918  37.962  1.00  0.00     0.012 A 
ATOM     73  C   UNL A   1      45.716  31.085  36.920  1.00  0.00     0.148 A 
ATOM     74  C   UNL A   1      45.510  29.487  39.224  1.00  0.00     0.002 A 
ATOM     75  C   UNL A   1      45.928  31.635  38.178  1.00  0.00     0.091 A 
ATOM     76  F   UNL A   1      45.772  31.827  35.805  1.00  0.00    -0.205 F 
ATOM     77  C   UNL A   1      45.811  30.841  39.331  1.00  0.00     0.022 A 
BRANCH  75  78
ATOM     78  S   UNL A   1      46.402  33.351  38.418  1.00  0.00     0.127 S 
ATOM     79  O   UNL A   1      47.698  33.396  37.741  1.00  0.00    -0.237 OA
ATOM     80  O   UNL A   1      45.328  34.066  37.728  1.00  0.00    -0.237 OA
ATOM     81  O   UNL A   1      46.445  33.559  39.859  1.00  0.00    -0.744 OA
ENDBRANCH  75  78
ENDBRANCH  57  71
BRANCH  58  82
ATOM     82  C   UNL A   1      44.115  25.997  27.617  1.00  0.00     0.023 A 
ATOM     83  C   UNL A   1      44.015  26.920  26.558  1.00  0.00     0.012 A 
ATOM     84  C   UNL A   1      44.072  24.618  27.333  1.00  0.00     0.148 A 
ATOM     85  C   UNL A   1      43.839  26.479  25.245  1.00  0.00     0.002 A 
ATOM     86  C   UNL A   1      43.953  24.186  26.017  1.00  0.00     0.091 A 
ATOM     87  F   UNL A   1      44.161  23.756  28.355  1.00  0.00    -0.205 F 
ATOM     88  C   UNL A   1      43.818  25.115  24.974  1.00  0.00     0.022 A 
BRANCH  86  89
ATOM     89  S   UNL A   1      44.044  22.452  25.558  1.00  0.00     0.127 S 
ATOM     90  O   UNL A   1      45.390  22.096  25.999  1.00  0.00    -0.237 OA
ATOM     91  O   UNL A   1      42.960  21.873  26.353  1.00  0.00    -0.237 OA
ATOM     92  O   UNL A   1      43.821  22.412  24.118  1.00  0.00    -0.744 OA
ENDBRANCH  86  89
ENDBRANCH  58  82
BRANCH  70  93
ATOM     93  C   UNL A   1      49.436  25.949  32.151  1.00  0.00     0.023 A 
ATOM     94  C   UNL A   1      50.483  26.678  31.554  1.00  0.00     0.012 A 
ATOM     95  C   UNL A   1      49.720  24.730  32.798  1.00  0.00     0.148 A 
ATOM     96  C   UNL A   1      51.790  26.189  31.584  1.00  0.00     0.002 A 
ATOM     97  C   UNL A   1      51.031  24.276  32.869  1.00  0.00     0.091 A 
ATOM     98  F   UNL A   1      48.704  24.046  33.345  1.00  0.00    -0.205 F 
ATOM     99  C   UNL A   1      52.065  24.997  32.253  1.00  0.00     0.022 A 
BRANCH  97 100
ATOM    100  S   UNL A   1      51.495  22.810  33.797  1.00  0.00     0.127 S 
ATOM    101  O   UNL A   1      50.973  23.121  35.127  1.00  0.00    -0.237 OA
ATOM    102  O   UNL A   1      50.771  21.755  33.087  1.00  0.00    -0.237 OA
ATOM    103  O   UNL A   1      52.947  22.715  33.707  1.00  0.00    -0.744 OA
ENDBRANCH  97 100
ENDBRANCH  70  93
ENDBRANCH  44  45
ENDBRANCH  36  39
ENDBRANCH  34  35
ENDBRANCH  33  34
ENDBRANCH  32  33
ENDBRANCH   1  32
TORSDOF 20
ENDMDL
MODEL 3
REMARK VINA RESULT:      -9.6      5.995      9.593
REMARK SMILES COc1cc(/C=C2/S/C(=[NH+]\C(C)=O)NC2=O)cc(Br)c1OCC(=O)NCCCCCCNC(=O)c1ccc(-c2c3nc(c(-c4cccc(S(=O)(=O)[O-])c4F)c4ccc([nH]4)c(-c4cccc(S(=O)(=O)[O-])c4F)c4nc(c(-c5cccc(S(=O)(=O)[O-])c5F)c5ccc2[nH]5)C=C4)C=C3)cc1
REMARK SMILES IDX 28 1 27 2 26 3 25 4 23 5 24 6 22 8 21 9 20 10 3 11 4 12 5 13
REMARK SMILES IDX 18 14 17 15 19 16 2 17 1 18 6 19 7 20 8 21 15 22 9 23 14 24
REMARK SMILES IDX 16 25 10 26 11 28 12 30 13 31 29 32 30 33 31 34 32 35 33 36
REMARK SMILES IDX 34 38 35 39 36 40 97 41 37 42 96 43 38 44 39 45 40 46 90 47
REMARK SMILES IDX 41 48 95 49 89 50 91 51 42 52 94 53 88 54 87 55 43 57 75 58
REMARK SMILES IDX 55 59 74 60 56 61 59 62 73 63 92 64 57 65 58 66 72 68 93 69
REMARK SMILES IDX 60 70 44 71 45 72 53 73 46 74 48 75 54 76 47 77 49 78 50 79
REMARK SMILES IDX 51 80 52 81 76 82 77 83 85 84 78 85 80 86 86 87 79 88 81 89
REMARK SMILES IDX 82 90 83 91 84 92 61 93 62 94 70 95 63 96 65 97 71 98 64 99
REMARK SMILES IDX 66 100 67 101 68 102 69 103
REMARK H PARENT 25 7 14 27 10 29 32 37 91 56 59 67
REMARK Flexibility Score: inf
ROOT
ATOM      1  C   UNL A   1      33.646  30.367  27.046  1.00  0.00     0.002 C 
ENDROOT
BRANCH   1   2
ATOM      2  C   UNL A   1      32.248  30.031  26.507  1.00  0.00     0.021 C 
BRANCH   2   3
ATOM      3  C   UNL A   1      32.203  29.631  25.034  1.00  0.00     0.116 C 
BRANCH   3   4
ATOM      4  N   UNL A   1      30.898  29.881  24.456  1.00  0.00    -0.353 N 
ATOM      5  C   UNL A   1      30.297  29.262  23.403  1.00  0.00     0.257 C 
ATOM      6  O   UNL A   1      29.147  29.600  23.114  1.00  0.00    -0.271 OA
ATOM      7  H   UNL A   1      30.374  30.597  24.885  1.00  0.00     0.163 HD
BRANCH   5   8
ATOM      8  C   UNL A   1      31.020  28.117  22.673  1.00  0.00     0.329 C 
BRANCH   8   9
ATOM      9  O   UNL A   1      30.571  26.777  22.719  1.00  0.00    -0.479 OA
BRANCH   9  10
ATOM     10  C   UNL A   1      31.429  25.746  22.991  1.00  0.00     0.176 A 
ATOM     11  C   UNL A   1      31.245  25.164  24.272  1.00  0.00     0.162 A 
ATOM     12  C   UNL A   1      32.032  24.080  24.684  1.00  0.00     0.058 A 
ATOM     13  C   UNL A   1      33.013  23.562  23.841  1.00  0.00    -0.019 A 
ATOM     14  C   UNL A   1      32.363  25.164  22.123  1.00  0.00     0.064 A 
ATOM     15  C   UNL A   1      33.164  24.098  22.561  1.00  0.00     0.028 A 
ATOM     16  Br  UNL A   1      32.548  25.575  20.275  1.00  0.00    -0.047 Br
BRANCH  11  17
ATOM     17  O   UNL A   1      30.250  25.714  25.048  1.00  0.00    -0.493 OA
ATOM     18  C   UNL A   1      30.633  26.472  26.189  1.00  0.00     0.278 C 
ENDBRANCH  11  17
BRANCH  13  19
ATOM     19  C   UNL A   1      33.847  22.441  24.288  1.00  0.00     0.032 C 
ATOM     20  C   UNL A   1      35.022  22.574  24.917  1.00  0.00     0.110 C 
ATOM     21  S   UNL A   1      36.063  21.242  25.313  1.00  0.00     0.007 SA
ATOM     22  C   UNL A   1      35.695  23.845  25.308  1.00  0.00     0.346 C 
ATOM     23  C   UNL A   1      37.422  22.283  25.608  1.00  0.00     0.324 C 
ATOM     24  N   UNL A   1      36.997  23.573  25.625  1.00  0.00    -0.199 N 
ATOM     25  O   UNL A   1      35.200  24.953  25.340  1.00  0.00    -0.240 OA
ATOM     26  N   UNL A   1      38.670  22.072  25.796  1.00  0.00    -0.204 N 
ATOM     27  H   UNL A   1      37.616  24.300  25.863  1.00  0.00     0.316 HD
ATOM     28  C   UNL A   1      39.354  20.890  25.867  1.00  0.00     0.304 C 
ATOM     29  H   UNL A   1      39.219  22.881  25.907  1.00  0.00     0.316 HD
ATOM     30  C   UNL A   1      38.899  19.630  25.181  1.00  0.00     0.144 C 
ATOM     31  O   UNL A   1      40.436  20.851  26.456  1.00  0.00    -0.247 OA
ENDBRANCH  13  19
ENDBRANCH   9  10
ENDBRANCH   8   9
ENDBRANCH   5   8
ENDBRANCH   3   4
ENDBRANCH   2   3
ENDBRANCH   1   2
BRANCH   1  32
ATOM     32  C   UNL A   1      34.716  29.289  26.840  1.00  0.00     0.002 C 
BRANCH  32  33
ATOM     33  C   UNL A   1      35.977  29.452  27.689  1.00  0.00     0.021 C 
BRANCH  33  34
ATOM     34  C   UNL A   1      35.879  30.514  28.776  1.00  0.00     0.116 C 
BRANCH  34  35
ATOM     35  N   UNL A   1      35.844  29.941  30.114  1.00  0.00    -0.352 N 
ATOM     36  C   UNL A   1      36.888  29.742  30.987  1.00  0.00     0.251 C 
ATOM     37  H   UNL A   1      34.958  29.659  30.437  1.00  0.00     0.163 HD
ATOM     38  O   UNL A   1      36.730  29.098  32.019  1.00  0.00    -0.269 OA
BRANCH  36  39
ATOM     39  C   UNL A   1      38.216  30.296  30.649  1.00  0.00     0.039 A 
ATOM     40  C   UNL A   1      38.899  31.065  31.595  1.00  0.00     0.014 A 
ATOM     41  C   UNL A   1      38.805  30.000  29.416  1.00  0.00     0.014 A 
ATOM     42  C   UNL A   1      40.210  31.472  31.334  1.00  0.00     0.010 A 
ATOM     43  C   UNL A   1      40.134  30.340  29.193  1.00  0.00     0.010 A 
ATOM     44  C   UNL A   1      40.852  31.077  30.149  1.00  0.00    -0.014 A 
BRANCH  44  45
ATOM     45  C   UNL A   1      42.276  31.399  29.879  1.00  0.00     0.031 A 
ATOM     46  C   UNL A   1      42.710  32.837  29.781  1.00  0.00     0.074 A 
ATOM     47  C   UNL A   1      43.148  30.410  29.596  1.00  0.00     0.049 A 
ATOM     48  N   UNL A   1      43.859  33.329  29.403  1.00  0.00    -0.248 NA
ATOM     49  C   UNL A   1      41.704  33.857  30.126  1.00  0.00     0.031 C 
ATOM     50  C   UNL A   1      42.836  28.980  29.598  1.00  0.00     0.029 A 
ATOM     51  N   UNL A   1      44.465  30.461  29.210  1.00  0.00    -0.354 N 
ATOM     52  C   UNL A   1      43.704  34.710  29.418  1.00  0.00     0.074 A 
ATOM     53  C   UNL A   1      42.339  34.977  29.817  1.00  0.00     0.031 C 
ATOM     54  C   UNL A   1      43.926  28.290  29.223  1.00  0.00     0.029 A 
ATOM     55  C   UNL A   1      45.000  29.228  28.911  1.00  0.00     0.049 A 
ATOM     56  H   UNL A   1      44.978  31.299  29.153  1.00  0.00     0.167 HD
ATOM     57  C   UNL A   1      44.619  35.669  29.146  1.00  0.00     0.034 A 
ATOM     58  C   UNL A   1      46.208  28.893  28.414  1.00  0.00     0.034 A 
ATOM     59  C   UNL A   1      45.984  35.398  28.786  1.00  0.00     0.049 A 
ATOM     60  C   UNL A   1      47.211  29.977  28.130  1.00  0.00     0.074 A 
ATOM     61  C   UNL A   1      47.010  36.300  28.571  1.00  0.00     0.029 A 
ATOM     62  N   UNL A   1      46.511  34.134  28.575  1.00  0.00    -0.354 N 
ATOM     63  N   UNL A   1      47.088  31.274  28.281  1.00  0.00    -0.248 NA
ATOM     64  C   UNL A   1      48.530  29.555  27.636  1.00  0.00     0.031 C 
ATOM     65  C   UNL A   1      48.149  35.583  28.195  1.00  0.00     0.029 A 
ATOM     66  C   UNL A   1      47.845  34.232  28.220  1.00  0.00     0.049 A 
ATOM     67  H   UNL A   1      46.011  33.291  28.666  1.00  0.00     0.167 HD
ATOM     68  C   UNL A   1      48.324  31.816  27.946  1.00  0.00     0.074 A 
ATOM     69  C   UNL A   1      49.185  30.708  27.591  1.00  0.00     0.031 C 
ATOM     70  C   UNL A   1      48.708  33.116  27.927  1.00  0.00     0.034 A 
BRANCH  57  71
ATOM     71  C   UNL A   1      44.184  37.107  29.259  1.00  0.00     0.023 A 
ATOM     72  C   UNL A   1      44.135  37.727  30.525  1.00  0.00     0.012 A 
ATOM     73  C   UNL A   1      43.882  37.862  28.109  1.00  0.00     0.148 A 
ATOM     74  C   UNL A   1      43.755  39.062  30.648  1.00  0.00     0.002 A 
ATOM     75  C   UNL A   1      43.553  39.206  28.235  1.00  0.00     0.091 A 
ATOM     76  F   UNL A   1      43.916  37.251  26.916  1.00  0.00    -0.205 F 
ATOM     77  C   UNL A   1      43.475  39.803  29.504  1.00  0.00     0.022 A 
BRANCH  75  78
ATOM     78  S   UNL A   1      43.255  40.268  26.817  1.00  0.00     0.127 S 
ATOM     79  O   UNL A   1      41.858  39.965  26.511  1.00  0.00    -0.237 OA
ATOM     80  O   UNL A   1      43.481  41.600  27.380  1.00  0.00    -0.237 OA
ATOM     81  O   UNL A   1      44.218  39.865  25.802  1.00  0.00    -0.744 OA
ENDBRANCH  75  78
ENDBRANCH  57  71
BRANCH  58  82
ATOM     82  C   UNL A   1      46.551  27.459  28.189  1.00  0.00     0.023 A 
ATOM     83  C   UNL A   1      47.083  26.700  29.250  1.00  0.00     0.012 A 
ATOM     84  C   UNL A   1      46.339  26.841  26.941  1.00  0.00     0.148 A 
ATOM     85  C   UNL A   1      47.432  25.362  29.062  1.00  0.00     0.002 A 
ATOM     86  C   UNL A   1      46.637  25.493  26.777  1.00  0.00     0.091 A 
ATOM     87  F   UNL A   1      45.840  27.582  25.942  1.00  0.00    -0.205 F 
ATOM     88  C   UNL A   1      47.201  24.757  27.831  1.00  0.00     0.022 A 
BRANCH  86  89
ATOM     89  S   UNL A   1      46.255  24.597  25.268  1.00  0.00     0.127 S 
ATOM     90  O   UNL A   1      44.829  24.868  25.112  1.00  0.00    -0.237 OA
ATOM     91  O   UNL A   1      47.121  25.263  24.295  1.00  0.00    -0.237 OA
ATOM     92  O   UNL A   1      46.607  23.207  25.534  1.00  0.00    -0.744 OA
ENDBRANCH  86  89
ENDBRANCH  58  82
BRANCH  70  93
ATOM     93  C   UNL A   1      50.138  33.428  27.575  1.00  0.00     0.023 A 
ATOM     94  C   UNL A   1      51.149  33.310  28.548  1.00  0.00     0.012 A 
ATOM     95  C   UNL A   1      50.488  33.731  26.243  1.00  0.00     0.148 A 
ATOM     96  C   UNL A   1      52.487  33.513  28.205  1.00  0.00     0.002 A 
ATOM     97  C   UNL A   1      51.826  33.880  25.900  1.00  0.00     0.091 A 
ATOM     98  F   UNL A   1      49.507  33.854  25.338  1.00  0.00    -0.205 F 
ATOM     99  C   UNL A   1      52.825  33.783  26.880  1.00  0.00     0.022 A 
BRANCH  97 100
ATOM    100  S   UNL A   1      52.365  34.124  24.204  1.00  0.00     0.127 S 
ATOM    101  O   UNL A   1      51.776  32.966  23.534  1.00  0.00    -0.237 OA
ATOM    102  O   UNL A   1      51.745  35.406  23.867  1.00  0.00    -0.237 OA
ATOM    103  O   UNL A   1      53.822  34.145  24.239  1.00  0.00    -0.744 OA
ENDBRANCH  97 100
ENDBRANCH  70  93
ENDBRANCH  44  45
ENDBRANCH  36  39
ENDBRANCH  34  35
ENDBRANCH  33  34
ENDBRANCH  32  33
ENDBRANCH   1  32
TORSDOF 20
ENDMDL
