MODEL 1
REMARK VINA RESULT:     -10.9      0.000      0.000
REMARK SMILES O=C(/C=C/C(=O)Nc1ccccn1)NCCCCCCNC(=O)c1ccc(-c2c3nc(c(-c4cccc(S(=O)(=O)[O-])c4F)c4ccc([nH]4)c(-c4cccc(S(=O)(=O)[O-])c4F)c4nc(c(-c5cccc(S(=O)(=O)[O-])c5F)c5ccc2[nH]5)C=C4)C=C3)cc1
REMARK SMILES IDX 18 1 17 2 16 3 15 4 14 5 1 6 2 7 3 9 4 10 5 11 6 12 7 13
REMARK SMILES IDX 8 15 9 16 13 17 10 18 12 19 11 20 19 21 20 22 21 23 22 24
REMARK SMILES IDX 23 26 24 27 25 28 86 29 26 30 85 31 27 32 28 33 29 34 79 35
REMARK SMILES IDX 30 36 84 37 78 38 80 39 31 40 83 41 77 42 76 43 32 45 64 46
REMARK SMILES IDX 44 47 63 48 45 49 48 50 62 51 81 52 46 53 47 54 61 56 82 57
REMARK SMILES IDX 49 58 33 59 34 60 42 61 35 62 37 63 43 64 36 65 38 66 39 67
REMARK SMILES IDX 40 68 41 69 65 70 66 71 74 72 67 73 69 74 75 75 68 76 70 77
REMARK SMILES IDX 71 78 72 79 73 80 50 81 51 82 59 83 52 84 54 85 60 86 53 87
REMARK SMILES IDX 55 88 56 89 57 90 58 91
REMARK H PARENT 14 8 7 14 21 25 80 44 48 55
REMARK Flexibility Score: inf
ROOT
ATOM      1  C   UNL A   1      33.513  26.451  25.565  1.00  0.00     0.002 C 
ENDROOT
BRANCH   1   2
ATOM      2  C   UNL A   1      32.308  26.215  24.649  1.00  0.00     0.002 C 
BRANCH   2   3
ATOM      3  C   UNL A   1      30.980  26.785  25.170  1.00  0.00     0.021 C 
BRANCH   3   4
ATOM      4  C   UNL A   1      30.068  25.734  25.806  1.00  0.00     0.116 C 
BRANCH   4   5
ATOM      5  N   UNL A   1      30.578  24.405  25.539  1.00  0.00    -0.353 N 
ATOM      6  O   UNL A   1      29.701  23.457  27.439  1.00  0.00    -0.270 OA
ATOM      7  C   UNL A   1      30.416  23.396  26.440  1.00  0.00     0.244 C 
ATOM      8  H   UNL A   1      31.050  24.228  24.693  1.00  0.00     0.163 HD
BRANCH   7   9
ATOM      9  C   UNL A   1      31.216  22.180  26.206  1.00  0.00     0.077 C 
ATOM     10  C   UNL A   1      32.041  21.969  25.168  1.00  0.00     0.077 C 
BRANCH  10  11
ATOM     11  C   UNL A   1      32.648  20.629  24.976  1.00  0.00     0.249 C 
ATOM     12  O   UNL A   1      31.928  19.636  25.044  1.00  0.00    -0.270 OA
ATOM     13  N   UNL A   1      33.976  20.526  24.671  1.00  0.00    -0.307 N 
ATOM     14  H   UNL A   1      34.266  19.639  24.362  1.00  0.00     0.171 HD
BRANCH  13  15
ATOM     15  C   UNL A   1      34.983  21.492  24.732  1.00  0.00     0.132 A 
ATOM     16  C   UNL A   1      35.140  22.473  23.757  1.00  0.00     0.047 A 
ATOM     17  N   UNL A   1      35.837  21.346  25.762  1.00  0.00    -0.239 NA
ATOM     18  C   UNL A   1      36.302  23.237  23.754  1.00  0.00     0.005 A 
ATOM     19  C   UNL A   1      36.965  22.093  25.728  1.00  0.00     0.113 A 
ATOM     20  C   UNL A   1      37.250  23.024  24.744  1.00  0.00     0.020 A 
ENDBRANCH  13  15
ENDBRANCH  10  11
ENDBRANCH   7   9
ENDBRANCH   4   5
ENDBRANCH   3   4
ENDBRANCH   2   3
ENDBRANCH   1   2
BRANCH   1  21
ATOM     21  C   UNL A   1      33.412  27.697  26.446  1.00  0.00     0.021 C 
BRANCH  21  22
ATOM     22  C   UNL A   1      34.266  28.870  25.979  1.00  0.00     0.116 C 
BRANCH  22  23
ATOM     23  N   UNL A   1      33.892  30.113  26.636  1.00  0.00    -0.352 N 
ATOM     24  C   UNL A   1      34.499  30.745  27.691  1.00  0.00     0.251 C 
ATOM     25  H   UNL A   1      33.095  30.563  26.273  1.00  0.00     0.163 HD
ATOM     26  O   UNL A   1      33.941  31.693  28.242  1.00  0.00    -0.269 OA
BRANCH  24  27
ATOM     27  C   UNL A   1      35.813  30.272  28.175  1.00  0.00     0.039 A 
ATOM     28  C   UNL A   1      35.893  29.651  29.424  1.00  0.00     0.014 A 
ATOM     29  C   UNL A   1      36.967  30.450  27.404  1.00  0.00     0.014 A 
ATOM     30  C   UNL A   1      37.123  29.174  29.881  1.00  0.00     0.010 A 
ATOM     31  C   UNL A   1      38.174  29.904  27.826  1.00  0.00     0.010 A 
ATOM     32  C   UNL A   1      38.271  29.278  29.079  1.00  0.00    -0.014 A 
BRANCH  32  33
ATOM     33  C   UNL A   1      39.588  28.770  29.545  1.00  0.00     0.031 A 
ATOM     34  C   UNL A   1      40.332  29.502  30.632  1.00  0.00     0.074 A 
ATOM     35  C   UNL A   1      40.142  27.695  28.951  1.00  0.00     0.049 A 
ATOM     36  N   UNL A   1      41.518  29.258  31.128  1.00  0.00    -0.248 NA
ATOM     37  C   UNL A   1      39.668  30.678  31.223  1.00  0.00     0.031 C 
ATOM     38  C   UNL A   1      39.557  26.943  27.838  1.00  0.00     0.029 A 
ATOM     39  N   UNL A   1      41.338  27.062  29.184  1.00  0.00    -0.354 N 
ATOM     40  C   UNL A   1      41.750  30.259  32.065  1.00  0.00     0.074 A 
ATOM     41  C   UNL A   1      40.606  31.142  32.036  1.00  0.00     0.031 C 
ATOM     42  C   UNL A   1      40.396  25.956  27.484  1.00  0.00     0.029 A 
ATOM     43  C   UNL A   1      41.588  26.019  28.322  1.00  0.00     0.049 A 
ATOM     44  H   UNL A   1      41.960  27.329  29.899  1.00  0.00     0.167 HD
ATOM     45  C   UNL A   1      42.802  30.410  32.904  1.00  0.00     0.034 A 
ATOM     46  C   UNL A   1      42.663  25.211  28.214  1.00  0.00     0.034 A 
ATOM     47  C   UNL A   1      43.922  29.509  32.960  1.00  0.00     0.049 A 
ATOM     48  C   UNL A   1      43.802  25.381  29.184  1.00  0.00     0.074 A 
ATOM     49  C   UNL A   1      45.016  29.548  33.805  1.00  0.00     0.029 A 
ATOM     50  N   UNL A   1      44.086  28.402  32.143  1.00  0.00    -0.354 N 
ATOM     51  N   UNL A   1      43.943  26.258  30.149  1.00  0.00    -0.248 NA
ATOM     52  C   UNL A   1      44.910  24.420  29.084  1.00  0.00     0.031 C 
ATOM     53  C   UNL A   1      45.850  28.470  33.492  1.00  0.00     0.029 A 
ATOM     54  C   UNL A   1      45.257  27.742  32.472  1.00  0.00     0.049 A 
ATOM     55  H   UNL A   1      43.463  28.127  31.433  1.00  0.00     0.167 HD
ATOM     56  C   UNL A   1      45.125  25.923  30.799  1.00  0.00     0.074 A 
ATOM     57  C   UNL A   1      45.652  24.752  30.130  1.00  0.00     0.031 C 
ATOM     58  C   UNL A   1      45.729  26.536  31.846  1.00  0.00     0.034 A 
BRANCH  45  59
ATOM     59  C   UNL A   1      42.760  31.553  33.885  1.00  0.00     0.023 A 
ATOM     60  C   UNL A   1      43.261  32.814  33.496  1.00  0.00     0.012 A 
ATOM     61  C   UNL A   1      42.165  31.407  35.152  1.00  0.00     0.148 A 
ATOM     62  C   UNL A   1      43.198  33.903  34.364  1.00  0.00     0.002 A 
ATOM     63  C   UNL A   1      42.064  32.510  35.995  1.00  0.00     0.091 A 
ATOM     64  F   UNL A   1      41.709  30.199  35.511  1.00  0.00    -0.205 F 
ATOM     65  C   UNL A   1      42.590  33.754  35.606  1.00  0.00     0.022 A 
BRANCH  63  66
ATOM     66  S   UNL A   1      41.228  32.449  37.583  1.00  0.00     0.127 S 
ATOM     67  O   UNL A   1      39.925  31.899  37.209  1.00  0.00    -0.237 OA
ATOM     68  O   UNL A   1      42.080  31.533  38.343  1.00  0.00    -0.237 OA
ATOM     69  O   UNL A   1      41.204  33.817  38.080  1.00  0.00    -0.744 OA
ENDBRANCH  63  66
ENDBRANCH  45  59
BRANCH  46  70
ATOM     70  C   UNL A   1      42.697  24.134  27.183  1.00  0.00     0.023 A 
ATOM     71  C   UNL A   1      43.355  24.361  25.959  1.00  0.00     0.012 A 
ATOM     72  C   UNL A   1      42.070  22.892  27.403  1.00  0.00     0.148 A 
ATOM     73  C   UNL A   1      43.342  23.395  24.952  1.00  0.00     0.002 A 
ATOM     74  C   UNL A   1      42.113  21.912  26.419  1.00  0.00     0.091 A 
ATOM     75  F   UNL A   1      41.439  22.696  28.570  1.00  0.00    -0.205 F 
ATOM     76  C   UNL A   1      42.728  22.168  25.185  1.00  0.00     0.022 A 
BRANCH  74  77
ATOM     77  S   UNL A   1      41.462  20.259  26.690  1.00  0.00     0.127 S 
ATOM     78  O   UNL A   1      42.224  19.824  27.857  1.00  0.00    -0.237 OA
ATOM     79  O   UNL A   1      40.046  20.528  26.944  1.00  0.00    -0.237 OA
ATOM     80  O   UNL A   1      41.717  19.534  25.453  1.00  0.00    -0.744 OA
ENDBRANCH  74  77
ENDBRANCH  46  70
BRANCH  58  81
ATOM     81  C   UNL A   1      46.989  25.916  32.390  1.00  0.00     0.023 A 
ATOM     82  C   UNL A   1      46.934  25.064  33.510  1.00  0.00     0.012 A 
ATOM     83  C   UNL A   1      48.222  26.130  31.743  1.00  0.00     0.148 A 
ATOM     84  C   UNL A   1      48.094  24.467  34.002  1.00  0.00     0.002 A 
ATOM     85  C   UNL A   1      49.365  25.491  32.207  1.00  0.00     0.091 A 
ATOM     86  F   UNL A   1      48.258  26.960  30.690  1.00  0.00    -0.205 F 
ATOM     87  C   UNL A   1      49.305  24.671  33.346  1.00  0.00     0.022 A 
BRANCH  85  88
ATOM     88  S   UNL A   1      50.946  25.616  31.363  1.00  0.00     0.127 S 
ATOM     89  O   UNL A   1      51.289  27.020  31.582  1.00  0.00    -0.237 OA
ATOM     90  O   UNL A   1      51.770  24.664  32.108  1.00  0.00    -0.237 OA
ATOM     91  O   UNL A   1      50.691  25.242  29.979  1.00  0.00    -0.744 OA
ENDBRANCH  85  88
ENDBRANCH  58  81
ENDBRANCH  32  33
ENDBRANCH  24  27
ENDBRANCH  22  23
ENDBRANCH  21  22
ENDBRANCH   1  21
TORSDOF 18
ENDMDL
MODEL 2
REMARK VINA RESULT:     -10.4      4.612     10.761
REMARK SMILES O=C(/C=C/C(=O)Nc1ccccn1)NCCCCCCNC(=O)c1ccc(-c2c3nc(c(-c4cccc(S(=O)(=O)[O-])c4F)c4ccc([nH]4)c(-c4cccc(S(=O)(=O)[O-])c4F)c4nc(c(-c5cccc(S(=O)(=O)[O-])c5F)c5ccc2[nH]5)C=C4)C=C3)cc1
REMARK SMILES IDX 18 1 17 2 16 3 15 4 14 5 1 6 2 7 3 9 4 10 5 11 6 12 7 13
REMARK SMILES IDX 8 15 9 16 13 17 10 18 12 19 11 20 19 21 20 22 21 23 22 24
REMARK SMILES IDX 23 26 24 27 25 28 86 29 26 30 85 31 27 32 28 33 29 34 79 35
REMARK SMILES IDX 30 36 84 37 78 38 80 39 31 40 83 41 77 42 76 43 32 45 64 46
REMARK SMILES IDX 44 47 63 48 45 49 48 50 62 51 81 52 46 53 47 54 61 56 82 57
REMARK SMILES IDX 49 58 33 59 34 60 42 61 35 62 37 63 43 64 36 65 38 66 39 67
REMARK SMILES IDX 40 68 41 69 65 70 66 71 74 72 67 73 69 74 75 75 68 76 70 77
REMARK SMILES IDX 71 78 72 79 73 80 50 81 51 82 59 83 52 84 54 85 60 86 53 87
REMARK SMILES IDX 55 88 56 89 57 90 58 91
REMARK H PARENT 14 8 7 14 21 25 80 44 48 55
REMARK Flexibility Score: inf
ROOT
ATOM      1  C   UNL A   1      41.833  22.585  28.888  1.00  0.00     0.002 C 
ENDROOT
BRANCH   1   2
ATOM      2  C   UNL A   1      43.341  22.810  29.039  1.00  0.00     0.002 C 
BRANCH   2   3
ATOM      3  C   UNL A   1      43.733  23.885  30.064  1.00  0.00     0.021 C 
BRANCH   3   4
ATOM      4  C   UNL A   1      45.114  24.496  29.815  1.00  0.00     0.116 C 
BRANCH   4   5
ATOM      5  N   UNL A   1      45.625  24.065  28.531  1.00  0.00    -0.353 N 
ATOM      6  O   UNL A   1      47.224  25.706  28.378  1.00  0.00    -0.270 OA
ATOM      7  C   UNL A   1      46.591  24.775  27.884  1.00  0.00     0.244 C 
ATOM      8  H   UNL A   1      45.269  23.245  28.118  1.00  0.00     0.163 HD
BRANCH   7   9
ATOM      9  C   UNL A   1      46.827  24.418  26.473  1.00  0.00     0.077 C 
ATOM     10  C   UNL A   1      46.068  23.596  25.733  1.00  0.00     0.077 C 
BRANCH  10  11
ATOM     11  C   UNL A   1      46.525  23.197  24.379  1.00  0.00     0.249 C 
ATOM     12  O   UNL A   1      46.994  24.055  23.635  1.00  0.00    -0.270 OA
ATOM     13  N   UNL A   1      46.473  21.883  24.008  1.00  0.00    -0.307 N 
ATOM     14  H   UNL A   1      46.971  21.660  23.189  1.00  0.00     0.171 HD
BRANCH  13  15
ATOM     15  C   UNL A   1      45.819  20.809  24.616  1.00  0.00     0.132 A 
ATOM     16  C   UNL A   1      46.502  19.715  25.139  1.00  0.00     0.047 A 
ATOM     17  N   UNL A   1      44.475  20.879  24.581  1.00  0.00    -0.239 NA
ATOM     18  C   UNL A   1      45.780  18.583  25.501  1.00  0.00     0.005 A 
ATOM     19  C   UNL A   1      43.798  19.760  24.926  1.00  0.00     0.113 A 
ATOM     20  C   UNL A   1      44.400  18.593  25.364  1.00  0.00     0.020 A 
ENDBRANCH  13  15
ENDBRANCH  10  11
ENDBRANCH   7   9
ENDBRANCH   4   5
ENDBRANCH   3   4
ENDBRANCH   2   3
ENDBRANCH   1   2
BRANCH   1  21
ATOM     21  C   UNL A   1      41.449  21.448  27.941  1.00  0.00     0.021 C 
BRANCH  21  22
ATOM     22  C   UNL A   1      41.348  21.855  26.476  1.00  0.00     0.116 C 
BRANCH  22  23
ATOM     23  N   UNL A   1      39.970  21.885  26.010  1.00  0.00    -0.352 N 
ATOM     24  C   UNL A   1      39.034  22.875  26.157  1.00  0.00     0.251 C 
ATOM     25  H   UNL A   1      39.670  21.085  25.521  1.00  0.00     0.163 HD
ATOM     26  O   UNL A   1      37.858  22.658  25.864  1.00  0.00    -0.269 OA
BRANCH  24  27
ATOM     27  C   UNL A   1      39.436  24.196  26.687  1.00  0.00     0.039 A 
ATOM     28  C   UNL A   1      39.111  24.525  28.005  1.00  0.00     0.014 A 
ATOM     29  C   UNL A   1      40.121  25.112  25.882  1.00  0.00     0.014 A 
ATOM     30  C   UNL A   1      39.510  25.757  28.528  1.00  0.00     0.010 A 
ATOM     31  C   UNL A   1      40.585  26.304  26.429  1.00  0.00     0.010 A 
ATOM     32  C   UNL A   1      40.267  26.650  27.751  1.00  0.00    -0.014 A 
BRANCH  32  33
ATOM     33  C   UNL A   1      40.706  27.963  28.292  1.00  0.00     0.031 A 
ATOM     34  C   UNL A   1      42.176  28.272  28.408  1.00  0.00     0.074 A 
ATOM     35  C   UNL A   1      39.791  28.847  28.736  1.00  0.00     0.049 A 
ATOM     36  N   UNL A   1      42.759  29.329  28.913  1.00  0.00    -0.248 NA
ATOM     37  C   UNL A   1      43.117  27.251  27.915  1.00  0.00     0.031 C 
ATOM     38  C   UNL A   1      38.341  28.635  28.748  1.00  0.00     0.029 A 
ATOM     39  N   UNL A   1      39.947  30.093  29.290  1.00  0.00    -0.354 N 
ATOM     40  C   UNL A   1      44.126  29.089  28.821  1.00  0.00     0.074 A 
ATOM     41  C   UNL A   1      44.287  27.767  28.258  1.00  0.00     0.031 C 
ATOM     42  C   UNL A   1      37.743  29.712  29.284  1.00  0.00     0.029 A 
ATOM     43  C   UNL A   1      38.763  30.676  29.681  1.00  0.00     0.049 A 
ATOM     44  H   UNL A   1      40.823  30.529  29.399  1.00  0.00     0.167 HD
ATOM     45  C   UNL A   1      45.156  29.908  29.140  1.00  0.00     0.034 A 
ATOM     46  C   UNL A   1      38.529  31.852  30.297  1.00  0.00     0.034 A 
ATOM     47  C   UNL A   1      44.995  31.238  29.663  1.00  0.00     0.049 A 
ATOM     48  C   UNL A   1      39.692  32.757  30.607  1.00  0.00     0.074 A 
ATOM     49  C   UNL A   1      45.973  32.164  29.975  1.00  0.00     0.029 A 
ATOM     50  N   UNL A   1      43.775  31.832  29.944  1.00  0.00    -0.354 N 
ATOM     51  N   UNL A   1      40.971  32.562  30.394  1.00  0.00    -0.248 NA
ATOM     52  C   UNL A   1      39.378  34.066  31.198  1.00  0.00     0.031 C 
ATOM     53  C   UNL A   1      45.345  33.318  30.457  1.00  0.00     0.029 A 
ATOM     54  C   UNL A   1      43.974  33.119  30.413  1.00  0.00     0.049 A 
ATOM     55  H   UNL A   1      42.897  31.403  29.827  1.00  0.00     0.167 HD
ATOM     56  C   UNL A   1      41.605  33.739  30.776  1.00  0.00     0.074 A 
ATOM     57  C   UNL A   1      40.569  34.648  31.216  1.00  0.00     0.031 C 
ATOM     58  C   UNL A   1      42.928  34.037  30.777  1.00  0.00     0.034 A 
BRANCH  45  59
ATOM     59  C   UNL A   1      46.554  29.419  28.862  1.00  0.00     0.023 A 
ATOM     60  C   UNL A   1      47.112  29.618  27.581  1.00  0.00     0.012 A 
ATOM     61  C   UNL A   1      47.339  28.834  29.874  1.00  0.00     0.148 A 
ATOM     62  C   UNL A   1      48.417  29.216  27.303  1.00  0.00     0.002 A 
ATOM     63  C   UNL A   1      48.656  28.478  29.602  1.00  0.00     0.091 A 
ATOM     64  F   UNL A   1      46.787  28.639  31.079  1.00  0.00    -0.205 F 
ATOM     65  C   UNL A   1      49.192  28.658  28.316  1.00  0.00     0.022 A 
BRANCH  63  66
ATOM     66  S   UNL A   1      49.767  27.826  30.854  1.00  0.00     0.127 S 
ATOM     67  O   UNL A   1      49.753  28.900  31.847  1.00  0.00    -0.237 OA
ATOM     68  O   UNL A   1      49.077  26.604  31.268  1.00  0.00    -0.237 OA
ATOM     69  O   UNL A   1      51.044  27.613  30.189  1.00  0.00    -0.744 OA
ENDBRANCH  63  66
ENDBRANCH  45  59
BRANCH  46  70
ATOM     70  C   UNL A   1      37.134  32.271  30.620  1.00  0.00     0.023 A 
ATOM     71  C   UNL A   1      36.609  32.019  31.903  1.00  0.00     0.012 A 
ATOM     72  C   UNL A   1      36.322  32.904  29.660  1.00  0.00     0.148 A 
ATOM     73  C   UNL A   1      35.286  32.339  32.206  1.00  0.00     0.002 A 
ATOM     74  C   UNL A   1      35.023  33.274  29.988  1.00  0.00     0.091 A 
ATOM     75  F   UNL A   1      36.833  33.127  28.440  1.00  0.00    -0.205 F 
ATOM     76  C   UNL A   1      34.495  32.973  31.252  1.00  0.00     0.022 A 
BRANCH  74  77
ATOM     77  S   UNL A   1      33.984  34.212  28.862  1.00  0.00     0.127 S 
ATOM     78  O   UNL A   1      33.464  33.163  27.989  1.00  0.00    -0.237 OA
ATOM     79  O   UNL A   1      33.000  34.800  29.773  1.00  0.00    -0.237 OA
ATOM     80  O   UNL A   1      34.869  35.184  28.235  1.00  0.00    -0.744 OA
ENDBRANCH  74  77
ENDBRANCH  46  70
BRANCH  58  81
ATOM     81  C   UNL A   1      43.333  35.426  31.194  1.00  0.00     0.023 A 
ATOM     82  C   UNL A   1      43.570  36.417  30.224  1.00  0.00     0.012 A 
ATOM     83  C   UNL A   1      43.414  35.761  32.560  1.00  0.00     0.148 A 
ATOM     84  C   UNL A   1      43.921  37.712  30.605  1.00  0.00     0.002 A 
ATOM     85  C   UNL A   1      43.712  37.065  32.934  1.00  0.00     0.091 A 
ATOM     86  F   UNL A   1      43.203  34.798  33.470  1.00  0.00    -0.205 F 
ATOM     87  C   UNL A   1      43.981  38.038  31.958  1.00  0.00     0.022 A 
BRANCH  85  88
ATOM     88  S   UNL A   1      43.711  37.597  34.650  1.00  0.00     0.127 S 
ATOM     89  O   UNL A   1      43.845  39.045  34.513  1.00  0.00    -0.237 OA
ATOM     90  O   UNL A   1      42.398  37.147  35.113  1.00  0.00    -0.237 OA
ATOM     91  O   UNL A   1      44.838  36.921  35.280  1.00  0.00    -0.744 OA
ENDBRANCH  85  88
ENDBRANCH  58  81
ENDBRANCH  32  33
ENDBRANCH  24  27
ENDBRANCH  22  23
ENDBRANCH  21  22
ENDBRANCH   1  21
TORSDOF 18
ENDMDL
MODEL 3
REMARK VINA RESULT:     -10.4      4.968      8.174
REMARK SMILES O=C(/C=C/C(=O)Nc1ccccn1)NCCCCCCNC(=O)c1ccc(-c2c3nc(c(-c4cccc(S(=O)(=O)[O-])c4F)c4ccc([nH]4)c(-c4cccc(S(=O)(=O)[O-])c4F)c4nc(c(-c5cccc(S(=O)(=O)[O-])c5F)c5ccc2[nH]5)C=C4)C=C3)cc1
REMARK SMILES IDX 18 1 17 2 16 3 15 4 14 5 1 6 2 7 3 9 4 10 5 11 6 12 7 13
REMARK SMILES IDX 8 15 9 16 13 17 10 18 12 19 11 20 19 21 20 22 21 23 22 24
REMARK SMILES IDX 23 26 24 27 25 28 86 29 26 30 85 31 27 32 28 33 29 34 79 35
REMARK SMILES IDX 30 36 84 37 78 38 80 39 31 40 83 41 77 42 76 43 32 45 64 46
REMARK SMILES IDX 44 47 63 48 45 49 48 50 62 51 81 52 46 53 47 54 61 56 82 57
REMARK SMILES IDX 49 58 33 59 34 60 42 61 35 62 37 63 43 64 36 65 38 66 39 67
REMARK SMILES IDX 40 68 41 69 65 70 66 71 74 72 67 73 69 74 75 75 68 76 70 77
REMARK SMILES IDX 71 78 72 79 73 80 50 81 51 82 59 83 52 84 54 85 60 86 53 87
REMARK SMILES IDX 55 88 56 89 57 90 58 91
REMARK H PARENT 14 8 7 14 21 25 80 44 48 55
REMARK Flexibility Score: inf
ROOT
ATOM      1  C   UNL A   1      37.387  20.779  24.793  1.00  0.00     0.002 C 
ENDROOT
BRANCH   1   2
ATOM      2  C   UNL A   1      37.460  21.945  25.784  1.00  0.00     0.002 C 
BRANCH   2   3
ATOM      3  C   UNL A   1      37.429  23.340  25.143  1.00  0.00     0.021 C 
BRANCH   3   4
ATOM      4  C   UNL A   1      36.074  24.041  25.262  1.00  0.00     0.116 C 
BRANCH   4   5
ATOM      5  N   UNL A   1      35.146  23.501  24.291  1.00  0.00    -0.353 N 
ATOM      6  O   UNL A   1      33.329  23.532  25.695  1.00  0.00    -0.270 OA
ATOM      7  C   UNL A   1      33.860  23.213  24.633  1.00  0.00     0.244 C 
ATOM      8  H   UNL A   1      35.451  23.340  23.368  1.00  0.00     0.163 HD
BRANCH   7   9
ATOM      9  C   UNL A   1      33.095  22.406  23.665  1.00  0.00     0.077 C 
ATOM     10  C   UNL A   1      32.755  21.116  23.811  1.00  0.00     0.077 C 
BRANCH  10  11
ATOM     11  C   UNL A   1      32.132  20.389  22.677  1.00  0.00     0.249 C 
ATOM     12  O   UNL A   1      31.515  21.030  21.830  1.00  0.00    -0.270 OA
ATOM     13  N   UNL A   1      32.305  19.039  22.564  1.00  0.00    -0.307 N 
ATOM     14  H   UNL A   1      32.043  18.655  21.697  1.00  0.00     0.171 HD
BRANCH  13  15
ATOM     15  C   UNL A   1      32.797  18.121  23.494  1.00  0.00     0.132 A 
ATOM     16  C   UNL A   1      33.793  17.200  23.184  1.00  0.00     0.047 A 
ATOM     17  N   UNL A   1      32.173  18.143  24.687  1.00  0.00    -0.239 NA
ATOM     18  C   UNL A   1      34.054  16.165  24.075  1.00  0.00     0.005 A 
ATOM     19  C   UNL A   1      32.435  17.118  25.531  1.00  0.00     0.113 A 
ATOM     20  C   UNL A   1      33.340  16.105  25.263  1.00  0.00     0.020 A 
ENDBRANCH  13  15
ENDBRANCH  10  11
ENDBRANCH   7   9
ENDBRANCH   4   5
ENDBRANCH   3   4
ENDBRANCH   2   3
ENDBRANCH   1   2
BRANCH   1  21
ATOM     21  C   UNL A   1      38.375  19.645  25.067  1.00  0.00     0.021 C 
BRANCH  21  22
ATOM     22  C   UNL A   1      39.528  20.022  25.990  1.00  0.00     0.116 C 
BRANCH  22  23
ATOM     23  N   UNL A   1      40.598  19.036  25.959  1.00  0.00    -0.352 N 
ATOM     24  C   UNL A   1      41.953  19.238  25.994  1.00  0.00     0.251 C 
ATOM     25  H   UNL A   1      40.308  18.097  25.906  1.00  0.00     0.163 HD
ATOM     26  O   UNL A   1      42.719  18.300  25.770  1.00  0.00    -0.269 OA
BRANCH  24  27
ATOM     27  C   UNL A   1      42.490  20.585  26.282  1.00  0.00     0.039 A 
ATOM     28  C   UNL A   1      42.981  21.358  25.228  1.00  0.00     0.014 A 
ATOM     29  C   UNL A   1      42.520  21.079  27.590  1.00  0.00     0.014 A 
ATOM     30  C   UNL A   1      43.465  22.644  25.481  1.00  0.00     0.010 A 
ATOM     31  C   UNL A   1      42.929  22.387  27.828  1.00  0.00     0.010 A 
ATOM     32  C   UNL A   1      43.426  23.177  26.780  1.00  0.00    -0.014 A 
BRANCH  32  33
ATOM     33  C   UNL A   1      43.930  24.545  27.068  1.00  0.00     0.031 A 
ATOM     34  C   UNL A   1      42.988  25.595  27.599  1.00  0.00     0.074 A 
ATOM     35  C   UNL A   1      45.211  24.862  26.794  1.00  0.00     0.049 A 
ATOM     36  N   UNL A   1      43.218  26.859  27.850  1.00  0.00    -0.248 NA
ATOM     37  C   UNL A   1      41.599  25.178  27.861  1.00  0.00     0.031 C 
ATOM     38  C   UNL A   1      46.203  23.956  26.208  1.00  0.00     0.029 A 
ATOM     39  N   UNL A   1      45.893  26.043  26.947  1.00  0.00    -0.354 N 
ATOM     40  C   UNL A   1      42.004  27.389  28.271  1.00  0.00     0.074 A 
ATOM     41  C   UNL A   1      41.028  26.325  28.197  1.00  0.00     0.031 C 
ATOM     42  C   UNL A   1      47.362  24.616  26.049  1.00  0.00     0.029 A 
ATOM     43  C   UNL A   1      47.191  25.994  26.493  1.00  0.00     0.049 A 
ATOM     44  H   UNL A   1      45.491  26.850  27.344  1.00  0.00     0.167 HD
ATOM     45  C   UNL A   1      41.731  28.638  28.717  1.00  0.00     0.034 A 
ATOM     46  C   UNL A   1      48.133  26.957  26.433  1.00  0.00     0.034 A 
ATOM     47  C   UNL A   1      42.710  29.685  28.828  1.00  0.00     0.049 A 
ATOM     48  C   UNL A   1      47.811  28.327  26.970  1.00  0.00     0.074 A 
ATOM     49  C   UNL A   1      42.546  30.971  29.311  1.00  0.00     0.029 A 
ATOM     50  N   UNL A   1      44.040  29.563  28.458  1.00  0.00    -0.354 N 
ATOM     51  N   UNL A   1      46.689  28.771  27.483  1.00  0.00    -0.248 NA
ATOM     52  C   UNL A   1      48.899  29.316  26.964  1.00  0.00     0.031 C 
ATOM     53  C   UNL A   1      43.775  31.632  29.222  1.00  0.00     0.029 A 
ATOM     54  C   UNL A   1      44.711  30.746  28.714  1.00  0.00     0.049 A 
ATOM     55  H   UNL A   1      44.447  28.755  28.070  1.00  0.00     0.167 HD
ATOM     56  C   UNL A   1      46.951  30.069  27.906  1.00  0.00     0.074 A 
ATOM     57  C   UNL A   1      48.342  30.334  27.606  1.00  0.00     0.031 C 
ATOM     58  C   UNL A   1      46.113  30.968  28.478  1.00  0.00     0.034 A 
BRANCH  45  59
ATOM     59  C   UNL A   1      40.329  28.924  29.192  1.00  0.00     0.023 A 
ATOM     60  C   UNL A   1      39.338  29.267  28.248  1.00  0.00     0.012 A 
ATOM     61  C   UNL A   1      39.973  28.783  30.547  1.00  0.00     0.148 A 
ATOM     62  C   UNL A   1      38.023  29.496  28.648  1.00  0.00     0.002 A 
ATOM     63  C   UNL A   1      38.649  28.967  30.932  1.00  0.00     0.091 A 
ATOM     64  F   UNL A   1      40.930  28.472  31.431  1.00  0.00    -0.205 F 
ATOM     65  C   UNL A   1      37.676  29.334  29.986  1.00  0.00     0.022 A 
BRANCH  63  66
ATOM     66  S   UNL A   1      38.078  28.706  32.614  1.00  0.00     0.127 S 
ATOM     67  O   UNL A   1      36.725  29.260  32.556  1.00  0.00    -0.237 OA
ATOM     68  O   UNL A   1      38.135  27.248  32.733  1.00  0.00    -0.237 OA
ATOM     69  O   UNL A   1      39.007  29.426  33.473  1.00  0.00    -0.744 OA
ENDBRANCH  63  66
ENDBRANCH  45  59
BRANCH  46  70
ATOM     70  C   UNL A   1      49.489  26.654  25.891  1.00  0.00     0.023 A 
ATOM     71  C   UNL A   1      50.428  25.981  26.698  1.00  0.00     0.012 A 
ATOM     72  C   UNL A   1      49.858  27.039  24.588  1.00  0.00     0.148 A 
ATOM     73  C   UNL A   1      51.725  25.747  26.239  1.00  0.00     0.002 A 
ATOM     74  C   UNL A   1      51.133  26.749  24.116  1.00  0.00     0.091 A 
ATOM     75  F   UNL A   1      48.957  27.689  23.837  1.00  0.00    -0.205 F 
ATOM     76  C   UNL A   1      52.075  26.124  24.945  1.00  0.00     0.022 A 
BRANCH  74  77
ATOM     77  S   UNL A   1      51.621  27.082  22.419  1.00  0.00     0.127 S 
ATOM     78  O   UNL A   1      52.782  26.210  22.264  1.00  0.00    -0.237 OA
ATOM     79  O   UNL A   1      50.433  26.665  21.673  1.00  0.00    -0.237 OA
ATOM     80  O   UNL A   1      51.886  28.513  22.364  1.00  0.00    -0.744 OA
ENDBRANCH  74  77
ENDBRANCH  46  70
BRANCH  58  81
ATOM     81  C   UNL A   1      46.688  32.297  28.892  1.00  0.00     0.023 A 
ATOM     82  C   UNL A   1      47.227  32.467  30.181  1.00  0.00     0.012 A 
ATOM     83  C   UNL A   1      46.748  33.361  27.970  1.00  0.00     0.148 A 
ATOM     84  C   UNL A   1      47.783  33.688  30.560  1.00  0.00     0.002 A 
ATOM     85  C   UNL A   1      47.350  34.558  28.337  1.00  0.00     0.091 A 
ATOM     86  F   UNL A   1      46.212  33.187  26.753  1.00  0.00    -0.205 F 
ATOM     87  C   UNL A   1      47.855  34.728  29.636  1.00  0.00     0.022 A 
BRANCH  85  88
ATOM     88  S   UNL A   1      47.577  35.914  27.180  1.00  0.00     0.127 S 
ATOM     89  O   UNL A   1      46.992  37.033  27.916  1.00  0.00    -0.237 OA
ATOM     90  O   UNL A   1      49.033  35.967  27.047  1.00  0.00    -0.237 OA
ATOM     91  O   UNL A   1      46.873  35.526  25.966  1.00  0.00    -0.744 OA
ENDBRANCH  85  88
ENDBRANCH  58  81
ENDBRANCH  32  33
ENDBRANCH  24  27
ENDBRANCH  22  23
ENDBRANCH  21  22
ENDBRANCH   1  21
TORSDOF 18
ENDMDL
