MODEL 1
REMARK VINA RESULT:     -12.2      0.000      0.000
REMARK SMILES O=C1[NH+]=C(Nc2ccc(C(=O)NCCCCCCNC(=O)c3ccc(-c4c5nc(c(-c6cccc(S(=O)(=O)[O-])c6F)c6ccc([nH]6)c(-c6cccc(S(=O)(=O)[O-])c6F)c6nc(c(-c7cccc(S(=O)(=O)[O-])c7F)c7ccc4[nH]7)C=C6)C=C5)cc3)c(O)c2)S/C1=C\c1ccc[nH]1
REMARK SMILES IDX 16 1 15 2 14 3 13 4 12 5 10 6 11 7 9 9 6 10 7 11 87 12 8 13
REMARK SMILES IDX 85 14 5 15 1 16 2 17 3 18 89 19 4 20 88 22 90 23 91 25 92 26
REMARK SMILES IDX 95 27 93 28 94 29 86 31 17 33 18 34 19 35 20 36 21 38 22 39
REMARK SMILES IDX 23 40 84 41 24 42 83 43 25 44 26 45 27 46 77 47 28 48 82 49
REMARK SMILES IDX 76 50 78 51 29 52 81 53 75 54 74 55 30 57 62 58 42 59 61 60
REMARK SMILES IDX 43 61 46 62 60 63 79 64 44 65 45 66 59 68 80 69 47 70 31 71
REMARK SMILES IDX 32 72 40 73 33 74 35 75 41 76 34 77 36 78 37 79 38 80 39 81
REMARK SMILES IDX 63 82 64 83 72 84 65 85 67 86 73 87 66 88 68 89 69 90 70 91
REMARK SMILES IDX 71 92 48 93 49 94 57 95 50 96 52 97 58 98 51 99 53 100
REMARK SMILES IDX 54 101 55 102 56 103
REMARK H PARENT 12 8 3 21 5 24 95 30 86 32 19 37 78 56 46 67
REMARK Flexibility Score: inf
ROOT
ATOM      1  C   UNL A   1      33.759  30.657  27.308  1.00  0.00     0.002 C 
ENDROOT
BRANCH   1   2
ATOM      2  C   UNL A   1      33.288  29.423  26.531  1.00  0.00     0.002 C 
BRANCH   2   3
ATOM      3  C   UNL A   1      32.685  29.668  25.144  1.00  0.00     0.021 C 
BRANCH   3   4
ATOM      4  C   UNL A   1      31.162  29.736  25.068  1.00  0.00     0.116 C 
BRANCH   4   5
ATOM      5  N   UNL A   1      30.635  29.789  23.715  1.00  0.00    -0.352 N 
ATOM      6  C   UNL A   1      30.441  28.785  22.797  1.00  0.00     0.255 C 
ATOM      7  O   UNL A   1      29.998  29.076  21.687  1.00  0.00    -0.269 OA
ATOM      8  H   UNL A   1      30.375  30.688  23.406  1.00  0.00     0.163 HD
BRANCH   6   9
ATOM      9  C   UNL A   1      30.807  27.374  23.080  1.00  0.00     0.081 A 
ATOM     10  C   UNL A   1      31.203  24.629  23.648  1.00  0.00     0.129 A 
ATOM     11  C   UNL A   1      30.269  25.380  24.367  1.00  0.00     0.053 A 
ATOM     12  C   UNL A   1      31.978  25.284  22.685  1.00  0.00     0.098 A 
ATOM     13  C   UNL A   1      30.075  26.737  24.092  1.00  0.00     0.022 A 
ATOM     14  C   UNL A   1      31.810  26.649  22.434  1.00  0.00     0.132 A 
BRANCH  10  15
ATOM     15  N   UNL A   1      31.330  23.244  23.800  1.00  0.00    -0.234 N 
ATOM     16  O   UNL A   1      35.683  22.229  25.136  1.00  0.00    -0.240 OA
ATOM     17  C   UNL A   1      34.530  22.034  24.768  1.00  0.00     0.346 C 
ATOM     18  N   UNL A   1      33.631  23.021  24.440  1.00  0.00    -0.199 N 
ATOM     19  C   UNL A   1      33.941  20.675  24.613  1.00  0.00     0.111 C 
ATOM     20  C   UNL A   1      32.467  22.565  24.115  1.00  0.00     0.322 C 
ATOM     21  H   UNL A   1      33.852  23.980  24.451  1.00  0.00     0.316 HD
ATOM     22  S   UNL A   1      32.302  20.823  24.117  1.00  0.00     0.006 SA
ATOM     23  C   UNL A   1      34.644  19.561  24.857  1.00  0.00     0.050 C 
ATOM     24  H   UNL A   1      30.515  22.707  23.665  1.00  0.00     0.313 HD
BRANCH  23  25
ATOM     25  C   UNL A   1      34.122  18.266  24.630  1.00  0.00     0.039 A 
ATOM     26  C   UNL A   1      34.130  17.414  23.543  1.00  0.00     0.027 A 
ATOM     27  N   UNL A   1      33.441  17.638  25.644  1.00  0.00    -0.362 N 
ATOM     28  C   UNL A   1      33.408  16.252  23.902  1.00  0.00     0.020 A 
ATOM     29  C   UNL A   1      32.989  16.419  25.203  1.00  0.00     0.083 A 
ATOM     30  H   UNL A   1      33.300  18.003  26.546  1.00  0.00     0.166 HD
ENDBRANCH  23  25
ENDBRANCH  10  15
BRANCH  14  31
ATOM     31  O   UNL A   1      32.706  27.190  21.557  1.00  0.00    -0.507 OA
ATOM     32  H   UNL A   1      33.192  26.633  20.981  1.00  0.00     0.293 HD
ENDBRANCH  14  31
ENDBRANCH   6   9
ENDBRANCH   4   5
ENDBRANCH   3   4
ENDBRANCH   2   3
ENDBRANCH   1   2
BRANCH   1  33
ATOM     33  C   UNL A   1      32.710  31.736  27.579  1.00  0.00     0.021 C 
BRANCH  33  34
ATOM     34  C   UNL A   1      32.930  33.072  26.879  1.00  0.00     0.116 C 
BRANCH  34  35
ATOM     35  N   UNL A   1      32.620  34.214  27.724  1.00  0.00    -0.352 N 
ATOM     36  C   UNL A   1      33.179  34.593  28.921  1.00  0.00     0.251 C 
ATOM     37  H   UNL A   1      31.904  34.802  27.390  1.00  0.00     0.163 HD
ATOM     38  O   UNL A   1      32.687  35.518  29.559  1.00  0.00    -0.269 OA
BRANCH  36  39
ATOM     39  C   UNL A   1      34.353  33.867  29.454  1.00  0.00     0.039 A 
ATOM     40  C   UNL A   1      35.629  34.250  29.032  1.00  0.00     0.014 A 
ATOM     41  C   UNL A   1      34.203  32.823  30.372  1.00  0.00     0.014 A 
ATOM     42  C   UNL A   1      36.756  33.638  29.587  1.00  0.00     0.010 A 
ATOM     43  C   UNL A   1      35.327  32.266  30.978  1.00  0.00     0.010 A 
ATOM     44  C   UNL A   1      36.615  32.671  30.596  1.00  0.00    -0.014 A 
BRANCH  44  45
ATOM     45  C   UNL A   1      37.803  32.108  31.291  1.00  0.00     0.031 A 
ATOM     46  C   UNL A   1      38.580  30.971  30.683  1.00  0.00     0.074 A 
ATOM     47  C   UNL A   1      38.131  32.564  32.517  1.00  0.00     0.049 A 
ATOM     48  N   UNL A   1      39.601  30.317  31.172  1.00  0.00    -0.248 NA
ATOM     49  C   UNL A   1      38.139  30.492  29.363  1.00  0.00     0.031 C 
ATOM     50  C   UNL A   1      37.414  33.613  33.248  1.00  0.00     0.029 A 
ATOM     51  N   UNL A   1      39.131  32.187  33.380  1.00  0.00    -0.354 N 
ATOM     52  C   UNL A   1      39.905  29.331  30.241  1.00  0.00     0.074 A 
ATOM     53  C   UNL A   1      38.941  29.454  29.169  1.00  0.00     0.031 C 
ATOM     54  C   UNL A   1      37.996  33.795  34.443  1.00  0.00     0.029 A 
ATOM     55  C   UNL A   1      39.101  32.852  34.585  1.00  0.00     0.049 A 
ATOM     56  H   UNL A   1      39.806  31.505  33.157  1.00  0.00     0.167 HD
ATOM     57  C   UNL A   1      40.908  28.422  30.265  1.00  0.00     0.034 A 
ATOM     58  C   UNL A   1      39.861  32.707  35.688  1.00  0.00     0.034 A 
ATOM     59  C   UNL A   1      41.881  28.320  31.320  1.00  0.00     0.049 A 
ATOM     60  C   UNL A   1      40.973  31.693  35.682  1.00  0.00     0.074 A 
ATOM     61  C   UNL A   1      42.985  27.488  31.392  1.00  0.00     0.029 A 
ATOM     62  N   UNL A   1      41.857  29.054  32.494  1.00  0.00    -0.354 N 
ATOM     63  N   UNL A   1      41.343  30.879  34.723  1.00  0.00    -0.248 NA
ATOM     64  C   UNL A   1      41.794  31.600  36.898  1.00  0.00     0.031 C 
ATOM     65  C   UNL A   1      43.604  27.690  32.629  1.00  0.00     0.029 A 
ATOM     66  C   UNL A   1      42.914  28.679  33.309  1.00  0.00     0.049 A 
ATOM     67  H   UNL A   1      41.188  29.741  32.718  1.00  0.00     0.167 HD
ATOM     68  C   UNL A   1      42.456  30.202  35.207  1.00  0.00     0.074 A 
ATOM     69  C   UNL A   1      42.716  30.719  36.534  1.00  0.00     0.031 C 
ATOM     70  C   UNL A   1      43.189  29.229  34.610  1.00  0.00     0.034 A 
BRANCH  57  71
ATOM     71  C   UNL A   1      41.030  27.478  29.096  1.00  0.00     0.023 A 
ATOM     72  C   UNL A   1      40.236  26.314  29.048  1.00  0.00     0.012 A 
ATOM     73  C   UNL A   1      41.876  27.781  28.010  1.00  0.00     0.148 A 
ATOM     74  C   UNL A   1      40.306  25.449  27.957  1.00  0.00     0.002 A 
ATOM     75  C   UNL A   1      41.905  26.940  26.904  1.00  0.00     0.091 A 
ATOM     76  F   UNL A   1      42.635  28.884  28.080  1.00  0.00    -0.205 F 
ATOM     77  C   UNL A   1      41.132  25.768  26.881  1.00  0.00     0.022 A 
BRANCH  75  78
ATOM     78  S   UNL A   1      42.870  27.303  25.433  1.00  0.00     0.127 S 
ATOM     79  O   UNL A   1      42.092  28.386  24.832  1.00  0.00    -0.237 OA
ATOM     80  O   UNL A   1      44.152  27.719  26.004  1.00  0.00    -0.237 OA
ATOM     81  O   UNL A   1      42.916  26.069  24.664  1.00  0.00    -0.744 OA
ENDBRANCH  75  78
ENDBRANCH  57  71
BRANCH  58  82
ATOM     82  C   UNL A   1      39.616  33.564  36.883  1.00  0.00     0.023 A 
ATOM     83  C   UNL A   1      40.079  34.894  36.891  1.00  0.00     0.012 A 
ATOM     84  C   UNL A   1      38.920  33.072  38.003  1.00  0.00     0.148 A 
ATOM     85  C   UNL A   1      39.885  35.707  38.009  1.00  0.00     0.002 A 
ATOM     86  C   UNL A   1      38.678  33.905  39.089  1.00  0.00     0.091 A 
ATOM     87  F   UNL A   1      38.497  31.800  37.980  1.00  0.00    -0.205 F 
ATOM     88  C   UNL A   1      39.178  35.216  39.104  1.00  0.00     0.022 A 
BRANCH  86  89
ATOM     89  S   UNL A   1      37.664  33.401  40.484  1.00  0.00     0.127 S 
ATOM     90  O   UNL A   1      36.431  32.982  39.821  1.00  0.00    -0.237 OA
ATOM     91  O   UNL A   1      38.458  32.313  41.054  1.00  0.00    -0.237 OA
ATOM     92  O   UNL A   1      37.554  34.576  41.338  1.00  0.00    -0.744 OA
ENDBRANCH  86  89
ENDBRANCH  58  82
BRANCH  70  93
ATOM     93  C   UNL A   1      44.371  28.678  35.367  1.00  0.00     0.023 A 
ATOM     94  C   UNL A   1      45.656  29.217  35.158  1.00  0.00     0.012 A 
ATOM     95  C   UNL A   1      44.192  27.676  36.342  1.00  0.00     0.148 A 
ATOM     96  C   UNL A   1      46.750  28.744  35.882  1.00  0.00     0.002 A 
ATOM     97  C   UNL A   1      45.277  27.248  37.098  1.00  0.00     0.091 A 
ATOM     98  F   UNL A   1      42.964  27.166  36.516  1.00  0.00    -0.205 F 
ATOM     99  C   UNL A   1      46.557  27.770  36.859  1.00  0.00     0.022 A 
BRANCH  97 100
ATOM    100  S   UNL A   1      45.112  26.071  38.444  1.00  0.00     0.127 S 
ATOM    101  O   UNL A   1      44.644  24.878  37.740  1.00  0.00    -0.237 OA
ATOM    102  O   UNL A   1      46.482  25.985  38.947  1.00  0.00    -0.237 OA
ATOM    103  O   UNL A   1      44.158  26.655  39.378  1.00  0.00    -0.744 OA
ENDBRANCH  97 100
ENDBRANCH  70  93
ENDBRANCH  44  45
ENDBRANCH  36  39
ENDBRANCH  34  35
ENDBRANCH  33  34
ENDBRANCH   1  33
TORSDOF 19
ENDMDL
MODEL 2
REMARK VINA RESULT:     -12.1      5.722     12.108
REMARK SMILES O=C1[NH+]=C(Nc2ccc(C(=O)NCCCCCCNC(=O)c3ccc(-c4c5nc(c(-c6cccc(S(=O)(=O)[O-])c6F)c6ccc([nH]6)c(-c6cccc(S(=O)(=O)[O-])c6F)c6nc(c(-c7cccc(S(=O)(=O)[O-])c7F)c7ccc4[nH]7)C=C6)C=C5)cc3)c(O)c2)S/C1=C\c1ccc[nH]1
REMARK SMILES IDX 16 1 15 2 14 3 13 4 12 5 10 6 11 7 9 9 6 10 7 11 87 12 8 13
REMARK SMILES IDX 85 14 5 15 1 16 2 17 3 18 89 19 4 20 88 22 90 23 91 25 92 26
REMARK SMILES IDX 95 27 93 28 94 29 86 31 17 33 18 34 19 35 20 36 21 38 22 39
REMARK SMILES IDX 23 40 84 41 24 42 83 43 25 44 26 45 27 46 77 47 28 48 82 49
REMARK SMILES IDX 76 50 78 51 29 52 81 53 75 54 74 55 30 57 62 58 42 59 61 60
REMARK SMILES IDX 43 61 46 62 60 63 79 64 44 65 45 66 59 68 80 69 47 70 31 71
REMARK SMILES IDX 32 72 40 73 33 74 35 75 41 76 34 77 36 78 37 79 38 80 39 81
REMARK SMILES IDX 63 82 64 83 72 84 65 85 67 86 73 87 66 88 68 89 69 90 70 91
REMARK SMILES IDX 71 92 48 93 49 94 57 95 50 96 52 97 58 98 51 99 53 100
REMARK SMILES IDX 54 101 55 102 56 103
REMARK H PARENT 12 8 3 21 5 24 95 30 86 32 19 37 78 56 46 67
REMARK Flexibility Score: inf
ROOT
ATOM      1  C   UNL A   1      38.835  23.171  26.183  1.00  0.00     0.002 C 
ENDROOT
BRANCH   1   2
ATOM      2  C   UNL A   1      37.410  23.525  25.746  1.00  0.00     0.002 C 
BRANCH   2   3
ATOM      3  C   UNL A   1      36.342  22.442  25.926  1.00  0.00     0.021 C 
BRANCH   3   4
ATOM      4  C   UNL A   1      35.907  21.701  24.666  1.00  0.00     0.116 C 
BRANCH   4   5
ATOM      5  N   UNL A   1      34.849  20.729  24.881  1.00  0.00    -0.352 N 
ATOM      6  C   UNL A   1      33.485  20.862  24.774  1.00  0.00     0.255 C 
ATOM      7  O   UNL A   1      32.775  19.892  25.033  1.00  0.00    -0.269 OA
ATOM      8  H   UNL A   1      35.158  19.832  25.146  1.00  0.00     0.163 HD
BRANCH   6   9
ATOM      9  C   UNL A   1      32.843  22.152  24.416  1.00  0.00     0.081 A 
ATOM     10  C   UNL A   1      31.842  24.747  23.892  1.00  0.00     0.129 A 
ATOM     11  C   UNL A   1      32.310  24.406  25.164  1.00  0.00     0.053 A 
ATOM     12  C   UNL A   1      31.824  23.756  22.905  1.00  0.00     0.098 A 
ATOM     13  C   UNL A   1      32.800  23.123  25.426  1.00  0.00     0.022 A 
ATOM     14  C   UNL A   1      32.280  22.463  23.176  1.00  0.00     0.132 A 
BRANCH  10  15
ATOM     15  N   UNL A   1      31.471  26.054  23.555  1.00  0.00    -0.234 N 
ATOM     16  O   UNL A   1      26.879  26.572  24.196  1.00  0.00    -0.240 OA
ATOM     17  C   UNL A   1      28.021  26.859  23.855  1.00  0.00     0.346 C 
ATOM     18  N   UNL A   1      29.104  26.016  23.939  1.00  0.00    -0.199 N 
ATOM     19  C   UNL A   1      28.393  28.182  23.282  1.00  0.00     0.111 C 
ATOM     20  C   UNL A   1      30.208  26.561  23.549  1.00  0.00     0.322 C 
ATOM     21  H   UNL A   1      29.043  25.088  24.262  1.00  0.00     0.316 HD
ATOM     22  S   UNL A   1      30.083  28.207  22.967  1.00  0.00     0.006 SA
ATOM     23  C   UNL A   1      27.492  29.155  23.088  1.00  0.00     0.050 C 
ATOM     24  H   UNL A   1      32.197  26.667  23.295  1.00  0.00     0.313 HD
BRANCH  23  25
ATOM     25  C   UNL A   1      27.818  30.382  22.466  1.00  0.00     0.039 A 
ATOM     26  C   UNL A   1      28.161  31.630  22.947  1.00  0.00     0.027 A 
ATOM     27  N   UNL A   1      27.819  30.451  21.094  1.00  0.00    -0.362 N 
ATOM     28  C   UNL A   1      28.344  32.484  21.834  1.00  0.00     0.020 A 
ATOM     29  C   UNL A   1      28.120  31.732  20.703  1.00  0.00     0.083 A 
ATOM     30  H   UNL A   1      27.632  29.701  20.487  1.00  0.00     0.166 HD
ENDBRANCH  23  25
ENDBRANCH  10  15
BRANCH  14  31
ATOM     31  O   UNL A   1      32.100  21.563  22.166  1.00  0.00    -0.507 OA
ATOM     32  H   UNL A   1      32.459  21.733  21.317  1.00  0.00     0.293 HD
ENDBRANCH  14  31
ENDBRANCH   6   9
ENDBRANCH   4   5
ENDBRANCH   3   4
ENDBRANCH   2   3
ENDBRANCH   1   2
BRANCH   1  33
ATOM     33  C   UNL A   1      39.096  21.709  26.546  1.00  0.00     0.021 C 
BRANCH  33  34
ATOM     34  C   UNL A   1      39.301  20.756  25.373  1.00  0.00     0.116 C 
BRANCH  34  35
ATOM     35  N   UNL A   1      40.134  19.613  25.709  1.00  0.00    -0.352 N 
ATOM     36  C   UNL A   1      41.444  19.578  26.124  1.00  0.00     0.251 C 
ATOM     37  H   UNL A   1      39.696  18.735  25.627  1.00  0.00     0.163 HD
ATOM     38  O   UNL A   1      42.023  18.501  26.229  1.00  0.00    -0.269 OA
BRANCH  36  39
ATOM     39  C   UNL A   1      42.164  20.836  26.416  1.00  0.00     0.039 A 
ATOM     40  C   UNL A   1      42.498  21.682  25.354  1.00  0.00     0.014 A 
ATOM     41  C   UNL A   1      42.500  21.192  27.726  1.00  0.00     0.014 A 
ATOM     42  C   UNL A   1      43.100  22.915  25.612  1.00  0.00     0.010 A 
ATOM     43  C   UNL A   1      43.031  22.453  27.987  1.00  0.00     0.010 A 
ATOM     44  C   UNL A   1      43.332  23.331  26.934  1.00  0.00    -0.014 A 
BRANCH  44  45
ATOM     45  C   UNL A   1      43.847  24.694  27.232  1.00  0.00     0.031 A 
ATOM     46  C   UNL A   1      42.923  25.768  27.739  1.00  0.00     0.074 A 
ATOM     47  C   UNL A   1      45.136  24.988  26.962  1.00  0.00     0.049 A 
ATOM     48  N   UNL A   1      43.183  27.024  27.994  1.00  0.00    -0.248 NA
ATOM     49  C   UNL A   1      41.520  25.388  27.967  1.00  0.00     0.031 C 
ATOM     50  C   UNL A   1      46.116  24.055  26.401  1.00  0.00     0.029 A 
ATOM     51  N   UNL A   1      45.836  26.162  27.094  1.00  0.00    -0.354 N 
ATOM     52  C   UNL A   1      41.976  27.593  28.380  1.00  0.00     0.074 A 
ATOM     53  C   UNL A   1      40.975  26.551  28.299  1.00  0.00     0.031 C 
ATOM     54  C   UNL A   1      47.287  24.690  26.239  1.00  0.00     0.029 A 
ATOM     55  C   UNL A   1      47.135  26.083  26.645  1.00  0.00     0.049 A 
ATOM     56  H   UNL A   1      45.447  26.982  27.476  1.00  0.00     0.167 HD
ATOM     57  C   UNL A   1      41.726  28.860  28.787  1.00  0.00     0.034 A 
ATOM     58  C   UNL A   1      48.090  27.029  26.548  1.00  0.00     0.034 A 
ATOM     59  C   UNL A   1      42.729  29.887  28.893  1.00  0.00     0.049 A 
ATOM     60  C   UNL A   1      47.786  28.427  27.016  1.00  0.00     0.074 A 
ATOM     61  C   UNL A   1      42.590  31.176  29.377  1.00  0.00     0.029 A 
ATOM     62  N   UNL A   1      44.047  29.752  28.490  1.00  0.00    -0.354 N 
ATOM     63  N   UNL A   1      46.678  28.903  27.529  1.00  0.00    -0.248 NA
ATOM     64  C   UNL A   1      48.875  29.411  26.921  1.00  0.00     0.031 C 
ATOM     65  C   UNL A   1      43.814  31.833  29.227  1.00  0.00     0.029 A 
ATOM     66  C   UNL A   1      44.728  30.942  28.692  1.00  0.00     0.049 A 
ATOM     67  H   UNL A   1      44.443  28.932  28.114  1.00  0.00     0.167 HD
ATOM     68  C   UNL A   1      46.945  30.229  27.848  1.00  0.00     0.074 A 
ATOM     69  C   UNL A   1      48.327  30.474  27.493  1.00  0.00     0.031 C 
ATOM     70  C   UNL A   1      46.116  31.163  28.375  1.00  0.00     0.034 A 
BRANCH  57  71
ATOM     71  C   UNL A   1      40.314  29.206  29.186  1.00  0.00     0.023 A 
ATOM     72  C   UNL A   1      39.388  29.614  28.203  1.00  0.00     0.012 A 
ATOM     73  C   UNL A   1      39.884  29.057  30.520  1.00  0.00     0.148 A 
ATOM     74  C   UNL A   1      38.068  29.902  28.546  1.00  0.00     0.002 A 
ATOM     75  C   UNL A   1      38.554  29.298  30.845  1.00  0.00     0.091 A 
ATOM     76  F   UNL A   1      40.782  28.684  31.442  1.00  0.00    -0.205 F 
ATOM     77  C   UNL A   1      37.649  29.733  29.864  1.00  0.00     0.022 A 
BRANCH  75  78
ATOM     78  S   UNL A   1      37.895  29.031  32.494  1.00  0.00     0.127 S 
ATOM     79  O   UNL A   1      38.718  29.941  33.291  1.00  0.00    -0.237 OA
ATOM     80  O   UNL A   1      36.501  29.448  32.338  1.00  0.00    -0.237 OA
ATOM     81  O   UNL A   1      38.081  27.616  32.779  1.00  0.00    -0.744 OA
ENDBRANCH  75  78
ENDBRANCH  57  71
BRANCH  58  82
ATOM     82  C   UNL A   1      49.437  26.679  26.013  1.00  0.00     0.023 A 
ATOM     83  C   UNL A   1      50.323  25.919  26.800  1.00  0.00     0.012 A 
ATOM     84  C   UNL A   1      49.838  27.086  24.726  1.00  0.00     0.148 A 
ATOM     85  C   UNL A   1      51.599  25.603  26.331  1.00  0.00     0.002 A 
ATOM     86  C   UNL A   1      51.087  26.717  24.241  1.00  0.00     0.091 A 
ATOM     87  F   UNL A   1      48.985  27.818  23.996  1.00  0.00    -0.205 F 
ATOM     88  C   UNL A   1      51.978  25.993  25.049  1.00  0.00     0.022 A 
BRANCH  86  89
ATOM     89  S   UNL A   1      51.607  27.062  22.557  1.00  0.00     0.127 S 
ATOM     90  O   UNL A   1      50.383  26.796  21.805  1.00  0.00    -0.237 OA
ATOM     91  O   UNL A   1      51.986  28.472  22.642  1.00  0.00    -0.237 OA
ATOM     92  O   UNL A   1      52.718  26.157  22.293  1.00  0.00    -0.744 OA
ENDBRANCH  86  89
ENDBRANCH  58  82
BRANCH  70  93
ATOM     93  C   UNL A   1      46.682  32.535  28.639  1.00  0.00     0.023 A 
ATOM     94  C   UNL A   1      47.245  32.836  29.896  1.00  0.00     0.012 A 
ATOM     95  C   UNL A   1      46.725  33.501  27.614  1.00  0.00     0.148 A 
ATOM     96  C   UNL A   1      47.809  34.088  30.138  1.00  0.00     0.002 A 
ATOM     97  C   UNL A   1      47.338  34.726  27.846  1.00  0.00     0.091 A 
ATOM     98  F   UNL A   1      46.172  33.200  26.429  1.00  0.00    -0.205 F 
ATOM     99  C   UNL A   1      47.867  35.027  29.110  1.00  0.00     0.022 A 
BRANCH  97 100
ATOM    100  S   UNL A   1      47.549  35.961  26.558  1.00  0.00     0.127 S 
ATOM    101  O   UNL A   1      46.167  36.361  26.302  1.00  0.00    -0.237 OA
ATOM    102  O   UNL A   1      48.363  36.972  27.232  1.00  0.00    -0.237 OA
ATOM    103  O   UNL A   1      48.214  35.284  25.453  1.00  0.00    -0.744 OA
ENDBRANCH  97 100
ENDBRANCH  70  93
ENDBRANCH  44  45
ENDBRANCH  36  39
ENDBRANCH  34  35
ENDBRANCH  33  34
ENDBRANCH   1  33
TORSDOF 19
ENDMDL
MODEL 3
REMARK VINA RESULT:     -12.0      3.507      9.522
REMARK SMILES O=C1[NH+]=C(Nc2ccc(C(=O)NCCCCCCNC(=O)c3ccc(-c4c5nc(c(-c6cccc(S(=O)(=O)[O-])c6F)c6ccc([nH]6)c(-c6cccc(S(=O)(=O)[O-])c6F)c6nc(c(-c7cccc(S(=O)(=O)[O-])c7F)c7ccc4[nH]7)C=C6)C=C5)cc3)c(O)c2)S/C1=C\c1ccc[nH]1
REMARK SMILES IDX 16 1 15 2 14 3 13 4 12 5 10 6 11 7 9 9 6 10 7 11 87 12 8 13
REMARK SMILES IDX 85 14 5 15 1 16 2 17 3 18 89 19 4 20 88 22 90 23 91 25 92 26
REMARK SMILES IDX 95 27 93 28 94 29 86 31 17 33 18 34 19 35 20 36 21 38 22 39
REMARK SMILES IDX 23 40 84 41 24 42 83 43 25 44 26 45 27 46 77 47 28 48 82 49
REMARK SMILES IDX 76 50 78 51 29 52 81 53 75 54 74 55 30 57 62 58 42 59 61 60
REMARK SMILES IDX 43 61 46 62 60 63 79 64 44 65 45 66 59 68 80 69 47 70 31 71
REMARK SMILES IDX 32 72 40 73 33 74 35 75 41 76 34 77 36 78 37 79 38 80 39 81
REMARK SMILES IDX 63 82 64 83 72 84 65 85 67 86 73 87 66 88 68 89 69 90 70 91
REMARK SMILES IDX 71 92 48 93 49 94 57 95 50 96 52 97 58 98 51 99 53 100
REMARK SMILES IDX 54 101 55 102 56 103
REMARK H PARENT 12 8 3 21 5 24 95 30 86 32 19 37 78 56 46 67
REMARK Flexibility Score: inf
ROOT
ATOM      1  C   UNL A   1      33.753  25.535  25.653  1.00  0.00     0.002 C 
ENDROOT
BRANCH   1   2
ATOM      2  C   UNL A   1      35.005  24.676  25.856  1.00  0.00     0.002 C 
BRANCH   2   3
ATOM      3  C   UNL A   1      34.803  23.299  26.496  1.00  0.00     0.021 C 
BRANCH   3   4
ATOM      4  C   UNL A   1      35.271  22.096  25.683  1.00  0.00     0.116 C 
BRANCH   4   5
ATOM      5  N   UNL A   1      34.456  20.906  25.855  1.00  0.00    -0.352 N 
ATOM      6  C   UNL A   1      33.120  20.700  25.606  1.00  0.00     0.255 C 
ATOM      7  O   UNL A   1      32.635  19.598  25.857  1.00  0.00    -0.269 OA
ATOM      8  H   UNL A   1      34.937  20.122  26.207  1.00  0.00     0.163 HD
BRANCH   6   9
ATOM      9  C   UNL A   1      32.234  21.781  25.104  1.00  0.00     0.081 A 
ATOM     10  C   UNL A   1      30.634  24.004  24.389  1.00  0.00     0.129 A 
ATOM     11  C   UNL A   1      30.708  23.574  25.717  1.00  0.00     0.053 A 
ATOM     12  C   UNL A   1      31.322  23.270  23.417  1.00  0.00     0.098 A 
ATOM     13  C   UNL A   1      31.493  22.473  26.072  1.00  0.00     0.022 A 
ATOM     14  C   UNL A   1      32.078  22.147  23.765  1.00  0.00     0.132 A 
BRANCH  10  15
ATOM     15  N   UNL A   1      29.970  25.178  24.016  1.00  0.00    -0.234 N 
ATOM     16  O   UNL A   1      33.070  28.246  22.361  1.00  0.00    -0.240 OA
ATOM     17  C   UNL A   1      31.989  27.812  22.741  1.00  0.00     0.346 C 
ATOM     18  N   UNL A   1      31.781  26.555  23.256  1.00  0.00    -0.199 N 
ATOM     19  C   UNL A   1      30.731  28.610  22.705  1.00  0.00     0.111 C 
ATOM     20  C   UNL A   1      30.546  26.321  23.552  1.00  0.00     0.322 C 
ATOM     21  H   UNL A   1      32.503  25.897  23.386  1.00  0.00     0.316 HD
ATOM     22  S   UNL A   1      29.433  27.644  23.284  1.00  0.00     0.006 SA
ATOM     23  C   UNL A   1      30.701  29.874  22.260  1.00  0.00     0.050 C 
ATOM     24  H   UNL A   1      28.988  25.177  24.098  1.00  0.00     0.313 HD
BRANCH  23  25
ATOM     25  C   UNL A   1      29.531  30.667  22.302  1.00  0.00     0.039 A 
ATOM     26  C   UNL A   1      28.730  31.126  23.328  1.00  0.00     0.027 A 
ATOM     27  N   UNL A   1      28.997  31.126  21.122  1.00  0.00    -0.362 N 
ATOM     28  C   UNL A   1      27.666  31.857  22.749  1.00  0.00     0.020 A 
ATOM     29  C   UNL A   1      27.852  31.835  21.385  1.00  0.00     0.083 A 
ATOM     30  H   UNL A   1      29.376  30.970  20.228  1.00  0.00     0.166 HD
ENDBRANCH  23  25
ENDBRANCH  10  15
BRANCH  14  31
ATOM     31  O   UNL A   1      32.601  21.453  22.712  1.00  0.00    -0.507 OA
ATOM     32  H   UNL A   1      33.105  20.679  22.866  1.00  0.00     0.293 HD
ENDBRANCH  14  31
ENDBRANCH   6   9
ENDBRANCH   4   5
ENDBRANCH   3   4
ENDBRANCH   2   3
ENDBRANCH   1   2
BRANCH   1  33
ATOM     33  C   UNL A   1      33.685  26.841  26.444  1.00  0.00     0.021 C 
BRANCH  33  34
ATOM     34  C   UNL A   1      34.424  28.029  25.839  1.00  0.00     0.116 C 
BRANCH  34  35
ATOM     35  N   UNL A   1      33.921  29.310  26.307  1.00  0.00    -0.352 N 
ATOM     36  C   UNL A   1      34.442  30.163  27.250  1.00  0.00     0.251 C 
ATOM     37  H   UNL A   1      33.081  29.610  25.888  1.00  0.00     0.163 HD
ATOM     38  O   UNL A   1      33.797  31.142  27.613  1.00  0.00    -0.269 OA
BRANCH  36  39
ATOM     39  C   UNL A   1      35.766  29.886  27.849  1.00  0.00     0.039 A 
ATOM     40  C   UNL A   1      35.823  29.359  29.142  1.00  0.00     0.014 A 
ATOM     41  C   UNL A   1      36.947  30.133  27.141  1.00  0.00     0.014 A 
ATOM     42  C   UNL A   1      37.057  29.009  29.694  1.00  0.00     0.010 A 
ATOM     43  C   UNL A   1      38.168  29.713  27.663  1.00  0.00     0.010 A 
ATOM     44  C   UNL A   1      38.236  29.142  28.944  1.00  0.00    -0.014 A 
BRANCH  44  45
ATOM     45  C   UNL A   1      39.539  28.650  29.465  1.00  0.00     0.031 A 
ATOM     46  C   UNL A   1      40.245  29.379  30.576  1.00  0.00     0.074 A 
ATOM     47  C   UNL A   1      40.131  27.591  28.874  1.00  0.00     0.049 A 
ATOM     48  N   UNL A   1      41.411  29.130  31.113  1.00  0.00    -0.248 NA
ATOM     49  C   UNL A   1      39.563  30.554  31.143  1.00  0.00     0.031 C 
ATOM     50  C   UNL A   1      39.584  26.841  27.741  1.00  0.00     0.029 A 
ATOM     51  N   UNL A   1      41.335  26.979  29.124  1.00  0.00    -0.354 N 
ATOM     52  C   UNL A   1      41.619  30.131  32.055  1.00  0.00     0.074 A 
ATOM     53  C   UNL A   1      40.470  31.009  31.996  1.00  0.00     0.031 C 
ATOM     54  C   UNL A   1      40.445  25.873  27.396  1.00  0.00     0.029 A 
ATOM     55  C   UNL A   1      41.624  25.954  28.252  1.00  0.00     0.049 A 
ATOM     56  H   UNL A   1      41.934  27.247  29.858  1.00  0.00     0.167 HD
ATOM     57  C   UNL A   1      42.660  30.292  32.906  1.00  0.00     0.034 A 
ATOM     58  C   UNL A   1      42.721  25.180  28.139  1.00  0.00     0.034 A 
ATOM     59  C   UNL A   1      43.788  29.402  32.980  1.00  0.00     0.049 A 
ATOM     60  C   UNL A   1      43.859  25.377  29.104  1.00  0.00     0.074 A 
ATOM     61  C   UNL A   1      44.849  29.434  33.868  1.00  0.00     0.029 A 
ATOM     62  N   UNL A   1      44.016  28.337  32.124  1.00  0.00    -0.354 N 
ATOM     63  N   UNL A   1      43.963  26.231  30.093  1.00  0.00    -0.248 NA
ATOM     64  C   UNL A   1      45.017  24.483  28.958  1.00  0.00     0.031 C 
ATOM     65  C   UNL A   1      45.740  28.413  33.522  1.00  0.00     0.029 A 
ATOM     66  C   UNL A   1      45.212  27.717  32.447  1.00  0.00     0.049 A 
ATOM     67  H   UNL A   1      43.416  28.061  31.393  1.00  0.00     0.167 HD
ATOM     68  C   UNL A   1      45.180  25.956  30.707  1.00  0.00     0.074 A 
ATOM     69  C   UNL A   1      45.765  24.840  29.993  1.00  0.00     0.031 C 
ATOM     70  C   UNL A   1      45.766  26.580  31.758  1.00  0.00     0.034 A 
BRANCH  57  71
ATOM     71  C   UNL A   1      42.616  31.461  33.858  1.00  0.00     0.023 A 
ATOM     72  C   UNL A   1      43.144  32.707  33.462  1.00  0.00     0.012 A 
ATOM     73  C   UNL A   1      41.987  31.344  35.114  1.00  0.00     0.148 A 
ATOM     74  C   UNL A   1      43.078  33.809  34.314  1.00  0.00     0.002 A 
ATOM     75  C   UNL A   1      41.883  32.459  35.936  1.00  0.00     0.091 A 
ATOM     76  F   UNL A   1      41.506  30.148  35.478  1.00  0.00    -0.205 F 
ATOM     77  C   UNL A   1      42.438  33.688  35.545  1.00  0.00     0.022 A 
BRANCH  75  78
ATOM     78  S   UNL A   1      41.005  32.429  37.504  1.00  0.00     0.127 S 
ATOM     79  O   UNL A   1      41.890  31.598  38.320  1.00  0.00    -0.237 OA
ATOM     80  O   UNL A   1      40.989  33.846  37.872  1.00  0.00    -0.237 OA
ATOM     81  O   UNL A   1      39.698  31.856  37.224  1.00  0.00    -0.744 OA
ENDBRANCH  75  78
ENDBRANCH  57  71
BRANCH  58  82
ATOM     82  C   UNL A   1      42.787  24.125  27.087  1.00  0.00     0.023 A 
ATOM     83  C   UNL A   1      43.504  24.369  25.900  1.00  0.00     0.012 A 
ATOM     84  C   UNL A   1      42.153  22.880  27.264  1.00  0.00     0.148 A 
ATOM     85  C   UNL A   1      43.557  23.405  24.891  1.00  0.00     0.002 A 
ATOM     86  C   UNL A   1      42.260  21.903  26.281  1.00  0.00     0.091 A 
ATOM     87  F   UNL A   1      41.467  22.671  28.396  1.00  0.00    -0.205 F 
ATOM     88  C   UNL A   1      42.943  22.171  25.085  1.00  0.00     0.022 A 
BRANCH  86  89
ATOM     89  S   UNL A   1      41.615  20.241  26.500  1.00  0.00     0.127 S 
ATOM     90  O   UNL A   1      42.229  19.531  25.380  1.00  0.00    -0.237 OA
ATOM     91  O   UNL A   1      42.140  19.886  27.818  1.00  0.00    -0.237 OA
ATOM     92  O   UNL A   1      40.164  20.370  26.446  1.00  0.00    -0.744 OA
ENDBRANCH  86  89
ENDBRANCH  58  82
BRANCH  70  93
ATOM     93  C   UNL A   1      47.096  26.054  32.234  1.00  0.00     0.023 A 
ATOM     94  C   UNL A   1      48.291  26.564  31.689  1.00  0.00     0.012 A 
ATOM     95  C   UNL A   1      47.160  25.108  33.276  1.00  0.00     0.148 A 
ATOM     96  C   UNL A   1      49.529  26.116  32.151  1.00  0.00     0.002 A 
ATOM     97  C   UNL A   1      48.396  24.706  33.768  1.00  0.00     0.091 A 
ATOM     98  F   UNL A   1      46.011  24.624  33.771  1.00  0.00    -0.205 F 
ATOM     99  C   UNL A   1      49.580  25.197  33.197  1.00  0.00     0.022 A 
BRANCH  97 100
ATOM    100  S   UNL A   1      48.564  23.604  35.177  1.00  0.00     0.127 S 
ATOM    101  O   UNL A   1      50.016  23.515  35.312  1.00  0.00    -0.237 OA
ATOM    102  O   UNL A   1      47.897  24.358  36.238  1.00  0.00    -0.237 OA
ATOM    103  O   UNL A   1      47.897  22.364  34.802  1.00  0.00    -0.744 OA
ENDBRANCH  97 100
ENDBRANCH  70  93
ENDBRANCH  44  45
ENDBRANCH  36  39
ENDBRANCH  34  35
ENDBRANCH  33  34
ENDBRANCH   1  33
TORSDOF 19
ENDMDL
