MODEL 1
REMARK VINA RESULT:     -11.2      0.000      0.000
REMARK SMILES CCC(CC)(NC(=O)c1cc(C)ccc1OC)C(=O)NCCCCCCNC(=O)c1ccc(-c2c3nc(c(-c4cccc(S(=O)(=O)[O-])c4F)c4ccc([nH]4)c(-c4cccc(S(=O)(=O)[O-])c4F)c4nc(c(-c5cccc(S(=O)(=O)[O-])c5F)c5ccc2[nH]5)C=C4)C=C3)cc1
REMARK SMILES IDX 23 1 22 2 21 3 20 4 18 5 19 6 3 8 2 9 1 10 4 11 5 12 6 13
REMARK SMILES IDX 7 14 8 16 9 17 10 18 15 19 11 20 14 21 12 22 13 23 16 24
REMARK SMILES IDX 17 25 24 26 25 27 26 28 27 29 28 30 29 32 30 33 31 34 92 35
REMARK SMILES IDX 32 36 91 37 33 38 34 39 35 40 85 41 36 42 90 43 84 44 86 45
REMARK SMILES IDX 37 46 89 47 83 48 82 49 38 51 70 52 50 53 69 54 51 55 54 56
REMARK SMILES IDX 68 57 87 58 52 59 53 60 67 62 88 63 55 64 39 65 40 66 48 67
REMARK SMILES IDX 41 68 43 69 49 70 42 71 44 72 45 73 46 74 47 75 71 76 72 77
REMARK SMILES IDX 80 78 73 79 75 80 81 81 74 82 76 83 77 84 78 85 79 86 56 87
REMARK SMILES IDX 57 88 65 89 58 90 60 91 66 92 59 93 61 94 62 95 63 96 64 97
REMARK H PARENT 20 7 6 15 27 31 86 50 54 61
REMARK Flexibility Score: inf
ROOT
ATOM      1  C   UNL A   1      34.074  32.202  27.790  1.00  0.00     0.002 C 
ENDROOT
BRANCH   1   2
ATOM      2  C   UNL A   1      33.081  31.074  27.464  1.00  0.00     0.021 C 
BRANCH   2   3
ATOM      3  C   UNL A   1      33.150  30.191  26.168  1.00  0.00     0.116 C 
BRANCH   3   4
ATOM      4  N   UNL A   1      32.020  30.054  25.208  1.00  0.00    -0.354 N 
ATOM      5  C   UNL A   1      31.318  29.106  24.483  1.00  0.00     0.245 C 
ATOM      6  O   UNL A   1      30.374  29.599  23.837  1.00  0.00    -0.272 OA
ATOM      7  H   UNL A   1      31.641  30.945  25.026  1.00  0.00     0.163 HD
BRANCH   5   8
ATOM      8  C   UNL A   1      31.596  27.511  24.334  1.00  0.00     0.118 C 
BRANCH   8   9
ATOM      9  C   UNL A   1      33.065  27.388  23.750  1.00  0.00     0.035 C 
ATOM     10  C   UNL A   1      33.249  26.994  22.292  1.00  0.00     0.007 C 
ENDBRANCH   8   9
BRANCH   8  11
ATOM     11  C   UNL A   1      30.574  26.952  23.303  1.00  0.00     0.035 C 
ATOM     12  C   UNL A   1      29.173  26.587  23.771  1.00  0.00     0.007 C 
ENDBRANCH   8  11
BRANCH   8  13
ATOM     13  N   UNL A   1      31.742  26.535  25.558  1.00  0.00    -0.338 N 
ATOM     14  C   UNL A   1      31.937  25.182  25.850  1.00  0.00     0.255 C 
ATOM     15  H   UNL A   1      31.673  27.047  26.397  1.00  0.00     0.164 HD
ATOM     16  O   UNL A   1      31.728  24.797  27.001  1.00  0.00    -0.269 OA
BRANCH  14  17
ATOM     17  C   UNL A   1      32.442  24.210  24.858  1.00  0.00     0.082 A 
ATOM     18  C   UNL A   1      31.738  23.341  24.016  1.00  0.00     0.021 A 
ATOM     19  C   UNL A   1      33.780  24.015  24.874  1.00  0.00     0.131 A 
ATOM     20  C   UNL A   1      32.454  22.642  23.016  1.00  0.00    -0.050 A 
ATOM     21  C   UNL A   1      34.383  23.828  23.650  1.00  0.00     0.047 A 
ATOM     22  C   UNL A   1      31.997  21.370  22.368  1.00  0.00     0.044 C 
ATOM     23  C   UNL A   1      33.725  23.093  22.697  1.00  0.00     0.007 A 
BRANCH  19  24
ATOM     24  O   UNL A   1      34.491  24.013  26.034  1.00  0.00    -0.496 OA
ATOM     25  C   UNL A   1      34.667  22.720  26.651  1.00  0.00     0.278 C 
ENDBRANCH  19  24
ENDBRANCH  14  17
ENDBRANCH   8  13
ENDBRANCH   5   8
ENDBRANCH   3   4
ENDBRANCH   2   3
ENDBRANCH   1   2
BRANCH   1  26
ATOM     26  C   UNL A   1      33.767  33.103  28.978  1.00  0.00     0.002 C 
BRANCH  26  27
ATOM     27  C   UNL A   1      33.418  34.553  28.635  1.00  0.00     0.021 C 
BRANCH  27  28
ATOM     28  C   UNL A   1      32.936  35.422  29.791  1.00  0.00     0.116 C 
BRANCH  28  29
ATOM     29  N   UNL A   1      33.999  35.918  30.639  1.00  0.00    -0.352 N 
ATOM     30  C   UNL A   1      34.104  35.341  31.911  1.00  0.00     0.251 C 
ATOM     31  H   UNL A   1      34.615  36.624  30.338  1.00  0.00     0.163 HD
ATOM     32  O   UNL A   1      33.265  35.438  32.764  1.00  0.00    -0.269 OA
BRANCH  30  33
ATOM     33  C   UNL A   1      35.254  34.393  32.013  1.00  0.00     0.039 A 
ATOM     34  C   UNL A   1      35.322  33.396  32.991  1.00  0.00     0.014 A 
ATOM     35  C   UNL A   1      36.213  34.446  30.996  1.00  0.00     0.014 A 
ATOM     36  C   UNL A   1      36.388  32.487  32.975  1.00  0.00     0.010 A 
ATOM     37  C   UNL A   1      37.218  33.526  30.944  1.00  0.00     0.010 A 
ATOM     38  C   UNL A   1      37.333  32.571  31.952  1.00  0.00    -0.014 A 
BRANCH  38  39
ATOM     39  C   UNL A   1      38.523  31.751  31.817  1.00  0.00     0.031 A 
ATOM     40  C   UNL A   1      38.504  30.478  31.090  1.00  0.00     0.074 A 
ATOM     41  C   UNL A   1      39.681  32.335  32.196  1.00  0.00     0.049 A 
ATOM     42  N   UNL A   1      39.378  29.548  31.262  1.00  0.00    -0.248 NA
ATOM     43  C   UNL A   1      37.490  30.156  30.095  1.00  0.00     0.031 C 
ATOM     44  C   UNL A   1      41.047  31.969  31.872  1.00  0.00     0.029 A 
ATOM     45  N   UNL A   1      39.813  33.366  33.132  1.00  0.00    -0.354 N 
ATOM     46  C   UNL A   1      39.229  28.656  30.220  1.00  0.00     0.074 A 
ATOM     47  C   UNL A   1      37.982  29.020  29.587  1.00  0.00     0.031 C 
ATOM     48  C   UNL A   1      41.859  32.529  32.785  1.00  0.00     0.029 A 
ATOM     49  C   UNL A   1      41.011  33.126  33.808  1.00  0.00     0.049 A 
ATOM     50  H   UNL A   1      39.188  34.112  33.285  1.00  0.00     0.167 HD
ATOM     51  C   UNL A   1      40.272  27.835  29.901  1.00  0.00     0.034 A 
ATOM     52  C   UNL A   1      41.031  32.847  35.145  1.00  0.00     0.034 A 
ATOM     53  C   UNL A   1      41.414  28.088  30.794  1.00  0.00     0.049 A 
ATOM     54  C   UNL A   1      41.587  31.464  35.419  1.00  0.00     0.074 A 
ATOM     55  C   UNL A   1      42.552  28.868  30.649  1.00  0.00     0.029 A 
ATOM     56  N   UNL A   1      41.326  27.774  32.145  1.00  0.00    -0.354 N 
ATOM     57  N   UNL A   1      41.797  30.566  34.496  1.00  0.00    -0.248 NA
ATOM     58  C   UNL A   1      41.961  30.986  36.744  1.00  0.00     0.031 C 
ATOM     59  C   UNL A   1      43.100  29.093  31.940  1.00  0.00     0.029 A 
ATOM     60  C   UNL A   1      42.318  28.425  32.867  1.00  0.00     0.049 A 
ATOM     61  H   UNL A   1      40.654  27.171  32.537  1.00  0.00     0.167 HD
ATOM     62  C   UNL A   1      42.242  29.400  35.057  1.00  0.00     0.074 A 
ATOM     63  C   UNL A   1      42.388  29.741  36.465  1.00  0.00     0.031 C 
ATOM     64  C   UNL A   1      42.411  28.259  34.316  1.00  0.00     0.034 A 
BRANCH  51  65
ATOM     65  C   UNL A   1      40.406  27.083  28.585  1.00  0.00     0.023 A 
ATOM     66  C   UNL A   1      39.535  25.988  28.370  1.00  0.00     0.012 A 
ATOM     67  C   UNL A   1      41.348  27.329  27.560  1.00  0.00     0.148 A 
ATOM     68  C   UNL A   1      39.661  25.123  27.279  1.00  0.00     0.002 A 
ATOM     69  C   UNL A   1      41.519  26.428  26.501  1.00  0.00     0.091 A 
ATOM     70  F   UNL A   1      42.034  28.478  27.555  1.00  0.00    -0.205 F 
ATOM     71  C   UNL A   1      40.679  25.319  26.363  1.00  0.00     0.022 A 
BRANCH  69  72
ATOM     72  S   UNL A   1      42.868  26.568  25.313  1.00  0.00     0.127 S 
ATOM     73  O   UNL A   1      42.532  27.806  24.605  1.00  0.00    -0.237 OA
ATOM     74  O   UNL A   1      44.042  26.664  26.176  1.00  0.00    -0.237 OA
ATOM     75  O   UNL A   1      42.791  25.374  24.479  1.00  0.00    -0.744 OA
ENDBRANCH  69  72
ENDBRANCH  51  65
BRANCH  52  76
ATOM     76  C   UNL A   1      39.951  33.548  35.914  1.00  0.00     0.023 A 
ATOM     77  C   UNL A   1      38.721  32.849  36.038  1.00  0.00     0.012 A 
ATOM     78  C   UNL A   1      40.226  34.585  36.825  1.00  0.00     0.148 A 
ATOM     79  C   UNL A   1      37.864  33.075  37.116  1.00  0.00     0.002 A 
ATOM     80  C   UNL A   1      39.359  34.807  37.899  1.00  0.00     0.091 A 
ATOM     81  F   UNL A   1      41.363  35.278  36.685  1.00  0.00    -0.205 F 
ATOM     82  C   UNL A   1      38.201  34.030  38.065  1.00  0.00     0.022 A 
BRANCH  80  83
ATOM     83  S   UNL A   1      39.735  35.994  39.201  1.00  0.00     0.127 S 
ATOM     84  O   UNL A   1      38.707  35.678  40.188  1.00  0.00    -0.237 OA
ATOM     85  O   UNL A   1      41.093  35.615  39.590  1.00  0.00    -0.237 OA
ATOM     86  O   UNL A   1      39.638  37.296  38.558  1.00  0.00    -0.744 OA
ENDBRANCH  80  83
ENDBRANCH  52  76
BRANCH  64  87
ATOM     87  C   UNL A   1      42.682  26.867  34.866  1.00  0.00     0.023 A 
ATOM     88  C   UNL A   1      41.669  26.057  35.410  1.00  0.00     0.012 A 
ATOM     89  C   UNL A   1      43.958  26.261  34.713  1.00  0.00     0.148 A 
ATOM     90  C   UNL A   1      41.911  24.741  35.826  1.00  0.00     0.002 A 
ATOM     91  C   UNL A   1      44.159  24.915  35.006  1.00  0.00     0.091 A 
ATOM     92  F   UNL A   1      45.007  26.989  34.302  1.00  0.00    -0.205 F 
ATOM     93  C   UNL A   1      43.148  24.159  35.595  1.00  0.00     0.022 A 
BRANCH  91  94
ATOM     94  S   UNL A   1      45.656  24.070  34.473  1.00  0.00     0.127 S 
ATOM     95  O   UNL A   1      46.619  24.483  35.492  1.00  0.00    -0.237 OA
ATOM     96  O   UNL A   1      45.262  22.661  34.541  1.00  0.00    -0.237 OA
ATOM     97  O   UNL A   1      45.899  24.553  33.120  1.00  0.00    -0.744 OA
ENDBRANCH  91  94
ENDBRANCH  64  87
ENDBRANCH  38  39
ENDBRANCH  30  33
ENDBRANCH  28  29
ENDBRANCH  27  28
ENDBRANCH  26  27
ENDBRANCH   1  26
TORSDOF 21
ENDMDL
MODEL 2
REMARK VINA RESULT:     -10.7      4.791     10.099
REMARK SMILES CCC(CC)(NC(=O)c1cc(C)ccc1OC)C(=O)NCCCCCCNC(=O)c1ccc(-c2c3nc(c(-c4cccc(S(=O)(=O)[O-])c4F)c4ccc([nH]4)c(-c4cccc(S(=O)(=O)[O-])c4F)c4nc(c(-c5cccc(S(=O)(=O)[O-])c5F)c5ccc2[nH]5)C=C4)C=C3)cc1
REMARK SMILES IDX 23 1 22 2 21 3 20 4 18 5 19 6 3 8 2 9 1 10 4 11 5 12 6 13
REMARK SMILES IDX 7 14 8 16 9 17 10 18 15 19 11 20 14 21 12 22 13 23 16 24
REMARK SMILES IDX 17 25 24 26 25 27 26 28 27 29 28 30 29 32 30 33 31 34 92 35
REMARK SMILES IDX 32 36 91 37 33 38 34 39 35 40 85 41 36 42 90 43 84 44 86 45
REMARK SMILES IDX 37 46 89 47 83 48 82 49 38 51 70 52 50 53 69 54 51 55 54 56
REMARK SMILES IDX 68 57 87 58 52 59 53 60 67 62 88 63 55 64 39 65 40 66 48 67
REMARK SMILES IDX 41 68 43 69 49 70 42 71 44 72 45 73 46 74 47 75 71 76 72 77
REMARK SMILES IDX 80 78 73 79 75 80 81 81 74 82 76 83 77 84 78 85 79 86 56 87
REMARK SMILES IDX 57 88 65 89 58 90 60 91 66 92 59 93 61 94 62 95 63 96 64 97
REMARK H PARENT 20 7 6 15 27 31 86 50 54 61
REMARK Flexibility Score: inf
ROOT
ATOM      1  C   UNL A   1      32.840  29.653  25.223  1.00  0.00     0.002 C 
ENDROOT
BRANCH   1   2
ATOM      2  C   UNL A   1      31.328  29.841  25.010  1.00  0.00     0.021 C 
BRANCH   2   3
ATOM      3  C   UNL A   1      30.557  29.369  23.728  1.00  0.00     0.116 C 
BRANCH   3   4
ATOM      4  N   UNL A   1      29.704  28.149  23.686  1.00  0.00    -0.354 N 
ATOM      5  C   UNL A   1      29.773  26.771  23.798  1.00  0.00     0.245 C 
ATOM      6  O   UNL A   1      28.654  26.228  23.716  1.00  0.00    -0.272 OA
ATOM      7  H   UNL A   1      28.770  28.413  23.522  1.00  0.00     0.163 HD
BRANCH   5   8
ATOM      8  C   UNL A   1      31.077  25.814  23.961  1.00  0.00     0.118 C 
BRANCH   8   9
ATOM      9  C   UNL A   1      31.653  26.123  25.405  1.00  0.00     0.035 C 
ATOM     10  C   UNL A   1      30.696  26.572  26.501  1.00  0.00     0.007 C 
ENDBRANCH   8   9
BRANCH   8  11
ATOM     11  C   UNL A   1      32.111  26.245  22.881  1.00  0.00     0.035 C 
ATOM     12  C   UNL A   1      31.894  25.821  21.436  1.00  0.00     0.007 C 
ENDBRANCH   8  11
BRANCH   8  13
ATOM     13  N   UNL A   1      31.000  24.247  24.063  1.00  0.00    -0.338 N 
ATOM     14  C   UNL A   1      31.822  23.117  24.043  1.00  0.00     0.255 C 
ATOM     15  H   UNL A   1      30.062  23.971  24.181  1.00  0.00     0.164 HD
ATOM     16  O   UNL A   1      31.294  22.014  23.897  1.00  0.00    -0.269 OA
BRANCH  14  17
ATOM     17  C   UNL A   1      33.283  23.181  24.253  1.00  0.00     0.082 A 
ATOM     18  C   UNL A   1      34.328  23.046  23.331  1.00  0.00     0.021 A 
ATOM     19  C   UNL A   1      33.677  23.219  25.546  1.00  0.00     0.131 A 
ATOM     20  C   UNL A   1      35.645  23.338  23.755  1.00  0.00    -0.050 A 
ATOM     21  C   UNL A   1      34.766  24.015  25.828  1.00  0.00     0.047 A 
ATOM     22  C   UNL A   1      36.889  22.817  23.102  1.00  0.00     0.044 C 
ATOM     23  C   UNL A   1      35.801  24.058  24.929  1.00  0.00     0.007 A 
BRANCH  19  24
ATOM     24  O   UNL A   1      33.029  22.518  26.515  1.00  0.00    -0.496 OA
ATOM     25  C   UNL A   1      33.550  21.198  26.779  1.00  0.00     0.278 C 
ENDBRANCH  19  24
ENDBRANCH  14  17
ENDBRANCH   8  13
ENDBRANCH   5   8
ENDBRANCH   3   4
ENDBRANCH   2   3
ENDBRANCH   1   2
BRANCH   1  26
ATOM     26  C   UNL A   1      33.423  30.034  26.577  1.00  0.00     0.002 C 
BRANCH  26  27
ATOM     27  C   UNL A   1      34.686  29.274  26.991  1.00  0.00     0.021 C 
BRANCH  27  28
ATOM     28  C   UNL A   1      35.465  29.852  28.165  1.00  0.00     0.116 C 
BRANCH  28  29
ATOM     29  N   UNL A   1      36.631  30.618  27.779  1.00  0.00    -0.352 N 
ATOM     30  C   UNL A   1      36.613  31.983  28.093  1.00  0.00     0.251 C 
ATOM     31  H   UNL A   1      37.396  30.203  27.320  1.00  0.00     0.163 HD
ATOM     32  O   UNL A   1      35.838  32.770  27.624  1.00  0.00    -0.269 OA
BRANCH  30  33
ATOM     33  C   UNL A   1      37.499  32.314  29.249  1.00  0.00     0.039 A 
ATOM     34  C   UNL A   1      38.115  31.330  30.030  1.00  0.00     0.014 A 
ATOM     35  C   UNL A   1      37.812  33.663  29.444  1.00  0.00     0.014 A 
ATOM     36  C   UNL A   1      39.002  31.712  31.045  1.00  0.00     0.010 A 
ATOM     37  C   UNL A   1      38.721  34.033  30.391  1.00  0.00     0.010 A 
ATOM     38  C   UNL A   1      39.287  33.067  31.220  1.00  0.00    -0.014 A 
BRANCH  38  39
ATOM     39  C   UNL A   1      40.133  33.637  32.253  1.00  0.00     0.031 A 
ATOM     40  C   UNL A   1      39.570  34.230  33.469  1.00  0.00     0.074 A 
ATOM     41  C   UNL A   1      41.454  33.383  32.132  1.00  0.00     0.049 A 
ATOM     42  N   UNL A   1      40.203  35.073  34.208  1.00  0.00    -0.248 NA
ATOM     43  C   UNL A   1      38.237  33.906  33.957  1.00  0.00     0.031 C 
ATOM     44  C   UNL A   1      42.505  33.474  33.128  1.00  0.00     0.029 A 
ATOM     45  N   UNL A   1      42.133  33.108  30.940  1.00  0.00    -0.354 N 
ATOM     46  C   UNL A   1      39.508  35.174  35.395  1.00  0.00     0.074 A 
ATOM     47  C   UNL A   1      38.246  34.515  35.149  1.00  0.00     0.031 C 
ATOM     48  C   UNL A   1      43.684  33.559  32.488  1.00  0.00     0.029 A 
ATOM     49  C   UNL A   1      43.394  33.693  31.067  1.00  0.00     0.049 A 
ATOM     50  H   UNL A   1      41.791  32.603  30.166  1.00  0.00     0.167 HD
ATOM     51  C   UNL A   1      40.157  35.637  36.502  1.00  0.00     0.034 A 
ATOM     52  C   UNL A   1      43.792  34.711  30.249  1.00  0.00     0.034 A 
ATOM     53  C   UNL A   1      41.557  35.954  36.180  1.00  0.00     0.049 A 
ATOM     54  C   UNL A   1      44.063  35.981  31.028  1.00  0.00     0.074 A 
ATOM     55  C   UNL A   1      42.732  35.231  36.328  1.00  0.00     0.029 A 
ATOM     56  N   UNL A   1      41.854  37.010  35.326  1.00  0.00    -0.354 N 
ATOM     57  N   UNL A   1      43.733  36.155  32.279  1.00  0.00    -0.248 NA
ATOM     58  C   UNL A   1      44.733  37.150  30.472  1.00  0.00     0.031 C 
ATOM     59  C   UNL A   1      43.716  35.813  35.486  1.00  0.00     0.029 A 
ATOM     60  C   UNL A   1      43.154  36.906  34.850  1.00  0.00     0.049 A 
ATOM     61  H   UNL A   1      41.228  37.733  35.091  1.00  0.00     0.167 HD
ATOM     62  C   UNL A   1      44.049  37.423  32.684  1.00  0.00     0.074 A 
ATOM     63  C   UNL A   1      44.734  37.983  31.528  1.00  0.00     0.031 C 
ATOM     64  C   UNL A   1      43.685  37.900  33.917  1.00  0.00     0.034 A 
BRANCH  51  65
ATOM     65  C   UNL A   1      39.661  35.460  37.930  1.00  0.00     0.023 A 
ATOM     66  C   UNL A   1      39.385  36.633  38.673  1.00  0.00     0.012 A 
ATOM     67  C   UNL A   1      39.487  34.239  38.623  1.00  0.00     0.148 A 
ATOM     68  C   UNL A   1      39.077  36.612  40.036  1.00  0.00     0.002 A 
ATOM     69  C   UNL A   1      39.242  34.217  40.002  1.00  0.00     0.091 A 
ATOM     70  F   UNL A   1      39.476  33.088  37.940  1.00  0.00    -0.205 F 
ATOM     71  C   UNL A   1      39.044  35.405  40.713  1.00  0.00     0.022 A 
BRANCH  69  72
ATOM     72  S   UNL A   1      39.262  32.696  40.969  1.00  0.00     0.127 S 
ATOM     73  O   UNL A   1      38.165  31.931  40.369  1.00  0.00    -0.237 OA
ATOM     74  O   UNL A   1      40.593  32.162  40.692  1.00  0.00    -0.237 OA
ATOM     75  O   UNL A   1      39.015  33.096  42.349  1.00  0.00    -0.744 OA
ENDBRANCH  69  72
ENDBRANCH  51  65
BRANCH  52  76
ATOM     76  C   UNL A   1      43.231  34.612  28.861  1.00  0.00     0.023 A 
ATOM     77  C   UNL A   1      42.196  35.530  28.541  1.00  0.00     0.012 A 
ATOM     78  C   UNL A   1      43.935  34.002  27.805  1.00  0.00     0.148 A 
ATOM     79  C   UNL A   1      41.968  35.936  27.226  1.00  0.00     0.002 A 
ATOM     80  C   UNL A   1      43.695  34.412  26.490  1.00  0.00     0.091 A 
ATOM     81  F   UNL A   1      44.881  33.101  28.100  1.00  0.00    -0.205 F 
ATOM     82  C   UNL A   1      42.742  35.402  26.205  1.00  0.00     0.022 A 
BRANCH  80  83
ATOM     83  S   UNL A   1      44.678  33.806  25.107  1.00  0.00     0.127 S 
ATOM     84  O   UNL A   1      44.449  32.367  25.197  1.00  0.00    -0.237 OA
ATOM     85  O   UNL A   1      44.044  34.457  23.961  1.00  0.00    -0.237 OA
ATOM     86  O   UNL A   1      46.032  34.264  25.382  1.00  0.00    -0.744 OA
ENDBRANCH  80  83
ENDBRANCH  52  76
BRANCH  64  87
ATOM     87  C   UNL A   1      43.784  39.344  34.383  1.00  0.00     0.023 A 
ATOM     88  C   UNL A   1      44.421  39.712  35.582  1.00  0.00     0.012 A 
ATOM     89  C   UNL A   1      43.365  40.410  33.541  1.00  0.00     0.148 A 
ATOM     90  C   UNL A   1      44.591  41.051  35.955  1.00  0.00     0.002 A 
ATOM     91  C   UNL A   1      43.652  41.735  33.855  1.00  0.00     0.091 A 
ATOM     92  F   UNL A   1      42.656  40.155  32.432  1.00  0.00    -0.205 F 
ATOM     93  C   UNL A   1      44.234  42.064  35.077  1.00  0.00     0.022 A 
BRANCH  91  94
ATOM     94  S   UNL A   1      43.448  43.036  32.629  1.00  0.00     0.127 S 
ATOM     95  O   UNL A   1      42.094  43.509  32.909  1.00  0.00    -0.237 OA
ATOM     96  O   UNL A   1      44.510  43.978  32.992  1.00  0.00    -0.237 OA
ATOM     97  O   UNL A   1      43.652  42.379  31.346  1.00  0.00    -0.744 OA
ENDBRANCH  91  94
ENDBRANCH  64  87
ENDBRANCH  38  39
ENDBRANCH  30  33
ENDBRANCH  28  29
ENDBRANCH  27  28
ENDBRANCH  26  27
ENDBRANCH   1  26
TORSDOF 21
ENDMDL
MODEL 3
REMARK VINA RESULT:     -10.7      2.972      3.974
REMARK SMILES CCC(CC)(NC(=O)c1cc(C)ccc1OC)C(=O)NCCCCCCNC(=O)c1ccc(-c2c3nc(c(-c4cccc(S(=O)(=O)[O-])c4F)c4ccc([nH]4)c(-c4cccc(S(=O)(=O)[O-])c4F)c4nc(c(-c5cccc(S(=O)(=O)[O-])c5F)c5ccc2[nH]5)C=C4)C=C3)cc1
REMARK SMILES IDX 23 1 22 2 21 3 20 4 18 5 19 6 3 8 2 9 1 10 4 11 5 12 6 13
REMARK SMILES IDX 7 14 8 16 9 17 10 18 15 19 11 20 14 21 12 22 13 23 16 24
REMARK SMILES IDX 17 25 24 26 25 27 26 28 27 29 28 30 29 32 30 33 31 34 92 35
REMARK SMILES IDX 32 36 91 37 33 38 34 39 35 40 85 41 36 42 90 43 84 44 86 45
REMARK SMILES IDX 37 46 89 47 83 48 82 49 38 51 70 52 50 53 69 54 51 55 54 56
REMARK SMILES IDX 68 57 87 58 52 59 53 60 67 62 88 63 55 64 39 65 40 66 48 67
REMARK SMILES IDX 41 68 43 69 49 70 42 71 44 72 45 73 46 74 47 75 71 76 72 77
REMARK SMILES IDX 80 78 73 79 75 80 81 81 74 82 76 83 77 84 78 85 79 86 56 87
REMARK SMILES IDX 57 88 65 89 58 90 60 91 66 92 59 93 61 94 62 95 63 96 64 97
REMARK H PARENT 20 7 6 15 27 31 86 50 54 61
REMARK Flexibility Score: inf
ROOT
ATOM      1  C   UNL A   1      34.200  28.180  26.469  1.00  0.00     0.002 C 
ENDROOT
BRANCH   1   2
ATOM      2  C   UNL A   1      32.794  27.564  26.574  1.00  0.00     0.021 C 
BRANCH   2   3
ATOM      3  C   UNL A   1      31.567  28.023  25.709  1.00  0.00     0.116 C 
BRANCH   3   4
ATOM      4  N   UNL A   1      30.674  27.077  24.985  1.00  0.00    -0.354 N 
ATOM      5  C   UNL A   1      30.708  25.983  24.138  1.00  0.00     0.245 C 
ATOM      6  O   UNL A   1      29.572  25.547  23.873  1.00  0.00    -0.272 OA
ATOM      7  H   UNL A   1      29.736  27.311  25.174  1.00  0.00     0.163 HD
BRANCH   5   8
ATOM      8  C   UNL A   1      31.986  25.265  23.434  1.00  0.00     0.118 C 
BRANCH   8   9
ATOM      9  C   UNL A   1      32.283  26.114  22.128  1.00  0.00     0.035 C 
ATOM     10  C   UNL A   1      33.636  26.797  21.984  1.00  0.00     0.007 C 
ENDBRANCH   8   9
BRANCH   8  11
ATOM     11  C   UNL A   1      31.552  23.825  23.035  1.00  0.00     0.035 C 
ATOM     12  C   UNL A   1      32.486  22.980  22.182  1.00  0.00     0.007 C 
ENDBRANCH   8  11
BRANCH   8  13
ATOM     13  N   UNL A   1      33.431  25.260  24.052  1.00  0.00    -0.338 N 
ATOM     14  C   UNL A   1      34.210  24.570  24.986  1.00  0.00     0.255 C 
ATOM     15  H   UNL A   1      33.964  25.982  23.647  1.00  0.00     0.164 HD
ATOM     16  O   UNL A   1      35.265  25.083  25.358  1.00  0.00    -0.269 OA
BRANCH  14  17
ATOM     17  C   UNL A   1      33.855  23.229  25.495  1.00  0.00     0.082 A 
ATOM     18  C   UNL A   1      34.076  21.968  24.929  1.00  0.00     0.021 A 
ATOM     19  C   UNL A   1      33.061  23.222  26.590  1.00  0.00     0.131 A 
ATOM     20  C   UNL A   1      33.806  20.820  25.710  1.00  0.00    -0.050 A 
ATOM     21  C   UNL A   1      33.317  22.239  27.521  1.00  0.00     0.047 A 
ATOM     22  C   UNL A   1      33.528  19.456  25.157  1.00  0.00     0.044 C 
ATOM     23  C   UNL A   1      33.669  20.989  27.079  1.00  0.00     0.007 A 
BRANCH  19  24
ATOM     24  O   UNL A   1      32.073  24.139  26.766  1.00  0.00    -0.496 OA
ATOM     25  C   UNL A   1      30.727  23.616  26.726  1.00  0.00     0.278 C 
ENDBRANCH  19  24
ENDBRANCH  14  17
ENDBRANCH   8  13
ENDBRANCH   5   8
ENDBRANCH   3   4
ENDBRANCH   2   3
ENDBRANCH   1   2
BRANCH   1  26
ATOM     26  C   UNL A   1      34.561  29.304  27.429  1.00  0.00     0.002 C 
BRANCH  26  27
ATOM     27  C   UNL A   1      34.132  30.708  26.997  1.00  0.00     0.021 C 
BRANCH  27  28
ATOM     28  C   UNL A   1      33.664  31.642  28.106  1.00  0.00     0.116 C 
BRANCH  28  29
ATOM     29  N   UNL A   1      34.707  32.494  28.638  1.00  0.00    -0.352 N 
ATOM     30  C   UNL A   1      35.082  32.268  29.968  1.00  0.00     0.251 C 
ATOM     31  H   UNL A   1      35.129  33.197  28.093  1.00  0.00     0.163 HD
ATOM     32  O   UNL A   1      34.354  32.431  30.908  1.00  0.00    -0.269 OA
BRANCH  30  33
ATOM     33  C   UNL A   1      36.400  31.573  30.078  1.00  0.00     0.039 A 
ATOM     34  C   UNL A   1      36.710  30.712  31.135  1.00  0.00     0.014 A 
ATOM     35  C   UNL A   1      37.279  31.704  28.997  1.00  0.00     0.014 A 
ATOM     36  C   UNL A   1      37.932  30.027  31.129  1.00  0.00     0.010 A 
ATOM     37  C   UNL A   1      38.442  30.992  28.961  1.00  0.00     0.010 A 
ATOM     38  C   UNL A   1      38.791  30.185  30.041  1.00  0.00    -0.014 A 
BRANCH  38  39
ATOM     39  C   UNL A   1      40.112  29.598  29.901  1.00  0.00     0.031 A 
ATOM     40  C   UNL A   1      40.295  28.194  29.521  1.00  0.00     0.074 A 
ATOM     41  C   UNL A   1      41.143  30.470  29.914  1.00  0.00     0.049 A 
ATOM     42  N   UNL A   1      41.371  27.529  29.756  1.00  0.00    -0.248 NA
ATOM     43  C   UNL A   1      39.268  27.426  28.831  1.00  0.00     0.031 C 
ATOM     44  C   UNL A   1      42.506  30.293  29.452  1.00  0.00     0.029 A 
ATOM     45  N   UNL A   1      41.150  31.726  30.532  1.00  0.00    -0.354 N 
ATOM     46  C   UNL A   1      41.305  26.373  29.007  1.00  0.00     0.074 A 
ATOM     47  C   UNL A   1      39.940  26.307  28.536  1.00  0.00     0.031 C 
ATOM     48  C   UNL A   1      43.274  31.225  30.042  1.00  0.00     0.029 A 
ATOM     49  C   UNL A   1      42.443  31.911  31.022  1.00  0.00     0.049 A 
ATOM     50  H   UNL A   1      40.394  32.354  30.606  1.00  0.00     0.167 HD
ATOM     51  C   UNL A   1      42.460  25.707  28.718  1.00  0.00     0.034 A 
ATOM     52  C   UNL A   1      42.689  32.020  32.361  1.00  0.00     0.034 A 
ATOM     53  C   UNL A   1      43.615  26.406  29.305  1.00  0.00     0.049 A 
ATOM     54  C   UNL A   1      43.575  30.897  32.860  1.00  0.00     0.074 A 
ATOM     55  C   UNL A   1      44.518  27.315  28.774  1.00  0.00     0.029 A 
ATOM     56  N   UNL A   1      43.766  26.466  30.685  1.00  0.00    -0.354 N 
ATOM     57  N   UNL A   1      43.870  29.836  32.162  1.00  0.00    -0.248 NA
ATOM     58  C   UNL A   1      44.207  30.882  34.174  1.00  0.00     0.031 C 
ATOM     59  C   UNL A   1      45.153  27.986  29.852  1.00  0.00     0.029 A 
ATOM     60  C   UNL A   1      44.663  27.466  31.038  1.00  0.00     0.049 A 
ATOM     61  H   UNL A   1      43.301  25.880  31.325  1.00  0.00     0.167 HD
ATOM     62  C   UNL A   1      44.634  28.975  32.902  1.00  0.00     0.074 A 
ATOM     63  C   UNL A   1      44.869  29.712  34.136  1.00  0.00     0.031 C 
ATOM     64  C   UNL A   1      44.968  27.727  32.444  1.00  0.00     0.034 A 
BRANCH  51  65
ATOM     65  C   UNL A   1      42.602  24.660  27.623  1.00  0.00     0.023 A 
ATOM     66  C   UNL A   1      43.081  25.096  26.364  1.00  0.00     0.012 A 
ATOM     67  C   UNL A   1      42.259  23.290  27.709  1.00  0.00     0.148 A 
ATOM     68  C   UNL A   1      43.107  24.271  25.236  1.00  0.00     0.002 A 
ATOM     69  C   UNL A   1      42.223  22.479  26.568  1.00  0.00     0.091 A 
ATOM     70  F   UNL A   1      42.043  22.738  28.908  1.00  0.00    -0.205 F 
ATOM     71  C   UNL A   1      42.641  22.970  25.327  1.00  0.00     0.022 A 
BRANCH  69  72
ATOM     72  S   UNL A   1      41.557  20.804  26.585  1.00  0.00     0.127 S 
ATOM     73  O   UNL A   1      40.112  21.045  26.656  1.00  0.00    -0.237 OA
ATOM     74  O   UNL A   1      42.017  20.266  25.307  1.00  0.00    -0.237 OA
ATOM     75  O   UNL A   1      42.106  20.167  27.776  1.00  0.00    -0.744 OA
ENDBRANCH  69  72
ENDBRANCH  51  65
BRANCH  52  76
ATOM     76  C   UNL A   1      41.579  32.691  33.115  1.00  0.00     0.023 A 
ATOM     77  C   UNL A   1      41.172  33.960  32.624  1.00  0.00     0.012 A 
ATOM     78  C   UNL A   1      40.693  31.979  33.945  1.00  0.00     0.148 A 
ATOM     79  C   UNL A   1      39.877  34.436  32.832  1.00  0.00     0.002 A 
ATOM     80  C   UNL A   1      39.399  32.467  34.151  1.00  0.00     0.091 A 
ATOM     81  F   UNL A   1      41.091  30.803  34.449  1.00  0.00    -0.205 F 
ATOM     82  C   UNL A   1      38.980  33.672  33.566  1.00  0.00     0.022 A 
BRANCH  80  83
ATOM     83  S   UNL A   1      38.157  31.525  35.054  1.00  0.00     0.127 S 
ATOM     84  O   UNL A   1      38.600  31.708  36.433  1.00  0.00    -0.237 OA
ATOM     85  O   UNL A   1      36.920  32.227  34.711  1.00  0.00    -0.237 OA
ATOM     86  O   UNL A   1      38.248  30.175  34.518  1.00  0.00    -0.744 OA
ENDBRANCH  80  83
ENDBRANCH  52  76
BRANCH  64  87
ATOM     87  C   UNL A   1      45.613  26.617  33.259  1.00  0.00     0.023 A 
ATOM     88  C   UNL A   1      47.005  26.521  33.441  1.00  0.00     0.012 A 
ATOM     89  C   UNL A   1      44.817  25.706  34.005  1.00  0.00     0.148 A 
ATOM     90  C   UNL A   1      47.582  25.551  34.271  1.00  0.00     0.002 A 
ATOM     91  C   UNL A   1      45.388  24.833  34.926  1.00  0.00     0.091 A 
ATOM     92  F   UNL A   1      43.491  25.655  33.814  1.00  0.00    -0.205 F 
ATOM     93  C   UNL A   1      46.773  24.727  35.038  1.00  0.00     0.022 A 
BRANCH  91  94
ATOM     94  S   UNL A   1      44.366  23.952  36.117  1.00  0.00     0.127 S 
ATOM     95  O   UNL A   1      45.370  23.326  36.975  1.00  0.00    -0.237 OA
ATOM     96  O   UNL A   1      43.615  25.039  36.750  1.00  0.00    -0.237 OA
ATOM     97  O   UNL A   1      43.547  23.053  35.317  1.00  0.00    -0.744 OA
ENDBRANCH  91  94
ENDBRANCH  64  87
ENDBRANCH  38  39
ENDBRANCH  30  33
ENDBRANCH  28  29
ENDBRANCH  27  28
ENDBRANCH  26  27
ENDBRANCH   1  26
TORSDOF 21
ENDMDL
