MODEL 1
REMARK VINA RESULT:     -10.1      0.000      0.000
REMARK SMILES CCc1nc(COC)cc(OCC(=O)NCCCCCCNC(=O)c2ccc(-c3c4nc(c(-c5cccc(S(=O)(=O)[O-])c5F)c5ccc([nH]5)c(-c5cccc(S(=O)(=O)[O-])c5F)c5nc(c(-c6cccc(S(=O)(=O)[O-])c6F)c6ccc3[nH]6)C=C5)C=C4)cc2)n1
REMARK SMILES IDX 18 1 17 2 16 3 15 4 13 5 14 6 12 8 11 9 10 10 3 11 4 12
REMARK SMILES IDX 88 13 5 14 9 15 2 16 1 17 6 18 7 19 8 20 19 21 20 22 21 23
REMARK SMILES IDX 22 24 23 25 24 27 25 28 26 29 87 30 27 31 86 32 28 33 29 34
REMARK SMILES IDX 30 35 80 36 31 37 85 38 79 39 81 40 32 41 84 42 78 43 77 44
REMARK SMILES IDX 33 46 65 47 45 48 64 49 46 50 49 51 63 52 82 53 47 54 48 55
REMARK SMILES IDX 62 57 83 58 50 59 34 60 35 61 43 62 36 63 38 64 44 65 37 66
REMARK SMILES IDX 39 67 40 68 41 69 42 70 66 71 67 72 75 73 68 74 70 75 76 76
REMARK SMILES IDX 69 77 71 78 72 79 73 80 74 81 51 82 52 83 60 84 53 85 55 86
REMARK SMILES IDX 61 87 54 88 56 89 57 90 58 91 59 92
REMARK H PARENT 15 7 22 26 81 45 49 56
REMARK Flexibility Score: inf
ROOT
ATOM      1  C   UNL A   1      35.160  24.377  25.073  1.00  0.00     0.002 C 
ENDROOT
BRANCH   1   2
ATOM      2  C   UNL A   1      34.407  25.632  24.610  1.00  0.00     0.021 C 
BRANCH   2   3
ATOM      3  C   UNL A   1      33.118  25.928  25.378  1.00  0.00     0.116 C 
BRANCH   3   4
ATOM      4  N   UNL A   1      32.041  26.315  24.485  1.00  0.00    -0.353 N 
ATOM      5  C   UNL A   1      31.094  25.526  23.905  1.00  0.00     0.258 C 
ATOM      6  O   UNL A   1      30.289  26.036  23.121  1.00  0.00    -0.271 OA
ATOM      7  H   UNL A   1      31.988  27.274  24.270  1.00  0.00     0.163 HD
BRANCH   5   8
ATOM      8  C   UNL A   1      31.026  24.034  24.251  1.00  0.00     0.331 C 
BRANCH   8   9
ATOM      9  O   UNL A   1      31.731  23.139  23.415  1.00  0.00    -0.467 OA
BRANCH   9  10
ATOM     10  C   UNL A   1      32.184  21.968  23.944  1.00  0.00     0.217 A 
ATOM     11  C   UNL A   1      33.202  21.056  25.787  1.00  0.00     0.132 A 
ATOM     12  N   UNL A   1      33.228  19.825  25.250  1.00  0.00    -0.235 NA
ATOM     13  N   UNL A   1      32.712  22.141  25.166  1.00  0.00    -0.198 NA
ATOM     14  C   UNL A   1      32.711  19.684  24.012  1.00  0.00     0.074 A 
ATOM     15  C   UNL A   1      32.140  20.740  23.327  1.00  0.00     0.094 A 
BRANCH  11  16
ATOM     16  C   UNL A   1      33.823  21.237  27.145  1.00  0.00     0.074 C 
ATOM     17  C   UNL A   1      33.181  22.366  27.938  1.00  0.00     0.012 C 
ENDBRANCH  11  16
BRANCH  14  18
ATOM     18  C   UNL A   1      32.823  18.327  23.349  1.00  0.00     0.216 C 
BRANCH  18  19
ATOM     19  O   UNL A   1      33.005  17.245  24.270  1.00  0.00    -0.378 OA
ATOM     20  C   UNL A   1      34.154  16.455  23.988  1.00  0.00     0.195 C 
ENDBRANCH  18  19
ENDBRANCH  14  18
ENDBRANCH   9  10
ENDBRANCH   8   9
ENDBRANCH   5   8
ENDBRANCH   3   4
ENDBRANCH   2   3
ENDBRANCH   1   2
BRANCH   1  21
ATOM     21  C   UNL A   1      35.838  23.563  23.967  1.00  0.00     0.002 C 
BRANCH  21  22
ATOM     22  C   UNL A   1      36.424  22.217  24.403  1.00  0.00     0.021 C 
BRANCH  22  23
ATOM     23  C   UNL A   1      37.016  22.191  25.808  1.00  0.00     0.116 C 
BRANCH  23  24
ATOM     24  N   UNL A   1      38.047  21.177  25.956  1.00  0.00    -0.352 N 
ATOM     25  C   UNL A   1      39.373  21.317  26.278  1.00  0.00     0.251 C 
ATOM     26  H   UNL A   1      37.748  20.251  25.804  1.00  0.00     0.163 HD
ATOM     27  O   UNL A   1      40.120  20.344  26.192  1.00  0.00    -0.269 OA
BRANCH  25  28
ATOM     28  C   UNL A   1      39.914  22.627  26.713  1.00  0.00     0.039 A 
ATOM     29  C   UNL A   1      39.496  23.781  26.042  1.00  0.00     0.014 A 
ATOM     30  C   UNL A   1      40.858  22.724  27.739  1.00  0.00     0.014 A 
ATOM     31  C   UNL A   1      40.000  25.029  26.419  1.00  0.00     0.010 A 
ATOM     32  C   UNL A   1      41.304  23.976  28.162  1.00  0.00     0.010 A 
ATOM     33  C   UNL A   1      40.898  25.140  27.492  1.00  0.00    -0.014 A 
BRANCH  33  34
ATOM     34  C   UNL A   1      41.440  26.461  27.903  1.00  0.00     0.031 A 
ATOM     35  C   UNL A   1      42.867  26.830  27.587  1.00  0.00     0.074 A 
ATOM     36  C   UNL A   1      40.670  27.309  28.614  1.00  0.00     0.049 A 
ATOM     37  N   UNL A   1      43.513  27.934  27.861  1.00  0.00    -0.248 NA
ATOM     38  C   UNL A   1      43.682  25.817  26.897  1.00  0.00     0.031 C 
ATOM     39  C   UNL A   1      39.301  27.038  29.057  1.00  0.00     0.029 A 
ATOM     40  N   UNL A   1      40.936  28.562  29.106  1.00  0.00    -0.354 N 
ATOM     41  C   UNL A   1      44.815  27.734  27.418  1.00  0.00     0.074 A 
ATOM     42  C   UNL A   1      44.877  26.391  26.886  1.00  0.00     0.031 C 
ATOM     43  C   UNL A   1      38.842  28.099  29.740  1.00  0.00     0.029 A 
ATOM     44  C   UNL A   1      39.887  29.117  29.800  1.00  0.00     0.049 A 
ATOM     45  H   UNL A   1      41.796  29.022  28.972  1.00  0.00     0.167 HD
ATOM     46  C   UNL A   1      45.859  28.598  27.423  1.00  0.00     0.034 A 
ATOM     47  C   UNL A   1      39.776  30.315  30.408  1.00  0.00     0.034 A 
ATOM     48  C   UNL A   1      45.778  29.954  27.895  1.00  0.00     0.049 A 
ATOM     49  C   UNL A   1      40.926  31.282  30.335  1.00  0.00     0.074 A 
ATOM     50  C   UNL A   1      46.746  30.942  27.845  1.00  0.00     0.029 A 
ATOM     51  N   UNL A   1      44.668  30.513  28.507  1.00  0.00    -0.354 N 
ATOM     52  N   UNL A   1      42.091  31.139  29.752  1.00  0.00    -0.248 NA
ATOM     53  C   UNL A   1      40.729  32.596  30.966  1.00  0.00     0.031 C 
ATOM     54  C   UNL A   1      46.224  32.095  28.443  1.00  0.00     0.029 A 
ATOM     55  C   UNL A   1      44.926  31.829  28.846  1.00  0.00     0.049 A 
ATOM     56  H   UNL A   1      43.819  30.042  28.676  1.00  0.00     0.167 HD
ATOM     57  C   UNL A   1      42.749  32.354  29.906  1.00  0.00     0.074 A 
ATOM     58  C   UNL A   1      41.843  33.229  30.623  1.00  0.00     0.031 C 
ATOM     59  C   UNL A   1      43.994  32.710  29.504  1.00  0.00     0.034 A 
BRANCH  46  60
ATOM     60  C   UNL A   1      47.165  28.121  26.844  1.00  0.00     0.023 A 
ATOM     61  C   UNL A   1      48.215  27.746  27.709  1.00  0.00     0.012 A 
ATOM     62  C   UNL A   1      47.341  27.990  25.453  1.00  0.00     0.148 A 
ATOM     63  C   UNL A   1      49.428  27.287  27.199  1.00  0.00     0.002 A 
ATOM     64  C   UNL A   1      48.538  27.489  24.954  1.00  0.00     0.091 A 
ATOM     65  F   UNL A   1      46.342  28.372  24.643  1.00  0.00    -0.205 F 
ATOM     66  C   UNL A   1      49.586  27.149  25.823  1.00  0.00     0.022 A 
BRANCH  64  67
ATOM     67  S   UNL A   1      48.807  27.199  23.200  1.00  0.00     0.127 S 
ATOM     68  O   UNL A   1      48.200  25.880  23.022  1.00  0.00    -0.237 OA
ATOM     69  O   UNL A   1      48.062  28.300  22.587  1.00  0.00    -0.237 OA
ATOM     70  O   UNL A   1      50.247  27.260  23.002  1.00  0.00    -0.744 OA
ENDBRANCH  64  67
ENDBRANCH  46  60
BRANCH  47  71
ATOM     71  C   UNL A   1      38.489  30.707  31.051  1.00  0.00     0.023 A 
ATOM     72  C   UNL A   1      38.278  30.395  32.409  1.00  0.00     0.012 A 
ATOM     73  C   UNL A   1      37.491  31.404  30.344  1.00  0.00     0.148 A 
ATOM     74  C   UNL A   1      37.085  30.740  33.042  1.00  0.00     0.002 A 
ATOM     75  C   UNL A   1      36.324  31.792  30.996  1.00  0.00     0.091 A 
ATOM     76  F   UNL A   1      37.704  31.682  29.050  1.00  0.00    -0.205 F 
ATOM     77  C   UNL A   1      36.113  31.446  32.340  1.00  0.00     0.022 A 
BRANCH  75  78
ATOM     78  S   UNL A   1      35.077  32.814  30.205  1.00  0.00     0.127 S 
ATOM     79  O   UNL A   1      34.535  31.900  29.201  1.00  0.00    -0.237 OA
ATOM     80  O   UNL A   1      34.173  33.106  31.321  1.00  0.00    -0.237 OA
ATOM     81  O   UNL A   1      35.787  33.973  29.691  1.00  0.00    -0.744 OA
ENDBRANCH  75  78
ENDBRANCH  47  71
BRANCH  59  82
ATOM     82  C   UNL A   1      44.445  34.118  29.788  1.00  0.00     0.023 A 
ATOM     83  C   UNL A   1      45.114  34.412  30.993  1.00  0.00     0.012 A 
ATOM     84  C   UNL A   1      44.264  35.138  28.832  1.00  0.00     0.148 A 
ATOM     85  C   UNL A   1      45.565  35.705  31.256  1.00  0.00     0.002 A 
ATOM     86  C   UNL A   1      44.760  36.413  29.081  1.00  0.00     0.091 A 
ATOM     87  F   UNL A   1      43.605  34.847  27.701  1.00  0.00    -0.205 F 
ATOM     88  C   UNL A   1      45.399  36.700  30.297  1.00  0.00     0.022 A 
BRANCH  86  89
ATOM     89  S   UNL A   1      44.673  37.726  27.857  1.00  0.00     0.127 S 
ATOM     90  O   UNL A   1      45.035  37.017  26.633  1.00  0.00    -0.237 OA
ATOM     91  O   UNL A   1      43.270  38.135  27.934  1.00  0.00    -0.237 OA
ATOM     92  O   UNL A   1      45.619  38.742  28.301  1.00  0.00    -0.744 OA
ENDBRANCH  86  89
ENDBRANCH  59  82
ENDBRANCH  33  34
ENDBRANCH  25  28
ENDBRANCH  23  24
ENDBRANCH  22  23
ENDBRANCH  21  22
ENDBRANCH   1  21
TORSDOF 21
ENDMDL
MODEL 2
REMARK VINA RESULT:     -10.1      5.089      9.553
REMARK SMILES CCc1nc(COC)cc(OCC(=O)NCCCCCCNC(=O)c2ccc(-c3c4nc(c(-c5cccc(S(=O)(=O)[O-])c5F)c5ccc([nH]5)c(-c5cccc(S(=O)(=O)[O-])c5F)c5nc(c(-c6cccc(S(=O)(=O)[O-])c6F)c6ccc3[nH]6)C=C5)C=C4)cc2)n1
REMARK SMILES IDX 18 1 17 2 16 3 15 4 13 5 14 6 12 8 11 9 10 10 3 11 4 12
REMARK SMILES IDX 88 13 5 14 9 15 2 16 1 17 6 18 7 19 8 20 19 21 20 22 21 23
REMARK SMILES IDX 22 24 23 25 24 27 25 28 26 29 87 30 27 31 86 32 28 33 29 34
REMARK SMILES IDX 30 35 80 36 31 37 85 38 79 39 81 40 32 41 84 42 78 43 77 44
REMARK SMILES IDX 33 46 65 47 45 48 64 49 46 50 49 51 63 52 82 53 47 54 48 55
REMARK SMILES IDX 62 57 83 58 50 59 34 60 35 61 43 62 36 63 38 64 44 65 37 66
REMARK SMILES IDX 39 67 40 68 41 69 42 70 66 71 67 72 75 73 68 74 70 75 76 76
REMARK SMILES IDX 69 77 71 78 72 79 73 80 74 81 51 82 52 83 60 84 53 85 55 86
REMARK SMILES IDX 61 87 54 88 56 89 57 90 58 91 59 92
REMARK H PARENT 15 7 22 26 81 45 49 56
REMARK Flexibility Score: inf
ROOT
ATOM      1  C   UNL A   1      31.337  27.614  24.980  1.00  0.00     0.002 C 
ENDROOT
BRANCH   1   2
ATOM      2  C   UNL A   1      30.745  28.365  23.779  1.00  0.00     0.021 C 
BRANCH   2   3
ATOM      3  C   UNL A   1      30.510  27.506  22.536  1.00  0.00     0.116 C 
BRANCH   3   4
ATOM      4  N   UNL A   1      31.761  27.120  21.909  1.00  0.00    -0.353 N 
ATOM      5  C   UNL A   1      32.388  25.911  21.940  1.00  0.00     0.258 C 
ATOM      6  O   UNL A   1      33.486  25.793  21.388  1.00  0.00    -0.271 OA
ATOM      7  H   UNL A   1      32.216  27.825  21.394  1.00  0.00     0.163 HD
BRANCH   5   8
ATOM      8  C   UNL A   1      31.718  24.719  22.631  1.00  0.00     0.331 C 
BRANCH   8   9
ATOM      9  O   UNL A   1      32.161  24.385  23.931  1.00  0.00    -0.467 OA
BRANCH   9  10
ATOM     10  C   UNL A   1      32.760  23.178  24.128  1.00  0.00     0.217 A 
ATOM     11  C   UNL A   1      34.788  22.167  24.493  1.00  0.00     0.132 A 
ATOM     12  N   UNL A   1      34.253  20.935  24.493  1.00  0.00    -0.235 NA
ATOM     13  N   UNL A   1      34.086  23.296  24.298  1.00  0.00    -0.198 NA
ATOM     14  C   UNL A   1      32.920  20.844  24.299  1.00  0.00     0.074 A 
ATOM     15  C   UNL A   1      32.120  21.960  24.143  1.00  0.00     0.094 A 
BRANCH  11  16
ATOM     16  C   UNL A   1      36.278  22.280  24.656  1.00  0.00     0.074 C 
ATOM     17  C   UNL A   1      36.963  22.844  23.420  1.00  0.00     0.012 C 
ENDBRANCH  11  16
BRANCH  14  18
ATOM     18  C   UNL A   1      32.314  19.460  24.193  1.00  0.00     0.216 C 
BRANCH  18  19
ATOM     19  O   UNL A   1      32.239  18.764  25.443  1.00  0.00    -0.378 OA
ATOM     20  C   UNL A   1      32.620  17.397  25.348  1.00  0.00     0.195 C 
ENDBRANCH  18  19
ENDBRANCH  14  18
ENDBRANCH   9  10
ENDBRANCH   8   9
ENDBRANCH   5   8
ENDBRANCH   3   4
ENDBRANCH   2   3
ENDBRANCH   1   2
BRANCH   1  21
ATOM     21  C   UNL A   1      32.752  28.033  25.393  1.00  0.00     0.002 C 
BRANCH  21  22
ATOM     22  C   UNL A   1      32.909  29.495  25.822  1.00  0.00     0.021 C 
BRANCH  22  23
ATOM     23  C   UNL A   1      33.970  29.748  26.887  1.00  0.00     0.116 C 
BRANCH  23  24
ATOM     24  N   UNL A   1      33.793  31.029  27.551  1.00  0.00    -0.352 N 
ATOM     25  C   UNL A   1      34.549  31.617  28.535  1.00  0.00     0.251 C 
ATOM     26  H   UNL A   1      33.016  31.553  27.251  1.00  0.00     0.163 HD
ATOM     27  O   UNL A   1      34.136  32.637  29.082  1.00  0.00    -0.269 OA
BRANCH  25  28
ATOM     28  C   UNL A   1      35.845  31.029  28.949  1.00  0.00     0.039 A 
ATOM     29  C   UNL A   1      37.025  31.587  28.446  1.00  0.00     0.014 A 
ATOM     30  C   UNL A   1      35.908  29.912  29.787  1.00  0.00     0.014 A 
ATOM     31  C   UNL A   1      38.262  31.046  28.806  1.00  0.00     0.010 A 
ATOM     32  C   UNL A   1      37.144  29.419  30.202  1.00  0.00     0.010 A 
ATOM     33  C   UNL A   1      38.334  29.964  29.699  1.00  0.00    -0.014 A 
BRANCH  33  34
ATOM     34  C   UNL A   1      39.643  29.381  30.091  1.00  0.00     0.031 A 
ATOM     35  C   UNL A   1      40.434  29.978  31.226  1.00  0.00     0.074 A 
ATOM     36  C   UNL A   1      40.153  28.349  29.388  1.00  0.00     0.049 A 
ATOM     37  N   UNL A   1      41.590  29.605  31.711  1.00  0.00    -0.248 NA
ATOM     38  C   UNL A   1      39.866  31.166  31.884  1.00  0.00     0.031 C 
ATOM     39  C   UNL A   1      39.527  27.733  28.216  1.00  0.00     0.029 A 
ATOM     40  N   UNL A   1      41.323  27.650  29.545  1.00  0.00    -0.354 N 
ATOM     41  C   UNL A   1      41.908  30.532  32.697  1.00  0.00     0.074 A 
ATOM     42  C   UNL A   1      40.837  31.504  32.720  1.00  0.00     0.031 C 
ATOM     43  C   UNL A   1      40.312  26.738  27.772  1.00  0.00     0.029 A 
ATOM     44  C   UNL A   1      41.502  26.656  28.612  1.00  0.00     0.049 A 
ATOM     45  H   UNL A   1      41.972  27.840  30.260  1.00  0.00     0.167 HD
ATOM     46  C   UNL A   1      42.975  30.557  33.532  1.00  0.00     0.034 A 
ATOM     47  C   UNL A   1      42.508  25.772  28.457  1.00  0.00     0.034 A 
ATOM     48  C   UNL A   1      44.005  29.554  33.549  1.00  0.00     0.049 A 
ATOM     49  C   UNL A   1      43.645  25.777  29.442  1.00  0.00     0.074 A 
ATOM     50  C   UNL A   1      45.070  29.429  34.425  1.00  0.00     0.029 A 
ATOM     51  N   UNL A   1      44.104  28.506  32.648  1.00  0.00    -0.354 N 
ATOM     52  N   UNL A   1      43.835  26.552  30.482  1.00  0.00    -0.248 NA
ATOM     53  C   UNL A   1      44.686  24.753  29.260  1.00  0.00     0.031 C 
ATOM     54  C   UNL A   1      45.821  28.312  34.041  1.00  0.00     0.029 A 
ATOM     55  C   UNL A   1      45.213  27.732  32.940  1.00  0.00     0.049 A 
ATOM     56  H   UNL A   1      43.475  28.336  31.908  1.00  0.00     0.167 HD
ATOM     57  C   UNL A   1      44.989  26.086  31.102  1.00  0.00     0.074 A 
ATOM     58  C   UNL A   1      45.445  24.948  30.330  1.00  0.00     0.031 C 
ATOM     59  C   UNL A   1      45.621  26.564  32.202  1.00  0.00     0.034 A 
BRANCH  46  60
ATOM     60  C   UNL A   1      43.050  31.675  34.539  1.00  0.00     0.023 A 
ATOM     61  C   UNL A   1      43.693  32.881  34.192  1.00  0.00     0.012 A 
ATOM     62  C   UNL A   1      42.442  31.557  35.803  1.00  0.00     0.148 A 
ATOM     63  C   UNL A   1      43.763  33.937  35.101  1.00  0.00     0.002 A 
ATOM     64  C   UNL A   1      42.478  32.630  36.687  1.00  0.00     0.091 A 
ATOM     65  F   UNL A   1      41.854  30.396  36.126  1.00  0.00    -0.205 F 
ATOM     66  C   UNL A   1      43.148  33.815  36.343  1.00  0.00     0.022 A 
BRANCH  64  67
ATOM     67  S   UNL A   1      41.644  32.598  38.279  1.00  0.00     0.127 S 
ATOM     68  O   UNL A   1      41.816  33.979  38.731  1.00  0.00    -0.237 OA
ATOM     69  O   UNL A   1      40.274  32.246  37.904  1.00  0.00    -0.237 OA
ATOM     70  O   UNL A   1      42.333  31.589  39.070  1.00  0.00    -0.744 OA
ENDBRANCH  64  67
ENDBRANCH  46  60
BRANCH  47  71
ATOM     71  C   UNL A   1      42.433  24.740  27.384  1.00  0.00     0.023 A 
ATOM     72  C   UNL A   1      43.202  24.908  26.216  1.00  0.00     0.012 A 
ATOM     73  C   UNL A   1      41.635  23.588  27.519  1.00  0.00     0.148 A 
ATOM     74  C   UNL A   1      43.153  23.967  25.188  1.00  0.00     0.002 A 
ATOM     75  C   UNL A   1      41.630  22.628  26.513  1.00  0.00     0.091 A 
ATOM     76  F   UNL A   1      40.900  23.451  28.632  1.00  0.00    -0.205 F 
ATOM     77  C   UNL A   1      42.376  22.823  25.340  1.00  0.00     0.022 A 
BRANCH  75  78
ATOM     78  S   UNL A   1      40.759  21.065  26.681  1.00  0.00     0.127 S 
ATOM     79  O   UNL A   1      39.425  21.414  26.195  1.00  0.00    -0.237 OA
ATOM     80  O   UNL A   1      41.529  20.193  25.789  1.00  0.00    -0.237 OA
ATOM     81  O   UNL A   1      40.852  20.713  28.088  1.00  0.00    -0.744 OA
ENDBRANCH  75  78
ENDBRANCH  47  71
BRANCH  59  82
ATOM     82  C   UNL A   1      46.855  25.838  32.670  1.00  0.00     0.023 A 
ATOM     83  C   UNL A   1      48.121  26.214  32.179  1.00  0.00     0.012 A 
ATOM     84  C   UNL A   1      46.767  24.826  33.647  1.00  0.00     0.148 A 
ATOM     85  C   UNL A   1      49.274  25.573  32.627  1.00  0.00     0.002 A 
ATOM     86  C   UNL A   1      47.925  24.224  34.124  1.00  0.00     0.091 A 
ATOM     87  F   UNL A   1      45.552  24.464  34.087  1.00  0.00    -0.205 F 
ATOM     88  C   UNL A   1      49.178  24.588  33.605  1.00  0.00     0.022 A 
BRANCH  86  89
ATOM     89  S   UNL A   1      47.896  23.017  35.454  1.00  0.00     0.127 S 
ATOM     90  O   UNL A   1      47.100  21.943  34.865  1.00  0.00    -0.237 OA
ATOM     91  O   UNL A   1      49.315  22.702  35.625  1.00  0.00    -0.237 OA
ATOM     92  O   UNL A   1      47.292  23.698  36.592  1.00  0.00    -0.744 OA
ENDBRANCH  86  89
ENDBRANCH  59  82
ENDBRANCH  33  34
ENDBRANCH  25  28
ENDBRANCH  23  24
ENDBRANCH  22  23
ENDBRANCH  21  22
ENDBRANCH   1  21
TORSDOF 21
ENDMDL
MODEL 3
REMARK VINA RESULT:     -10.1      5.221     10.188
REMARK SMILES CCc1nc(COC)cc(OCC(=O)NCCCCCCNC(=O)c2ccc(-c3c4nc(c(-c5cccc(S(=O)(=O)[O-])c5F)c5ccc([nH]5)c(-c5cccc(S(=O)(=O)[O-])c5F)c5nc(c(-c6cccc(S(=O)(=O)[O-])c6F)c6ccc3[nH]6)C=C5)C=C4)cc2)n1
REMARK SMILES IDX 18 1 17 2 16 3 15 4 13 5 14 6 12 8 11 9 10 10 3 11 4 12
REMARK SMILES IDX 88 13 5 14 9 15 2 16 1 17 6 18 7 19 8 20 19 21 20 22 21 23
REMARK SMILES IDX 22 24 23 25 24 27 25 28 26 29 87 30 27 31 86 32 28 33 29 34
REMARK SMILES IDX 30 35 80 36 31 37 85 38 79 39 81 40 32 41 84 42 78 43 77 44
REMARK SMILES IDX 33 46 65 47 45 48 64 49 46 50 49 51 63 52 82 53 47 54 48 55
REMARK SMILES IDX 62 57 83 58 50 59 34 60 35 61 43 62 36 63 38 64 44 65 37 66
REMARK SMILES IDX 39 67 40 68 41 69 42 70 66 71 67 72 75 73 68 74 70 75 76 76
REMARK SMILES IDX 69 77 71 78 72 79 73 80 74 81 51 82 52 83 60 84 53 85 55 86
REMARK SMILES IDX 61 87 54 88 56 89 57 90 58 91 59 92
REMARK H PARENT 15 7 22 26 81 45 49 56
REMARK Flexibility Score: inf
ROOT
ATOM      1  C   UNL A   1      31.092  28.303  24.646  1.00  0.00     0.002 C 
ENDROOT
BRANCH   1   2
ATOM      2  C   UNL A   1      30.063  28.178  23.514  1.00  0.00     0.021 C 
BRANCH   2   3
ATOM      3  C   UNL A   1      30.510  27.315  22.332  1.00  0.00     0.116 C 
BRANCH   3   4
ATOM      4  N   UNL A   1      31.928  27.472  22.062  1.00  0.00    -0.353 N 
ATOM      5  C   UNL A   1      32.847  26.510  21.768  1.00  0.00     0.258 C 
ATOM      6  O   UNL A   1      34.028  26.836  21.626  1.00  0.00    -0.271 OA
ATOM      7  H   UNL A   1      32.270  28.394  22.096  1.00  0.00     0.163 HD
BRANCH   5   8
ATOM      8  C   UNL A   1      32.401  25.054  21.593  1.00  0.00     0.331 C 
BRANCH   8   9
ATOM      9  O   UNL A   1      33.403  24.058  21.623  1.00  0.00    -0.467 OA
BRANCH   9  10
ATOM     10  C   UNL A   1      33.758  23.523  22.825  1.00  0.00     0.217 A 
ATOM     11  C   UNL A   1      35.551  22.786  24.052  1.00  0.00     0.132 A 
ATOM     12  N   UNL A   1      34.779  22.413  25.086  1.00  0.00    -0.235 NA
ATOM     13  N   UNL A   1      35.082  23.321  22.913  1.00  0.00    -0.198 NA
ATOM     14  C   UNL A   1      33.450  22.608  24.962  1.00  0.00     0.074 A 
ATOM     15  C   UNL A   1      32.893  23.199  23.845  1.00  0.00     0.094 A 
BRANCH  11  16
ATOM     16  C   UNL A   1      37.029  22.527  24.157  1.00  0.00     0.074 C 
ATOM     17  C   UNL A   1      37.344  21.118  24.637  1.00  0.00     0.012 C 
ENDBRANCH  11  16
BRANCH  14  18
ATOM     18  C   UNL A   1      32.554  22.100  26.073  1.00  0.00     0.216 C 
BRANCH  18  19
ATOM     19  O   UNL A   1      31.159  22.122  25.747  1.00  0.00    -0.378 OA
ATOM     20  C   UNL A   1      30.407  23.013  26.560  1.00  0.00     0.195 C 
ENDBRANCH  18  19
ENDBRANCH  14  18
ENDBRANCH   9  10
ENDBRANCH   8   9
ENDBRANCH   5   8
ENDBRANCH   3   4
ENDBRANCH   2   3
ENDBRANCH   1   2
BRANCH   1  21
ATOM     21  C   UNL A   1      31.428  29.732  25.083  1.00  0.00     0.002 C 
BRANCH  21  22
ATOM     22  C   UNL A   1      31.765  29.906  26.567  1.00  0.00     0.021 C 
BRANCH  22  23
ATOM     23  C   UNL A   1      33.173  30.416  26.858  1.00  0.00     0.116 C 
BRANCH  23  24
ATOM     24  N   UNL A   1      33.212  31.857  27.046  1.00  0.00    -0.352 N 
ATOM     25  C   UNL A   1      34.056  32.616  27.816  1.00  0.00     0.251 C 
ATOM     26  H   UNL A   1      32.533  32.364  26.545  1.00  0.00     0.163 HD
ATOM     27  O   UNL A   1      33.820  33.813  27.968  1.00  0.00    -0.269 OA
BRANCH  25  28
ATOM     28  C   UNL A   1      35.237  32.008  28.474  1.00  0.00     0.039 A 
ATOM     29  C   UNL A   1      36.462  32.680  28.406  1.00  0.00     0.014 A 
ATOM     30  C   UNL A   1      35.160  30.767  29.113  1.00  0.00     0.014 A 
ATOM     31  C   UNL A   1      37.597  32.124  29.004  1.00  0.00     0.010 A 
ATOM     32  C   UNL A   1      36.276  30.249  29.770  1.00  0.00     0.010 A 
ATOM     33  C   UNL A   1      37.512  30.909  29.704  1.00  0.00    -0.014 A 
BRANCH  33  34
ATOM     34  C   UNL A   1      38.711  30.309  30.343  1.00  0.00     0.031 A 
ATOM     35  C   UNL A   1      39.131  30.737  31.725  1.00  0.00     0.074 A 
ATOM     36  C   UNL A   1      39.460  29.421  29.659  1.00  0.00     0.049 A 
ATOM     37  N   UNL A   1      40.143  30.325  32.444  1.00  0.00    -0.248 NA
ATOM     38  C   UNL A   1      38.327  31.785  32.374  1.00  0.00     0.031 C 
ATOM     39  C   UNL A   1      39.210  28.984  28.284  1.00  0.00     0.029 A 
ATOM     40  N   UNL A   1      40.595  28.739  30.022  1.00  0.00    -0.354 N 
ATOM     41  C   UNL A   1      40.123  31.088  33.606  1.00  0.00     0.074 A 
ATOM     42  C   UNL A   1      39.017  32.012  33.482  1.00  0.00     0.031 C 
ATOM     43  C   UNL A   1      40.153  28.098  27.926  1.00  0.00     0.029 A 
ATOM     44  C   UNL A   1      41.084  27.916  29.035  1.00  0.00     0.049 A 
ATOM     45  H   UNL A   1      41.018  28.831  30.906  1.00  0.00     0.167 HD
ATOM     46  C   UNL A   1      40.929  31.009  34.692  1.00  0.00     0.034 A 
ATOM     47  C   UNL A   1      42.156  27.099  29.029  1.00  0.00     0.034 A 
ATOM     48  C   UNL A   1      41.988  30.048  34.838  1.00  0.00     0.049 A 
ATOM     49  C   UNL A   1      42.992  26.978  30.275  1.00  0.00     0.074 A 
ATOM     50  C   UNL A   1      42.792  29.814  35.941  1.00  0.00     0.029 A 
ATOM     51  N   UNL A   1      42.395  29.163  33.853  1.00  0.00    -0.354 N 
ATOM     52  N   UNL A   1      42.845  27.579  31.430  1.00  0.00    -0.248 NA
ATOM     53  C   UNL A   1      44.114  26.028  30.231  1.00  0.00     0.031 C 
ATOM     54  C   UNL A   1      43.696  28.797  35.614  1.00  0.00     0.029 A 
ATOM     55  C   UNL A   1      43.441  28.385  34.316  1.00  0.00     0.049 A 
ATOM     56  H   UNL A   1      41.997  29.097  32.954  1.00  0.00     0.167 HD
ATOM     57  C   UNL A   1      43.826  27.053  32.263  1.00  0.00     0.074 A 
ATOM     58  C   UNL A   1      44.550  26.069  31.483  1.00  0.00     0.031 C 
ATOM     59  C   UNL A   1      44.112  27.365  33.551  1.00  0.00     0.034 A 
BRANCH  46  60
ATOM     60  C   UNL A   1      40.657  31.951  35.836  1.00  0.00     0.023 A 
ATOM     61  C   UNL A   1      41.544  33.019  36.085  1.00  0.00     0.012 A 
ATOM     62  C   UNL A   1      39.502  31.816  36.630  1.00  0.00     0.148 A 
ATOM     63  C   UNL A   1      41.306  33.913  37.128  1.00  0.00     0.002 A 
ATOM     64  C   UNL A   1      39.248  32.738  37.640  1.00  0.00     0.091 A 
ATOM     65  F   UNL A   1      38.680  30.782  36.396  1.00  0.00    -0.205 F 
ATOM     66  C   UNL A   1      40.155  33.779  37.898  1.00  0.00     0.022 A 
BRANCH  64  67
ATOM     67  S   UNL A   1      37.751  32.696  38.633  1.00  0.00     0.127 S 
ATOM     68  O   UNL A   1      36.720  32.932  37.624  1.00  0.00    -0.237 OA
ATOM     69  O   UNL A   1      37.776  31.335  39.172  1.00  0.00    -0.237 OA
ATOM     70  O   UNL A   1      37.905  33.744  39.631  1.00  0.00    -0.744 OA
ENDBRANCH  64  67
ENDBRANCH  46  60
BRANCH  47  71
ATOM     71  C   UNL A   1      42.440  26.253  27.835  1.00  0.00     0.023 A 
ATOM     72  C   UNL A   1      43.214  26.786  26.786  1.00  0.00     0.012 A 
ATOM     73  C   UNL A   1      41.977  24.927  27.740  1.00  0.00     0.148 A 
ATOM     74  C   UNL A   1      43.495  26.026  25.650  1.00  0.00     0.002 A 
ATOM     75  C   UNL A   1      42.304  24.157  26.629  1.00  0.00     0.091 A 
ATOM     76  F   UNL A   1      41.231  24.441  28.743  1.00  0.00    -0.205 F 
ATOM     77  C   UNL A   1      43.049  24.711  25.575  1.00  0.00     0.022 A 
BRANCH  75  78
ATOM     78  S   UNL A   1      41.882  22.415  26.508  1.00  0.00     0.127 S 
ATOM     79  O   UNL A   1      42.393  21.896  27.776  1.00  0.00    -0.237 OA
ATOM     80  O   UNL A   1      40.420  22.465  26.410  1.00  0.00    -0.237 OA
ATOM     81  O   UNL A   1      42.546  21.931  25.310  1.00  0.00    -0.744 OA
ENDBRANCH  75  78
ENDBRANCH  47  71
BRANCH  59  82
ATOM     82  C   UNL A   1      45.228  26.609  34.222  1.00  0.00     0.023 A 
ATOM     83  C   UNL A   1      46.555  27.074  34.117  1.00  0.00     0.012 A 
ATOM     84  C   UNL A   1      44.956  25.474  35.012  1.00  0.00     0.148 A 
ATOM     85  C   UNL A   1      47.594  26.403  34.759  1.00  0.00     0.002 A 
ATOM     86  C   UNL A   1      45.991  24.840  35.689  1.00  0.00     0.091 A 
ATOM     87  F   UNL A   1      43.692  25.032  35.083  1.00  0.00    -0.205 F 
ATOM     88  C   UNL A   1      47.311  25.295  35.553  1.00  0.00     0.022 A 
BRANCH  86  89
ATOM     89  S   UNL A   1      45.697  23.465  36.809  1.00  0.00     0.127 S 
ATOM     90  O   UNL A   1      44.822  24.075  37.807  1.00  0.00    -0.237 OA
ATOM     91  O   UNL A   1      45.043  22.486  35.940  1.00  0.00    -0.237 OA
ATOM     92  O   UNL A   1      47.012  23.058  37.287  1.00  0.00    -0.744 OA
ENDBRANCH  86  89
ENDBRANCH  59  82
ENDBRANCH  33  34
ENDBRANCH  25  28
ENDBRANCH  23  24
ENDBRANCH  22  23
ENDBRANCH  21  22
ENDBRANCH   1  21
TORSDOF 21
ENDMDL
