MODEL 1
REMARK VINA RESULT:     -11.3      0.000      0.000
REMARK SMILES O=C(CSc1nc(O)cc(=O)[nH]1)Nc1cccc(C(=O)NCCCCCCNC(=O)c2ccc(-c3c4nc(c(-c5cccc(S(=O)(=O)[O-])c5F)c5ccc([nH]5)c(-c5cccc(S(=O)(=O)[O-])c5F)c5nc(c(-c6cccc(S(=O)(=O)[O-])c6F)c6ccc3[nH]6)C=C5)C=C4)cc2)c1
REMARK SMILES IDX 23 1 22 2 21 3 19 4 20 5 18 7 14 8 15 9 94 10 16 11 17 12
REMARK SMILES IDX 13 13 1 14 2 15 3 17 4 18 5 19 6 20 12 21 7 22 10 23 9 25
REMARK SMILES IDX 11 26 8 27 24 29 25 30 26 31 27 32 28 33 29 34 30 36 31 37
REMARK SMILES IDX 32 38 93 39 33 40 92 41 34 42 35 43 36 44 86 45 37 46 91 47
REMARK SMILES IDX 85 48 87 49 38 50 90 51 84 52 83 53 39 55 71 56 51 57 70 58
REMARK SMILES IDX 52 59 55 60 69 61 88 62 53 63 54 64 68 66 89 67 56 68 40 69
REMARK SMILES IDX 41 70 49 71 42 72 44 73 50 74 43 75 45 76 46 77 47 78 48 79
REMARK SMILES IDX 72 80 73 81 81 82 74 83 76 84 82 85 75 86 77 87 78 88 79 89
REMARK SMILES IDX 80 90 57 91 58 92 66 93 59 94 61 95 67 96 60 97 62 98 63 99
REMARK SMILES IDX 64 100 65 101
REMARK H PARENT 21 6 13 16 12 24 8 28 28 35 87 54 55 65
REMARK Flexibility Score: inf
ROOT
ATOM      1  C   UNL A   1      32.444  28.007  26.829  1.00  0.00     0.021 C 
ENDROOT
BRANCH   1   2
ATOM      2  C   UNL A   1      32.011  26.919  25.854  1.00  0.00     0.116 C 
BRANCH   2   3
ATOM      3  N   UNL A   1      30.733  27.162  25.196  1.00  0.00    -0.352 N 
ATOM      4  C   UNL A   1      30.251  26.706  23.984  1.00  0.00     0.251 C 
ATOM      5  O   UNL A   1      29.138  27.065  23.605  1.00  0.00    -0.269 OA
ATOM      6  H   UNL A   1      30.114  27.743  25.695  1.00  0.00     0.163 HD
BRANCH   4   7
ATOM      7  C   UNL A   1      31.089  25.862  23.088  1.00  0.00     0.041 A 
ATOM      8  C   UNL A   1      32.504  23.924  22.820  1.00  0.00     0.041 A 
ATOM      9  C   UNL A   1      33.051  24.491  21.664  1.00  0.00     0.026 A 
ATOM     10  C   UNL A   1      31.424  24.552  23.428  1.00  0.00     0.040 A 
ATOM     11  C   UNL A   1      32.578  25.719  21.191  1.00  0.00     0.003 A 
ATOM     12  C   UNL A   1      31.626  26.426  21.927  1.00  0.00     0.014 A 
BRANCH   8  13
ATOM     13  N   UNL A   1      33.149  22.804  23.387  1.00  0.00    -0.325 N 
ATOM     14  O   UNL A   1      34.395  23.786  25.096  1.00  0.00    -0.274 OA
ATOM     15  C   UNL A   1      34.061  22.802  24.441  1.00  0.00     0.234 C 
ATOM     16  H   UNL A   1      32.932  21.928  22.994  1.00  0.00     0.169 HD
BRANCH  15  17
ATOM     17  C   UNL A   1      34.718  21.452  24.703  1.00  0.00     0.178 C 
BRANCH  17  18
ATOM     18  S   UNL A   1      33.685  20.350  25.708  1.00  0.00    -0.078 SA
BRANCH  18  19
ATOM     19  C   UNL A   1      33.634  18.944  24.686  1.00  0.00     0.172 A 
ATOM     20  N   UNL A   1      32.820  18.892  23.690  1.00  0.00    -0.189 NA
ATOM     21  N   UNL A   1      34.438  17.919  25.079  1.00  0.00    -0.301 N 
ATOM     22  C   UNL A   1      32.792  17.716  22.998  1.00  0.00     0.218 A 
ATOM     23  C   UNL A   1      34.429  16.723  24.435  1.00  0.00     0.255 A 
ATOM     24  H   UNL A   1      35.040  18.048  25.848  1.00  0.00     0.172 HD
ATOM     25  C   UNL A   1      33.522  16.637  23.289  1.00  0.00     0.139 A 
ATOM     26  O   UNL A   1      35.102  15.770  24.806  1.00  0.00    -0.269 OA
BRANCH  22  27
ATOM     27  O   UNL A   1      31.927  17.671  21.938  1.00  0.00    -0.493 OA
ATOM     28  H   UNL A   1      31.013  17.819  22.073  1.00  0.00     0.295 HD
ENDBRANCH  22  27
ENDBRANCH  18  19
ENDBRANCH  17  18
ENDBRANCH  15  17
ENDBRANCH   8  13
ENDBRANCH   4   7
ENDBRANCH   2   3
ENDBRANCH   1   2
BRANCH   1  29
ATOM     29  C   UNL A   1      33.944  28.274  26.920  1.00  0.00     0.002 C 
BRANCH  29  30
ATOM     30  C   UNL A   1      34.354  29.695  27.313  1.00  0.00     0.002 C 
BRANCH  30  31
ATOM     31  C   UNL A   1      33.617  30.833  26.602  1.00  0.00     0.021 C 
BRANCH  31  32
ATOM     32  C   UNL A   1      32.485  31.482  27.390  1.00  0.00     0.116 C 
BRANCH  32  33
ATOM     33  N   UNL A   1      32.566  32.934  27.397  1.00  0.00    -0.352 N 
ATOM     34  C   UNL A   1      33.474  33.752  28.029  1.00  0.00     0.251 C 
ATOM     35  H   UNL A   1      31.872  33.398  26.876  1.00  0.00     0.163 HD
ATOM     36  O   UNL A   1      33.296  34.963  28.056  1.00  0.00    -0.269 OA
BRANCH  34  37
ATOM     37  C   UNL A   1      34.658  33.160  28.692  1.00  0.00     0.039 A 
ATOM     38  C   UNL A   1      34.487  32.460  29.889  1.00  0.00     0.014 A 
ATOM     39  C   UNL A   1      35.933  33.296  28.134  1.00  0.00     0.014 A 
ATOM     40  C   UNL A   1      35.586  31.847  30.497  1.00  0.00     0.010 A 
ATOM     41  C   UNL A   1      37.010  32.620  28.700  1.00  0.00     0.010 A 
ATOM     42  C   UNL A   1      36.852  31.896  29.890  1.00  0.00    -0.014 A 
BRANCH  42  43
ATOM     43  C   UNL A   1      38.029  31.211  30.487  1.00  0.00     0.031 A 
ATOM     44  C   UNL A   1      38.587  31.687  31.803  1.00  0.00     0.074 A 
ATOM     45  C   UNL A   1      38.646  30.219  29.812  1.00  0.00     0.049 A 
ATOM     46  N   UNL A   1      39.663  31.296  32.434  1.00  0.00    -0.248 NA
ATOM     47  C   UNL A   1      37.851  32.765  32.488  1.00  0.00     0.031 C 
ATOM     48  C   UNL A   1      38.237  29.702  28.504  1.00  0.00     0.029 A 
ATOM     49  N   UNL A   1      39.765  29.487  30.120  1.00  0.00    -0.354 N 
ATOM     50  C   UNL A   1      39.749  32.093  33.569  1.00  0.00     0.074 A 
ATOM     51  C   UNL A   1      38.641  33.021  33.520  1.00  0.00     0.031 C 
ATOM     52  C   UNL A   1      39.091  28.737  28.124  1.00  0.00     0.029 A 
ATOM     53  C   UNL A   1      40.129  28.591  29.139  1.00  0.00     0.049 A 
ATOM     54  H   UNL A   1      40.262  29.593  30.964  1.00  0.00     0.167 HD
ATOM     55  C   UNL A   1      40.648  32.038  34.581  1.00  0.00     0.034 A 
ATOM     56  C   UNL A   1      41.188  27.761  29.061  1.00  0.00     0.034 A 
ATOM     57  C   UNL A   1      41.729  31.091  34.647  1.00  0.00     0.049 A 
ATOM     58  C   UNL A   1      42.172  27.723  30.201  1.00  0.00     0.074 A 
ATOM     59  C   UNL A   1      42.664  30.923  35.652  1.00  0.00     0.029 A 
ATOM     60  N   UNL A   1      42.018  30.153  33.669  1.00  0.00    -0.354 N 
ATOM     61  N   UNL A   1      42.168  28.406  31.320  1.00  0.00    -0.248 NA
ATOM     62  C   UNL A   1      43.291  26.776  30.082  1.00  0.00     0.031 C 
ATOM     63  C   UNL A   1      43.532  29.896  35.272  1.00  0.00     0.029 A 
ATOM     64  C   UNL A   1      43.115  29.401  34.048  1.00  0.00     0.049 A 
ATOM     65  H   UNL A   1      41.516  30.038  32.830  1.00  0.00     0.167 HD
ATOM     66  C   UNL A   1      43.245  27.931  32.059  1.00  0.00     0.074 A 
ATOM     67  C   UNL A   1      43.875  26.896  31.266  1.00  0.00     0.031 C 
ATOM     68  C   UNL A   1      43.683  28.323  33.281  1.00  0.00     0.034 A 
BRANCH  55  69
ATOM     69  C   UNL A   1      40.470  32.992  35.734  1.00  0.00     0.023 A 
ATOM     70  C   UNL A   1      41.044  34.279  35.663  1.00  0.00     0.012 A 
ATOM     71  C   UNL A   1      39.681  32.648  36.849  1.00  0.00     0.148 A 
ATOM     72  C   UNL A   1      40.860  35.197  36.695  1.00  0.00     0.002 A 
ATOM     73  C   UNL A   1      39.462  33.585  37.852  1.00  0.00     0.091 A 
ATOM     74  F   UNL A   1      39.158  31.415  36.905  1.00  0.00    -0.205 F 
ATOM     75  C   UNL A   1      40.061  34.854  37.783  1.00  0.00     0.022 A 
BRANCH  73  76
ATOM     76  S   UNL A   1      38.387  33.275  39.256  1.00  0.00     0.127 S 
ATOM     77  O   UNL A   1      38.527  34.518  40.015  1.00  0.00    -0.237 OA
ATOM     78  O   UNL A   1      37.085  33.098  38.612  1.00  0.00    -0.237 OA
ATOM     79  O   UNL A   1      38.912  32.087  39.913  1.00  0.00    -0.744 OA
ENDBRANCH  73  76
ENDBRANCH  55  69
BRANCH  56  80
ATOM     80  C   UNL A   1      41.360  26.858  27.886  1.00  0.00     0.023 A 
ATOM     81  C   UNL A   1      41.960  27.356  26.712  1.00  0.00     0.012 A 
ATOM     82  C   UNL A   1      40.913  25.524  27.914  1.00  0.00     0.148 A 
ATOM     83  C   UNL A   1      42.065  26.559  25.572  1.00  0.00     0.002 A 
ATOM     84  C   UNL A   1      41.073  24.717  26.794  1.00  0.00     0.091 A 
ATOM     85  F   UNL A   1      40.336  25.070  29.035  1.00  0.00    -0.205 F 
ATOM     86  C   UNL A   1      41.627  25.237  25.615  1.00  0.00     0.022 A 
BRANCH  84  87
ATOM     87  S   UNL A   1      40.646  22.972  26.800  1.00  0.00     0.127 S 
ATOM     88  O   UNL A   1      39.200  23.017  26.603  1.00  0.00    -0.237 OA
ATOM     89  O   UNL A   1      41.411  22.470  25.658  1.00  0.00    -0.237 OA
ATOM     90  O   UNL A   1      41.094  22.463  28.091  1.00  0.00    -0.744 OA
ENDBRANCH  84  87
ENDBRANCH  56  80
BRANCH  68  91
ATOM     91  C   UNL A   1      44.851  27.586  33.881  1.00  0.00     0.023 A 
ATOM     92  C   UNL A   1      46.160  28.081  33.725  1.00  0.00     0.012 A 
ATOM     93  C   UNL A   1      44.634  26.440  34.672  1.00  0.00     0.148 A 
ATOM     94  C   UNL A   1      47.239  27.429  34.320  1.00  0.00     0.002 A 
ATOM     95  C   UNL A   1      45.706  25.828  35.308  1.00  0.00     0.091 A 
ATOM     96  F   UNL A   1      43.382  25.976  34.794  1.00  0.00    -0.205 F 
ATOM     97  C   UNL A   1      47.011  26.312  35.121  1.00  0.00     0.022 A 
BRANCH  95  98
ATOM     98  S   UNL A   1      45.498  24.448  36.438  1.00  0.00     0.127 S 
ATOM     99  O   UNL A   1      44.387  24.910  37.270  1.00  0.00    -0.237 OA
ATOM    100  O   UNL A   1      45.163  23.353  35.528  1.00  0.00    -0.237 OA
ATOM    101  O   UNL A   1      46.772  24.295  37.128  1.00  0.00    -0.744 OA
ENDBRANCH  95  98
ENDBRANCH  68  91
ENDBRANCH  42  43
ENDBRANCH  34  37
ENDBRANCH  32  33
ENDBRANCH  31  32
ENDBRANCH  30  31
ENDBRANCH  29  30
ENDBRANCH   1  29
TORSDOF 21
ENDMDL
MODEL 2
REMARK VINA RESULT:     -11.0      2.485      3.920
REMARK SMILES O=C(CSc1nc(O)cc(=O)[nH]1)Nc1cccc(C(=O)NCCCCCCNC(=O)c2ccc(-c3c4nc(c(-c5cccc(S(=O)(=O)[O-])c5F)c5ccc([nH]5)c(-c5cccc(S(=O)(=O)[O-])c5F)c5nc(c(-c6cccc(S(=O)(=O)[O-])c6F)c6ccc3[nH]6)C=C5)C=C4)cc2)c1
REMARK SMILES IDX 23 1 22 2 21 3 19 4 20 5 18 7 14 8 15 9 94 10 16 11 17 12
REMARK SMILES IDX 13 13 1 14 2 15 3 17 4 18 5 19 6 20 12 21 7 22 10 23 9 25
REMARK SMILES IDX 11 26 8 27 24 29 25 30 26 31 27 32 28 33 29 34 30 36 31 37
REMARK SMILES IDX 32 38 93 39 33 40 92 41 34 42 35 43 36 44 86 45 37 46 91 47
REMARK SMILES IDX 85 48 87 49 38 50 90 51 84 52 83 53 39 55 71 56 51 57 70 58
REMARK SMILES IDX 52 59 55 60 69 61 88 62 53 63 54 64 68 66 89 67 56 68 40 69
REMARK SMILES IDX 41 70 49 71 42 72 44 73 50 74 43 75 45 76 46 77 47 78 48 79
REMARK SMILES IDX 72 80 73 81 81 82 74 83 76 84 82 85 75 86 77 87 78 88 79 89
REMARK SMILES IDX 80 90 57 91 58 92 66 93 59 94 61 95 67 96 60 97 62 98 63 99
REMARK SMILES IDX 64 100 65 101
REMARK H PARENT 21 6 13 16 12 24 8 28 28 35 87 54 55 65
REMARK Flexibility Score: inf
ROOT
ATOM      1  C   UNL A   1      33.671  28.496  27.291  1.00  0.00     0.021 C 
ENDROOT
BRANCH   1   2
ATOM      2  C   UNL A   1      32.937  27.755  26.181  1.00  0.00     0.116 C 
BRANCH   2   3
ATOM      3  N   UNL A   1      31.974  26.762  26.644  1.00  0.00    -0.352 N 
ATOM      4  C   UNL A   1      31.853  25.421  26.331  1.00  0.00     0.251 C 
ATOM      5  O   UNL A   1      30.934  24.769  26.824  1.00  0.00    -0.269 OA
ATOM      6  H   UNL A   1      31.303  27.101  27.281  1.00  0.00     0.163 HD
BRANCH   4   7
ATOM      7  C   UNL A   1      32.759  24.775  25.343  1.00  0.00     0.041 A 
ATOM      8  C   UNL A   1      34.965  23.953  24.804  1.00  0.00     0.041 A 
ATOM      9  C   UNL A   1      34.654  24.032  23.442  1.00  0.00     0.026 A 
ATOM     10  C   UNL A   1      33.959  24.182  25.734  1.00  0.00     0.040 A 
ATOM     11  C   UNL A   1      33.378  24.430  23.033  1.00  0.00     0.003 A 
ATOM     12  C   UNL A   1      32.443  24.844  23.983  1.00  0.00     0.014 A 
BRANCH   8  13
ATOM     13  N   UNL A   1      36.313  23.763  25.174  1.00  0.00    -0.325 N 
ATOM     14  O   UNL A   1      36.343  21.495  25.717  1.00  0.00    -0.274 OA
ATOM     15  C   UNL A   1      36.902  22.585  25.632  1.00  0.00     0.234 C 
ATOM     16  H   UNL A   1      36.903  24.548  25.103  1.00  0.00     0.169 HD
BRANCH  15  17
ATOM     17  C   UNL A   1      38.336  22.747  26.122  1.00  0.00     0.178 C 
BRANCH  17  18
ATOM     18  S   UNL A   1      39.295  21.210  26.012  1.00  0.00    -0.078 SA
BRANCH  18  19
ATOM     19  C   UNL A   1      40.846  21.765  26.568  1.00  0.00     0.172 A 
ATOM     20  N   UNL A   1      41.056  21.963  27.823  1.00  0.00    -0.189 NA
ATOM     21  N   UNL A   1      41.744  22.042  25.583  1.00  0.00    -0.301 N 
ATOM     22  C   UNL A   1      42.275  22.479  28.154  1.00  0.00     0.218 A 
ATOM     23  C   UNL A   1      42.961  22.578  25.863  1.00  0.00     0.255 A 
ATOM     24  H   UNL A   1      41.505  21.851  24.647  1.00  0.00     0.172 HD
ATOM     25  C   UNL A   1      43.234  22.802  27.284  1.00  0.00     0.139 A 
ATOM     26  O   UNL A   1      43.761  22.887  24.988  1.00  0.00    -0.269 OA
BRANCH  22  27
ATOM     27  O   UNL A   1      42.491  22.682  29.490  1.00  0.00    -0.493 OA
ATOM     28  H   UNL A   1      43.359  22.834  29.806  1.00  0.00     0.295 HD
ENDBRANCH  22  27
ENDBRANCH  18  19
ENDBRANCH  17  18
ENDBRANCH  15  17
ENDBRANCH   8  13
ENDBRANCH   4   7
ENDBRANCH   2   3
ENDBRANCH   1   2
BRANCH   1  29
ATOM     29  C   UNL A   1      34.435  29.750  26.874  1.00  0.00     0.002 C 
BRANCH  29  30
ATOM     30  C   UNL A   1      34.482  30.885  27.901  1.00  0.00     0.002 C 
BRANCH  30  31
ATOM     31  C   UNL A   1      34.128  32.281  27.383  1.00  0.00     0.021 C 
BRANCH  31  32
ATOM     32  C   UNL A   1      32.714  32.762  27.692  1.00  0.00     0.116 C 
BRANCH  32  33
ATOM     33  N   UNL A   1      32.659  34.184  27.994  1.00  0.00    -0.352 N 
ATOM     34  C   UNL A   1      33.409  34.914  28.888  1.00  0.00     0.251 C 
ATOM     35  H   UNL A   1      31.989  34.697  27.488  1.00  0.00     0.163 HD
ATOM     36  O   UNL A   1      33.117  36.078  29.128  1.00  0.00    -0.269 OA
BRANCH  34  37
ATOM     37  C   UNL A   1      34.559  34.279  29.570  1.00  0.00     0.039 A 
ATOM     38  C   UNL A   1      34.323  33.458  30.676  1.00  0.00     0.014 A 
ATOM     39  C   UNL A   1      35.865  34.495  29.122  1.00  0.00     0.014 A 
ATOM     40  C   UNL A   1      35.393  32.807  31.296  1.00  0.00     0.010 A 
ATOM     41  C   UNL A   1      36.918  33.786  29.693  1.00  0.00     0.010 A 
ATOM     42  C   UNL A   1      36.696  32.941  30.790  1.00  0.00    -0.014 A 
BRANCH  42  43
ATOM     43  C   UNL A   1      37.847  32.221  31.398  1.00  0.00     0.031 A 
ATOM     44  C   UNL A   1      38.445  32.717  32.688  1.00  0.00     0.074 A 
ATOM     45  C   UNL A   1      38.404  31.176  30.753  1.00  0.00     0.049 A 
ATOM     46  N   UNL A   1      39.510  32.297  33.320  1.00  0.00    -0.248 NA
ATOM     47  C   UNL A   1      37.773  33.855  33.341  1.00  0.00     0.031 C 
ATOM     48  C   UNL A   1      37.953  30.631  29.471  1.00  0.00     0.029 A 
ATOM     49  N   UNL A   1      39.491  30.401  31.076  1.00  0.00    -0.354 N 
ATOM     50  C   UNL A   1      39.651  33.131  34.424  1.00  0.00     0.074 A 
ATOM     51  C   UNL A   1      38.589  34.110  34.353  1.00  0.00     0.031 C 
ATOM     52  C   UNL A   1      38.753  29.611  29.118  1.00  0.00     0.029 A 
ATOM     53  C   UNL A   1      39.797  29.453  30.125  1.00  0.00     0.049 A 
ATOM     54  H   UNL A   1      40.004  30.513  31.909  1.00  0.00     0.167 HD
ATOM     55  C   UNL A   1      40.560  33.068  35.426  1.00  0.00     0.034 A 
ATOM     56  C   UNL A   1      40.812  28.569  30.065  1.00  0.00     0.034 A 
ATOM     57  C   UNL A   1      41.593  32.072  35.514  1.00  0.00     0.049 A 
ATOM     58  C   UNL A   1      41.809  28.524  31.193  1.00  0.00     0.074 A 
ATOM     59  C   UNL A   1      42.533  31.895  36.514  1.00  0.00     0.029 A 
ATOM     60  N   UNL A   1      41.822  31.085  34.569  1.00  0.00    -0.354 N 
ATOM     61  N   UNL A   1      41.854  29.247  32.286  1.00  0.00    -0.248 NA
ATOM     62  C   UNL A   1      42.878  27.519  31.097  1.00  0.00     0.031 C 
ATOM     63  C   UNL A   1      43.345  30.812  36.163  1.00  0.00     0.029 A 
ATOM     64  C   UNL A   1      42.887  30.294  34.963  1.00  0.00     0.049 A 
ATOM     65  H   UNL A   1      41.304  30.964  33.741  1.00  0.00     0.167 HD
ATOM     66  C   UNL A   1      42.917  28.746  33.030  1.00  0.00     0.074 A 
ATOM     67  C   UNL A   1      43.483  27.653  32.269  1.00  0.00     0.031 C 
ATOM     68  C   UNL A   1      43.391  29.162  34.230  1.00  0.00     0.034 A 
BRANCH  55  69
ATOM     69  C   UNL A   1      40.445  34.072  36.545  1.00  0.00     0.023 A 
ATOM     70  C   UNL A   1      40.890  35.394  36.336  1.00  0.00     0.012 A 
ATOM     71  C   UNL A   1      39.835  33.733  37.768  1.00  0.00     0.148 A 
ATOM     72  C   UNL A   1      40.758  36.355  37.338  1.00  0.00     0.002 A 
ATOM     73  C   UNL A   1      39.663  34.707  38.744  1.00  0.00     0.091 A 
ATOM     74  F   UNL A   1      39.433  32.467  37.952  1.00  0.00    -0.205 F 
ATOM     75  C   UNL A   1      40.135  36.014  38.535  1.00  0.00     0.022 A 
BRANCH  73  76
ATOM     76  S   UNL A   1      38.804  34.396  40.289  1.00  0.00     0.127 S 
ATOM     77  O   UNL A   1      39.772  33.564  41.004  1.00  0.00    -0.237 OA
ATOM     78  O   UNL A   1      38.647  35.747  40.830  1.00  0.00    -0.237 OA
ATOM     79  O   UNL A   1      37.559  33.730  39.934  1.00  0.00    -0.744 OA
ENDBRANCH  73  76
ENDBRANCH  55  69
BRANCH  56  80
ATOM     80  C   UNL A   1      40.923  27.615  28.923  1.00  0.00     0.023 A 
ATOM     81  C   UNL A   1      40.140  26.443  28.920  1.00  0.00     0.012 A 
ATOM     82  C   UNL A   1      41.814  27.846  27.858  1.00  0.00     0.148 A 
ATOM     83  C   UNL A   1      40.279  25.495  27.906  1.00  0.00     0.002 A 
ATOM     84  C   UNL A   1      41.905  26.925  26.820  1.00  0.00     0.091 A 
ATOM     85  F   UNL A   1      42.559  28.960  27.882  1.00  0.00    -0.205 F 
ATOM     86  C   UNL A   1      41.157  25.739  26.853  1.00  0.00     0.022 A 
BRANCH  84  87
ATOM     87  S   UNL A   1      42.921  27.216  25.368  1.00  0.00     0.127 S 
ATOM     88  O   UNL A   1      42.791  25.949  24.653  1.00  0.00    -0.237 OA
ATOM     89  O   UNL A   1      42.239  28.351  24.744  1.00  0.00    -0.237 OA
ATOM     90  O   UNL A   1      44.253  27.522  25.875  1.00  0.00    -0.744 OA
ENDBRANCH  84  87
ENDBRANCH  56  80
BRANCH  68  91
ATOM     91  C   UNL A   1      44.529  28.390  34.843  1.00  0.00     0.023 A 
ATOM     92  C   UNL A   1      45.855  28.841  34.694  1.00  0.00     0.012 A 
ATOM     93  C   UNL A   1      44.269  27.257  35.640  1.00  0.00     0.148 A 
ATOM     94  C   UNL A   1      46.907  28.157  35.302  1.00  0.00     0.002 A 
ATOM     95  C   UNL A   1      45.315  26.614  36.287  1.00  0.00     0.091 A 
ATOM     96  F   UNL A   1      43.001  26.836  35.755  1.00  0.00    -0.205 F 
ATOM     97  C   UNL A   1      46.637  27.054  36.108  1.00  0.00     0.022 A 
BRANCH  95  98
ATOM     98  S   UNL A   1      45.053  25.249  37.425  1.00  0.00     0.127 S 
ATOM     99  O   UNL A   1      46.423  24.920  37.815  1.00  0.00    -0.237 OA
ATOM    100  O   UNL A   1      44.253  25.876  38.477  1.00  0.00    -0.237 OA
ATOM    101  O   UNL A   1      44.357  24.219  36.666  1.00  0.00    -0.744 OA
ENDBRANCH  95  98
ENDBRANCH  68  91
ENDBRANCH  42  43
ENDBRANCH  34  37
ENDBRANCH  32  33
ENDBRANCH  31  32
ENDBRANCH  30  31
ENDBRANCH  29  30
ENDBRANCH   1  29
TORSDOF 21
ENDMDL
MODEL 3
REMARK VINA RESULT:     -11.0      3.348      9.160
REMARK SMILES O=C(CSc1nc(O)cc(=O)[nH]1)Nc1cccc(C(=O)NCCCCCCNC(=O)c2ccc(-c3c4nc(c(-c5cccc(S(=O)(=O)[O-])c5F)c5ccc([nH]5)c(-c5cccc(S(=O)(=O)[O-])c5F)c5nc(c(-c6cccc(S(=O)(=O)[O-])c6F)c6ccc3[nH]6)C=C5)C=C4)cc2)c1
REMARK SMILES IDX 23 1 22 2 21 3 19 4 20 5 18 7 14 8 15 9 94 10 16 11 17 12
REMARK SMILES IDX 13 13 1 14 2 15 3 17 4 18 5 19 6 20 12 21 7 22 10 23 9 25
REMARK SMILES IDX 11 26 8 27 24 29 25 30 26 31 27 32 28 33 29 34 30 36 31 37
REMARK SMILES IDX 32 38 93 39 33 40 92 41 34 42 35 43 36 44 86 45 37 46 91 47
REMARK SMILES IDX 85 48 87 49 38 50 90 51 84 52 83 53 39 55 71 56 51 57 70 58
REMARK SMILES IDX 52 59 55 60 69 61 88 62 53 63 54 64 68 66 89 67 56 68 40 69
REMARK SMILES IDX 41 70 49 71 42 72 44 73 50 74 43 75 45 76 46 77 47 78 48 79
REMARK SMILES IDX 72 80 73 81 81 82 74 83 76 84 82 85 75 86 77 87 78 88 79 89
REMARK SMILES IDX 80 90 57 91 58 92 66 93 59 94 61 95 67 96 60 97 62 98 63 99
REMARK SMILES IDX 64 100 65 101
REMARK H PARENT 21 6 13 16 12 24 8 28 28 35 87 54 55 65
REMARK Flexibility Score: inf
ROOT
ATOM      1  C   UNL A   1      34.536  23.093  25.940  1.00  0.00     0.021 C 
ENDROOT
BRANCH   1   2
ATOM      2  C   UNL A   1      34.320  21.824  26.755  1.00  0.00     0.116 C 
BRANCH   2   3
ATOM      3  N   UNL A   1      33.661  20.741  26.034  1.00  0.00    -0.352 N 
ATOM      4  C   UNL A   1      32.489  20.739  25.302  1.00  0.00     0.251 C 
ATOM      5  O   UNL A   1      32.097  19.690  24.795  1.00  0.00    -0.269 OA
ATOM      6  H   UNL A   1      34.124  19.873  26.075  1.00  0.00     0.163 HD
BRANCH   4   7
ATOM      7  C   UNL A   1      31.646  21.962  25.191  1.00  0.00     0.041 A 
ATOM      8  C   UNL A   1      31.151  24.021  24.031  1.00  0.00     0.041 A 
ATOM      9  C   UNL A   1      30.480  24.491  25.164  1.00  0.00     0.026 A 
ATOM     10  C   UNL A   1      31.592  22.703  24.012  1.00  0.00     0.040 A 
ATOM     11  C   UNL A   1      30.346  23.675  26.292  1.00  0.00     0.003 A 
ATOM     12  C   UNL A   1      30.967  22.425  26.322  1.00  0.00     0.014 A 
BRANCH   8  13
ATOM     13  N   UNL A   1      31.458  24.939  23.004  1.00  0.00    -0.325 N 
ATOM     14  O   UNL A   1      33.648  24.343  22.469  1.00  0.00    -0.274 OA
ATOM     15  C   UNL A   1      32.668  25.068  22.324  1.00  0.00     0.234 C 
ATOM     16  H   UNL A   1      30.738  25.556  22.738  1.00  0.00     0.169 HD
BRANCH  15  17
ATOM     17  C   UNL A   1      32.742  26.274  21.394  1.00  0.00     0.178 C 
BRANCH  17  18
ATOM     18  S   UNL A   1      33.637  27.672  22.126  1.00  0.00    -0.078 SA
BRANCH  18  19
ATOM     19  C   UNL A   1      32.312  28.589  22.779  1.00  0.00     0.172 A 
ATOM     20  N   UNL A   1      32.405  29.132  23.943  1.00  0.00    -0.189 NA
ATOM     21  N   UNL A   1      31.188  28.600  22.011  1.00  0.00    -0.301 N 
ATOM     22  C   UNL A   1      31.285  29.758  24.406  1.00  0.00     0.218 A 
ATOM     23  C   UNL A   1      30.042  29.193  22.440  1.00  0.00     0.255 A 
ATOM     24  H   UNL A   1      31.205  28.169  21.127  1.00  0.00     0.172 HD
ATOM     25  C   UNL A   1      30.122  29.830  23.756  1.00  0.00     0.139 A 
ATOM     26  O   UNL A   1      29.005  29.165  21.790  1.00  0.00    -0.269 OA
BRANCH  22  27
ATOM     27  O   UNL A   1      31.395  30.336  25.642  1.00  0.00    -0.493 OA
ATOM     28  H   UNL A   1      31.309  31.263  25.735  1.00  0.00     0.295 HD
ENDBRANCH  22  27
ENDBRANCH  18  19
ENDBRANCH  17  18
ENDBRANCH  15  17
ENDBRANCH   8  13
ENDBRANCH   4   7
ENDBRANCH   2   3
ENDBRANCH   1   2
BRANCH   1  29
ATOM     29  C   UNL A   1      33.974  24.381  26.534  1.00  0.00     0.002 C 
BRANCH  29  30
ATOM     30  C   UNL A   1      33.867  25.574  25.581  1.00  0.00     0.002 C 
BRANCH  30  31
ATOM     31  C   UNL A   1      33.435  26.903  26.206  1.00  0.00     0.021 C 
BRANCH  31  32
ATOM     32  C   UNL A   1      34.495  27.999  26.228  1.00  0.00     0.116 C 
BRANCH  32  33
ATOM     33  N   UNL A   1      33.989  29.258  26.750  1.00  0.00    -0.352 N 
ATOM     34  C   UNL A   1      34.561  30.114  27.664  1.00  0.00     0.251 C 
ATOM     35  H   UNL A   1      33.113  29.539  26.401  1.00  0.00     0.163 HD
ATOM     36  O   UNL A   1      33.918  31.056  28.110  1.00  0.00    -0.269 OA
BRANCH  34  37
ATOM     37  C   UNL A   1      35.950  29.881  28.118  1.00  0.00     0.039 A 
ATOM     38  C   UNL A   1      36.167  29.334  29.386  1.00  0.00     0.014 A 
ATOM     39  C   UNL A   1      37.035  30.201  27.297  1.00  0.00     0.014 A 
ATOM     40  C   UNL A   1      37.470  29.055  29.807  1.00  0.00     0.010 A 
ATOM     41  C   UNL A   1      38.325  29.851  27.687  1.00  0.00     0.010 A 
ATOM     42  C   UNL A   1      38.558  29.282  28.948  1.00  0.00    -0.014 A 
BRANCH  42  43
ATOM     43  C   UNL A   1      39.951  28.949  29.349  1.00  0.00     0.031 A 
ATOM     44  C   UNL A   1      40.643  27.760  28.735  1.00  0.00     0.074 A 
ATOM     45  C   UNL A   1      40.561  29.659  30.319  1.00  0.00     0.049 A 
ATOM     46  N   UNL A   1      41.809  27.243  29.024  1.00  0.00    -0.248 NA
ATOM     47  C   UNL A   1      39.918  27.042  27.672  1.00  0.00     0.031 C 
ATOM     48  C   UNL A   1      39.979  30.799  31.030  1.00  0.00     0.029 A 
ATOM     49  N   UNL A   1      41.799  29.510  30.893  1.00  0.00    -0.354 N 
ATOM     50  C   UNL A   1      41.944  26.128  28.205  1.00  0.00     0.074 A 
ATOM     51  C   UNL A   1      40.724  26.017  27.436  1.00  0.00     0.031 C 
ATOM     52  C   UNL A   1      40.858  31.246  31.943  1.00  0.00     0.029 A 
ATOM     53  C   UNL A   1      42.049  30.404  31.911  1.00  0.00     0.049 A 
ATOM     54  H   UNL A   1      42.448  28.827  30.606  1.00  0.00     0.167 HD
ATOM     55  C   UNL A   1      43.001  25.291  28.076  1.00  0.00     0.034 A 
ATOM     56  C   UNL A   1      43.110  30.520  32.734  1.00  0.00     0.034 A 
ATOM     57  C   UNL A   1      44.228  25.424  28.814  1.00  0.00     0.049 A 
ATOM     58  C   UNL A   1      44.270  29.573  32.568  1.00  0.00     0.074 A 
ATOM     59  C   UNL A   1      45.374  24.655  28.721  1.00  0.00     0.029 A 
ATOM     60  N   UNL A   1      44.468  26.387  29.781  1.00  0.00    -0.354 N 
ATOM     61  N   UNL A   1      44.424  28.597  31.706  1.00  0.00    -0.248 NA
ATOM     62  C   UNL A   1      45.417  29.763  33.468  1.00  0.00     0.031 C 
ATOM     63  C   UNL A   1      46.302  25.142  29.647  1.00  0.00     0.029 A 
ATOM     64  C   UNL A   1      45.745  26.235  30.291  1.00  0.00     0.049 A 
ATOM     65  H   UNL A   1      43.825  27.078  30.062  1.00  0.00     0.167 HD
ATOM     66  C   UNL A   1      45.704  28.098  31.921  1.00  0.00     0.074 A 
ATOM     67  C   UNL A   1      46.286  28.884  32.989  1.00  0.00     0.031 C 
ATOM     68  C   UNL A   1      46.337  27.073  31.301  1.00  0.00     0.034 A 
BRANCH  55  69
ATOM     69  C   UNL A   1      42.904  24.186  27.055  1.00  0.00     0.023 A 
ATOM     70  C   UNL A   1      43.547  24.338  25.808  1.00  0.00     0.012 A 
ATOM     71  C   UNL A   1      42.246  22.977  27.350  1.00  0.00     0.148 A 
ATOM     72  C   UNL A   1      43.510  23.317  24.860  1.00  0.00     0.002 A 
ATOM     73  C   UNL A   1      42.255  21.944  26.419  1.00  0.00     0.091 A 
ATOM     74  F   UNL A   1      41.628  22.858  28.534  1.00  0.00    -0.205 F 
ATOM     75  C   UNL A   1      42.874  22.117  25.170  1.00  0.00     0.022 A 
BRANCH  73  76
ATOM     76  S   UNL A   1      41.535  20.332  26.747  1.00  0.00     0.127 S 
ATOM     77  O   UNL A   1      40.172  20.691  27.140  1.00  0.00    -0.237 OA
ATOM     78  O   UNL A   1      41.640  19.679  25.442  1.00  0.00    -0.237 OA
ATOM     79  O   UNL A   1      42.345  19.734  27.799  1.00  0.00    -0.744 OA
ENDBRANCH  73  76
ENDBRANCH  55  69
BRANCH  56  80
ATOM     80  C   UNL A   1      43.159  31.598  33.764  1.00  0.00     0.023 A 
ATOM     81  C   UNL A   1      43.800  32.816  33.461  1.00  0.00     0.012 A 
ATOM     82  C   UNL A   1      42.601  31.417  35.043  1.00  0.00     0.148 A 
ATOM     83  C   UNL A   1      43.930  33.813  34.429  1.00  0.00     0.002 A 
ATOM     84  C   UNL A   1      42.683  32.437  35.984  1.00  0.00     0.091 A 
ATOM     85  F   UNL A   1      42.004  30.249  35.318  1.00  0.00    -0.205 F 
ATOM     86  C   UNL A   1      43.366  33.626  35.688  1.00  0.00     0.022 A 
BRANCH  84  87
ATOM     87  S   UNL A   1      41.882  32.327  37.589  1.00  0.00     0.127 S 
ATOM     88  O   UNL A   1      40.471  32.267  37.216  1.00  0.00    -0.237 OA
ATOM     89  O   UNL A   1      42.435  31.079  38.117  1.00  0.00    -0.237 OA
ATOM     90  O   UNL A   1      42.296  33.520  38.316  1.00  0.00    -0.744 OA
ENDBRANCH  84  87
ENDBRANCH  56  80
BRANCH  68  91
ATOM     91  C   UNL A   1      47.761  26.782  31.695  1.00  0.00     0.023 A 
ATOM     92  C   UNL A   1      48.038  25.905  32.762  1.00  0.00     0.012 A 
ATOM     93  C   UNL A   1      48.827  27.321  30.947  1.00  0.00     0.148 A 
ATOM     94  C   UNL A   1      49.355  25.595  33.098  1.00  0.00     0.002 A 
ATOM     95  C   UNL A   1      50.133  26.963  31.253  1.00  0.00     0.091 A 
ATOM     96  F   UNL A   1      48.541  28.166  29.946  1.00  0.00    -0.205 F 
ATOM     97  C   UNL A   1      50.400  26.112  32.337  1.00  0.00     0.022 A 
BRANCH  95  98
ATOM     98  S   UNL A   1      51.535  27.498  30.267  1.00  0.00     0.127 S 
ATOM     99  O   UNL A   1      51.387  28.953  30.302  1.00  0.00    -0.237 OA
ATOM    100  O   UNL A   1      52.667  26.982  31.036  1.00  0.00    -0.237 OA
ATOM    101  O   UNL A   1      51.364  26.886  28.956  1.00  0.00    -0.744 OA
ENDBRANCH  95  98
ENDBRANCH  68  91
ENDBRANCH  42  43
ENDBRANCH  34  37
ENDBRANCH  32  33
ENDBRANCH  31  32
ENDBRANCH  30  31
ENDBRANCH  29  30
ENDBRANCH   1  29
TORSDOF 21
ENDMDL
