MODEL 1
REMARK VINA RESULT:     -11.3      0.000      0.000
REMARK SMILES COc1ncccc1C[C@H](C(=O)NCCCCCCNC(=O)c1ccc(-c2c3nc(c(-c4cccc(S(=O)(=O)[O-])c4F)c4ccc([nH]4)c(-c4cccc(S(=O)(=O)[O-])c4F)c4nc(c(-c5cccc(S(=O)(=O)[O-])c5F)c5ccc2[nH]5)C=C4)C=C3)cc1)c1ccc(F)cc1
REMARK SMILES IDX 16 1 15 2 14 3 13 4 11 5 12 6 10 8 9 9 8 10 3 11 4 12 5 13
REMARK SMILES IDX 7 14 6 15 2 16 1 17 86 18 87 19 92 20 88 21 91 22 89 23
REMARK SMILES IDX 90 24 17 25 18 26 19 27 20 28 21 29 22 31 23 32 24 33 85 34
REMARK SMILES IDX 25 35 84 36 26 37 27 38 28 39 78 40 29 41 83 42 77 43 79 44
REMARK SMILES IDX 30 45 82 46 76 47 75 48 31 50 63 51 43 52 62 53 44 54 47 55
REMARK SMILES IDX 61 56 80 57 45 58 46 59 60 61 81 62 48 63 32 64 33 65 41 66
REMARK SMILES IDX 34 67 36 68 42 69 35 70 37 71 38 72 39 73 40 74 64 75 65 76
REMARK SMILES IDX 73 77 66 78 68 79 74 80 67 81 69 82 70 83 71 84 72 85 49 86
REMARK SMILES IDX 50 87 58 88 51 89 53 90 59 91 52 92 54 93 55 94 56 95 57 96
REMARK H PARENT 13 7 20 30 79 49 47 60
REMARK Flexibility Score: inf
ROOT
ATOM      1  C   UNL A   1      33.627  27.755  25.920  1.00  0.00     0.002 C 
ENDROOT
BRANCH   1   2
ATOM      2  C   UNL A   1      33.212  26.406  25.323  1.00  0.00     0.021 C 
BRANCH   2   3
ATOM      3  C   UNL A   1      34.208  25.268  25.562  1.00  0.00     0.116 C 
BRANCH   3   4
ATOM      4  N   UNL A   1      34.686  24.721  24.305  1.00  0.00    -0.356 N 
ATOM      5  C   UNL A   1      34.137  23.772  23.496  1.00  0.00     0.227 C 
ATOM      6  O   UNL A   1      34.815  23.400  22.534  1.00  0.00    -0.274 OA
ATOM      7  H   UNL A   1      35.540  25.094  23.988  1.00  0.00     0.163 HD
BRANCH   5   8
ATOM      8  C   UNL A   1      32.719  23.233  23.757  1.00  0.00     0.113 C 
BRANCH   8   9
ATOM      9  C   UNL A   1      31.791  23.752  22.616  1.00  0.00     0.059 C 
BRANCH   9  10
ATOM     10  C   UNL A   1      31.181  25.109  22.868  1.00  0.00     0.015 A 
ATOM     11  C   UNL A   1      31.509  26.235  22.110  1.00  0.00     0.216 A 
ATOM     12  N   UNL A   1      30.876  27.423  22.212  1.00  0.00    -0.222 NA
ATOM     13  C   UNL A   1      29.891  27.510  23.133  1.00  0.00     0.115 A 
ATOM     14  C   UNL A   1      30.202  25.265  23.859  1.00  0.00     0.011 A 
ATOM     15  C   UNL A   1      29.551  26.486  23.999  1.00  0.00     0.021 A 
BRANCH  11  16
ATOM     16  O   UNL A   1      32.684  26.267  21.401  1.00  0.00    -0.481 OA
ATOM     17  C   UNL A   1      33.640  27.133  21.994  1.00  0.00     0.280 C 
ENDBRANCH  11  16
ENDBRANCH   9  10
ENDBRANCH   8   9
BRANCH   8  18
ATOM     18  C   UNL A   1      32.651  21.714  23.946  1.00  0.00    -0.035 A 
ATOM     19  C   UNL A   1      32.191  20.849  22.940  1.00  0.00     0.007 A 
ATOM     20  C   UNL A   1      33.059  21.150  25.173  1.00  0.00     0.007 A 
ATOM     21  C   UNL A   1      32.156  19.465  23.148  1.00  0.00     0.039 A 
ATOM     22  C   UNL A   1      32.995  19.773  25.389  1.00  0.00     0.039 A 
ATOM     23  C   UNL A   1      32.549  18.942  24.372  1.00  0.00     0.123 A 
ATOM     24  F   UNL A   1      32.484  17.620  24.575  1.00  0.00    -0.207 F 
ENDBRANCH   8  18
ENDBRANCH   5   8
ENDBRANCH   3   4
ENDBRANCH   2   3
ENDBRANCH   1   2
BRANCH   1  25
ATOM     25  C   UNL A   1      33.354  28.964  25.025  1.00  0.00     0.002 C 
BRANCH  25  26
ATOM     26  C   UNL A   1      32.121  29.783  25.414  1.00  0.00     0.021 C 
BRANCH  26  27
ATOM     27  C   UNL A   1      32.137  30.309  26.847  1.00  0.00     0.116 C 
BRANCH  27  28
ATOM     28  N   UNL A   1      32.241  31.761  26.889  1.00  0.00    -0.352 N 
ATOM     29  C   UNL A   1      33.203  32.539  27.484  1.00  0.00     0.251 C 
ATOM     30  H   UNL A   1      31.522  32.252  26.426  1.00  0.00     0.163 HD
ATOM     31  O   UNL A   1      33.034  33.744  27.623  1.00  0.00    -0.269 OA
BRANCH  29  32
ATOM     32  C   UNL A   1      34.441  31.898  27.974  1.00  0.00     0.039 A 
ATOM     33  C   UNL A   1      35.589  32.675  28.142  1.00  0.00     0.014 A 
ATOM     34  C   UNL A   1      34.447  30.540  28.305  1.00  0.00     0.014 A 
ATOM     35  C   UNL A   1      36.724  32.105  28.724  1.00  0.00     0.010 A 
ATOM     36  C   UNL A   1      35.555  29.992  28.944  1.00  0.00     0.010 A 
ATOM     37  C   UNL A   1      36.699  30.773  29.171  1.00  0.00    -0.014 A 
BRANCH  37  38
ATOM     38  C   UNL A   1      37.831  30.194  29.938  1.00  0.00     0.031 A 
ATOM     39  C   UNL A   1      38.126  30.664  31.333  1.00  0.00     0.074 A 
ATOM     40  C   UNL A   1      38.660  29.322  29.329  1.00  0.00     0.049 A 
ATOM     41  N   UNL A   1      39.125  30.347  32.115  1.00  0.00    -0.248 NA
ATOM     42  C   UNL A   1      37.188  31.635  31.920  1.00  0.00     0.031 C 
ATOM     43  C   UNL A   1      38.520  28.845  27.951  1.00  0.00     0.029 A 
ATOM     44  N   UNL A   1      39.808  28.713  29.775  1.00  0.00    -0.354 N 
ATOM     45  C   UNL A   1      38.954  31.095  33.273  1.00  0.00     0.074 A 
ATOM     46  C   UNL A   1      37.772  31.907  33.079  1.00  0.00     0.031 C 
ATOM     47  C   UNL A   1      39.545  28.029  27.661  1.00  0.00     0.029 A 
ATOM     48  C   UNL A   1      40.437  27.957  28.813  1.00  0.00     0.049 A 
ATOM     49  H   UNL A   1      40.147  28.808  30.694  1.00  0.00     0.167 HD
ATOM     50  C   UNL A   1      39.700  31.088  34.404  1.00  0.00     0.034 A 
ATOM     51  C   UNL A   1      41.615  27.302  28.842  1.00  0.00     0.034 A 
ATOM     52  C   UNL A   1      40.864  30.267  34.597  1.00  0.00     0.049 A 
ATOM     53  C   UNL A   1      42.428  27.316  30.107  1.00  0.00     0.074 A 
ATOM     54  C   UNL A   1      41.639  30.128  35.735  1.00  0.00     0.029 A 
ATOM     55  N   UNL A   1      41.436  29.461  33.625  1.00  0.00    -0.354 N 
ATOM     56  N   UNL A   1      42.164  27.902  31.250  1.00  0.00    -0.248 NA
ATOM     57  C   UNL A   1      43.689  26.559  30.097  1.00  0.00     0.031 C 
ATOM     58  C   UNL A   1      42.700  29.267  35.439  1.00  0.00     0.029 A 
ATOM     59  C   UNL A   1      42.569  28.842  34.127  1.00  0.00     0.049 A 
ATOM     60  H   UNL A   1      41.089  29.346  32.710  1.00  0.00     0.167 HD
ATOM     61  C   UNL A   1      43.211  27.568  32.101  1.00  0.00     0.074 A 
ATOM     62  C   UNL A   1      44.099  26.705  31.351  1.00  0.00     0.031 C 
ATOM     63  C   UNL A   1      43.426  27.956  33.382  1.00  0.00     0.034 A 
BRANCH  50  64
ATOM     64  C   UNL A   1      39.252  31.972  35.541  1.00  0.00     0.023 A 
ATOM     65  C   UNL A   1      38.283  31.498  36.449  1.00  0.00     0.012 A 
ATOM     66  C   UNL A   1      39.828  33.241  35.745  1.00  0.00     0.148 A 
ATOM     67  C   UNL A   1      37.866  32.288  37.519  1.00  0.00     0.002 A 
ATOM     68  C   UNL A   1      39.441  34.003  36.841  1.00  0.00     0.091 A 
ATOM     69  F   UNL A   1      40.735  33.682  34.862  1.00  0.00    -0.205 F 
ATOM     70  C   UNL A   1      38.452  33.534  37.722  1.00  0.00     0.022 A 
BRANCH  68  71
ATOM     71  S   UNL A   1      40.190  35.588  37.235  1.00  0.00     0.127 S 
ATOM     72  O   UNL A   1      41.614  35.283  37.097  1.00  0.00    -0.237 OA
ATOM     73  O   UNL A   1      39.648  36.452  36.185  1.00  0.00    -0.237 OA
ATOM     74  O   UNL A   1      39.749  35.917  38.582  1.00  0.00    -0.744 OA
ENDBRANCH  68  71
ENDBRANCH  50  64
BRANCH  51  75
ATOM     75  C   UNL A   1      42.080  26.559  27.637  1.00  0.00     0.023 A 
ATOM     76  C   UNL A   1      42.809  27.235  26.641  1.00  0.00     0.012 A 
ATOM     77  C   UNL A   1      41.834  25.179  27.492  1.00  0.00     0.148 A 
ATOM     78  C   UNL A   1      43.262  26.557  25.508  1.00  0.00     0.002 A 
ATOM     79  C   UNL A   1      42.339  24.497  26.392  1.00  0.00     0.091 A 
ATOM     80  F   UNL A   1      41.129  24.555  28.447  1.00  0.00    -0.205 F 
ATOM     81  C   UNL A   1      43.037  25.187  25.389  1.00  0.00     0.022 A 
BRANCH  79  82
ATOM     82  S   UNL A   1      42.217  22.712  26.225  1.00  0.00     0.127 S 
ATOM     83  O   UNL A   1      42.697  22.505  24.862  1.00  0.00    -0.237 OA
ATOM     84  O   UNL A   1      43.123  22.249  27.277  1.00  0.00    -0.237 OA
ATOM     85  O   UNL A   1      40.816  22.388  26.458  1.00  0.00    -0.744 OA
ENDBRANCH  79  82
ENDBRANCH  51  75
BRANCH  63  86
ATOM     86  C   UNL A   1      44.667  27.446  34.069  1.00  0.00     0.023 A 
ATOM     87  C   UNL A   1      45.865  28.184  33.984  1.00  0.00     0.012 A 
ATOM     88  C   UNL A   1      44.626  26.286  34.867  1.00  0.00     0.148 A 
ATOM     89  C   UNL A   1      47.008  27.762  34.661  1.00  0.00     0.002 A 
ATOM     90  C   UNL A   1      45.754  25.898  35.578  1.00  0.00     0.091 A 
ATOM     91  F   UNL A   1      43.479  25.592  34.923  1.00  0.00    -0.205 F 
ATOM     92  C   UNL A   1      46.949  26.628  35.467  1.00  0.00     0.022 A 
BRANCH  90  93
ATOM     93  S   UNL A   1      45.754  24.506  36.714  1.00  0.00     0.127 S 
ATOM     94  O   UNL A   1      45.542  23.381  35.806  1.00  0.00    -0.237 OA
ATOM     95  O   UNL A   1      47.096  24.581  37.291  1.00  0.00    -0.237 OA
ATOM     96  O   UNL A   1      44.672  24.753  37.657  1.00  0.00    -0.744 OA
ENDBRANCH  90  93
ENDBRANCH  63  86
ENDBRANCH  37  38
ENDBRANCH  29  32
ENDBRANCH  27  28
ENDBRANCH  26  27
ENDBRANCH  25  26
ENDBRANCH   1  25
TORSDOF 20
ENDMDL
MODEL 2
REMARK VINA RESULT:     -11.2      2.154      8.158
REMARK SMILES COc1ncccc1C[C@H](C(=O)NCCCCCCNC(=O)c1ccc(-c2c3nc(c(-c4cccc(S(=O)(=O)[O-])c4F)c4ccc([nH]4)c(-c4cccc(S(=O)(=O)[O-])c4F)c4nc(c(-c5cccc(S(=O)(=O)[O-])c5F)c5ccc2[nH]5)C=C4)C=C3)cc1)c1ccc(F)cc1
REMARK SMILES IDX 16 1 15 2 14 3 13 4 11 5 12 6 10 8 9 9 8 10 3 11 4 12 5 13
REMARK SMILES IDX 7 14 6 15 2 16 1 17 86 18 87 19 92 20 88 21 91 22 89 23
REMARK SMILES IDX 90 24 17 25 18 26 19 27 20 28 21 29 22 31 23 32 24 33 85 34
REMARK SMILES IDX 25 35 84 36 26 37 27 38 28 39 78 40 29 41 83 42 77 43 79 44
REMARK SMILES IDX 30 45 82 46 76 47 75 48 31 50 63 51 43 52 62 53 44 54 47 55
REMARK SMILES IDX 61 56 80 57 45 58 46 59 60 61 81 62 48 63 32 64 33 65 41 66
REMARK SMILES IDX 34 67 36 68 42 69 35 70 37 71 38 72 39 73 40 74 64 75 65 76
REMARK SMILES IDX 73 77 66 78 68 79 74 80 67 81 69 82 70 83 71 84 72 85 49 86
REMARK SMILES IDX 50 87 58 88 51 89 53 90 59 91 52 92 54 93 55 94 56 95 57 96
REMARK H PARENT 13 7 20 30 79 49 47 60
REMARK Flexibility Score: inf
ROOT
ATOM      1  C   UNL A   1      31.855  28.283  25.880  1.00  0.00     0.002 C 
ENDROOT
BRANCH   1   2
ATOM      2  C   UNL A   1      33.245  27.643  25.790  1.00  0.00     0.021 C 
BRANCH   2   3
ATOM      3  C   UNL A   1      33.243  26.113  25.752  1.00  0.00     0.116 C 
BRANCH   3   4
ATOM      4  N   UNL A   1      34.017  25.617  24.628  1.00  0.00    -0.356 N 
ATOM      5  C   UNL A   1      33.647  24.806  23.598  1.00  0.00     0.227 C 
ATOM      6  O   UNL A   1      34.541  24.438  22.830  1.00  0.00    -0.274 OA
ATOM      7  H   UNL A   1      34.955  25.915  24.607  1.00  0.00     0.163 HD
BRANCH   5   8
ATOM      8  C   UNL A   1      32.174  24.413  23.389  1.00  0.00     0.113 C 
BRANCH   8   9
ATOM      9  C   UNL A   1      31.778  23.415  24.521  1.00  0.00     0.059 C 
BRANCH   9  10
ATOM     10  C   UNL A   1      32.139  21.976  24.247  1.00  0.00     0.015 A 
ATOM     11  C   UNL A   1      32.513  21.087  25.258  1.00  0.00     0.216 A 
ATOM     12  N   UNL A   1      32.696  19.763  25.067  1.00  0.00    -0.222 NA
ATOM     13  C   UNL A   1      32.534  19.302  23.808  1.00  0.00     0.115 A 
ATOM     14  C   UNL A   1      32.051  21.466  22.945  1.00  0.00     0.011 A 
ATOM     15  C   UNL A   1      32.258  20.110  22.719  1.00  0.00     0.021 A 
BRANCH  11  16
ATOM     16  O   UNL A   1      32.976  21.567  26.457  1.00  0.00    -0.481 OA
ATOM     17  C   UNL A   1      34.384  21.750  26.448  1.00  0.00     0.280 C 
ENDBRANCH  11  16
ENDBRANCH   9  10
ENDBRANCH   8   9
BRANCH   8  18
ATOM     18  C   UNL A   1      31.217  25.604  23.274  1.00  0.00    -0.035 A 
ATOM     19  C   UNL A   1      29.995  25.660  23.964  1.00  0.00     0.007 A 
ATOM     20  C   UNL A   1      31.561  26.689  22.442  1.00  0.00     0.007 A 
ATOM     21  C   UNL A   1      29.155  26.772  23.841  1.00  0.00     0.039 A 
ATOM     22  C   UNL A   1      30.707  27.784  22.297  1.00  0.00     0.039 A 
ATOM     23  C   UNL A   1      29.514  27.818  23.002  1.00  0.00     0.123 A 
ATOM     24  F   UNL A   1      28.690  28.865  22.865  1.00  0.00    -0.207 F 
ENDBRANCH   8  18
ENDBRANCH   5   8
ENDBRANCH   3   4
ENDBRANCH   2   3
ENDBRANCH   1   2
BRANCH   1  25
ATOM     25  C   UNL A   1      31.813  29.775  25.546  1.00  0.00     0.002 C 
BRANCH  25  26
ATOM     26  C   UNL A   1      31.768  30.701  26.763  1.00  0.00     0.021 C 
BRANCH  26  27
ATOM     27  C   UNL A   1      33.024  31.545  26.963  1.00  0.00     0.116 C 
BRANCH  27  28
ATOM     28  N   UNL A   1      32.706  32.954  27.146  1.00  0.00    -0.352 N 
ATOM     29  C   UNL A   1      33.205  33.837  28.073  1.00  0.00     0.251 C 
ATOM     30  H   UNL A   1      32.043  33.325  26.519  1.00  0.00     0.163 HD
ATOM     31  O   UNL A   1      32.676  34.928  28.243  1.00  0.00    -0.269 OA
BRANCH  29  32
ATOM     32  C   UNL A   1      34.378  33.442  28.880  1.00  0.00     0.039 A 
ATOM     33  C   UNL A   1      34.212  32.520  29.915  1.00  0.00     0.014 A 
ATOM     34  C   UNL A   1      35.644  33.953  28.579  1.00  0.00     0.014 A 
ATOM     35  C   UNL A   1      35.335  32.046  30.599  1.00  0.00     0.010 A 
ATOM     36  C   UNL A   1      36.766  33.431  29.215  1.00  0.00     0.010 A 
ATOM     37  C   UNL A   1      36.623  32.463  30.222  1.00  0.00    -0.014 A 
BRANCH  37  38
ATOM     38  C   UNL A   1      37.838  31.854  30.819  1.00  0.00     0.031 A 
ATOM     39  C   UNL A   1      38.586  30.775  30.089  1.00  0.00     0.074 A 
ATOM     40  C   UNL A   1      38.200  32.199  32.070  1.00  0.00     0.049 A 
ATOM     41  N   UNL A   1      39.604  30.061  30.494  1.00  0.00    -0.248 NA
ATOM     42  C   UNL A   1      38.114  30.436  28.736  1.00  0.00     0.031 C 
ATOM     43  C   UNL A   1      37.509  33.182  32.908  1.00  0.00     0.029 A 
ATOM     44  N   UNL A   1      39.213  31.734  32.873  1.00  0.00    -0.354 N 
ATOM     45  C   UNL A   1      39.880  29.173  29.462  1.00  0.00     0.074 A 
ATOM     46  C   UNL A   1      38.901  29.416  28.424  1.00  0.00     0.031 C 
ATOM     47  C   UNL A   1      38.109  33.238  34.107  1.00  0.00     0.029 A 
ATOM     48  C   UNL A   1      39.199  32.269  34.141  1.00  0.00     0.049 A 
ATOM     49  H   UNL A   1      39.885  31.082  32.569  1.00  0.00     0.167 HD
ATOM     50  C   UNL A   1      40.873  28.256  29.376  1.00  0.00     0.034 A 
ATOM     51  C   UNL A   1      39.957  31.990  35.219  1.00  0.00     0.034 A 
ATOM     52  C   UNL A   1      41.854  28.031  30.404  1.00  0.00     0.049 A 
ATOM     53  C   UNL A   1      41.048  30.962  35.102  1.00  0.00     0.074 A 
ATOM     54  C   UNL A   1      42.947  27.182  30.377  1.00  0.00     0.029 A 
ATOM     55  N   UNL A   1      41.850  28.637  31.650  1.00  0.00    -0.354 N 
ATOM     56  N   UNL A   1      41.397  30.247  34.059  1.00  0.00    -0.248 NA
ATOM     57  C   UNL A   1      41.867  30.720  36.298  1.00  0.00     0.031 C 
ATOM     58  C   UNL A   1      43.582  27.250  31.622  1.00  0.00     0.029 A 
ATOM     59  C   UNL A   1      42.905  28.164  32.412  1.00  0.00     0.049 A 
ATOM     60  H   UNL A   1      41.192  29.307  31.950  1.00  0.00     0.167 HD
ATOM     61  C   UNL A   1      42.488  29.487  34.466  1.00  0.00     0.074 A 
ATOM     62  C   UNL A   1      42.760  29.850  35.841  1.00  0.00     0.031 C 
ATOM     63  C   UNL A   1      43.188  28.560  33.768  1.00  0.00     0.034 A 
BRANCH  50  64
ATOM     64  C   UNL A   1      40.973  27.452  28.104  1.00  0.00     0.023 A 
ATOM     65  C   UNL A   1      41.566  28.029  26.962  1.00  0.00     0.012 A 
ATOM     66  C   UNL A   1      40.538  26.113  28.054  1.00  0.00     0.148 A 
ATOM     67  C   UNL A   1      41.688  27.301  25.779  1.00  0.00     0.002 A 
ATOM     68  C   UNL A   1      40.706  25.379  26.886  1.00  0.00     0.091 A 
ATOM     69  F   UNL A   1      39.963  25.586  29.144  1.00  0.00    -0.205 F 
ATOM     70  C   UNL A   1      41.269  25.975  25.745  1.00  0.00     0.022 A 
BRANCH  68  71
ATOM     71  S   UNL A   1      40.271  23.641  26.761  1.00  0.00     0.127 S 
ATOM     72  O   UNL A   1      40.526  23.175  28.124  1.00  0.00    -0.237 OA
ATOM     73  O   UNL A   1      38.855  23.704  26.395  1.00  0.00    -0.237 OA
ATOM     74  O   UNL A   1      41.140  23.081  25.737  1.00  0.00    -0.744 OA
ENDBRANCH  68  71
ENDBRANCH  50  64
BRANCH  51  75
ATOM     75  C   UNL A   1      39.720  32.717  36.499  1.00  0.00     0.023 A 
ATOM     76  C   UNL A   1      40.444  33.892  36.776  1.00  0.00     0.012 A 
ATOM     77  C   UNL A   1      38.755  32.270  37.424  1.00  0.00     0.148 A 
ATOM     78  C   UNL A   1      40.233  34.593  37.964  1.00  0.00     0.002 A 
ATOM     79  C   UNL A   1      38.507  33.005  38.576  1.00  0.00     0.091 A 
ATOM     80  F   UNL A   1      38.083  31.143  37.146  1.00  0.00    -0.205 F 
ATOM     81  C   UNL A   1      39.258  34.157  38.858  1.00  0.00     0.022 A 
BRANCH  79  82
ATOM     82  S   UNL A   1      37.177  32.595  39.713  1.00  0.00     0.127 S 
ATOM     83  O   UNL A   1      36.006  32.670  38.845  1.00  0.00    -0.237 OA
ATOM     84  O   UNL A   1      37.548  31.244  40.135  1.00  0.00    -0.237 OA
ATOM     85  O   UNL A   1      37.242  33.592  40.773  1.00  0.00    -0.744 OA
ENDBRANCH  79  82
ENDBRANCH  51  75
BRANCH  63  86
ATOM     86  C   UNL A   1      44.330  27.870  34.471  1.00  0.00     0.023 A 
ATOM     87  C   UNL A   1      45.600  28.480  34.502  1.00  0.00     0.012 A 
ATOM     88  C   UNL A   1      44.124  26.665  35.171  1.00  0.00     0.148 A 
ATOM     89  C   UNL A   1      46.654  27.889  35.196  1.00  0.00     0.002 A 
ATOM     90  C   UNL A   1      45.165  26.107  35.901  1.00  0.00     0.091 A 
ATOM     91  F   UNL A   1      42.911  26.095  35.117  1.00  0.00    -0.205 F 
ATOM     92  C   UNL A   1      46.433  26.710  35.906  1.00  0.00     0.022 A 
BRANCH  90  93
ATOM     93  S   UNL A   1      44.958  24.642  36.921  1.00  0.00     0.127 S 
ATOM     94  O   UNL A   1      44.126  23.799  36.065  1.00  0.00    -0.237 OA
ATOM     95  O   UNL A   1      46.337  24.180  37.078  1.00  0.00    -0.237 OA
ATOM     96  O   UNL A   1      44.324  25.093  38.152  1.00  0.00    -0.744 OA
ENDBRANCH  90  93
ENDBRANCH  63  86
ENDBRANCH  37  38
ENDBRANCH  29  32
ENDBRANCH  27  28
ENDBRANCH  26  27
ENDBRANCH  25  26
ENDBRANCH   1  25
TORSDOF 20
ENDMDL
MODEL 3
REMARK VINA RESULT:     -11.0      5.405      8.068
REMARK SMILES COc1ncccc1C[C@H](C(=O)NCCCCCCNC(=O)c1ccc(-c2c3nc(c(-c4cccc(S(=O)(=O)[O-])c4F)c4ccc([nH]4)c(-c4cccc(S(=O)(=O)[O-])c4F)c4nc(c(-c5cccc(S(=O)(=O)[O-])c5F)c5ccc2[nH]5)C=C4)C=C3)cc1)c1ccc(F)cc1
REMARK SMILES IDX 16 1 15 2 14 3 13 4 11 5 12 6 10 8 9 9 8 10 3 11 4 12 5 13
REMARK SMILES IDX 7 14 6 15 2 16 1 17 86 18 87 19 92 20 88 21 91 22 89 23
REMARK SMILES IDX 90 24 17 25 18 26 19 27 20 28 21 29 22 31 23 32 24 33 85 34
REMARK SMILES IDX 25 35 84 36 26 37 27 38 28 39 78 40 29 41 83 42 77 43 79 44
REMARK SMILES IDX 30 45 82 46 76 47 75 48 31 50 63 51 43 52 62 53 44 54 47 55
REMARK SMILES IDX 61 56 80 57 45 58 46 59 60 61 81 62 48 63 32 64 33 65 41 66
REMARK SMILES IDX 34 67 36 68 42 69 35 70 37 71 38 72 39 73 40 74 64 75 65 76
REMARK SMILES IDX 73 77 66 78 68 79 74 80 67 81 69 82 70 83 71 84 72 85 49 86
REMARK SMILES IDX 50 87 58 88 51 89 53 90 59 91 52 92 54 93 55 94 56 95 57 96
REMARK H PARENT 13 7 20 30 79 49 47 60
REMARK Flexibility Score: inf
ROOT
ATOM      1  C   UNL A   1      34.386  23.900  22.617  1.00  0.00     0.002 C 
ENDROOT
BRANCH   1   2
ATOM      2  C   UNL A   1      33.099  24.722  22.754  1.00  0.00     0.021 C 
BRANCH   2   3
ATOM      3  C   UNL A   1      32.856  25.722  21.622  1.00  0.00     0.116 C 
BRANCH   3   4
ATOM      4  N   UNL A   1      33.447  27.012  21.930  1.00  0.00    -0.356 N 
ATOM      5  C   UNL A   1      33.035  27.982  22.794  1.00  0.00     0.227 C 
ATOM      6  O   UNL A   1      33.663  29.045  22.779  1.00  0.00    -0.274 OA
ATOM      7  H   UNL A   1      34.276  27.218  21.439  1.00  0.00     0.163 HD
BRANCH   5   8
ATOM      8  C   UNL A   1      31.869  27.733  23.767  1.00  0.00     0.113 C 
BRANCH   8   9
ATOM      9  C   UNL A   1      32.442  27.748  25.217  1.00  0.00     0.059 C 
BRANCH   9  10
ATOM     10  C   UNL A   1      32.592  26.387  25.851  1.00  0.00     0.015 A 
ATOM     11  C   UNL A   1      31.497  25.611  26.236  1.00  0.00     0.216 A 
ATOM     12  N   UNL A   1      31.592  24.334  26.666  1.00  0.00    -0.222 NA
ATOM     13  C   UNL A   1      32.836  23.812  26.751  1.00  0.00     0.115 A 
ATOM     14  C   UNL A   1      33.866  25.830  26.022  1.00  0.00     0.011 A 
ATOM     15  C   UNL A   1      33.992  24.525  26.486  1.00  0.00     0.021 A 
BRANCH  11  16
ATOM     16  O   UNL A   1      30.277  26.202  26.450  1.00  0.00    -0.481 OA
ATOM     17  C   UNL A   1      29.285  25.710  25.562  1.00  0.00     0.280 C 
ENDBRANCH  11  16
ENDBRANCH   9  10
ENDBRANCH   8   9
BRANCH   8  18
ATOM     18  C   UNL A   1      30.680  28.681  23.577  1.00  0.00    -0.035 A 
ATOM     19  C   UNL A   1      30.628  29.952  24.172  1.00  0.00     0.007 A 
ATOM     20  C   UNL A   1      29.590  28.273  22.782  1.00  0.00     0.007 A 
ATOM     21  C   UNL A   1      29.530  30.794  23.964  1.00  0.00     0.039 A 
ATOM     22  C   UNL A   1      28.481  29.103  22.601  1.00  0.00     0.039 A 
ATOM     23  C   UNL A   1      28.464  30.358  23.189  1.00  0.00     0.123 A 
ATOM     24  F   UNL A   1      27.402  31.157  23.019  1.00  0.00    -0.207 F 
ENDBRANCH   8  18
ENDBRANCH   5   8
ENDBRANCH   3   4
ENDBRANCH   2   3
ENDBRANCH   1   2
BRANCH   1  25
ATOM     25  C   UNL A   1      34.633  22.902  23.749  1.00  0.00     0.002 C 
BRANCH  25  26
ATOM     26  C   UNL A   1      36.056  22.344  23.810  1.00  0.00     0.021 C 
BRANCH  26  27
ATOM     27  C   UNL A   1      36.671  22.327  25.207  1.00  0.00     0.116 C 
BRANCH  27  28
ATOM     28  N   UNL A   1      37.583  21.206  25.384  1.00  0.00    -0.352 N 
ATOM     29  C   UNL A   1      38.870  21.209  25.865  1.00  0.00     0.251 C 
ATOM     30  H   UNL A   1      37.228  20.325  25.123  1.00  0.00     0.163 HD
ATOM     31  O   UNL A   1      39.583  20.222  25.744  1.00  0.00    -0.269 OA
BRANCH  29  32
ATOM     32  C   UNL A   1      39.389  22.432  26.513  1.00  0.00     0.039 A 
ATOM     33  C   UNL A   1      40.419  22.320  27.449  1.00  0.00     0.014 A 
ATOM     34  C   UNL A   1      38.883  23.686  26.158  1.00  0.00     0.014 A 
ATOM     35  C   UNL A   1      41.000  23.478  27.971  1.00  0.00     0.010 A 
ATOM     36  C   UNL A   1      39.508  24.837  26.628  1.00  0.00     0.010 A 
ATOM     37  C   UNL A   1      40.580  24.744  27.529  1.00  0.00    -0.014 A 
BRANCH  37  38
ATOM     38  C   UNL A   1      41.290  25.982  27.941  1.00  0.00     0.031 A 
ATOM     39  C   UNL A   1      40.549  27.087  28.638  1.00  0.00     0.074 A 
ATOM     40  C   UNL A   1      42.578  26.150  27.586  1.00  0.00     0.049 A 
ATOM     41  N   UNL A   1      40.977  28.274  28.982  1.00  0.00    -0.248 NA
ATOM     42  C   UNL A   1      39.138  26.837  28.971  1.00  0.00     0.031 C 
ATOM     43  C   UNL A   1      43.384  25.178  26.842  1.00  0.00     0.029 A 
ATOM     44  N   UNL A   1      43.427  27.215  27.763  1.00  0.00    -0.354 N 
ATOM     45  C   UNL A   1      39.886  28.922  29.547  1.00  0.00     0.074 A 
ATOM     46  C   UNL A   1      38.767  28.007  29.471  1.00  0.00     0.031 C 
ATOM     47  C   UNL A   1      44.602  25.694  26.618  1.00  0.00     0.029 A 
ATOM     48  C   UNL A   1      44.654  27.046  27.163  1.00  0.00     0.049 A 
ATOM     49  H   UNL A   1      43.182  28.021  28.272  1.00  0.00     0.167 HD
ATOM     50  C   UNL A   1      39.827  30.157  30.102  1.00  0.00     0.034 A 
ATOM     51  C   UNL A   1      45.694  27.894  27.036  1.00  0.00     0.034 A 
ATOM     52  C   UNL A   1      40.947  31.055  30.191  1.00  0.00     0.049 A 
ATOM     53  C   UNL A   1      45.602  29.262  27.654  1.00  0.00     0.074 A 
ATOM     54  C   UNL A   1      41.009  32.293  30.806  1.00  0.00     0.029 A 
ATOM     55  N   UNL A   1      42.194  30.825  29.630  1.00  0.00    -0.354 N 
ATOM     56  N   UNL A   1      44.613  29.796  28.329  1.00  0.00    -0.248 NA
ATOM     57  C   UNL A   1      46.776  30.136  27.516  1.00  0.00     0.031 C 
ATOM     58  C   UNL A   1      42.283  32.826  30.585  1.00  0.00     0.029 A 
ATOM     59  C   UNL A   1      43.026  31.908  29.862  1.00  0.00     0.049 A 
ATOM     60  H   UNL A   1      42.451  30.011  29.139  1.00  0.00     0.167 HD
ATOM     61  C   UNL A   1      45.052  31.058  28.715  1.00  0.00     0.074 A 
ATOM     62  C   UNL A   1      46.406  31.196  28.223  1.00  0.00     0.031 C 
ATOM     63  C   UNL A   1      44.386  32.020  29.399  1.00  0.00     0.034 A 
BRANCH  50  64
ATOM     64  C   UNL A   1      38.512  30.594  30.696  1.00  0.00     0.023 A 
ATOM     65  C   UNL A   1      38.250  30.350  32.060  1.00  0.00     0.012 A 
ATOM     66  C   UNL A   1      37.564  31.294  29.925  1.00  0.00     0.148 A 
ATOM     67  C   UNL A   1      37.050  30.761  32.638  1.00  0.00     0.002 A 
ATOM     68  C   UNL A   1      36.390  31.742  30.520  1.00  0.00     0.091 A 
ATOM     69  F   UNL A   1      37.822  31.502  28.626  1.00  0.00    -0.205 F 
ATOM     70  C   UNL A   1      36.126  31.465  31.872  1.00  0.00     0.022 A 
BRANCH  68  71
ATOM     71  S   UNL A   1      35.170  32.725  29.641  1.00  0.00     0.127 S 
ATOM     72  O   UNL A   1      34.574  31.728  28.752  1.00  0.00    -0.237 OA
ATOM     73  O   UNL A   1      34.297  33.173  30.727  1.00  0.00    -0.237 OA
ATOM     74  O   UNL A   1      35.911  33.788  28.979  1.00  0.00    -0.744 OA
ENDBRANCH  68  71
ENDBRANCH  50  64
BRANCH  51  75
ATOM     75  C   UNL A   1      46.922  27.458  26.312  1.00  0.00     0.023 A 
ATOM     76  C   UNL A   1      47.864  26.644  26.968  1.00  0.00     0.012 A 
ATOM     77  C   UNL A   1      47.140  27.816  24.966  1.00  0.00     0.148 A 
ATOM     78  C   UNL A   1      49.016  26.217  26.307  1.00  0.00     0.002 A 
ATOM     79  C   UNL A   1      48.259  27.339  24.296  1.00  0.00     0.091 A 
ATOM     80  F   UNL A   1      46.235  28.600  24.363  1.00  0.00    -0.205 F 
ATOM     81  C   UNL A   1      49.209  26.554  24.969  1.00  0.00     0.022 A 
BRANCH  79  82
ATOM     82  S   UNL A   1      48.516  27.607  22.538  1.00  0.00     0.127 S 
ATOM     83  O   UNL A   1      49.785  28.328  22.527  1.00  0.00    -0.237 OA
ATOM     84  O   UNL A   1      48.580  26.236  22.030  1.00  0.00    -0.237 OA
ATOM     85  O   UNL A   1      47.357  28.361  22.079  1.00  0.00    -0.744 OA
ENDBRANCH  79  82
ENDBRANCH  51  75
BRANCH  63  86
ATOM     86  C   UNL A   1      45.109  33.314  29.671  1.00  0.00     0.023 A 
ATOM     87  C   UNL A   1      45.904  33.439  30.828  1.00  0.00     0.012 A 
ATOM     88  C   UNL A   1      45.072  34.372  28.741  1.00  0.00     0.148 A 
ATOM     89  C   UNL A   1      46.629  34.605  31.069  1.00  0.00     0.002 A 
ATOM     90  C   UNL A   1      45.835  35.510  28.962  1.00  0.00     0.091 A 
ATOM     91  F   UNL A   1      44.299  34.237  27.653  1.00  0.00    -0.205 F 
ATOM     92  C   UNL A   1      46.605  35.634  30.130  1.00  0.00     0.022 A 
BRANCH  90  93
ATOM     93  S   UNL A   1      45.944  36.852  27.771  1.00  0.00     0.127 S 
ATOM     94  O   UNL A   1      44.558  37.313  27.716  1.00  0.00    -0.237 OA
ATOM     95  O   UNL A   1      46.869  37.774  28.431  1.00  0.00    -0.237 OA
ATOM     96  O   UNL A   1      46.449  36.260  26.540  1.00  0.00    -0.744 OA
ENDBRANCH  90  93
ENDBRANCH  63  86
ENDBRANCH  37  38
ENDBRANCH  29  32
ENDBRANCH  27  28
ENDBRANCH  26  27
ENDBRANCH  25  26
ENDBRANCH   1  25
TORSDOF 20
ENDMDL
