MODEL 1
REMARK VINA RESULT:     -11.8      0.000      0.000
REMARK SMILES O=C(NCCCCCCNC(=O)c1cc2n[nH]cc2cc1[N+](=O)[O-])c1ccc(-c2c3nc(c(-c4cccc(S(=O)(=O)[O-])c4F)c4ccc([nH]4)c(-c4cccc(S(=O)(=O)[O-])c4F)c4nc(c(-c5cccc(S(=O)(=O)[O-])c5F)c5ccc2[nH]5)C=C4)C=C3)cc1
REMARK SMILES IDX 5 1 4 2 3 3 1 4 2 5 25 7 26 8 87 9 27 10 86 11 28 12 29 13
REMARK SMILES IDX 30 14 80 15 31 16 85 17 79 18 81 19 32 20 84 21 78 22 77 23
REMARK SMILES IDX 33 25 65 26 45 27 64 28 46 29 49 30 63 31 82 32 47 33 48 34
REMARK SMILES IDX 62 36 83 37 50 38 34 39 35 40 43 41 36 42 38 43 44 44 37 45
REMARK SMILES IDX 39 46 40 47 41 48 42 49 66 50 67 51 75 52 68 53 70 54 76 55
REMARK SMILES IDX 69 56 71 57 72 58 73 59 74 60 51 61 52 62 60 63 53 64 55 65
REMARK SMILES IDX 61 66 54 67 56 68 57 69 58 70 59 71 6 72 7 73 8 74 9 75
REMARK SMILES IDX 10 76 11 77 12 79 13 80 14 81 21 82 15 83 20 84 16 85 19 86
REMARK SMILES IDX 17 87 18 88 22 90 23 91 24 92
REMARK H PARENT 3 6 81 24 49 35 10 78 17 89
REMARK Flexibility Score: inf
ROOT
ATOM      1  C   UNL A   1      31.667  28.444  25.459  1.00  0.00     0.021 C 
ENDROOT
BRANCH   1   2
ATOM      2  C   UNL A   1      32.783  29.473  25.574  1.00  0.00     0.116 C 
BRANCH   2   3
ATOM      3  N   UNL A   1      32.319  30.782  25.996  1.00  0.00    -0.352 N 
ATOM      4  O   UNL A   1      32.278  32.659  27.247  1.00  0.00    -0.269 OA
ATOM      5  C   UNL A   1      32.872  31.632  26.928  1.00  0.00     0.251 C 
ATOM      6  H   UNL A   1      31.498  31.106  25.558  1.00  0.00     0.163 HD
BRANCH   5   7
ATOM      7  C   UNL A   1      34.163  31.284  27.567  1.00  0.00     0.039 A 
ATOM      8  C   UNL A   1      34.429  29.974  27.972  1.00  0.00     0.014 A 
ATOM      9  C   UNL A   1      35.115  32.285  27.777  1.00  0.00     0.014 A 
ATOM     10  C   UNL A   1      35.569  29.700  28.718  1.00  0.00     0.010 A 
ATOM     11  C   UNL A   1      36.306  31.987  28.451  1.00  0.00     0.010 A 
ATOM     12  C   UNL A   1      36.528  30.698  28.959  1.00  0.00    -0.014 A 
BRANCH  12  13
ATOM     13  C   UNL A   1      37.778  30.335  29.678  1.00  0.00     0.031 A 
ATOM     14  C   UNL A   1      38.051  30.805  31.081  1.00  0.00     0.074 A 
ATOM     15  C   UNL A   1      38.661  29.530  29.054  1.00  0.00     0.049 A 
ATOM     16  N   UNL A   1      39.051  30.495  31.868  1.00  0.00    -0.248 NA
ATOM     17  C   UNL A   1      37.094  31.747  31.679  1.00  0.00     0.031 C 
ATOM     18  C   UNL A   1      38.536  29.063  27.671  1.00  0.00     0.029 A 
ATOM     19  N   UNL A   1      39.824  28.953  29.495  1.00  0.00    -0.354 N 
ATOM     20  C   UNL A   1      38.860  31.219  33.038  1.00  0.00     0.074 A 
ATOM     21  C   UNL A   1      37.655  31.999  32.855  1.00  0.00     0.031 C 
ATOM     22  C   UNL A   1      39.557  28.243  27.388  1.00  0.00     0.029 A 
ATOM     23  C   UNL A   1      40.431  28.155  28.552  1.00  0.00     0.049 A 
ATOM     24  H   UNL A   1      40.190  29.096  30.397  1.00  0.00     0.167 HD
ATOM     25  C   UNL A   1      39.607  31.216  34.169  1.00  0.00     0.034 A 
ATOM     26  C   UNL A   1      41.565  27.432  28.614  1.00  0.00     0.034 A 
ATOM     27  C   UNL A   1      40.789  30.414  34.360  1.00  0.00     0.049 A 
ATOM     28  C   UNL A   1      42.336  27.400  29.901  1.00  0.00     0.074 A 
ATOM     29  C   UNL A   1      41.593  30.317  35.483  1.00  0.00     0.029 A 
ATOM     30  N   UNL A   1      41.336  29.569  33.406  1.00  0.00    -0.354 N 
ATOM     31  N   UNL A   1      42.066  27.995  31.038  1.00  0.00    -0.248 NA
ATOM     32  C   UNL A   1      43.551  26.575  29.926  1.00  0.00     0.031 C 
ATOM     33  C   UNL A   1      42.626  29.415  35.207  1.00  0.00     0.029 A 
ATOM     34  C   UNL A   1      42.462  28.943  33.915  1.00  0.00     0.049 A 
ATOM     35  H   UNL A   1      40.977  29.434  32.499  1.00  0.00     0.167 HD
ATOM     36  C   UNL A   1      43.070  27.609  31.916  1.00  0.00     0.074 A 
ATOM     37  C   UNL A   1      43.930  26.694  31.191  1.00  0.00     0.031 C 
ATOM     38  C   UNL A   1      43.280  28.002  33.197  1.00  0.00     0.034 A 
BRANCH  25  39
ATOM     39  C   UNL A   1      39.137  32.061  35.327  1.00  0.00     0.023 A 
ATOM     40  C   UNL A   1      39.283  33.461  35.256  1.00  0.00     0.012 A 
ATOM     41  C   UNL A   1      38.481  31.490  36.434  1.00  0.00     0.148 A 
ATOM     42  C   UNL A   1      38.803  34.279  36.279  1.00  0.00     0.002 A 
ATOM     43  C   UNL A   1      37.974  32.314  37.435  1.00  0.00     0.091 A 
ATOM     44  F   UNL A   1      38.368  30.155  36.494  1.00  0.00    -0.205 F 
ATOM     45  C   UNL A   1      38.141  33.707  37.361  1.00  0.00     0.022 A 
BRANCH  43  46
ATOM     46  S   UNL A   1      37.040  31.681  38.833  1.00  0.00     0.127 S 
ATOM     47  O   UNL A   1      35.874  32.562  38.833  1.00  0.00    -0.237 OA
ATOM     48  O   UNL A   1      36.763  30.303  38.423  1.00  0.00    -0.237 OA
ATOM     49  O   UNL A   1      37.918  31.802  39.989  1.00  0.00    -0.744 OA
ENDBRANCH  43  46
ENDBRANCH  25  39
BRANCH  26  50
ATOM     50  C   UNL A   1      41.992  26.635  27.430  1.00  0.00     0.023 A 
ATOM     51  C   UNL A   1      42.752  27.246  26.416  1.00  0.00     0.012 A 
ATOM     52  C   UNL A   1      41.703  25.261  27.337  1.00  0.00     0.148 A 
ATOM     53  C   UNL A   1      43.199  26.508  25.320  1.00  0.00     0.002 A 
ATOM     54  C   UNL A   1      42.205  24.517  26.276  1.00  0.00     0.091 A 
ATOM     55  F   UNL A   1      40.957  24.697  28.298  1.00  0.00    -0.205 F 
ATOM     56  C   UNL A   1      42.939  25.140  25.257  1.00  0.00     0.022 A 
BRANCH  54  57
ATOM     57  S   UNL A   1      42.043  22.728  26.229  1.00  0.00     0.127 S 
ATOM     58  O   UNL A   1      42.702  22.399  24.969  1.00  0.00    -0.237 OA
ATOM     59  O   UNL A   1      42.771  22.317  27.430  1.00  0.00    -0.237 OA
ATOM     60  O   UNL A   1      40.608  22.480  26.293  1.00  0.00    -0.744 OA
ENDBRANCH  54  57
ENDBRANCH  26  50
BRANCH  38  61
ATOM     61  C   UNL A   1      44.491  27.441  33.893  1.00  0.00     0.023 A 
ATOM     62  C   UNL A   1      45.723  28.115  33.784  1.00  0.00     0.012 A 
ATOM     63  C   UNL A   1      44.404  26.281  34.686  1.00  0.00     0.148 A 
ATOM     64  C   UNL A   1      46.860  27.623  34.423  1.00  0.00     0.002 A 
ATOM     65  C   UNL A   1      45.533  25.819  35.353  1.00  0.00     0.091 A 
ATOM     66  F   UNL A   1      43.229  25.639  34.759  1.00  0.00    -0.205 F 
ATOM     67  C   UNL A   1      46.763  26.482  35.216  1.00  0.00     0.022 A 
BRANCH  65  68
ATOM     68  S   UNL A   1      45.471  24.402  36.456  1.00  0.00     0.127 S 
ATOM     69  O   UNL A   1      44.800  23.405  35.624  1.00  0.00    -0.237 OA
ATOM     70  O   UNL A   1      46.888  24.133  36.708  1.00  0.00    -0.237 OA
ATOM     71  O   UNL A   1      44.730  24.850  37.629  1.00  0.00    -0.744 OA
ENDBRANCH  65  68
ENDBRANCH  38  61
ENDBRANCH  12  13
ENDBRANCH   5   7
ENDBRANCH   2   3
ENDBRANCH   1   2
BRANCH   1  72
ATOM     72  C   UNL A   1      31.782  27.236  26.388  1.00  0.00     0.002 C 
BRANCH  72  73
ATOM     73  C   UNL A   1      31.649  25.860  25.728  1.00  0.00     0.002 C 
BRANCH  73  74
ATOM     74  C   UNL A   1      32.258  24.675  26.487  1.00  0.00     0.021 C 
BRANCH  74  75
ATOM     75  C   UNL A   1      31.643  23.309  26.193  1.00  0.00     0.116 C 
BRANCH  75  76
ATOM     76  N   UNL A   1      31.371  23.105  24.779  1.00  0.00    -0.352 N 
ATOM     77  C   UNL A   1      32.178  22.599  23.796  1.00  0.00     0.258 C 
ATOM     78  H   UNL A   1      30.470  23.371  24.485  1.00  0.00     0.163 HD
ATOM     79  O   UNL A   1      31.812  22.572  22.627  1.00  0.00    -0.269 OA
BRANCH  77  80
ATOM     80  C   UNL A   1      33.534  22.133  24.131  1.00  0.00     0.119 A 
ATOM     81  C   UNL A   1      34.546  23.123  24.063  1.00  0.00     0.052 A 
ATOM     82  C   UNL A   1      33.799  20.772  24.497  1.00  0.00     0.282 A 
ATOM     83  C   UNL A   1      35.814  22.655  24.435  1.00  0.00     0.093 A 
ATOM     84  C   UNL A   1      35.063  20.271  24.893  1.00  0.00     0.098 A 
ATOM     85  N   UNL A   1      36.988  23.303  24.502  1.00  0.00    -0.176 NA
ATOM     86  C   UNL A   1      36.012  21.281  24.833  1.00  0.00     0.026 A 
ATOM     87  N   UNL A   1      37.871  22.381  24.935  1.00  0.00    -0.285 N 
ATOM     88  C   UNL A   1      37.333  21.143  25.149  1.00  0.00     0.114 A 
ATOM     89  H   UNL A   1      38.822  22.584  25.086  1.00  0.00     0.189 HD
BRANCH  82  90
ATOM     90  N   UNL A   1      32.713  19.807  24.453  1.00  0.00     0.063 N 
ATOM     91  O   UNL A   1      32.166  19.538  25.531  1.00  0.00    -0.258 OA
ATOM     92  O   UNL A   1      32.441  19.302  23.359  1.00  0.00    -0.258 OA
ENDBRANCH  82  90
ENDBRANCH  77  80
ENDBRANCH  75  76
ENDBRANCH  74  75
ENDBRANCH  73  74
ENDBRANCH  72  73
ENDBRANCH   1  72
TORSDOF 17
ENDMDL
MODEL 2
REMARK VINA RESULT:     -11.8      5.350     10.551
REMARK SMILES O=C(NCCCCCCNC(=O)c1cc2n[nH]cc2cc1[N+](=O)[O-])c1ccc(-c2c3nc(c(-c4cccc(S(=O)(=O)[O-])c4F)c4ccc([nH]4)c(-c4cccc(S(=O)(=O)[O-])c4F)c4nc(c(-c5cccc(S(=O)(=O)[O-])c5F)c5ccc2[nH]5)C=C4)C=C3)cc1
REMARK SMILES IDX 5 1 4 2 3 3 1 4 2 5 25 7 26 8 87 9 27 10 86 11 28 12 29 13
REMARK SMILES IDX 30 14 80 15 31 16 85 17 79 18 81 19 32 20 84 21 78 22 77 23
REMARK SMILES IDX 33 25 65 26 45 27 64 28 46 29 49 30 63 31 82 32 47 33 48 34
REMARK SMILES IDX 62 36 83 37 50 38 34 39 35 40 43 41 36 42 38 43 44 44 37 45
REMARK SMILES IDX 39 46 40 47 41 48 42 49 66 50 67 51 75 52 68 53 70 54 76 55
REMARK SMILES IDX 69 56 71 57 72 58 73 59 74 60 51 61 52 62 60 63 53 64 55 65
REMARK SMILES IDX 61 66 54 67 56 68 57 69 58 70 59 71 6 72 7 73 8 74 9 75
REMARK SMILES IDX 10 76 11 77 12 79 13 80 14 81 21 82 15 83 20 84 16 85 19 86
REMARK SMILES IDX 17 87 18 88 22 90 23 91 24 92
REMARK H PARENT 3 6 81 24 49 35 10 78 17 89
REMARK Flexibility Score: inf
ROOT
ATOM      1  C   UNL A   1      36.216  22.422  24.196  1.00  0.00     0.021 C 
ENDROOT
BRANCH   1   2
ATOM      2  C   UNL A   1      36.793  22.257  25.595  1.00  0.00     0.116 C 
BRANCH   2   3
ATOM      3  N   UNL A   1      37.742  21.164  25.703  1.00  0.00    -0.352 N 
ATOM      4  O   UNL A   1      39.753  20.194  26.023  1.00  0.00    -0.269 OA
ATOM      5  C   UNL A   1      39.059  21.204  26.103  1.00  0.00     0.251 C 
ATOM      6  H   UNL A   1      37.399  20.275  25.456  1.00  0.00     0.163 HD
BRANCH   5   7
ATOM      7  C   UNL A   1      39.641  22.475  26.594  1.00  0.00     0.039 A 
ATOM      8  C   UNL A   1      39.278  23.695  26.019  1.00  0.00     0.014 A 
ATOM      9  C   UNL A   1      40.574  22.446  27.635  1.00  0.00     0.014 A 
ATOM     10  C   UNL A   1      39.956  24.856  26.375  1.00  0.00     0.010 A 
ATOM     11  C   UNL A   1      41.190  23.631  28.055  1.00  0.00     0.010 A 
ATOM     12  C   UNL A   1      40.913  24.842  27.404  1.00  0.00    -0.014 A 
BRANCH  12  13
ATOM     13  C   UNL A   1      41.541  26.125  27.817  1.00  0.00     0.031 A 
ATOM     14  C   UNL A   1      42.939  26.494  27.401  1.00  0.00     0.074 A 
ATOM     15  C   UNL A   1      40.809  26.985  28.553  1.00  0.00     0.049 A 
ATOM     16  N   UNL A   1      43.585  27.615  27.606  1.00  0.00    -0.248 NA
ATOM     17  C   UNL A   1      43.718  25.483  26.670  1.00  0.00     0.031 C 
ATOM     18  C   UNL A   1      39.467  26.711  29.072  1.00  0.00     0.029 A 
ATOM     19  N   UNL A   1      41.077  28.259  28.983  1.00  0.00    -0.354 N 
ATOM     20  C   UNL A   1      44.850  27.437  27.057  1.00  0.00     0.074 A 
ATOM     21  C   UNL A   1      44.888  26.093  26.522  1.00  0.00     0.031 C 
ATOM     22  C   UNL A   1      39.013  27.796  29.715  1.00  0.00     0.029 A 
ATOM     23  C   UNL A   1      40.043  28.827  29.692  1.00  0.00     0.049 A 
ATOM     24  H   UNL A   1      41.926  28.723  28.802  1.00  0.00     0.167 HD
ATOM     25  C   UNL A   1      45.876  28.320  26.986  1.00  0.00     0.034 A 
ATOM     26  C   UNL A   1      39.932  30.042  30.261  1.00  0.00     0.034 A 
ATOM     27  C   UNL A   1      45.823  29.668  27.492  1.00  0.00     0.049 A 
ATOM     28  C   UNL A   1      41.061  31.019  30.110  1.00  0.00     0.074 A 
ATOM     29  C   UNL A   1      46.799  30.648  27.435  1.00  0.00     0.029 A 
ATOM     30  N   UNL A   1      44.736  30.228  28.146  1.00  0.00    -0.354 N 
ATOM     31  N   UNL A   1      42.199  30.872  29.476  1.00  0.00    -0.248 NA
ATOM     32  C   UNL A   1      40.881  32.341  30.726  1.00  0.00     0.031 C 
ATOM     33  C   UNL A   1      46.302  31.800  28.055  1.00  0.00     0.029 A 
ATOM     34  C   UNL A   1      45.014  31.540  28.492  1.00  0.00     0.049 A 
ATOM     35  H   UNL A   1      43.890  29.761  28.336  1.00  0.00     0.167 HD
ATOM     36  C   UNL A   1      42.867  32.082  29.607  1.00  0.00     0.074 A 
ATOM     37  C   UNL A   1      41.986  32.967  30.344  1.00  0.00     0.031 C 
ATOM     38  C   UNL A   1      44.110  32.421  29.184  1.00  0.00     0.034 A 
BRANCH  25  39
ATOM     39  C   UNL A   1      47.133  27.884  26.276  1.00  0.00     0.023 A 
ATOM     40  C   UNL A   1      48.167  27.283  27.022  1.00  0.00     0.012 A 
ATOM     41  C   UNL A   1      47.260  27.986  24.877  1.00  0.00     0.148 A 
ATOM     42  C   UNL A   1      49.317  26.810  26.391  1.00  0.00     0.002 A 
ATOM     43  C   UNL A   1      48.395  27.480  24.250  1.00  0.00     0.091 A 
ATOM     44  F   UNL A   1      46.275  28.577  24.186  1.00  0.00    -0.205 F 
ATOM     45  C   UNL A   1      49.427  26.900  25.007  1.00  0.00     0.022 A 
BRANCH  43  46
ATOM     46  S   UNL A   1      48.599  27.481  22.465  1.00  0.00     0.127 S 
ATOM     47  O   UNL A   1      49.844  28.233  22.311  1.00  0.00    -0.237 OA
ATOM     48  O   UNL A   1      48.710  26.052  22.165  1.00  0.00    -0.237 OA
ATOM     49  O   UNL A   1      47.408  28.122  21.926  1.00  0.00    -0.744 OA
ENDBRANCH  43  46
ENDBRANCH  25  39
BRANCH  26  50
ATOM     50  C   UNL A   1      38.674  30.408  30.969  1.00  0.00     0.023 A 
ATOM     51  C   UNL A   1      38.548  30.146  32.346  1.00  0.00     0.012 A 
ATOM     52  C   UNL A   1      37.630  31.073  30.299  1.00  0.00     0.148 A 
ATOM     53  C   UNL A   1      37.396  30.520  33.038  1.00  0.00     0.002 A 
ATOM     54  C   UNL A   1      36.513  31.499  31.007  1.00  0.00     0.091 A 
ATOM     55  F   UNL A   1      37.754  31.294  28.982  1.00  0.00    -0.205 F 
ATOM     56  C   UNL A   1      36.385  31.210  32.373  1.00  0.00     0.022 A 
BRANCH  54  57
ATOM     57  S   UNL A   1      35.260  32.535  30.240  1.00  0.00     0.127 S 
ATOM     58  O   UNL A   1      34.804  31.691  29.140  1.00  0.00    -0.237 OA
ATOM     59  O   UNL A   1      34.293  32.710  31.324  1.00  0.00    -0.237 OA
ATOM     60  O   UNL A   1      35.961  33.758  29.869  1.00  0.00    -0.744 OA
ENDBRANCH  54  57
ENDBRANCH  26  50
BRANCH  38  61
ATOM     61  C   UNL A   1      44.588  33.809  29.512  1.00  0.00     0.023 A 
ATOM     62  C   UNL A   1      45.256  34.039  30.732  1.00  0.00     0.012 A 
ATOM     63  C   UNL A   1      44.419  34.872  28.605  1.00  0.00     0.148 A 
ATOM     64  C   UNL A   1      45.716  35.313  31.060  1.00  0.00     0.002 A 
ATOM     65  C   UNL A   1      44.916  36.131  28.922  1.00  0.00     0.091 A 
ATOM     66  F   UNL A   1      43.760  34.641  27.461  1.00  0.00    -0.205 F 
ATOM     67  C   UNL A   1      45.556  36.356  30.151  1.00  0.00     0.022 A 
BRANCH  65  68
ATOM     68  S   UNL A   1      44.819  37.508  27.771  1.00  0.00     0.127 S 
ATOM     69  O   UNL A   1      45.373  38.602  28.565  1.00  0.00    -0.237 OA
ATOM     70  O   UNL A   1      45.673  37.062  26.669  1.00  0.00    -0.237 OA
ATOM     71  O   UNL A   1      43.408  37.629  27.423  1.00  0.00    -0.744 OA
ENDBRANCH  65  68
ENDBRANCH  38  61
ENDBRANCH  12  13
ENDBRANCH   5   7
ENDBRANCH   2   3
ENDBRANCH   1   2
BRANCH   1  72
ATOM     72  C   UNL A   1      34.713  22.684  24.126  1.00  0.00     0.002 C 
BRANCH  72  73
ATOM     73  C   UNL A   1      34.168  23.142  22.770  1.00  0.00     0.002 C 
BRANCH  73  74
ATOM     74  C   UNL A   1      32.709  23.613  22.741  1.00  0.00     0.021 C 
BRANCH  74  75
ATOM     75  C   UNL A   1      32.479  25.085  23.079  1.00  0.00     0.116 C 
BRANCH  75  76
ATOM     76  N   UNL A   1      33.223  25.985  22.214  1.00  0.00    -0.352 N 
ATOM     77  C   UNL A   1      33.475  27.324  22.352  1.00  0.00     0.258 C 
ATOM     78  H   UNL A   1      33.605  25.569  21.408  1.00  0.00     0.163 HD
ATOM     79  O   UNL A   1      34.059  27.953  21.477  1.00  0.00    -0.269 OA
BRANCH  77  80
ATOM     80  C   UNL A   1      32.984  28.041  23.542  1.00  0.00     0.119 A 
ATOM     81  C   UNL A   1      33.853  28.018  24.660  1.00  0.00     0.052 A 
ATOM     82  C   UNL A   1      31.715  28.709  23.554  1.00  0.00     0.282 A 
ATOM     83  C   UNL A   1      33.375  28.751  25.756  1.00  0.00     0.093 A 
ATOM     84  C   UNL A   1      31.211  29.469  24.636  1.00  0.00     0.098 A 
ATOM     85  N   UNL A   1      33.928  28.959  26.962  1.00  0.00    -0.176 NA
ATOM     86  C   UNL A   1      32.107  29.436  25.696  1.00  0.00     0.026 A 
ATOM     87  N   UNL A   1      33.052  29.749  27.615  1.00  0.00    -0.285 N 
ATOM     88  C   UNL A   1      31.934  30.065  26.896  1.00  0.00     0.114 A 
ATOM     89  H   UNL A   1      33.206  30.070  28.533  1.00  0.00     0.189 HD
BRANCH  82  90
ATOM     90  N   UNL A   1      30.852  28.603  22.390  1.00  0.00     0.063 N 
ATOM     91  O   UNL A   1      30.528  29.665  21.841  1.00  0.00    -0.258 OA
ATOM     92  O   UNL A   1      30.478  27.474  22.056  1.00  0.00    -0.258 OA
ENDBRANCH  82  90
ENDBRANCH  77  80
ENDBRANCH  75  76
ENDBRANCH  74  75
ENDBRANCH  73  74
ENDBRANCH  72  73
ENDBRANCH   1  72
TORSDOF 17
ENDMDL
MODEL 3
REMARK VINA RESULT:     -11.8      1.331      1.558
REMARK SMILES O=C(NCCCCCCNC(=O)c1cc2n[nH]cc2cc1[N+](=O)[O-])c1ccc(-c2c3nc(c(-c4cccc(S(=O)(=O)[O-])c4F)c4ccc([nH]4)c(-c4cccc(S(=O)(=O)[O-])c4F)c4nc(c(-c5cccc(S(=O)(=O)[O-])c5F)c5ccc2[nH]5)C=C4)C=C3)cc1
REMARK SMILES IDX 5 1 4 2 3 3 1 4 2 5 25 7 26 8 87 9 27 10 86 11 28 12 29 13
REMARK SMILES IDX 30 14 80 15 31 16 85 17 79 18 81 19 32 20 84 21 78 22 77 23
REMARK SMILES IDX 33 25 65 26 45 27 64 28 46 29 49 30 63 31 82 32 47 33 48 34
REMARK SMILES IDX 62 36 83 37 50 38 34 39 35 40 43 41 36 42 38 43 44 44 37 45
REMARK SMILES IDX 39 46 40 47 41 48 42 49 66 50 67 51 75 52 68 53 70 54 76 55
REMARK SMILES IDX 69 56 71 57 72 58 73 59 74 60 51 61 52 62 60 63 53 64 55 65
REMARK SMILES IDX 61 66 54 67 56 68 57 69 58 70 59 71 6 72 7 73 8 74 9 75
REMARK SMILES IDX 10 76 11 77 12 79 13 80 14 81 21 82 15 83 20 84 16 85 19 86
REMARK SMILES IDX 17 87 18 88 22 90 23 91 24 92
REMARK H PARENT 3 6 81 24 49 35 10 78 17 89
REMARK Flexibility Score: inf
ROOT
ATOM      1  C   UNL A   1      31.952  28.207  25.763  1.00  0.00     0.021 C 
ENDROOT
BRANCH   1   2
ATOM      2  C   UNL A   1      32.896  29.370  25.491  1.00  0.00     0.116 C 
BRANCH   2   3
ATOM      3  N   UNL A   1      32.386  30.647  25.955  1.00  0.00    -0.352 N 
ATOM      4  O   UNL A   1      32.276  32.476  27.272  1.00  0.00    -0.269 OA
ATOM      5  C   UNL A   1      32.905  31.481  26.921  1.00  0.00     0.251 C 
ATOM      6  H   UNL A   1      31.559  30.959  25.523  1.00  0.00     0.163 HD
BRANCH   5   7
ATOM      7  C   UNL A   1      34.202  31.152  27.558  1.00  0.00     0.039 A 
ATOM      8  C   UNL A   1      34.458  29.863  28.031  1.00  0.00     0.014 A 
ATOM      9  C   UNL A   1      35.170  32.151  27.698  1.00  0.00     0.014 A 
ATOM     10  C   UNL A   1      35.607  29.616  28.774  1.00  0.00     0.010 A 
ATOM     11  C   UNL A   1      36.368  31.874  28.368  1.00  0.00     0.010 A 
ATOM     12  C   UNL A   1      36.582  30.613  28.944  1.00  0.00    -0.014 A 
BRANCH  12  13
ATOM     13  C   UNL A   1      37.839  30.273  29.662  1.00  0.00     0.031 A 
ATOM     14  C   UNL A   1      38.117  30.773  31.054  1.00  0.00     0.074 A 
ATOM     15  C   UNL A   1      38.725  29.464  29.048  1.00  0.00     0.049 A 
ATOM     16  N   UNL A   1      39.124  30.486  31.841  1.00  0.00    -0.248 NA
ATOM     17  C   UNL A   1      37.155  31.719  31.640  1.00  0.00     0.031 C 
ATOM     18  C   UNL A   1      38.596  28.970  27.675  1.00  0.00     0.029 A 
ATOM     19  N   UNL A   1      39.896  28.905  29.494  1.00  0.00    -0.354 N 
ATOM     20  C   UNL A   1      38.934  31.231  32.998  1.00  0.00     0.074 A 
ATOM     21  C   UNL A   1      37.721  31.998  32.807  1.00  0.00     0.031 C 
ATOM     22  C   UNL A   1      39.622  28.152  27.403  1.00  0.00     0.029 A 
ATOM     23  C   UNL A   1      40.504  28.094  28.563  1.00  0.00     0.049 A 
ATOM     24  H   UNL A   1      40.265  29.069  30.391  1.00  0.00     0.167 HD
ATOM     25  C   UNL A   1      39.688  31.257  34.125  1.00  0.00     0.034 A 
ATOM     26  C   UNL A   1      41.644  27.381  28.632  1.00  0.00     0.034 A 
ATOM     27  C   UNL A   1      40.877  30.468  34.324  1.00  0.00     0.049 A 
ATOM     28  C   UNL A   1      42.423  27.381  29.915  1.00  0.00     0.074 A 
ATOM     29  C   UNL A   1      41.688  30.399  35.444  1.00  0.00     0.029 A 
ATOM     30  N   UNL A   1      41.425  29.609  33.383  1.00  0.00    -0.354 N 
ATOM     31  N   UNL A   1      42.154  27.995  31.041  1.00  0.00    -0.248 NA
ATOM     32  C   UNL A   1      43.644  26.566  29.948  1.00  0.00     0.031 C 
ATOM     33  C   UNL A   1      42.727  29.500  35.179  1.00  0.00     0.029 A 
ATOM     34  C   UNL A   1      42.559  29.002  33.898  1.00  0.00     0.049 A 
ATOM     35  H   UNL A   1      41.062  29.453  32.481  1.00  0.00     0.167 HD
ATOM     36  C   UNL A   1      43.166  27.635  31.921  1.00  0.00     0.074 A 
ATOM     37  C   UNL A   1      44.029  26.712  31.209  1.00  0.00     0.031 C 
ATOM     38  C   UNL A   1      43.381  28.053  33.192  1.00  0.00     0.034 A 
BRANCH  25  39
ATOM     39  C   UNL A   1      39.217  32.120  35.268  1.00  0.00     0.023 A 
ATOM     40  C   UNL A   1      38.304  31.587  36.199  1.00  0.00     0.012 A 
ATOM     41  C   UNL A   1      39.735  33.414  35.473  1.00  0.00     0.148 A 
ATOM     42  C   UNL A   1      37.895  32.333  37.304  1.00  0.00     0.002 A 
ATOM     43  C   UNL A   1      39.350  34.140  36.596  1.00  0.00     0.091 A 
ATOM     44  F   UNL A   1      40.589  33.914  34.568  1.00  0.00    -0.205 F 
ATOM     45  C   UNL A   1      38.425  33.604  37.507  1.00  0.00     0.022 A 
BRANCH  43  46
ATOM     46  S   UNL A   1      40.031  35.757  36.987  1.00  0.00     0.127 S 
ATOM     47  O   UNL A   1      39.640  36.534  35.813  1.00  0.00    -0.237 OA
ATOM     48  O   UNL A   1      39.313  36.107  38.215  1.00  0.00    -0.237 OA
ATOM     49  O   UNL A   1      41.463  35.557  37.160  1.00  0.00    -0.744 OA
ENDBRANCH  43  46
ENDBRANCH  25  39
BRANCH  26  50
ATOM     50  C   UNL A   1      42.070  26.565  27.461  1.00  0.00     0.023 A 
ATOM     51  C   UNL A   1      42.855  27.152  26.452  1.00  0.00     0.012 A 
ATOM     52  C   UNL A   1      41.755  25.196  27.377  1.00  0.00     0.148 A 
ATOM     53  C   UNL A   1      43.302  26.394  25.368  1.00  0.00     0.002 A 
ATOM     54  C   UNL A   1      42.257  24.433  26.329  1.00  0.00     0.091 A 
ATOM     55  F   UNL A   1      40.987  24.656  28.334  1.00  0.00    -0.205 F 
ATOM     56  C   UNL A   1      43.016  25.032  25.315  1.00  0.00     0.022 A 
BRANCH  54  57
ATOM     57  S   UNL A   1      42.061  22.647  26.297  1.00  0.00     0.127 S 
ATOM     58  O   UNL A   1      40.608  22.502  26.324  1.00  0.00    -0.237 OA
ATOM     59  O   UNL A   1      42.692  22.286  25.027  1.00  0.00    -0.237 OA
ATOM     60  O   UNL A   1      42.780  22.170  27.471  1.00  0.00    -0.744 OA
ENDBRANCH  54  57
ENDBRANCH  26  50
BRANCH  38  61
ATOM     61  C   UNL A   1      44.600  27.517  33.892  1.00  0.00     0.023 A 
ATOM     62  C   UNL A   1      45.818  28.217  33.792  1.00  0.00     0.012 A 
ATOM     63  C   UNL A   1      44.534  26.351  34.680  1.00  0.00     0.148 A 
ATOM     64  C   UNL A   1      46.962  27.747  34.434  1.00  0.00     0.002 A 
ATOM     65  C   UNL A   1      45.670  25.911  35.351  1.00  0.00     0.091 A 
ATOM     66  F   UNL A   1      43.373  25.684  34.744  1.00  0.00    -0.205 F 
ATOM     67  C   UNL A   1      46.886  26.601  35.222  1.00  0.00     0.022 A 
BRANCH  65  68
ATOM     68  S   UNL A   1      45.634  24.488  36.447  1.00  0.00     0.127 S 
ATOM     69  O   UNL A   1      45.433  23.389  35.505  1.00  0.00    -0.237 OA
ATOM     70  O   UNL A   1      46.960  24.528  37.064  1.00  0.00    -0.237 OA
ATOM     71  O   UNL A   1      44.536  24.736  37.374  1.00  0.00    -0.744 OA
ENDBRANCH  65  68
ENDBRANCH  38  61
ENDBRANCH  12  13
ENDBRANCH   5   7
ENDBRANCH   2   3
ENDBRANCH   1   2
BRANCH   1  72
ATOM     72  C   UNL A   1      32.596  26.958  26.363  1.00  0.00     0.002 C 
BRANCH  72  73
ATOM     73  C   UNL A   1      31.763  25.673  26.305  1.00  0.00     0.002 C 
BRANCH  73  74
ATOM     74  C   UNL A   1      32.531  24.353  26.443  1.00  0.00     0.021 C 
BRANCH  74  75
ATOM     75  C   UNL A   1      31.714  23.082  26.220  1.00  0.00     0.116 C 
BRANCH  75  76
ATOM     76  N   UNL A   1      31.416  22.842  24.818  1.00  0.00    -0.352 N 
ATOM     77  C   UNL A   1      32.213  22.336  23.827  1.00  0.00     0.258 C 
ATOM     78  H   UNL A   1      30.502  23.080  24.539  1.00  0.00     0.163 HD
ATOM     79  O   UNL A   1      31.822  22.276  22.667  1.00  0.00    -0.269 OA
BRANCH  77  80
ATOM     80  C   UNL A   1      33.588  21.911  24.140  1.00  0.00     0.119 A 
ATOM     81  C   UNL A   1      34.571  22.927  24.040  1.00  0.00     0.052 A 
ATOM     82  C   UNL A   1      33.897  20.562  24.516  1.00  0.00     0.282 A 
ATOM     83  C   UNL A   1      35.858  22.497  24.392  1.00  0.00     0.093 A 
ATOM     84  C   UNL A   1      35.181  20.100  24.892  1.00  0.00     0.098 A 
ATOM     85  N   UNL A   1      37.015  23.178  24.428  1.00  0.00    -0.176 NA
ATOM     86  C   UNL A   1      36.101  21.135  24.802  1.00  0.00     0.026 A 
ATOM     87  N   UNL A   1      37.931  22.285  24.854  1.00  0.00    -0.285 N 
ATOM     88  C   UNL A   1      37.432  21.036  25.092  1.00  0.00     0.114 A 
ATOM     89  H   UNL A   1      38.880  22.516  24.982  1.00  0.00     0.189 HD
BRANCH  82  90
ATOM     90  N   UNL A   1      32.837  19.568  24.506  1.00  0.00     0.063 N 
ATOM     91  O   UNL A   1      32.183  19.443  25.550  1.00  0.00    -0.258 OA
ATOM     92  O   UNL A   1      32.691  18.899  23.477  1.00  0.00    -0.258 OA
ENDBRANCH  82  90
ENDBRANCH  77  80
ENDBRANCH  75  76
ENDBRANCH  74  75
ENDBRANCH  73  74
ENDBRANCH  72  73
ENDBRANCH   1  72
TORSDOF 17
ENDMDL
