MODEL 1
REMARK VINA RESULT:     -10.7      0.000      0.000
REMARK SMILES Cc1nsc(N(C)C(=O)[C@@H](C)CCC[C@H](C)[NH3+])c1C(=O)NCCCCCCNC(=O)c1ccc(-c2c3nc(c(-c4cccc(S(=O)(=O)[O-])c4F)c4ccc([nH]4)c(-c4cccc(S(=O)(=O)[O-])c4F)c4nc(c(-c5cccc(S(=O)(=O)[O-])c5F)c5ccc2[nH]5)C=C4)C=C3)cc1
REMARK SMILES IDX 22 1 21 2 19 3 20 4 18 6 1 7 2 8 3 9 4 10 5 11 6 12 7 13
REMARK SMILES IDX 8 14 9 15 10 16 11 17 12 18 13 19 14 20 15 21 16 22 17 23
REMARK SMILES IDX 23 27 24 28 25 29 26 30 27 31 28 32 29 33 30 35 31 36 32 37
REMARK SMILES IDX 93 38 33 39 92 40 34 41 35 42 36 43 86 44 37 45 91 46 85 47
REMARK SMILES IDX 87 48 38 49 90 50 84 51 83 52 39 54 71 55 51 56 70 57 52 58
REMARK SMILES IDX 55 59 69 60 88 61 53 62 54 63 68 65 89 66 56 67 40 68 41 69
REMARK SMILES IDX 49 70 42 71 44 72 50 73 43 74 45 75 46 76 47 77 48 78 72 79
REMARK SMILES IDX 73 80 81 81 74 82 76 83 82 84 75 85 77 86 78 87 79 88 80 89
REMARK SMILES IDX 57 90 58 91 66 92 59 93 61 94 67 95 60 96 62 97 63 98 64 99
REMARK SMILES IDX 65 100
REMARK H PARENT 21 5 17 24 17 25 17 26 28 34 87 53 55 64
REMARK Flexibility Score: inf
ROOT
ATOM      1  C   UNL A   1      35.506  24.065  24.576  1.00  0.00     0.116 C 
ENDROOT
BRANCH   1   2
ATOM      2  N   UNL A   1      34.973  25.129  25.395  1.00  0.00    -0.352 N 
ATOM      3  C   UNL A   1      33.685  25.622  25.459  1.00  0.00     0.256 C 
ATOM      4  O   UNL A   1      33.406  26.339  26.426  1.00  0.00    -0.269 OA
ATOM      5  H   UNL A   1      35.622  25.566  25.993  1.00  0.00     0.163 HD
BRANCH   3   6
ATOM      6  C   UNL A   1      32.673  25.303  24.446  1.00  0.00     0.097 A 
ATOM      7  C   UNL A   1      33.383  26.898  22.417  1.00  0.00     0.069 C 
ATOM      8  C   UNL A   1      32.575  25.837  23.084  1.00  0.00     0.066 A 
ATOM      9  N   UNL A   1      31.672  25.269  22.288  1.00  0.00    -0.195 NA
ATOM     10  S   UNL A   1      30.887  24.103  23.104  1.00  0.00    -0.017 S 
ATOM     11  C   UNL A   1      31.730  24.268  24.594  1.00  0.00     0.131 A 
BRANCH  11  12
ATOM     12  N   UNL A   1      31.360  23.363  25.634  1.00  0.00    -0.305 N 
ATOM     13  C   UNL A   1      30.669  23.840  26.837  1.00  0.00     0.154 C 
BRANCH  12  14
ATOM     14  C   UNL A   1      31.775  22.033  25.522  1.00  0.00     0.230 C 
ATOM     15  O   UNL A   1      30.977  21.090  25.454  1.00  0.00    -0.274 OA
BRANCH  14  16
ATOM     16  C   UNL A   1      33.276  21.682  25.388  1.00  0.00     0.076 C 
ATOM     17  C   UNL A   1      33.936  21.471  26.755  1.00  0.00     0.018 C 
BRANCH  16  18
ATOM     18  C   UNL A   1      33.674  20.585  24.380  1.00  0.00     0.013 C 
BRANCH  18  19
ATOM     19  C   UNL A   1      33.952  19.198  24.978  1.00  0.00     0.007 C 
BRANCH  19  20
ATOM     20  C   UNL A   1      33.138  18.036  24.399  1.00  0.00     0.064 C 
BRANCH  20  21
ATOM     21  C   UNL A   1      33.658  16.593  24.600  1.00  0.00     0.177 C 
ATOM     22  C   UNL A   1      32.718  15.569  25.226  1.00  0.00     0.075 C 
BRANCH  21  23
ATOM     23  N   UNL A   1      34.887  16.626  25.406  1.00  0.00    -0.355 N 
ATOM     24  H   UNL A   1      35.183  15.672  25.615  1.00  0.00     0.344 HD
ATOM     25  H   UNL A   1      34.708  17.125  26.279  1.00  0.00     0.344 HD
ATOM     26  H   UNL A   1      35.622  17.105  24.886  1.00  0.00     0.344 HD
ENDBRANCH  21  23
ENDBRANCH  20  21
ENDBRANCH  19  20
ENDBRANCH  18  19
ENDBRANCH  16  18
ENDBRANCH  14  16
ENDBRANCH  12  14
ENDBRANCH  11  12
ENDBRANCH   3   6
ENDBRANCH   1   2
BRANCH   1  27
ATOM     27  C   UNL A   1      36.949  23.640  24.823  1.00  0.00     0.021 C 
BRANCH  27  28
ATOM     28  C   UNL A   1      37.220  22.262  25.431  1.00  0.00     0.002 C 
BRANCH  28  29
ATOM     29  C   UNL A   1      37.148  21.010  24.543  1.00  0.00     0.002 C 
BRANCH  29  30
ATOM     30  C   UNL A   1      38.162  19.876  24.749  1.00  0.00     0.021 C 
BRANCH  30  31
ATOM     31  C   UNL A   1      39.099  20.029  25.934  1.00  0.00     0.116 C 
BRANCH  31  32
ATOM     32  N   UNL A   1      40.237  19.097  25.931  1.00  0.00    -0.352 N 
ATOM     33  C   UNL A   1      41.596  19.396  25.980  1.00  0.00     0.251 C 
ATOM     34  H   UNL A   1      40.010  18.140  25.889  1.00  0.00     0.163 HD
ATOM     35  O   UNL A   1      42.438  18.593  25.608  1.00  0.00    -0.269 OA
BRANCH  33  36
ATOM     36  C   UNL A   1      41.997  20.711  26.518  1.00  0.00     0.039 A 
ATOM     37  C   UNL A   1      42.591  21.721  25.756  1.00  0.00     0.014 A 
ATOM     38  C   UNL A   1      41.696  20.924  27.854  1.00  0.00     0.014 A 
ATOM     39  C   UNL A   1      42.810  22.960  26.360  1.00  0.00     0.010 A 
ATOM     40  C   UNL A   1      41.602  22.198  28.316  1.00  0.00     0.010 A 
ATOM     41  C   UNL A   1      42.301  23.184  27.648  1.00  0.00    -0.014 A 
BRANCH  41  42
ATOM     42  C   UNL A   1      42.423  24.448  28.354  1.00  0.00     0.031 A 
ATOM     43  C   UNL A   1      41.264  25.344  28.152  1.00  0.00     0.074 A 
ATOM     44  C   UNL A   1      43.360  24.644  29.314  1.00  0.00     0.049 A 
ATOM     45  N   UNL A   1      41.195  26.376  27.376  1.00  0.00    -0.248 NA
ATOM     46  C   UNL A   1      39.967  24.935  28.715  1.00  0.00     0.031 C 
ATOM     47  C   UNL A   1      44.296  23.649  29.874  1.00  0.00     0.029 A 
ATOM     48  N   UNL A   1      43.580  25.725  30.111  1.00  0.00    -0.354 N 
ATOM     49  C   UNL A   1      39.936  26.915  27.626  1.00  0.00     0.074 A 
ATOM     50  C   UNL A   1      39.151  25.854  28.193  1.00  0.00     0.031 C 
ATOM     51  C   UNL A   1      44.766  24.081  31.063  1.00  0.00     0.029 A 
ATOM     52  C   UNL A   1      44.344  25.453  31.243  1.00  0.00     0.049 A 
ATOM     53  H   UNL A   1      43.229  26.621  29.904  1.00  0.00     0.167 HD
ATOM     54  C   UNL A   1      39.775  28.265  27.717  1.00  0.00     0.034 A 
ATOM     55  C   UNL A   1      44.600  26.296  32.271  1.00  0.00     0.034 A 
ATOM     56  C   UNL A   1      40.981  28.944  27.313  1.00  0.00     0.049 A 
ATOM     57  C   UNL A   1      44.392  27.667  31.766  1.00  0.00     0.074 A 
ATOM     58  C   UNL A   1      41.644  29.216  26.138  1.00  0.00     0.029 A 
ATOM     59  N   UNL A   1      41.875  29.099  28.341  1.00  0.00    -0.354 N 
ATOM     60  N   UNL A   1      45.116  28.194  30.815  1.00  0.00    -0.248 NA
ATOM     61  C   UNL A   1      43.137  28.351  32.053  1.00  0.00     0.031 C 
ATOM     62  C   UNL A   1      43.017  29.386  26.492  1.00  0.00     0.029 A 
ATOM     63  C   UNL A   1      43.149  29.258  27.874  1.00  0.00     0.049 A 
ATOM     64  H   UNL A   1      41.629  29.094  29.295  1.00  0.00     0.167 HD
ATOM     65  C   UNL A   1      44.211  28.957  30.099  1.00  0.00     0.074 A 
ATOM     66  C   UNL A   1      43.087  29.173  31.001  1.00  0.00     0.031 C 
ATOM     67  C   UNL A   1      44.290  29.051  28.741  1.00  0.00     0.034 A 
BRANCH  54  68
ATOM     68  C   UNL A   1      38.785  28.990  28.610  1.00  0.00     0.023 A 
ATOM     69  C   UNL A   1      38.039  30.034  28.015  1.00  0.00     0.012 A 
ATOM     70  C   UNL A   1      38.751  28.911  30.021  1.00  0.00     0.148 A 
ATOM     71  C   UNL A   1      37.331  30.966  28.782  1.00  0.00     0.002 A 
ATOM     72  C   UNL A   1      37.983  29.791  30.775  1.00  0.00     0.091 A 
ATOM     73  F   UNL A   1      39.569  28.079  30.667  1.00  0.00    -0.205 F 
ATOM     74  C   UNL A   1      37.295  30.840  30.164  1.00  0.00     0.022 A 
BRANCH  72  75
ATOM     75  S   UNL A   1      37.874  29.650  32.565  1.00  0.00     0.127 S 
ATOM     76  O   UNL A   1      36.886  30.677  32.878  1.00  0.00    -0.237 OA
ATOM     77  O   UNL A   1      37.413  28.271  32.725  1.00  0.00    -0.237 OA
ATOM     78  O   UNL A   1      39.227  29.885  33.056  1.00  0.00    -0.744 OA
ENDBRANCH  72  75
ENDBRANCH  54  68
BRANCH  55  79
ATOM     79  C   UNL A   1      44.802  26.004  33.706  1.00  0.00     0.023 A 
ATOM     80  C   UNL A   1      46.103  25.960  34.242  1.00  0.00     0.012 A 
ATOM     81  C   UNL A   1      43.708  26.060  34.598  1.00  0.00     0.148 A 
ATOM     82  C   UNL A   1      46.312  26.015  35.625  1.00  0.00     0.002 A 
ATOM     83  C   UNL A   1      43.921  26.117  35.973  1.00  0.00     0.091 A 
ATOM     84  F   UNL A   1      42.471  26.144  34.090  1.00  0.00    -0.205 F 
ATOM     85  C   UNL A   1      45.224  26.108  36.490  1.00  0.00     0.022 A 
BRANCH  83  86
ATOM     86  S   UNL A   1      42.574  26.276  37.153  1.00  0.00     0.127 S 
ATOM     87  O   UNL A   1      41.834  25.034  36.930  1.00  0.00    -0.237 OA
ATOM     88  O   UNL A   1      43.292  26.340  38.423  1.00  0.00    -0.237 OA
ATOM     89  O   UNL A   1      41.853  27.486  36.774  1.00  0.00    -0.744 OA
ENDBRANCH  83  86
ENDBRANCH  55  79
BRANCH  67  90
ATOM     90  C   UNL A   1      45.614  28.767  28.095  1.00  0.00     0.023 A 
ATOM     91  C   UNL A   1      46.708  29.652  28.147  1.00  0.00     0.012 A 
ATOM     92  C   UNL A   1      45.781  27.504  27.506  1.00  0.00     0.148 A 
ATOM     93  C   UNL A   1      47.944  29.282  27.606  1.00  0.00     0.002 A 
ATOM     94  C   UNL A   1      47.020  27.124  27.011  1.00  0.00     0.091 A 
ATOM     95  F   UNL A   1      44.722  26.683  27.461  1.00  0.00    -0.205 F 
ATOM     96  C   UNL A   1      48.104  28.014  27.050  1.00  0.00     0.022 A 
BRANCH  94  97
ATOM     97  S   UNL A   1      47.305  25.467  26.391  1.00  0.00     0.127 S 
ATOM     98  O   UNL A   1      46.987  24.645  27.557  1.00  0.00    -0.237 OA
ATOM     99  O   UNL A   1      46.341  25.373  25.294  1.00  0.00    -0.237 OA
ATOM    100  O   UNL A   1      48.697  25.433  25.961  1.00  0.00    -0.744 OA
ENDBRANCH  94  97
ENDBRANCH  67  90
ENDBRANCH  41  42
ENDBRANCH  33  36
ENDBRANCH  31  32
ENDBRANCH  30  31
ENDBRANCH  29  30
ENDBRANCH  28  29
ENDBRANCH  27  28
ENDBRANCH   1  27
TORSDOF 24
ENDMDL
MODEL 2
REMARK VINA RESULT:     -10.4      1.819      2.161
REMARK SMILES Cc1nsc(N(C)C(=O)[C@@H](C)CCC[C@H](C)[NH3+])c1C(=O)NCCCCCCNC(=O)c1ccc(-c2c3nc(c(-c4cccc(S(=O)(=O)[O-])c4F)c4ccc([nH]4)c(-c4cccc(S(=O)(=O)[O-])c4F)c4nc(c(-c5cccc(S(=O)(=O)[O-])c5F)c5ccc2[nH]5)C=C4)C=C3)cc1
REMARK SMILES IDX 22 1 21 2 19 3 20 4 18 6 1 7 2 8 3 9 4 10 5 11 6 12 7 13
REMARK SMILES IDX 8 14 9 15 10 16 11 17 12 18 13 19 14 20 15 21 16 22 17 23
REMARK SMILES IDX 23 27 24 28 25 29 26 30 27 31 28 32 29 33 30 35 31 36 32 37
REMARK SMILES IDX 93 38 33 39 92 40 34 41 35 42 36 43 86 44 37 45 91 46 85 47
REMARK SMILES IDX 87 48 38 49 90 50 84 51 83 52 39 54 71 55 51 56 70 57 52 58
REMARK SMILES IDX 55 59 69 60 88 61 53 62 54 63 68 65 89 66 56 67 40 68 41 69
REMARK SMILES IDX 49 70 42 71 44 72 50 73 43 74 45 75 46 76 47 77 48 78 72 79
REMARK SMILES IDX 73 80 81 81 74 82 76 83 82 84 75 85 77 86 78 87 79 88 80 89
REMARK SMILES IDX 57 90 58 91 66 92 59 93 61 94 67 95 60 96 62 97 63 98 64 99
REMARK SMILES IDX 65 100
REMARK H PARENT 21 5 17 24 17 25 17 26 28 34 87 53 55 64
REMARK Flexibility Score: inf
ROOT
ATOM      1  C   UNL A   1      35.326  23.952  24.476  1.00  0.00     0.116 C 
ENDROOT
BRANCH   1   2
ATOM      2  N   UNL A   1      34.897  25.032  25.334  1.00  0.00    -0.352 N 
ATOM      3  C   UNL A   1      33.633  25.559  25.510  1.00  0.00     0.256 C 
ATOM      4  O   UNL A   1      33.461  26.286  26.495  1.00  0.00    -0.269 OA
ATOM      5  H   UNL A   1      35.608  25.453  25.869  1.00  0.00     0.163 HD
BRANCH   3   6
ATOM      6  C   UNL A   1      32.526  25.264  24.594  1.00  0.00     0.097 A 
ATOM      7  C   UNL A   1      32.918  27.054  22.642  1.00  0.00     0.069 C 
ATOM      8  C   UNL A   1      32.244  25.899  23.302  1.00  0.00     0.066 A 
ATOM      9  N   UNL A   1      31.283  25.345  22.567  1.00  0.00    -0.195 NA
ATOM     10  S   UNL A   1      30.655  24.075  23.363  1.00  0.00    -0.017 S 
ATOM     11  C   UNL A   1      31.657  24.168  24.757  1.00  0.00     0.131 A 
BRANCH  11  12
ATOM     12  N   UNL A   1      31.454  23.164  25.750  1.00  0.00    -0.305 N 
ATOM     13  C   UNL A   1      30.293  23.215  26.647  1.00  0.00     0.154 C 
BRANCH  12  14
ATOM     14  C   UNL A   1      32.450  22.197  25.916  1.00  0.00     0.230 C 
ATOM     15  O   UNL A   1      33.271  22.239  26.841  1.00  0.00    -0.274 OA
BRANCH  14  16
ATOM     16  C   UNL A   1      32.517  20.963  24.984  1.00  0.00     0.076 C 
ATOM     17  C   UNL A   1      32.945  21.345  23.563  1.00  0.00     0.018 C 
BRANCH  16  18
ATOM     18  C   UNL A   1      33.260  19.713  25.495  1.00  0.00     0.013 C 
BRANCH  18  19
ATOM     19  C   UNL A   1      32.608  18.364  25.156  1.00  0.00     0.007 C 
BRANCH  19  20
ATOM     20  C   UNL A   1      33.401  17.444  24.221  1.00  0.00     0.064 C 
BRANCH  20  21
ATOM     21  C   UNL A   1      33.742  16.014  24.701  1.00  0.00     0.177 C 
ATOM     22  C   UNL A   1      32.704  15.265  25.527  1.00  0.00     0.075 C 
BRANCH  21  23
ATOM     23  N   UNL A   1      34.994  16.044  25.472  1.00  0.00    -0.355 N 
ATOM     24  H   UNL A   1      34.940  15.366  26.233  1.00  0.00     0.344 HD
ATOM     25  H   UNL A   1      35.131  16.979  25.860  1.00  0.00     0.344 HD
ATOM     26  H   UNL A   1      35.776  15.811  24.861  1.00  0.00     0.344 HD
ENDBRANCH  21  23
ENDBRANCH  20  21
ENDBRANCH  19  20
ENDBRANCH  18  19
ENDBRANCH  16  18
ENDBRANCH  14  16
ENDBRANCH  12  14
ENDBRANCH  11  12
ENDBRANCH   3   6
ENDBRANCH   1   2
BRANCH   1  27
ATOM     27  C   UNL A   1      36.646  23.268  24.810  1.00  0.00     0.021 C 
BRANCH  27  28
ATOM     28  C   UNL A   1      36.617  21.911  25.518  1.00  0.00     0.002 C 
BRANCH  28  29
ATOM     29  C   UNL A   1      36.628  20.618  24.689  1.00  0.00     0.002 C 
BRANCH  29  30
ATOM     30  C   UNL A   1      37.780  19.618  24.859  1.00  0.00     0.021 C 
BRANCH  30  31
ATOM     31  C   UNL A   1      38.989  20.121  25.628  1.00  0.00     0.116 C 
BRANCH  31  32
ATOM     32  N   UNL A   1      40.082  19.145  25.745  1.00  0.00    -0.352 N 
ATOM     33  C   UNL A   1      41.443  19.391  25.911  1.00  0.00     0.251 C 
ATOM     34  H   UNL A   1      39.820  18.196  25.699  1.00  0.00     0.163 HD
ATOM     35  O   UNL A   1      42.280  18.547  25.630  1.00  0.00    -0.269 OA
BRANCH  33  36
ATOM     36  C   UNL A   1      41.849  20.699  26.460  1.00  0.00     0.039 A 
ATOM     37  C   UNL A   1      42.439  21.716  25.705  1.00  0.00     0.014 A 
ATOM     38  C   UNL A   1      41.554  20.900  27.799  1.00  0.00     0.014 A 
ATOM     39  C   UNL A   1      42.662  22.949  26.320  1.00  0.00     0.010 A 
ATOM     40  C   UNL A   1      41.464  22.169  28.274  1.00  0.00     0.010 A 
ATOM     41  C   UNL A   1      42.161  23.160  27.612  1.00  0.00    -0.014 A 
BRANCH  41  42
ATOM     42  C   UNL A   1      42.288  24.418  28.330  1.00  0.00     0.031 A 
ATOM     43  C   UNL A   1      41.145  25.331  28.116  1.00  0.00     0.074 A 
ATOM     44  C   UNL A   1      43.211  24.594  29.307  1.00  0.00     0.049 A 
ATOM     45  N   UNL A   1      41.103  26.369  27.347  1.00  0.00    -0.248 NA
ATOM     46  C   UNL A   1      39.833  24.935  28.654  1.00  0.00     0.031 C 
ATOM     47  C   UNL A   1      44.124  23.581  29.874  1.00  0.00     0.029 A 
ATOM     48  N   UNL A   1      43.433  25.666  30.116  1.00  0.00    -0.354 N 
ATOM     49  C   UNL A   1      39.848  26.924  27.581  1.00  0.00     0.074 A 
ATOM     50  C   UNL A   1      39.038  25.869  28.126  1.00  0.00     0.031 C 
ATOM     51  C   UNL A   1      44.580  23.998  31.075  1.00  0.00     0.029 A 
ATOM     52  C   UNL A   1      44.175  25.374  31.258  1.00  0.00     0.049 A 
ATOM     53  H   UNL A   1      43.098  26.568  29.910  1.00  0.00     0.167 HD
ATOM     54  C   UNL A   1      39.703  28.275  27.679  1.00  0.00     0.034 A 
ATOM     55  C   UNL A   1      44.424  26.205  32.297  1.00  0.00     0.034 A 
ATOM     56  C   UNL A   1      40.925  28.941  27.300  1.00  0.00     0.049 A 
ATOM     57  C   UNL A   1      44.243  27.584  31.799  1.00  0.00     0.074 A 
ATOM     58  C   UNL A   1      41.611  29.213  26.139  1.00  0.00     0.029 A 
ATOM     59  N   UNL A   1      41.803  29.075  28.345  1.00  0.00    -0.354 N 
ATOM     60  N   UNL A   1      44.990  28.107  30.864  1.00  0.00    -0.248 NA
ATOM     61  C   UNL A   1      42.993  28.283  32.071  1.00  0.00     0.031 C 
ATOM     62  C   UNL A   1      42.980  29.361  26.517  1.00  0.00     0.029 A 
ATOM     63  C   UNL A   1      43.087  29.221  27.900  1.00  0.00     0.049 A 
ATOM     64  H   UNL A   1      41.542  29.067  29.294  1.00  0.00     0.167 HD
ATOM     65  C   UNL A   1      44.108  28.888  30.140  1.00  0.00     0.074 A 
ATOM     66  C   UNL A   1      42.972  29.113  31.024  1.00  0.00     0.031 C 
ATOM     67  C   UNL A   1      44.211  28.991  28.784  1.00  0.00     0.034 A 
BRANCH  54  68
ATOM     68  C   UNL A   1      38.709  29.006  28.561  1.00  0.00     0.023 A 
ATOM     69  C   UNL A   1      38.658  28.617  29.920  1.00  0.00     0.012 A 
ATOM     70  C   UNL A   1      37.651  29.819  28.095  1.00  0.00     0.148 A 
ATOM     71  C   UNL A   1      37.596  28.985  30.755  1.00  0.00     0.002 A 
ATOM     72  C   UNL A   1      36.639  30.248  28.948  1.00  0.00     0.091 A 
ATOM     73  F   UNL A   1      37.524  30.075  26.792  1.00  0.00    -0.205 F 
ATOM     74  C   UNL A   1      36.589  29.809  30.271  1.00  0.00     0.022 A 
BRANCH  72  75
ATOM     75  S   UNL A   1      35.331  31.345  28.381  1.00  0.00     0.127 S 
ATOM     76  O   UNL A   1      34.427  30.406  27.725  1.00  0.00    -0.237 OA
ATOM     77  O   UNL A   1      34.844  31.901  29.643  1.00  0.00    -0.237 OA
ATOM     78  O   UNL A   1      35.988  32.318  27.516  1.00  0.00    -0.744 OA
ENDBRANCH  72  75
ENDBRANCH  54  68
BRANCH  55  79
ATOM     79  C   UNL A   1      44.598  25.900  33.732  1.00  0.00     0.023 A 
ATOM     80  C   UNL A   1      43.473  25.759  34.567  1.00  0.00     0.012 A 
ATOM     81  C   UNL A   1      45.852  25.462  34.214  1.00  0.00     0.148 A 
ATOM     82  C   UNL A   1      43.584  25.159  35.827  1.00  0.00     0.002 A 
ATOM     83  C   UNL A   1      45.957  24.863  35.466  1.00  0.00     0.091 A 
ATOM     84  F   UNL A   1      46.916  25.557  33.406  1.00  0.00    -0.205 F 
ATOM     85  C   UNL A   1      44.821  24.697  36.270  1.00  0.00     0.022 A 
BRANCH  83  86
ATOM     86  S   UNL A   1      47.508  24.208  36.096  1.00  0.00     0.127 S 
ATOM     87  O   UNL A   1      48.326  25.417  36.188  1.00  0.00    -0.237 OA
ATOM     88  O   UNL A   1      47.098  23.648  37.381  1.00  0.00    -0.237 OA
ATOM     89  O   UNL A   1      47.965  23.242  35.104  1.00  0.00    -0.744 OA
ENDBRANCH  83  86
ENDBRANCH  55  79
BRANCH  67  90
ATOM     90  C   UNL A   1      45.541  28.694  28.158  1.00  0.00     0.023 A 
ATOM     91  C   UNL A   1      46.645  29.566  28.232  1.00  0.00     0.012 A 
ATOM     92  C   UNL A   1      45.702  27.433  27.565  1.00  0.00     0.148 A 
ATOM     93  C   UNL A   1      47.886  29.183  27.710  1.00  0.00     0.002 A 
ATOM     94  C   UNL A   1      46.944  27.040  27.087  1.00  0.00     0.091 A 
ATOM     95  F   UNL A   1      44.633  26.626  27.498  1.00  0.00    -0.205 F 
ATOM     96  C   UNL A   1      48.038  27.916  27.149  1.00  0.00     0.022 A 
BRANCH  94  97
ATOM     97  S   UNL A   1      47.218  25.382  26.462  1.00  0.00     0.127 S 
ATOM     98  O   UNL A   1      48.672  25.261  26.546  1.00  0.00    -0.237 OA
ATOM     99  O   UNL A   1      46.477  24.560  27.420  1.00  0.00    -0.237 OA
ATOM    100  O   UNL A   1      46.664  25.366  25.114  1.00  0.00    -0.744 OA
ENDBRANCH  94  97
ENDBRANCH  67  90
ENDBRANCH  41  42
ENDBRANCH  33  36
ENDBRANCH  31  32
ENDBRANCH  30  31
ENDBRANCH  29  30
ENDBRANCH  28  29
ENDBRANCH  27  28
ENDBRANCH   1  27
TORSDOF 24
ENDMDL
MODEL 3
REMARK VINA RESULT:      -9.7      3.715      8.152
REMARK SMILES Cc1nsc(N(C)C(=O)[C@@H](C)CCC[C@H](C)[NH3+])c1C(=O)NCCCCCCNC(=O)c1ccc(-c2c3nc(c(-c4cccc(S(=O)(=O)[O-])c4F)c4ccc([nH]4)c(-c4cccc(S(=O)(=O)[O-])c4F)c4nc(c(-c5cccc(S(=O)(=O)[O-])c5F)c5ccc2[nH]5)C=C4)C=C3)cc1
REMARK SMILES IDX 22 1 21 2 19 3 20 4 18 6 1 7 2 8 3 9 4 10 5 11 6 12 7 13
REMARK SMILES IDX 8 14 9 15 10 16 11 17 12 18 13 19 14 20 15 21 16 22 17 23
REMARK SMILES IDX 23 27 24 28 25 29 26 30 27 31 28 32 29 33 30 35 31 36 32 37
REMARK SMILES IDX 93 38 33 39 92 40 34 41 35 42 36 43 86 44 37 45 91 46 85 47
REMARK SMILES IDX 87 48 38 49 90 50 84 51 83 52 39 54 71 55 51 56 70 57 52 58
REMARK SMILES IDX 55 59 69 60 88 61 53 62 54 63 68 65 89 66 56 67 40 68 41 69
REMARK SMILES IDX 49 70 42 71 44 72 50 73 43 74 45 75 46 76 47 77 48 78 72 79
REMARK SMILES IDX 73 80 81 81 74 82 76 83 82 84 75 85 77 86 78 87 79 88 80 89
REMARK SMILES IDX 57 90 58 91 66 92 59 93 61 94 67 95 60 96 62 97 63 98 64 99
REMARK SMILES IDX 65 100
REMARK H PARENT 21 5 17 24 17 25 17 26 28 34 87 53 55 64
REMARK Flexibility Score: inf
ROOT
ATOM      1  C   UNL A   1      35.355  23.091  25.865  1.00  0.00     0.116 C 
ENDROOT
BRANCH   1   2
ATOM      2  N   UNL A   1      34.262  23.224  26.800  1.00  0.00    -0.352 N 
ATOM      3  C   UNL A   1      32.901  23.200  26.565  1.00  0.00     0.256 C 
ATOM      4  O   UNL A   1      32.165  23.053  27.547  1.00  0.00    -0.269 OA
ATOM      5  H   UNL A   1      34.525  23.351  27.740  1.00  0.00     0.163 HD
BRANCH   3   6
ATOM      6  C   UNL A   1      32.337  23.318  25.216  1.00  0.00     0.097 A 
ATOM      7  C   UNL A   1      32.419  20.788  24.347  1.00  0.00     0.069 C 
ATOM      8  C   UNL A   1      32.083  22.238  24.258  1.00  0.00     0.066 A 
ATOM      9  N   UNL A   1      31.403  22.566  23.162  1.00  0.00    -0.195 NA
ATOM     10  S   UNL A   1      31.054  24.153  23.195  1.00  0.00    -0.017 S 
ATOM     11  C   UNL A   1      31.780  24.509  24.713  1.00  0.00     0.131 A 
BRANCH  11  12
ATOM     12  N   UNL A   1      31.668  25.858  25.166  1.00  0.00    -0.305 N 
ATOM     13  C   UNL A   1      30.600  26.254  26.092  1.00  0.00     0.154 C 
BRANCH  12  14
ATOM     14  C   UNL A   1      32.533  26.807  24.616  1.00  0.00     0.230 C 
ATOM     15  O   UNL A   1      33.761  26.663  24.607  1.00  0.00    -0.274 OA
BRANCH  14  16
ATOM     16  C   UNL A   1      31.977  28.063  23.902  1.00  0.00     0.076 C 
ATOM     17  C   UNL A   1      33.099  28.956  23.362  1.00  0.00     0.018 C 
BRANCH  16  18
ATOM     18  C   UNL A   1      30.849  27.866  22.869  1.00  0.00     0.013 C 
BRANCH  18  19
ATOM     19  C   UNL A   1      29.615  28.762  23.051  1.00  0.00     0.007 C 
BRANCH  19  20
ATOM     20  C   UNL A   1      29.414  29.859  21.999  1.00  0.00     0.064 C 
BRANCH  20  21
ATOM     21  C   UNL A   1      28.204  30.812  22.141  1.00  0.00     0.177 C 
ATOM     22  C   UNL A   1      28.408  32.288  21.824  1.00  0.00     0.075 C 
BRANCH  21  23
ATOM     23  N   UNL A   1      27.666  30.715  23.506  1.00  0.00    -0.355 N 
ATOM     24  H   UNL A   1      27.171  29.830  23.614  1.00  0.00     0.344 HD
ATOM     25  H   UNL A   1      27.020  31.488  23.672  1.00  0.00     0.344 HD
ATOM     26  H   UNL A   1      28.432  30.762  24.178  1.00  0.00     0.344 HD
ENDBRANCH  21  23
ENDBRANCH  20  21
ENDBRANCH  19  20
ENDBRANCH  18  19
ENDBRANCH  16  18
ENDBRANCH  14  16
ENDBRANCH  12  14
ENDBRANCH  11  12
ENDBRANCH   3   6
ENDBRANCH   1   2
BRANCH   1  27
ATOM     27  C   UNL A   1      35.780  21.682  25.472  1.00  0.00     0.021 C 
BRANCH  27  28
ATOM     28  C   UNL A   1      37.086  21.494  24.697  1.00  0.00     0.002 C 
BRANCH  28  29
ATOM     29  C   UNL A   1      38.400  21.264  25.459  1.00  0.00     0.002 C 
BRANCH  29  30
ATOM     30  C   UNL A   1      38.997  22.399  26.301  1.00  0.00     0.021 C 
BRANCH  30  31
ATOM     31  C   UNL A   1      40.216  22.041  27.132  1.00  0.00     0.116 C 
BRANCH  31  32
ATOM     32  N   UNL A   1      41.456  21.893  26.357  1.00  0.00    -0.352 N 
ATOM     33  C   UNL A   1      42.243  22.892  25.789  1.00  0.00     0.251 C 
ATOM     34  H   UNL A   1      41.772  20.970  26.221  1.00  0.00     0.163 HD
ATOM     35  O   UNL A   1      43.021  22.649  24.880  1.00  0.00    -0.269 OA
BRANCH  33  36
ATOM     36  C   UNL A   1      42.126  24.259  26.335  1.00  0.00     0.039 A 
ATOM     37  C   UNL A   1      41.268  25.236  25.823  1.00  0.00     0.014 A 
ATOM     38  C   UNL A   1      42.897  24.520  27.456  1.00  0.00     0.014 A 
ATOM     39  C   UNL A   1      41.166  26.448  26.507  1.00  0.00     0.010 A 
ATOM     40  C   UNL A   1      42.545  25.541  28.279  1.00  0.00     0.010 A 
ATOM     41  C   UNL A   1      41.813  26.582  27.744  1.00  0.00    -0.014 A 
BRANCH  41  42
ATOM     42  C   UNL A   1      41.735  27.777  28.568  1.00  0.00     0.031 A 
ATOM     43  C   UNL A   1      42.744  28.798  28.211  1.00  0.00     0.074 A 
ATOM     44  C   UNL A   1      40.671  28.027  29.368  1.00  0.00     0.049 A 
ATOM     45  N   UNL A   1      43.844  29.067  28.834  1.00  0.00    -0.248 NA
ATOM     46  C   UNL A   1      42.624  29.460  26.902  1.00  0.00     0.031 C 
ATOM     47  C   UNL A   1      39.417  27.251  29.466  1.00  0.00     0.029 A 
ATOM     48  N   UNL A   1      40.402  29.106  30.152  1.00  0.00    -0.354 N 
ATOM     49  C   UNL A   1      44.371  30.161  28.153  1.00  0.00     0.074 A 
ATOM     50  C   UNL A   1      43.766  30.151  26.850  1.00  0.00     0.031 C 
ATOM     51  C   UNL A   1      38.452  28.010  30.027  1.00  0.00     0.029 A 
ATOM     52  C   UNL A   1      39.063  29.225  30.520  1.00  0.00     0.049 A 
ATOM     53  H   UNL A   1      41.094  29.747  30.434  1.00  0.00     0.167 HD
ATOM     54  C   UNL A   1      44.942  31.187  28.844  1.00  0.00     0.034 A 
ATOM     55  C   UNL A   1      38.491  30.264  31.172  1.00  0.00     0.034 A 
ATOM     56  C   UNL A   1      45.085  30.840  30.235  1.00  0.00     0.049 A 
ATOM     57  C   UNL A   1      39.573  30.981  31.876  1.00  0.00     0.074 A 
ATOM     58  C   UNL A   1      45.893  30.028  30.998  1.00  0.00     0.029 A 
ATOM     59  N   UNL A   1      43.963  31.122  30.972  1.00  0.00    -0.354 N 
ATOM     60  N   UNL A   1      40.285  30.439  32.827  1.00  0.00    -0.248 NA
ATOM     61  C   UNL A   1      40.130  32.190  31.284  1.00  0.00     0.031 C 
ATOM     62  C   UNL A   1      45.135  29.703  32.164  1.00  0.00     0.029 A 
ATOM     63  C   UNL A   1      43.907  30.360  32.105  1.00  0.00     0.049 A 
ATOM     64  H   UNL A   1      43.284  31.788  30.717  1.00  0.00     0.167 HD
ATOM     65  C   UNL A   1      41.552  30.955  32.623  1.00  0.00     0.074 A 
ATOM     66  C   UNL A   1      41.357  32.149  31.810  1.00  0.00     0.031 C 
ATOM     67  C   UNL A   1      42.663  30.191  32.826  1.00  0.00     0.034 A 
BRANCH  54  68
ATOM     68  C   UNL A   1      44.921  32.652  28.448  1.00  0.00     0.023 A 
ATOM     69  C   UNL A   1      43.694  33.336  28.610  1.00  0.00     0.012 A 
ATOM     70  C   UNL A   1      45.912  33.302  27.679  1.00  0.00     0.148 A 
ATOM     71  C   UNL A   1      43.456  34.579  28.010  1.00  0.00     0.002 A 
ATOM     72  C   UNL A   1      45.700  34.571  27.150  1.00  0.00     0.091 A 
ATOM     73  F   UNL A   1      47.021  32.651  27.323  1.00  0.00    -0.205 F 
ATOM     74  C   UNL A   1      44.463  35.202  27.286  1.00  0.00     0.022 A 
BRANCH  72  75
ATOM     75  S   UNL A   1      46.983  35.437  26.235  1.00  0.00     0.127 S 
ATOM     76  O   UNL A   1      47.040  34.657  25.003  1.00  0.00    -0.237 OA
ATOM     77  O   UNL A   1      46.402  36.772  26.101  1.00  0.00    -0.237 OA
ATOM     78  O   UNL A   1      48.167  35.386  27.085  1.00  0.00    -0.744 OA
ENDBRANCH  72  75
ENDBRANCH  54  68
BRANCH  55  79
ATOM     79  C   UNL A   1      37.121  30.809  31.065  1.00  0.00     0.023 A 
ATOM     80  C   UNL A   1      36.431  31.220  32.222  1.00  0.00     0.012 A 
ATOM     81  C   UNL A   1      36.612  31.196  29.806  1.00  0.00     0.148 A 
ATOM     82  C   UNL A   1      35.292  32.028  32.130  1.00  0.00     0.002 A 
ATOM     83  C   UNL A   1      35.480  32.002  29.719  1.00  0.00     0.091 A 
ATOM     84  F   UNL A   1      37.289  30.841  28.705  1.00  0.00    -0.205 F 
ATOM     85  C   UNL A   1      34.825  32.431  30.881  1.00  0.00     0.022 A 
BRANCH  83  86
ATOM     86  S   UNL A   1      34.835  32.595  28.150  1.00  0.00     0.127 S 
ATOM     87  O   UNL A   1      35.976  33.345  27.623  1.00  0.00    -0.237 OA
ATOM     88  O   UNL A   1      34.549  31.346  27.449  1.00  0.00    -0.237 OA
ATOM     89  O   UNL A   1      33.675  33.414  28.480  1.00  0.00    -0.744 OA
ENDBRANCH  83  86
ENDBRANCH  55  79
BRANCH  67  90
ATOM     90  C   UNL A   1      42.541  29.007  33.739  1.00  0.00     0.023 A 
ATOM     91  C   UNL A   1      41.865  27.822  33.387  1.00  0.00     0.012 A 
ATOM     92  C   UNL A   1      43.233  29.065  34.959  1.00  0.00     0.148 A 
ATOM     93  C   UNL A   1      41.874  26.720  34.249  1.00  0.00     0.002 A 
ATOM     94  C   UNL A   1      43.276  27.956  35.790  1.00  0.00     0.091 A 
ATOM     95  F   UNL A   1      43.860  30.208  35.275  1.00  0.00    -0.205 F 
ATOM     96  C   UNL A   1      42.590  26.782  35.444  1.00  0.00     0.022 A 
BRANCH  94  97
ATOM     97  S   UNL A   1      44.274  27.947  37.279  1.00  0.00     0.127 S 
ATOM     98  O   UNL A   1      45.614  27.710  36.747  1.00  0.00    -0.237 OA
ATOM     99  O   UNL A   1      44.053  29.292  37.811  1.00  0.00    -0.237 OA
ATOM    100  O   UNL A   1      43.735  26.883  38.117  1.00  0.00    -0.744 OA
ENDBRANCH  94  97
ENDBRANCH  67  90
ENDBRANCH  41  42
ENDBRANCH  33  36
ENDBRANCH  31  32
ENDBRANCH  30  31
ENDBRANCH  29  30
ENDBRANCH  28  29
ENDBRANCH  27  28
ENDBRANCH   1  27
TORSDOF 24
ENDMDL
