MODEL 1
REMARK VINA RESULT:     -11.1      0.000      0.000
REMARK SMILES COC(=O)c1cccc(-c2cnc(Cl)cc2C(=O)NCCCCCCNC(=O)c2ccc(-c3c4nc(c(-c5cccc(S(=O)(=O)[O-])c5F)c5ccc([nH]5)c(-c5cccc(S(=O)(=O)[O-])c5F)c5nc(c(-c6cccc(S(=O)(=O)[O-])c6F)c6ccc3[nH]6)C=C5)C=C4)cc2)c1
REMARK SMILES IDX 22 1 21 2 20 3 19 4 17 5 18 6 16 8 10 9 11 10 12 11 15 12
REMARK SMILES IDX 13 13 14 14 9 15 5 16 6 17 92 18 7 19 8 20 3 21 4 22 2 23
REMARK SMILES IDX 1 24 23 25 24 26 25 27 26 28 27 29 28 31 29 32 30 33 91 34
REMARK SMILES IDX 31 35 90 36 32 37 33 38 34 39 84 40 35 41 89 42 83 43 85 44
REMARK SMILES IDX 36 45 88 46 82 47 81 48 37 50 69 51 49 52 68 53 50 54 53 55
REMARK SMILES IDX 67 56 86 57 51 58 52 59 66 61 87 62 54 63 38 64 39 65 47 66
REMARK SMILES IDX 40 67 42 68 48 69 41 70 43 71 44 72 45 73 46 74 70 75 71 76
REMARK SMILES IDX 79 77 72 78 74 79 80 80 73 81 75 82 76 83 77 84 78 85 55 86
REMARK SMILES IDX 56 87 64 88 57 89 59 90 65 91 58 92 60 93 61 94 62 95 63 96
REMARK H PARENT 19 7 26 30 85 49 53 60
REMARK Flexibility Score: inf
ROOT
ATOM      1  C   UNL A   1      33.588  29.946  27.253  1.00  0.00     0.002 C 
ENDROOT
BRANCH   1   2
ATOM      2  C   UNL A   1      34.072  28.524  26.926  1.00  0.00     0.021 C 
BRANCH   2   3
ATOM      3  C   UNL A   1      32.979  27.635  26.336  1.00  0.00     0.116 C 
BRANCH   3   4
ATOM      4  N   UNL A   1      33.139  27.524  24.901  1.00  0.00    -0.352 N 
ATOM      5  C   UNL A   1      32.350  27.481  23.786  1.00  0.00     0.252 C 
ATOM      6  O   UNL A   1      33.004  27.350  22.749  1.00  0.00    -0.269 OA
ATOM      7  H   UNL A   1      34.091  27.460  24.658  1.00  0.00     0.163 HD
BRANCH   5   8
ATOM      8  C   UNL A   1      30.849  27.614  23.731  1.00  0.00     0.052 A 
ATOM      9  C   UNL A   1      30.022  26.512  24.088  1.00  0.00     0.013 A 
ATOM     10  C   UNL A   1      28.642  26.652  23.876  1.00  0.00     0.122 A 
ATOM     11  N   UNL A   1      28.036  27.744  23.374  1.00  0.00    -0.244 NA
ATOM     12  C   UNL A   1      30.213  28.777  23.285  1.00  0.00     0.055 A 
ATOM     13  C   UNL A   1      28.840  28.779  23.103  1.00  0.00     0.129 A 
ATOM     14  Cl  UNL A   1      28.039  30.160  22.476  1.00  0.00    -0.062 Cl
BRANCH   9  15
ATOM     15  C   UNL A   1      30.486  25.235  24.660  1.00  0.00    -0.015 A 
ATOM     16  C   UNL A   1      31.552  23.054  24.418  1.00  0.00     0.060 A 
ATOM     17  C   UNL A   1      31.261  22.762  25.755  1.00  0.00     0.016 A 
ATOM     18  C   UNL A   1      31.190  24.298  23.881  1.00  0.00     0.024 A 
ATOM     19  C   UNL A   1      30.614  23.702  26.553  1.00  0.00     0.002 A 
ATOM     20  C   UNL A   1      30.224  24.926  26.007  1.00  0.00     0.009 A 
BRANCH  16  21
ATOM     21  C   UNL A   1      32.193  21.993  23.602  1.00  0.00     0.337 C 
ATOM     22  O   UNL A   1      32.284  22.044  22.387  1.00  0.00    -0.246 OA
BRANCH  21  23
ATOM     23  O   UNL A   1      32.581  20.958  24.389  1.00  0.00    -0.465 OA
ATOM     24  C   UNL A   1      32.528  19.690  23.733  1.00  0.00     0.282 C 
ENDBRANCH  21  23
ENDBRANCH  16  21
ENDBRANCH   9  15
ENDBRANCH   5   8
ENDBRANCH   3   4
ENDBRANCH   2   3
ENDBRANCH   1   2
BRANCH   1  25
ATOM     25  C   UNL A   1      32.105  30.209  26.959  1.00  0.00     0.002 C 
BRANCH  25  26
ATOM     26  C   UNL A   1      31.723  31.688  26.857  1.00  0.00     0.021 C 
BRANCH  26  27
ATOM     27  C   UNL A   1      32.915  32.628  26.728  1.00  0.00     0.116 C 
BRANCH  27  28
ATOM     28  N   UNL A   1      32.609  33.949  27.256  1.00  0.00    -0.352 N 
ATOM     29  C   UNL A   1      33.073  34.550  28.399  1.00  0.00     0.251 C 
ATOM     30  H   UNL A   1      31.984  34.486  26.719  1.00  0.00     0.163 HD
ATOM     31  O   UNL A   1      32.528  35.562  28.827  1.00  0.00    -0.269 OA
BRANCH  29  32
ATOM     32  C   UNL A   1      34.228  33.965  29.113  1.00  0.00     0.039 A 
ATOM     33  C   UNL A   1      33.998  33.015  30.110  1.00  0.00     0.014 A 
ATOM     34  C   UNL A   1      35.531  34.361  28.800  1.00  0.00     0.014 A 
ATOM     35  C   UNL A   1      35.083  32.428  30.763  1.00  0.00     0.010 A 
ATOM     36  C   UNL A   1      36.611  33.716  29.394  1.00  0.00     0.010 A 
ATOM     37  C   UNL A   1      36.399  32.754  30.392  1.00  0.00    -0.014 A 
BRANCH  37  38
ATOM     38  C   UNL A   1      37.563  32.093  31.033  1.00  0.00     0.031 A 
ATOM     39  C   UNL A   1      38.347  31.047  30.289  1.00  0.00     0.074 A 
ATOM     40  C   UNL A   1      37.862  32.373  32.317  1.00  0.00     0.049 A 
ATOM     41  N   UNL A   1      39.362  30.330  30.700  1.00  0.00    -0.248 NA
ATOM     42  C   UNL A   1      37.919  30.744  28.913  1.00  0.00     0.031 C 
ATOM     43  C   UNL A   1      37.120  33.305  33.172  1.00  0.00     0.029 A 
ATOM     44  N   UNL A   1      38.846  31.882  33.136  1.00  0.00    -0.354 N 
ATOM     45  C   UNL A   1      39.667  29.469  29.654  1.00  0.00     0.074 A 
ATOM     46  C   UNL A   1      38.707  29.726  28.602  1.00  0.00     0.031 C 
ATOM     47  C   UNL A   1      37.676  33.315  34.393  1.00  0.00     0.029 A 
ATOM     48  C   UNL A   1      38.786  32.369  34.421  1.00  0.00     0.049 A 
ATOM     49  H   UNL A   1      39.530  31.242  32.834  1.00  0.00     0.167 HD
ATOM     50  C   UNL A   1      40.670  28.563  29.564  1.00  0.00     0.034 A 
ATOM     51  C   UNL A   1      39.530  32.074  35.505  1.00  0.00     0.034 A 
ATOM     52  C   UNL A   1      41.639  28.334  30.601  1.00  0.00     0.049 A 
ATOM     53  C   UNL A   1      40.663  31.095  35.370  1.00  0.00     0.074 A 
ATOM     54  C   UNL A   1      42.752  27.512  30.572  1.00  0.00     0.029 A 
ATOM     55  N   UNL A   1      41.601  28.910  31.862  1.00  0.00    -0.354 N 
ATOM     56  N   UNL A   1      41.042  30.414  34.317  1.00  0.00    -0.248 NA
ATOM     57  C   UNL A   1      41.493  30.871  36.562  1.00  0.00     0.031 C 
ATOM     58  C   UNL A   1      43.363  27.559  31.830  1.00  0.00     0.029 A 
ATOM     59  C   UNL A   1      42.657  28.447  32.627  1.00  0.00     0.049 A 
ATOM     60  H   UNL A   1      40.922  29.555  32.168  1.00  0.00     0.167 HD
ATOM     61  C   UNL A   1      42.173  29.706  34.707  1.00  0.00     0.074 A 
ATOM     62  C   UNL A   1      42.429  30.059  36.089  1.00  0.00     0.031 C 
ATOM     63  C   UNL A   1      42.926  28.835  33.989  1.00  0.00     0.034 A 
BRANCH  50  64
ATOM     64  C   UNL A   1      40.787  27.773  28.285  1.00  0.00     0.023 A 
ATOM     65  C   UNL A   1      41.439  28.337  27.168  1.00  0.00     0.012 A 
ATOM     66  C   UNL A   1      40.288  26.460  28.199  1.00  0.00     0.148 A 
ATOM     67  C   UNL A   1      41.552  27.625  25.975  1.00  0.00     0.002 A 
ATOM     68  C   UNL A   1      40.449  25.736  27.024  1.00  0.00     0.091 A 
ATOM     69  F   UNL A   1      39.653  25.946  29.262  1.00  0.00    -0.205 F 
ATOM     70  C   UNL A   1      41.066  26.322  25.906  1.00  0.00     0.022 A 
BRANCH  68  71
ATOM     71  S   UNL A   1      39.934  24.024  26.863  1.00  0.00     0.127 S 
ATOM     72  O   UNL A   1      40.268  23.490  28.183  1.00  0.00    -0.237 OA
ATOM     73  O   UNL A   1      38.500  24.157  26.606  1.00  0.00    -0.237 OA
ATOM     74  O   UNL A   1      40.702  23.476  25.754  1.00  0.00    -0.744 OA
ENDBRANCH  68  71
ENDBRANCH  50  64
BRANCH  51  75
ATOM     75  C   UNL A   1      39.246  32.752  36.801  1.00  0.00     0.023 A 
ATOM     76  C   UNL A   1      39.856  33.986  37.095  1.00  0.00     0.012 A 
ATOM     77  C   UNL A   1      38.339  32.196  37.725  1.00  0.00     0.148 A 
ATOM     78  C   UNL A   1      39.592  34.639  38.299  1.00  0.00     0.002 A 
ATOM     79  C   UNL A   1      38.036  32.880  38.894  1.00  0.00     0.091 A 
ATOM     80  F   UNL A   1      37.775  31.016  37.427  1.00  0.00    -0.205 F 
ATOM     81  C   UNL A   1      38.675  34.093  39.193  1.00  0.00     0.022 A 
BRANCH  79  82
ATOM     82  S   UNL A   1      36.765  32.321  40.034  1.00  0.00     0.127 S 
ATOM     83  O   UNL A   1      37.337  31.072  40.531  1.00  0.00    -0.237 OA
ATOM     84  O   UNL A   1      36.733  33.415  41.005  1.00  0.00    -0.237 OA
ATOM     85  O   UNL A   1      35.552  32.188  39.241  1.00  0.00    -0.744 OA
ENDBRANCH  79  82
ENDBRANCH  51  75
BRANCH  63  86
ATOM     86  C   UNL A   1      44.126  28.225  34.666  1.00  0.00     0.023 A 
ATOM     87  C   UNL A   1      45.386  28.848  34.568  1.00  0.00     0.012 A 
ATOM     88  C   UNL A   1      43.986  27.071  35.462  1.00  0.00     0.148 A 
ATOM     89  C   UNL A   1      46.495  28.310  35.220  1.00  0.00     0.002 A 
ATOM     90  C   UNL A   1      45.082  26.572  36.153  1.00  0.00     0.091 A 
ATOM     91  F   UNL A   1      42.782  26.482  35.529  1.00  0.00    -0.205 F 
ATOM     92  C   UNL A   1      46.341  27.182  36.023  1.00  0.00     0.022 A 
BRANCH  90  93
ATOM     93  S   UNL A   1      44.958  25.184  37.287  1.00  0.00     0.127 S 
ATOM     94  O   UNL A   1      43.965  25.670  38.244  1.00  0.00    -0.237 OA
ATOM     95  O   UNL A   1      44.489  24.111  36.411  1.00  0.00    -0.237 OA
ATOM     96  O   UNL A   1      46.297  24.985  37.826  1.00  0.00    -0.744 OA
ENDBRANCH  90  93
ENDBRANCH  63  86
ENDBRANCH  37  38
ENDBRANCH  29  32
ENDBRANCH  27  28
ENDBRANCH  26  27
ENDBRANCH  25  26
ENDBRANCH   1  25
TORSDOF 19
ENDMDL
MODEL 2
REMARK VINA RESULT:     -10.8      6.059     11.185
REMARK SMILES COC(=O)c1cccc(-c2cnc(Cl)cc2C(=O)NCCCCCCNC(=O)c2ccc(-c3c4nc(c(-c5cccc(S(=O)(=O)[O-])c5F)c5ccc([nH]5)c(-c5cccc(S(=O)(=O)[O-])c5F)c5nc(c(-c6cccc(S(=O)(=O)[O-])c6F)c6ccc3[nH]6)C=C5)C=C4)cc2)c1
REMARK SMILES IDX 22 1 21 2 20 3 19 4 17 5 18 6 16 8 10 9 11 10 12 11 15 12
REMARK SMILES IDX 13 13 14 14 9 15 5 16 6 17 92 18 7 19 8 20 3 21 4 22 2 23
REMARK SMILES IDX 1 24 23 25 24 26 25 27 26 28 27 29 28 31 29 32 30 33 91 34
REMARK SMILES IDX 31 35 90 36 32 37 33 38 34 39 84 40 35 41 89 42 83 43 85 44
REMARK SMILES IDX 36 45 88 46 82 47 81 48 37 50 69 51 49 52 68 53 50 54 53 55
REMARK SMILES IDX 67 56 86 57 51 58 52 59 66 61 87 62 54 63 38 64 39 65 47 66
REMARK SMILES IDX 40 67 42 68 48 69 41 70 43 71 44 72 45 73 46 74 70 75 71 76
REMARK SMILES IDX 79 77 72 78 74 79 80 80 73 81 75 82 76 83 77 84 78 85 55 86
REMARK SMILES IDX 56 87 64 88 57 89 59 90 65 91 58 92 60 93 61 94 62 95 63 96
REMARK H PARENT 19 7 26 30 85 49 53 60
REMARK Flexibility Score: inf
ROOT
ATOM      1  C   UNL A   1      36.923  22.132  25.591  1.00  0.00     0.002 C 
ENDROOT
BRANCH   1   2
ATOM      2  C   UNL A   1      36.555  22.495  24.143  1.00  0.00     0.021 C 
BRANCH   2   3
ATOM      3  C   UNL A   1      35.618  23.698  24.042  1.00  0.00     0.116 C 
BRANCH   3   4
ATOM      4  N   UNL A   1      34.797  23.600  22.853  1.00  0.00    -0.352 N 
ATOM      5  C   UNL A   1      33.504  23.836  22.483  1.00  0.00     0.252 C 
ATOM      6  O   UNL A   1      33.292  23.558  21.300  1.00  0.00    -0.269 OA
ATOM      7  H   UNL A   1      35.324  23.265  22.091  1.00  0.00     0.163 HD
BRANCH   5   8
ATOM      8  C   UNL A   1      32.405  24.412  23.341  1.00  0.00     0.052 A 
ATOM      9  C   UNL A   1      31.878  23.656  24.426  1.00  0.00     0.013 A 
ATOM     10  C   UNL A   1      30.762  24.185  25.092  1.00  0.00     0.122 A 
ATOM     11  N   UNL A   1      30.156  25.350  24.797  1.00  0.00    -0.244 NA
ATOM     12  C   UNL A   1      31.826  25.659  23.086  1.00  0.00     0.055 A 
ATOM     13  C   UNL A   1      30.714  26.058  23.808  1.00  0.00     0.129 A 
ATOM     14  Cl  UNL A   1      29.929  27.543  23.462  1.00  0.00    -0.062 Cl
BRANCH   9  15
ATOM     15  C   UNL A   1      32.400  22.366  24.913  1.00  0.00    -0.015 A 
ATOM     16  C   UNL A   1      32.615  19.944  24.716  1.00  0.00     0.060 A 
ATOM     17  C   UNL A   1      33.317  19.906  25.926  1.00  0.00     0.016 A 
ATOM     18  C   UNL A   1      32.183  21.173  24.198  1.00  0.00     0.024 A 
ATOM     19  C   UNL A   1      33.587  21.086  26.615  1.00  0.00     0.002 A 
ATOM     20  C   UNL A   1      33.126  22.305  26.116  1.00  0.00     0.009 A 
BRANCH  16  21
ATOM     21  C   UNL A   1      32.309  18.652  24.054  1.00  0.00     0.337 C 
ATOM     22  O   UNL A   1      32.169  18.531  22.849  1.00  0.00    -0.246 OA
BRANCH  21  23
ATOM     23  O   UNL A   1      32.139  17.673  24.979  1.00  0.00    -0.465 OA
ATOM     24  C   UNL A   1      32.990  16.543  24.777  1.00  0.00     0.282 C 
ENDBRANCH  21  23
ENDBRANCH  16  21
ENDBRANCH   9  15
ENDBRANCH   5   8
ENDBRANCH   3   4
ENDBRANCH   2   3
ENDBRANCH   1   2
BRANCH   1  25
ATOM     25  C   UNL A   1      38.342  22.532  26.018  1.00  0.00     0.002 C 
BRANCH  25  26
ATOM     26  C   UNL A   1      39.241  21.364  26.432  1.00  0.00     0.021 C 
BRANCH  26  27
ATOM     27  C   UNL A   1      39.242  20.202  25.446  1.00  0.00     0.116 C 
BRANCH  27  28
ATOM     28  N   UNL A   1      40.228  19.198  25.809  1.00  0.00    -0.352 N 
ATOM     29  C   UNL A   1      41.553  19.364  26.128  1.00  0.00     0.251 C 
ATOM     30  H   UNL A   1      39.902  18.269  25.830  1.00  0.00     0.163 HD
ATOM     31  O   UNL A   1      42.303  18.394  26.167  1.00  0.00    -0.269 OA
BRANCH  29  32
ATOM     32  C   UNL A   1      42.068  20.719  26.415  1.00  0.00     0.039 A 
ATOM     33  C   UNL A   1      42.427  21.548  25.351  1.00  0.00     0.014 A 
ATOM     34  C   UNL A   1      42.202  21.163  27.734  1.00  0.00     0.014 A 
ATOM     35  C   UNL A   1      42.878  22.844  25.611  1.00  0.00     0.010 A 
ATOM     36  C   UNL A   1      42.573  22.479  27.986  1.00  0.00     0.010 A 
ATOM     37  C   UNL A   1      42.929  23.329  26.929  1.00  0.00    -0.014 A 
BRANCH  37  38
ATOM     38  C   UNL A   1      43.348  24.723  27.217  1.00  0.00     0.031 A 
ATOM     39  C   UNL A   1      42.380  25.692  27.840  1.00  0.00     0.074 A 
ATOM     40  C   UNL A   1      44.572  25.142  26.838  1.00  0.00     0.049 A 
ATOM     41  N   UNL A   1      42.549  26.959  28.122  1.00  0.00    -0.248 NA
ATOM     42  C   UNL A   1      41.037  25.182  28.163  1.00  0.00     0.031 C 
ATOM     43  C   UNL A   1      45.567  24.320  26.146  1.00  0.00     0.029 A 
ATOM     44  N   UNL A   1      45.175  26.367  26.955  1.00  0.00    -0.354 N 
ATOM     45  C   UNL A   1      41.330  27.403  28.616  1.00  0.00     0.074 A 
ATOM     46  C   UNL A   1      40.417  26.282  28.562  1.00  0.00     0.031 C 
ATOM     47  C   UNL A   1      46.655  25.065  25.898  1.00  0.00     0.029 A 
ATOM     48  C   UNL A   1      46.424  26.422  26.380  1.00  0.00     0.049 A 
ATOM     49  H   UNL A   1      44.755  27.135  27.406  1.00  0.00     0.167 HD
ATOM     50  C   UNL A   1      41.003  28.628  29.096  1.00  0.00     0.034 A 
ATOM     51  C   UNL A   1      47.279  27.454  26.240  1.00  0.00     0.034 A 
ATOM     52  C   UNL A   1      41.922  29.730  29.175  1.00  0.00     0.049 A 
ATOM     53  C   UNL A   1      46.910  28.793  26.816  1.00  0.00     0.074 A 
ATOM     54  C   UNL A   1      41.721  30.979  29.735  1.00  0.00     0.029 A 
ATOM     55  N   UNL A   1      43.211  29.725  28.662  1.00  0.00    -0.354 N 
ATOM     56  N   UNL A   1      45.812  29.149  27.435  1.00  0.00    -0.248 NA
ATOM     57  C   UNL A   1      47.913  29.862  26.708  1.00  0.00     0.031 C 
ATOM     58  C   UNL A   1      42.874  31.744  29.523  1.00  0.00     0.029 A 
ATOM     59  C   UNL A   1      43.810  30.955  28.872  1.00  0.00     0.049 A 
ATOM     60  H   UNL A   1      43.637  28.958  28.214  1.00  0.00     0.167 HD
ATOM     61  C   UNL A   1      46.001  30.472  27.819  1.00  0.00     0.074 A 
ATOM     62  C   UNL A   1      47.331  30.845  27.381  1.00  0.00     0.031 C 
ATOM     63  C   UNL A   1      45.149  31.304  28.467  1.00  0.00     0.034 A 
BRANCH  50  64
ATOM     64  C   UNL A   1      39.597  28.828  29.602  1.00  0.00     0.023 A 
ATOM     65  C   UNL A   1      39.265  28.456  30.922  1.00  0.00     0.012 A 
ATOM     66  C   UNL A   1      38.614  29.421  28.787  1.00  0.00     0.148 A 
ATOM     67  C   UNL A   1      37.968  28.627  31.405  1.00  0.00     0.002 A 
ATOM     68  C   UNL A   1      37.337  29.637  29.292  1.00  0.00     0.091 A 
ATOM     69  F   UNL A   1      38.939  29.751  27.529  1.00  0.00    -0.205 F 
ATOM     70  C   UNL A   1      37.008  29.227  30.595  1.00  0.00     0.022 A 
BRANCH  68  71
ATOM     71  S   UNL A   1      36.056  30.478  28.357  1.00  0.00     0.127 S 
ATOM     72  O   UNL A   1      35.020  30.658  29.374  1.00  0.00    -0.237 OA
ATOM     73  O   UNL A   1      36.730  31.711  27.951  1.00  0.00    -0.237 OA
ATOM     74  O   UNL A   1      35.707  29.585  27.260  1.00  0.00    -0.744 OA
ENDBRANCH  68  71
ENDBRANCH  50  64
BRANCH  51  75
ATOM     75  C   UNL A   1      48.586  27.240  25.559  1.00  0.00     0.023 A 
ATOM     76  C   UNL A   1      49.697  26.792  26.298  1.00  0.00     0.012 A 
ATOM     77  C   UNL A   1      48.720  27.442  24.170  1.00  0.00     0.148 A 
ATOM     78  C   UNL A   1      50.926  26.577  25.673  1.00  0.00     0.002 A 
ATOM     79  C   UNL A   1      49.929  27.168  23.545  1.00  0.00     0.091 A 
ATOM     80  F   UNL A   1      47.651  27.876  23.488  1.00  0.00    -0.205 F 
ATOM     81  C   UNL A   1      51.039  26.754  24.296  1.00  0.00     0.022 A 
BRANCH  79  82
ATOM     82  S   UNL A   1      50.127  27.234  21.761  1.00  0.00     0.127 S 
ATOM     83  O   UNL A   1      49.073  26.328  21.310  1.00  0.00    -0.237 OA
ATOM     84  O   UNL A   1      49.883  28.649  21.484  1.00  0.00    -0.237 OA
ATOM     85  O   UNL A   1      51.490  26.796  21.497  1.00  0.00    -0.744 OA
ENDBRANCH  79  82
ENDBRANCH  51  75
BRANCH  63  86
ATOM     86  C   UNL A   1      45.634  32.696  28.781  1.00  0.00     0.023 A 
ATOM     87  C   UNL A   1      46.366  32.940  29.960  1.00  0.00     0.012 A 
ATOM     88  C   UNL A   1      45.424  33.747  27.868  1.00  0.00     0.148 A 
ATOM     89  C   UNL A   1      46.849  34.217  30.242  1.00  0.00     0.002 A 
ATOM     90  C   UNL A   1      45.955  35.004  28.128  1.00  0.00     0.091 A 
ATOM     91  F   UNL A   1      44.709  33.499  26.760  1.00  0.00    -0.205 F 
ATOM     92  C   UNL A   1      46.656  35.245  29.321  1.00  0.00     0.022 A 
BRANCH  90  93
ATOM     93  S   UNL A   1      45.843  36.361  26.956  1.00  0.00     0.127 S 
ATOM     94  O   UNL A   1      46.474  35.783  25.771  1.00  0.00    -0.237 OA
ATOM     95  O   UNL A   1      44.397  36.554  26.845  1.00  0.00    -0.237 OA
ATOM     96  O   UNL A   1      46.558  37.476  27.561  1.00  0.00    -0.744 OA
ENDBRANCH  90  93
ENDBRANCH  63  86
ENDBRANCH  37  38
ENDBRANCH  29  32
ENDBRANCH  27  28
ENDBRANCH  26  27
ENDBRANCH  25  26
ENDBRANCH   1  25
TORSDOF 19
ENDMDL
MODEL 3
REMARK VINA RESULT:     -10.6      2.589      7.822
REMARK SMILES COC(=O)c1cccc(-c2cnc(Cl)cc2C(=O)NCCCCCCNC(=O)c2ccc(-c3c4nc(c(-c5cccc(S(=O)(=O)[O-])c5F)c5ccc([nH]5)c(-c5cccc(S(=O)(=O)[O-])c5F)c5nc(c(-c6cccc(S(=O)(=O)[O-])c6F)c6ccc3[nH]6)C=C5)C=C4)cc2)c1
REMARK SMILES IDX 22 1 21 2 20 3 19 4 17 5 18 6 16 8 10 9 11 10 12 11 15 12
REMARK SMILES IDX 13 13 14 14 9 15 5 16 6 17 92 18 7 19 8 20 3 21 4 22 2 23
REMARK SMILES IDX 1 24 23 25 24 26 25 27 26 28 27 29 28 31 29 32 30 33 91 34
REMARK SMILES IDX 31 35 90 36 32 37 33 38 34 39 84 40 35 41 89 42 83 43 85 44
REMARK SMILES IDX 36 45 88 46 82 47 81 48 37 50 69 51 49 52 68 53 50 54 53 55
REMARK SMILES IDX 67 56 86 57 51 58 52 59 66 61 87 62 54 63 38 64 39 65 47 66
REMARK SMILES IDX 40 67 42 68 48 69 41 70 43 71 44 72 45 73 46 74 70 75 71 76
REMARK SMILES IDX 79 77 72 78 74 79 80 80 73 81 75 82 76 83 77 84 78 85 55 86
REMARK SMILES IDX 56 87 64 88 57 89 59 90 65 91 58 92 60 93 61 94 62 95 63 96
REMARK H PARENT 19 7 26 30 85 49 53 60
REMARK Flexibility Score: inf
ROOT
ATOM      1  C   UNL A   1      34.910  30.897  28.361  1.00  0.00     0.002 C 
ENDROOT
BRANCH   1   2
ATOM      2  C   UNL A   1      35.030  29.661  27.457  1.00  0.00     0.021 C 
BRANCH   2   3
ATOM      3  C   UNL A   1      33.938  29.584  26.390  1.00  0.00     0.116 C 
BRANCH   3   4
ATOM      4  N   UNL A   1      32.850  28.743  26.842  1.00  0.00    -0.352 N 
ATOM      5  C   UNL A   1      31.743  28.136  26.319  1.00  0.00     0.252 C 
ATOM      6  O   UNL A   1      31.096  27.520  27.168  1.00  0.00    -0.269 OA
ATOM      7  H   UNL A   1      32.929  28.554  27.806  1.00  0.00     0.163 HD
BRANCH   5   8
ATOM      8  C   UNL A   1      31.309  28.131  24.874  1.00  0.00     0.052 A 
ATOM      9  C   UNL A   1      31.761  27.103  23.998  1.00  0.00     0.013 A 
ATOM     10  C   UNL A   1      31.443  27.236  22.638  1.00  0.00     0.122 A 
ATOM     11  N   UNL A   1      30.737  28.246  22.096  1.00  0.00    -0.244 NA
ATOM     12  C   UNL A   1      30.509  29.137  24.325  1.00  0.00     0.055 A 
ATOM     13  C   UNL A   1      30.282  29.162  22.959  1.00  0.00     0.129 A 
ATOM     14  Cl  UNL A   1      29.376  30.429  22.242  1.00  0.00    -0.062 Cl
BRANCH   9  15
ATOM     15  C   UNL A   1      32.537  25.913  24.392  1.00  0.00    -0.015 A 
ATOM     16  C   UNL A   1      32.665  23.683  25.373  1.00  0.00     0.060 A 
ATOM     17  C   UNL A   1      34.058  23.700  25.234  1.00  0.00     0.016 A 
ATOM     18  C   UNL A   1      31.906  24.774  24.928  1.00  0.00     0.024 A 
ATOM     19  C   UNL A   1      34.689  24.797  24.654  1.00  0.00     0.002 A 
ATOM     20  C   UNL A   1      33.935  25.897  24.243  1.00  0.00     0.009 A 
BRANCH  16  21
ATOM     21  C   UNL A   1      32.052  22.512  26.049  1.00  0.00     0.337 C 
ATOM     22  O   UNL A   1      31.683  21.513  25.456  1.00  0.00    -0.246 OA
BRANCH  21  23
ATOM     23  O   UNL A   1      31.905  22.753  27.376  1.00  0.00    -0.465 OA
ATOM     24  C   UNL A   1      33.018  22.323  28.162  1.00  0.00     0.282 C 
ENDBRANCH  21  23
ENDBRANCH  16  21
ENDBRANCH   9  15
ENDBRANCH   5   8
ENDBRANCH   3   4
ENDBRANCH   2   3
ENDBRANCH   1   2
BRANCH   1  25
ATOM     25  C   UNL A   1      35.714  32.120  27.896  1.00  0.00     0.002 C 
BRANCH  25  26
ATOM     26  C   UNL A   1      34.904  33.414  27.778  1.00  0.00     0.021 C 
BRANCH  26  27
ATOM     27  C   UNL A   1      33.459  33.285  28.245  1.00  0.00     0.116 C 
BRANCH  27  28
ATOM     28  N   UNL A   1      33.080  34.391  29.110  1.00  0.00    -0.352 N 
ATOM     29  C   UNL A   1      33.501  34.673  30.386  1.00  0.00     0.251 C 
ATOM     30  H   UNL A   1      32.432  35.026  28.729  1.00  0.00     0.163 HD
ATOM     31  O   UNL A   1      32.900  35.499  31.064  1.00  0.00    -0.269 OA
BRANCH  29  32
ATOM     32  C   UNL A   1      34.677  33.968  30.937  1.00  0.00     0.039 A 
ATOM     33  C   UNL A   1      34.487  32.779  31.643  1.00  0.00     0.014 A 
ATOM     34  C   UNL A   1      35.963  34.488  30.760  1.00  0.00     0.014 A 
ATOM     35  C   UNL A   1      35.595  32.085  32.134  1.00  0.00     0.010 A 
ATOM     36  C   UNL A   1      37.068  33.754  31.178  1.00  0.00     0.010 A 
ATOM     37  C   UNL A   1      36.896  32.554  31.882  1.00  0.00    -0.014 A 
BRANCH  37  38
ATOM     38  C   UNL A   1      38.086  31.796  32.344  1.00  0.00     0.031 A 
ATOM     39  C   UNL A   1      38.773  32.171  33.628  1.00  0.00     0.074 A 
ATOM     40  C   UNL A   1      38.598  30.824  31.563  1.00  0.00     0.049 A 
ATOM     41  N   UNL A   1      39.848  31.657  34.168  1.00  0.00    -0.248 NA
ATOM     42  C   UNL A   1      38.196  33.289  34.393  1.00  0.00     0.031 C 
ATOM     43  C   UNL A   1      38.072  30.428  30.255  1.00  0.00     0.029 A 
ATOM     44  N   UNL A   1      39.691  30.015  31.741  1.00  0.00    -0.354 N 
ATOM     45  C   UNL A   1      40.097  32.410  35.308  1.00  0.00     0.074 A 
ATOM     46  C   UNL A   1      39.083  33.439  35.365  1.00  0.00     0.031 C 
ATOM     47  C   UNL A   1      38.844  29.454  29.749  1.00  0.00     0.029 A 
ATOM     48  C   UNL A   1      39.936  29.180  30.676  1.00  0.00     0.049 A 
ATOM     49  H   UNL A   1      40.247  30.030  32.554  1.00  0.00     0.167 HD
ATOM     50  C   UNL A   1      41.067  32.245  36.240  1.00  0.00     0.034 A 
ATOM     51  C   UNL A   1      40.938  28.305  30.462  1.00  0.00     0.034 A 
ATOM     52  C   UNL A   1      42.055  31.201  36.194  1.00  0.00     0.049 A 
ATOM     53  C   UNL A   1      41.981  28.111  31.528  1.00  0.00     0.074 A 
ATOM     54  C   UNL A   1      43.018  30.886  37.136  1.00  0.00     0.029 A 
ATOM     55  N   UNL A   1      42.222  30.314  35.141  1.00  0.00    -0.354 N 
ATOM     56  N   UNL A   1      42.100  28.718  32.683  1.00  0.00    -0.248 NA
ATOM     57  C   UNL A   1      43.004  27.086  31.278  1.00  0.00     0.031 C 
ATOM     58  C   UNL A   1      43.794  29.836  36.633  1.00  0.00     0.029 A 
ATOM     59  C   UNL A   1      43.285  29.466  35.399  1.00  0.00     0.049 A 
ATOM     60  H   UNL A   1      41.665  30.291  34.328  1.00  0.00     0.167 HD
ATOM     61  C   UNL A   1      43.191  28.129  33.313  1.00  0.00     0.074 A 
ATOM     62  C   UNL A   1      43.683  27.101  32.418  1.00  0.00     0.031 C 
ATOM     63  C   UNL A   1      43.741  28.419  34.518  1.00  0.00     0.034 A 
BRANCH  50  64
ATOM     64  C   UNL A   1      41.087  33.200  37.406  1.00  0.00     0.023 A 
ATOM     65  C   UNL A   1      40.282  32.946  38.537  1.00  0.00     0.012 A 
ATOM     66  C   UNL A   1      41.930  34.328  37.401  1.00  0.00     0.148 A 
ATOM     67  C   UNL A   1      40.282  33.821  39.622  1.00  0.00     0.002 A 
ATOM     68  C   UNL A   1      41.963  35.168  38.508  1.00  0.00     0.091 A 
ATOM     69  F   UNL A   1      42.673  34.567  36.312  1.00  0.00    -0.205 F 
ATOM     70  C   UNL A   1      41.129  34.926  39.612  1.00  0.00     0.022 A 
BRANCH  68  71
ATOM     71  S   UNL A   1      43.081  36.568  38.627  1.00  0.00     0.127 S 
ATOM     72  O   UNL A   1      42.480  37.334  39.718  1.00  0.00    -0.237 OA
ATOM     73  O   UNL A   1      44.349  35.921  38.964  1.00  0.00    -0.237 OA
ATOM     74  O   UNL A   1      43.057  37.214  37.322  1.00  0.00    -0.744 OA
ENDBRANCH  68  71
ENDBRANCH  50  64
BRANCH  51  75
ATOM     75  C   UNL A   1      40.972  27.517  29.198  1.00  0.00     0.023 A 
ATOM     76  C   UNL A   1      40.117  26.411  29.039  1.00  0.00     0.012 A 
ATOM     77  C   UNL A   1      41.821  27.889  28.136  1.00  0.00     0.148 A 
ATOM     78  C   UNL A   1      40.128  25.669  27.857  1.00  0.00     0.002 A 
ATOM     79  C   UNL A   1      41.784  27.184  26.941  1.00  0.00     0.091 A 
ATOM     80  F   UNL A   1      42.631  28.943  28.313  1.00  0.00    -0.205 F 
ATOM     81  C   UNL A   1      40.952  26.061  26.804  1.00  0.00     0.022 A 
BRANCH  79  82
ATOM     82  S   UNL A   1      42.705  27.701  25.488  1.00  0.00     0.127 S 
ATOM     83  O   UNL A   1      42.015  28.935  25.121  1.00  0.00    -0.237 OA
ATOM     84  O   UNL A   1      44.049  27.884  26.036  1.00  0.00    -0.237 OA
ATOM     85  O   UNL A   1      42.589  26.606  24.536  1.00  0.00    -0.744 OA
ENDBRANCH  79  82
ENDBRANCH  51  75
BRANCH  63  86
ATOM     86  C   UNL A   1      44.918  27.592  34.967  1.00  0.00     0.023 A 
ATOM     87  C   UNL A   1      46.231  28.061  34.763  1.00  0.00     0.012 A 
ATOM     88  C   UNL A   1      44.716  26.382  35.659  1.00  0.00     0.148 A 
ATOM     89  C   UNL A   1      47.325  27.319  35.207  1.00  0.00     0.002 A 
ATOM     90  C   UNL A   1      45.808  25.676  36.147  1.00  0.00     0.091 A 
ATOM     91  F   UNL A   1      43.459  25.943  35.829  1.00  0.00    -0.205 F 
ATOM     92  C   UNL A   1      47.114  26.135  35.910  1.00  0.00     0.022 A 
BRANCH  90  93
ATOM     93  S   UNL A   1      45.630  24.194  37.148  1.00  0.00     0.127 S 
ATOM     94  O   UNL A   1      47.019  23.905  37.500  1.00  0.00    -0.237 OA
ATOM     95  O   UNL A   1      44.804  24.668  38.258  1.00  0.00    -0.237 OA
ATOM     96  O   UNL A   1      44.986  23.206  36.293  1.00  0.00    -0.744 OA
ENDBRANCH  90  93
ENDBRANCH  63  86
ENDBRANCH  37  38
ENDBRANCH  29  32
ENDBRANCH  27  28
ENDBRANCH  26  27
ENDBRANCH  25  26
ENDBRANCH   1  25
TORSDOF 19
ENDMDL
