MODEL 1
REMARK VINA RESULT:     -10.0      0.000      0.000
REMARK SMILES COC[C@@H](O)COc1ccc(C(=O)NCCCCCCNC(=O)c2ccc(-c3c4nc(c(-c5cccc(S(=O)(=O)[O-])c5F)c5ccc([nH]5)c(-c5cccc(S(=O)(=O)[O-])c5F)c5nc(c(-c6cccc(S(=O)(=O)[O-])c6F)c6ccc3[nH]6)C=C5)C=C4)cc2)nc1
REMARK SMILES IDX 16 1 15 2 14 3 12 4 13 5 11 7 8 8 9 9 88 10 10 11 87 12 7 13
REMARK SMILES IDX 6 14 4 15 3 16 2 17 1 18 5 19 17 21 18 22 19 23 20 24 21 25
REMARK SMILES IDX 22 26 23 28 24 29 25 30 86 31 26 32 85 33 27 34 28 35 29 36
REMARK SMILES IDX 79 37 30 38 84 39 78 40 80 41 31 42 83 43 77 44 76 45 32 47
REMARK SMILES IDX 64 48 44 49 63 50 45 51 48 52 62 53 81 54 46 55 47 56 61 58
REMARK SMILES IDX 82 59 49 60 33 61 34 62 42 63 35 64 37 65 43 66 36 67 38 68
REMARK SMILES IDX 39 69 40 70 41 71 65 72 66 73 74 74 67 75 69 76 75 77 68 78
REMARK SMILES IDX 70 79 71 80 72 81 73 82 50 83 51 84 59 85 52 86 54 87 60 88
REMARK SMILES IDX 53 89 55 90 56 91 57 92 58 93
REMARK H PARENT 14 6 5 20 21 27 80 46 48 57
REMARK Flexibility Score: inf
ROOT
ATOM      1  C   UNL A   1      33.421  26.317  24.866  1.00  0.00     0.021 C 
ENDROOT
BRANCH   1   2
ATOM      2  C   UNL A   1      32.629  26.715  23.617  1.00  0.00     0.116 C 
BRANCH   2   3
ATOM      3  N   UNL A   1      31.200  26.719  23.891  1.00  0.00    -0.351 N 
ATOM      4  C   UNL A   1      30.356  25.723  24.331  1.00  0.00     0.269 C 
ATOM      5  O   UNL A   1      29.187  26.033  24.566  1.00  0.00    -0.268 OA
ATOM      6  H   UNL A   1      30.760  27.586  23.735  1.00  0.00     0.163 HD
BRANCH   4   7
ATOM      7  C   UNL A   1      30.821  24.311  24.544  1.00  0.00     0.128 A 
ATOM      8  C   UNL A   1      31.728  21.782  25.095  1.00  0.00     0.137 A 
ATOM      9  C   UNL A   1      31.782  22.249  23.791  1.00  0.00     0.050 A 
ATOM     10  C   UNL A   1      31.123  22.576  26.054  1.00  0.00     0.158 A 
ATOM     11  C   UNL A   1      31.320  23.531  23.507  1.00  0.00     0.038 A 
ATOM     12  N   UNL A   1      30.682  23.834  25.813  1.00  0.00    -0.247 NA
BRANCH   8  13
ATOM     13  O   UNL A   1      32.208  20.541  25.385  1.00  0.00    -0.489 OA
BRANCH  13  14
ATOM     14  C   UNL A   1      32.844  19.916  24.248  1.00  0.00     0.263 C 
BRANCH  14  15
ATOM     15  C   UNL A   1      33.647  18.653  24.625  1.00  0.00     0.177 C 
BRANCH  15  16
ATOM     16  C   UNL A   1      33.656  17.618  23.482  1.00  0.00     0.195 C 
BRANCH  16  17
ATOM     17  O   UNL A   1      33.221  16.340  23.963  1.00  0.00    -0.382 OA
ATOM     18  C   UNL A   1      33.260  16.224  25.380  1.00  0.00     0.195 C 
ENDBRANCH  16  17
ENDBRANCH  15  16
BRANCH  15  19
ATOM     19  O   UNL A   1      35.001  19.040  24.907  1.00  0.00    -0.387 OA
ATOM     20  H   UNL A   1      35.378  18.438  25.569  1.00  0.00     0.211 HD
ENDBRANCH  15  19
ENDBRANCH  14  15
ENDBRANCH  13  14
ENDBRANCH   8  13
ENDBRANCH   4   7
ENDBRANCH   2   3
ENDBRANCH   1   2
BRANCH   1  21
ATOM     21  C   UNL A   1      34.457  25.211  24.625  1.00  0.00     0.002 C 
BRANCH  21  22
ATOM     22  C   UNL A   1      34.534  24.142  25.721  1.00  0.00     0.002 C 
BRANCH  22  23
ATOM     23  C   UNL A   1      35.205  22.832  25.304  1.00  0.00     0.021 C 
BRANCH  23  24
ATOM     24  C   UNL A   1      35.861  22.063  26.449  1.00  0.00     0.116 C 
BRANCH  24  25
ATOM     25  N   UNL A   1      36.866  21.128  25.965  1.00  0.00    -0.352 N 
ATOM     26  C   UNL A   1      38.209  21.326  25.767  1.00  0.00     0.251 C 
ATOM     27  H   UNL A   1      36.536  20.225  25.750  1.00  0.00     0.163 HD
ATOM     28  O   UNL A   1      38.867  20.499  25.135  1.00  0.00    -0.269 OA
BRANCH  26  29
ATOM     29  C   UNL A   1      38.861  22.537  26.303  1.00  0.00     0.039 A 
ATOM     30  C   UNL A   1      39.935  22.401  27.185  1.00  0.00     0.014 A 
ATOM     31  C   UNL A   1      38.408  23.808  25.935  1.00  0.00     0.014 A 
ATOM     32  C   UNL A   1      40.596  23.540  27.650  1.00  0.00     0.010 A 
ATOM     33  C   UNL A   1      39.113  24.937  26.341  1.00  0.00     0.010 A 
ATOM     34  C   UNL A   1      40.211  24.817  27.206  1.00  0.00    -0.014 A 
BRANCH  34  35
ATOM     35  C   UNL A   1      40.955  26.035  27.614  1.00  0.00     0.031 A 
ATOM     36  C   UNL A   1      40.255  27.134  28.367  1.00  0.00     0.074 A 
ATOM     37  C   UNL A   1      42.235  26.194  27.222  1.00  0.00     0.049 A 
ATOM     38  N   UNL A   1      40.717  28.300  28.740  1.00  0.00    -0.248 NA
ATOM     39  C   UNL A   1      38.846  26.904  28.726  1.00  0.00     0.031 C 
ATOM     40  C   UNL A   1      43.001  25.233  26.424  1.00  0.00     0.029 A 
ATOM     41  N   UNL A   1      43.109  27.235  27.414  1.00  0.00    -0.354 N 
ATOM     42  C   UNL A   1      39.650  28.955  29.342  1.00  0.00     0.074 A 
ATOM     43  C   UNL A   1      38.508  28.071  29.256  1.00  0.00     0.031 C 
ATOM     44  C   UNL A   1      44.227  25.729  26.197  1.00  0.00     0.029 A 
ATOM     45  C   UNL A   1      44.325  27.055  26.798  1.00  0.00     0.049 A 
ATOM     46  H   UNL A   1      42.886  28.034  27.943  1.00  0.00     0.167 HD
ATOM     47  C   UNL A   1      39.628  30.172  29.936  1.00  0.00     0.034 A 
ATOM     48  C   UNL A   1      45.394  27.871  26.711  1.00  0.00     0.034 A 
ATOM     49  C   UNL A   1      40.774  31.033  30.049  1.00  0.00     0.049 A 
ATOM     50  C   UNL A   1      45.351  29.208  27.400  1.00  0.00     0.074 A 
ATOM     51  C   UNL A   1      40.876  32.245  30.708  1.00  0.00     0.029 A 
ATOM     52  N   UNL A   1      42.013  30.783  29.480  1.00  0.00    -0.354 N 
ATOM     53  N   UNL A   1      44.380  29.745  28.097  1.00  0.00    -0.248 NA
ATOM     54  C   UNL A   1      46.561  30.037  27.319  1.00  0.00     0.031 C 
ATOM     55  C   UNL A   1      42.167  32.745  30.508  1.00  0.00     0.029 A 
ATOM     56  C   UNL A   1      42.881  31.824  29.758  1.00  0.00     0.049 A 
ATOM     57  H   UNL A   1      42.241  29.981  28.956  1.00  0.00     0.167 HD
ATOM     58  C   UNL A   1      44.874  30.957  28.569  1.00  0.00     0.074 A 
ATOM     59  C   UNL A   1      46.237  31.064  28.093  1.00  0.00     0.031 C 
ATOM     60  C   UNL A   1      44.251  31.898  29.318  1.00  0.00     0.034 A 
BRANCH  47  61
ATOM     61  C   UNL A   1      38.329  30.632  30.547  1.00  0.00     0.023 A 
ATOM     62  C   UNL A   1      38.071  30.380  31.911  1.00  0.00     0.012 A 
ATOM     63  C   UNL A   1      37.393  31.364  29.792  1.00  0.00     0.148 A 
ATOM     64  C   UNL A   1      36.887  30.816  32.503  1.00  0.00     0.002 A 
ATOM     65  C   UNL A   1      36.237  31.838  30.401  1.00  0.00     0.091 A 
ATOM     66  F   UNL A   1      37.646  31.577  28.492  1.00  0.00    -0.205 F 
ATOM     67  C   UNL A   1      35.976  31.554  31.752  1.00  0.00     0.022 A 
BRANCH  65  68
ATOM     68  S   UNL A   1      35.039  32.865  29.542  1.00  0.00     0.127 S 
ATOM     69  O   UNL A   1      35.881  33.960  29.060  1.00  0.00    -0.237 OA
ATOM     70  O   UNL A   1      34.554  31.964  28.498  1.00  0.00    -0.237 OA
ATOM     71  O   UNL A   1      34.043  33.239  30.537  1.00  0.00    -0.744 OA
ENDBRANCH  65  68
ENDBRANCH  47  61
BRANCH  48  72
ATOM     72  C   UNL A   1      46.615  27.425  25.980  1.00  0.00     0.023 A 
ATOM     73  C   UNL A   1      46.738  27.698  24.604  1.00  0.00     0.012 A 
ATOM     74  C   UNL A   1      47.661  26.758  26.645  1.00  0.00     0.148 A 
ATOM     75  C   UNL A   1      47.865  27.281  23.896  1.00  0.00     0.002 A 
ATOM     76  C   UNL A   1      48.806  26.398  25.947  1.00  0.00     0.091 A 
ATOM     77  F   UNL A   1      47.521  26.501  27.954  1.00  0.00    -0.205 F 
ATOM     78  C   UNL A   1      48.904  26.641  24.568  1.00  0.00     0.022 A 
BRANCH  76  79
ATOM     79  S   UNL A   1      50.244  25.687  26.756  1.00  0.00     0.127 S 
ATOM     80  O   UNL A   1      51.167  25.520  25.637  1.00  0.00    -0.237 OA
ATOM     81  O   UNL A   1      50.607  26.740  27.705  1.00  0.00    -0.237 OA
ATOM     82  O   UNL A   1      49.779  24.454  27.379  1.00  0.00    -0.744 OA
ENDBRANCH  76  79
ENDBRANCH  48  72
BRANCH  60  83
ATOM     83  C   UNL A   1      45.043  33.119  29.711  1.00  0.00     0.023 A 
ATOM     84  C   UNL A   1      45.823  33.107  30.883  1.00  0.00     0.012 A 
ATOM     85  C   UNL A   1      45.073  34.250  28.870  1.00  0.00     0.148 A 
ATOM     86  C   UNL A   1      46.597  34.214  31.231  1.00  0.00     0.002 A 
ATOM     87  C   UNL A   1      45.887  35.328  29.195  1.00  0.00     0.091 A 
ATOM     88  F   UNL A   1      44.310  34.248  27.768  1.00  0.00    -0.205 F 
ATOM     89  C   UNL A   1      46.639  35.318  30.382  1.00  0.00     0.022 A 
BRANCH  87  90
ATOM     90  S   UNL A   1      46.083  36.750  28.115  1.00  0.00     0.127 S 
ATOM     91  O   UNL A   1      46.515  36.118  26.869  1.00  0.00    -0.237 OA
ATOM     92  O   UNL A   1      44.729  37.301  28.083  1.00  0.00    -0.237 OA
ATOM     93  O   UNL A   1      47.072  37.608  28.752  1.00  0.00    -0.744 OA
ENDBRANCH  87  90
ENDBRANCH  60  83
ENDBRANCH  34  35
ENDBRANCH  26  29
ENDBRANCH  24  25
ENDBRANCH  23  24
ENDBRANCH  22  23
ENDBRANCH  21  22
ENDBRANCH   1  21
TORSDOF 22
ENDMDL
MODEL 2
REMARK VINA RESULT:      -9.7      5.668     10.069
REMARK SMILES COC[C@@H](O)COc1ccc(C(=O)NCCCCCCNC(=O)c2ccc(-c3c4nc(c(-c5cccc(S(=O)(=O)[O-])c5F)c5ccc([nH]5)c(-c5cccc(S(=O)(=O)[O-])c5F)c5nc(c(-c6cccc(S(=O)(=O)[O-])c6F)c6ccc3[nH]6)C=C5)C=C4)cc2)nc1
REMARK SMILES IDX 16 1 15 2 14 3 12 4 13 5 11 7 8 8 9 9 88 10 10 11 87 12 7 13
REMARK SMILES IDX 6 14 4 15 3 16 2 17 1 18 5 19 17 21 18 22 19 23 20 24 21 25
REMARK SMILES IDX 22 26 23 28 24 29 25 30 86 31 26 32 85 33 27 34 28 35 29 36
REMARK SMILES IDX 79 37 30 38 84 39 78 40 80 41 31 42 83 43 77 44 76 45 32 47
REMARK SMILES IDX 64 48 44 49 63 50 45 51 48 52 62 53 81 54 46 55 47 56 61 58
REMARK SMILES IDX 82 59 49 60 33 61 34 62 42 63 35 64 37 65 43 66 36 67 38 68
REMARK SMILES IDX 39 69 40 70 41 71 65 72 66 73 74 74 67 75 69 76 75 77 68 78
REMARK SMILES IDX 70 79 71 80 72 81 73 82 50 83 51 84 59 85 52 86 54 87 60 88
REMARK SMILES IDX 53 89 55 90 56 91 57 92 58 93
REMARK H PARENT 14 6 5 20 21 27 80 46 48 57
REMARK Flexibility Score: inf
ROOT
ATOM      1  C   UNL A   1      32.660  29.268  25.031  1.00  0.00     0.021 C 
ENDROOT
BRANCH   1   2
ATOM      2  C   UNL A   1      33.279  27.873  24.896  1.00  0.00     0.116 C 
BRANCH   2   3
ATOM      3  N   UNL A   1      33.529  27.553  23.500  1.00  0.00    -0.351 N 
ATOM      4  C   UNL A   1      33.502  26.353  22.823  1.00  0.00     0.269 C 
ATOM      5  O   UNL A   1      33.671  26.386  21.603  1.00  0.00    -0.268 OA
ATOM      6  H   UNL A   1      33.758  28.331  22.940  1.00  0.00     0.163 HD
BRANCH   4   7
ATOM      7  C   UNL A   1      33.257  25.043  23.517  1.00  0.00     0.128 A 
ATOM      8  C   UNL A   1      32.661  22.725  24.854  1.00  0.00     0.137 A 
ATOM      9  C   UNL A   1      33.990  23.075  24.670  1.00  0.00     0.050 A 
ATOM     10  C   UNL A   1      31.685  23.512  24.266  1.00  0.00     0.158 A 
ATOM     11  C   UNL A   1      34.296  24.249  23.988  1.00  0.00     0.038 A 
ATOM     12  N   UNL A   1      31.950  24.669  23.616  1.00  0.00    -0.247 NA
BRANCH   8  13
ATOM     13  O   UNL A   1      32.354  21.593  25.548  1.00  0.00    -0.489 OA
BRANCH  13  14
ATOM     14  C   UNL A   1      33.170  20.467  25.154  1.00  0.00     0.263 C 
BRANCH  14  15
ATOM     15  C   UNL A   1      32.429  19.118  25.263  1.00  0.00     0.177 C 
BRANCH  15  16
ATOM     16  C   UNL A   1      32.616  18.257  23.997  1.00  0.00     0.195 C 
BRANCH  16  17
ATOM     17  O   UNL A   1      33.991  17.888  23.843  1.00  0.00    -0.382 OA
ATOM     18  C   UNL A   1      34.171  16.594  23.279  1.00  0.00     0.195 C 
ENDBRANCH  16  17
ENDBRANCH  15  16
BRANCH  15  19
ATOM     19  O   UNL A   1      32.953  18.399  26.390  1.00  0.00    -0.387 OA
ATOM     20  H   UNL A   1      33.834  18.741  26.611  1.00  0.00     0.211 HD
ENDBRANCH  15  19
ENDBRANCH  14  15
ENDBRANCH  13  14
ENDBRANCH   8  13
ENDBRANCH   4   7
ENDBRANCH   2   3
ENDBRANCH   1   2
BRANCH   1  21
ATOM     21  C   UNL A   1      32.716  29.844  26.453  1.00  0.00     0.002 C 
BRANCH  21  22
ATOM     22  C   UNL A   1      31.462  30.607  26.895  1.00  0.00     0.002 C 
BRANCH  22  23
ATOM     23  C   UNL A   1      31.479  32.108  26.602  1.00  0.00     0.021 C 
BRANCH  23  24
ATOM     24  C   UNL A   1      32.798  32.803  26.929  1.00  0.00     0.116 C 
BRANCH  24  25
ATOM     25  N   UNL A   1      32.586  34.074  27.607  1.00  0.00    -0.352 N 
ATOM     26  C   UNL A   1      33.169  34.553  28.752  1.00  0.00     0.251 C 
ATOM     27  H   UNL A   1      31.930  34.675  27.184  1.00  0.00     0.163 HD
ATOM     28  O   UNL A   1      32.705  35.547  29.312  1.00  0.00    -0.269 OA
BRANCH  26  29
ATOM     29  C   UNL A   1      34.349  33.868  29.318  1.00  0.00     0.039 A 
ATOM     30  C   UNL A   1      35.628  34.299  28.958  1.00  0.00     0.014 A 
ATOM     31  C   UNL A   1      34.189  32.797  30.203  1.00  0.00     0.014 A 
ATOM     32  C   UNL A   1      36.748  33.697  29.535  1.00  0.00     0.010 A 
ATOM     33  C   UNL A   1      35.303  32.249  30.831  1.00  0.00     0.010 A 
ATOM     34  C   UNL A   1      36.595  32.689  30.502  1.00  0.00    -0.014 A 
BRANCH  34  35
ATOM     35  C   UNL A   1      37.766  32.096  31.195  1.00  0.00     0.031 A 
ATOM     36  C   UNL A   1      38.519  30.953  30.570  1.00  0.00     0.074 A 
ATOM     37  C   UNL A   1      38.092  32.525  32.431  1.00  0.00     0.049 A 
ATOM     38  N   UNL A   1      39.516  30.259  31.057  1.00  0.00    -0.248 NA
ATOM     39  C   UNL A   1      38.080  30.515  29.235  1.00  0.00     0.031 C 
ATOM     40  C   UNL A   1      37.392  33.575  33.174  1.00  0.00     0.029 A 
ATOM     41  N   UNL A   1      39.075  32.108  33.294  1.00  0.00    -0.354 N 
ATOM     42  C   UNL A   1      39.798  29.284  30.110  1.00  0.00     0.074 A 
ATOM     43  C   UNL A   1      38.846  29.453  29.033  1.00  0.00     0.031 C 
ATOM     44  C   UNL A   1      37.967  33.721  34.378  1.00  0.00     0.029 A 
ATOM     45  C   UNL A   1      39.051  32.752  34.509  1.00  0.00     0.049 A 
ATOM     46  H   UNL A   1      39.735  31.415  33.065  1.00  0.00     0.167 HD
ATOM     47  C   UNL A   1      40.775  28.347  30.122  1.00  0.00     0.034 A 
ATOM     48  C   UNL A   1      39.804  32.573  35.612  1.00  0.00     0.034 A 
ATOM     49  C   UNL A   1      41.740  28.204  31.178  1.00  0.00     0.049 A 
ATOM     50  C   UNL A   1      40.899  31.541  35.590  1.00  0.00     0.074 A 
ATOM     51  C   UNL A   1      42.823  27.345  31.243  1.00  0.00     0.029 A 
ATOM     52  N   UNL A   1      41.733  28.927  32.361  1.00  0.00    -0.354 N 
ATOM     53  N   UNL A   1      41.248  30.731  34.621  1.00  0.00    -0.248 NA
ATOM     54  C   UNL A   1      41.726  31.421  36.799  1.00  0.00     0.031 C 
ATOM     55  C   UNL A   1      43.450  27.524  32.481  1.00  0.00     0.029 A 
ATOM     56  C   UNL A   1      42.782  28.524  33.169  1.00  0.00     0.049 A 
ATOM     57  H   UNL A   1      41.079  29.626  32.591  1.00  0.00     0.167 HD
ATOM     58  C   UNL A   1      42.357  30.032  35.088  1.00  0.00     0.074 A 
ATOM     59  C   UNL A   1      42.631  30.529  36.420  1.00  0.00     0.031 C 
ATOM     60  C   UNL A   1      43.073  29.059  34.474  1.00  0.00     0.034 A 
BRANCH  47  61
ATOM     61  C   UNL A   1      40.878  27.424  28.935  1.00  0.00     0.023 A 
ATOM     62  C   UNL A   1      39.991  26.333  28.818  1.00  0.00     0.012 A 
ATOM     63  C   UNL A   1      41.809  27.668  27.907  1.00  0.00     0.148 A 
ATOM     64  C   UNL A   1      40.054  25.480  27.717  1.00  0.00     0.002 A 
ATOM     65  C   UNL A   1      41.833  26.843  26.789  1.00  0.00     0.091 A 
ATOM     66  F   UNL A   1      42.657  28.698  28.043  1.00  0.00    -0.205 F 
ATOM     67  C   UNL A   1      40.966  25.741  26.699  1.00  0.00     0.022 A 
BRANCH  65  68
ATOM     68  S   UNL A   1      42.914  27.140  25.386  1.00  0.00     0.127 S 
ATOM     69  O   UNL A   1      44.188  27.416  26.048  1.00  0.00    -0.237 OA
ATOM     70  O   UNL A   1      42.858  25.861  24.678  1.00  0.00    -0.237 OA
ATOM     71  O   UNL A   1      42.334  28.263  24.661  1.00  0.00    -0.744 OA
ENDBRANCH  65  68
ENDBRANCH  47  61
BRANCH  48  72
ATOM     72  C   UNL A   1      39.578  33.423  36.815  1.00  0.00     0.023 A 
ATOM     73  C   UNL A   1      38.568  33.074  37.732  1.00  0.00     0.012 A 
ATOM     74  C   UNL A   1      40.374  34.558  37.068  1.00  0.00     0.148 A 
ATOM     75  C   UNL A   1      38.330  33.860  38.860  1.00  0.00     0.002 A 
ATOM     76  C   UNL A   1      40.170  35.303  38.222  1.00  0.00     0.091 A 
ATOM     77  F   UNL A   1      41.325  34.878  36.178  1.00  0.00    -0.205 F 
ATOM     78  C   UNL A   1      39.137  34.967  39.111  1.00  0.00     0.022 A 
BRANCH  76  79
ATOM     79  S   UNL A   1      41.243  36.666  38.690  1.00  0.00     0.127 S 
ATOM     80  O   UNL A   1      40.277  37.677  39.112  1.00  0.00    -0.237 OA
ATOM     81  O   UNL A   1      42.029  36.072  39.772  1.00  0.00    -0.237 OA
ATOM     82  O   UNL A   1      42.015  36.990  37.497  1.00  0.00    -0.744 OA
ENDBRANCH  76  79
ENDBRANCH  48  72
BRANCH  60  83
ATOM     83  C   UNL A   1      44.255  28.486  35.214  1.00  0.00     0.023 A 
ATOM     84  C   UNL A   1      45.539  29.031  35.022  1.00  0.00     0.012 A 
ATOM     85  C   UNL A   1      44.073  27.458  36.160  1.00  0.00     0.148 A 
ATOM     86  C   UNL A   1      46.632  28.540  35.737  1.00  0.00     0.002 A 
ATOM     87  C   UNL A   1      45.156  27.009  36.906  1.00  0.00     0.091 A 
ATOM     88  F   UNL A   1      42.846  26.940  36.315  1.00  0.00    -0.205 F 
ATOM     89  C   UNL A   1      46.438  27.539  36.687  1.00  0.00     0.022 A 
BRANCH  87  90
ATOM     90  S   UNL A   1      44.986  25.796  38.221  1.00  0.00     0.127 S 
ATOM     91  O   UNL A   1      44.031  26.454  39.110  1.00  0.00    -0.237 OA
ATOM     92  O   UNL A   1      44.455  24.638  37.503  1.00  0.00    -0.237 OA
ATOM     93  O   UNL A   1      46.322  25.608  38.771  1.00  0.00    -0.744 OA
ENDBRANCH  87  90
ENDBRANCH  60  83
ENDBRANCH  34  35
ENDBRANCH  26  29
ENDBRANCH  24  25
ENDBRANCH  23  24
ENDBRANCH  22  23
ENDBRANCH  21  22
ENDBRANCH   1  21
TORSDOF 22
ENDMDL
MODEL 3
REMARK VINA RESULT:      -8.8      5.816      8.974
REMARK SMILES COC[C@@H](O)COc1ccc(C(=O)NCCCCCCNC(=O)c2ccc(-c3c4nc(c(-c5cccc(S(=O)(=O)[O-])c5F)c5ccc([nH]5)c(-c5cccc(S(=O)(=O)[O-])c5F)c5nc(c(-c6cccc(S(=O)(=O)[O-])c6F)c6ccc3[nH]6)C=C5)C=C4)cc2)nc1
REMARK SMILES IDX 16 1 15 2 14 3 12 4 13 5 11 7 8 8 9 9 88 10 10 11 87 12 7 13
REMARK SMILES IDX 6 14 4 15 3 16 2 17 1 18 5 19 17 21 18 22 19 23 20 24 21 25
REMARK SMILES IDX 22 26 23 28 24 29 25 30 86 31 26 32 85 33 27 34 28 35 29 36
REMARK SMILES IDX 79 37 30 38 84 39 78 40 80 41 31 42 83 43 77 44 76 45 32 47
REMARK SMILES IDX 64 48 44 49 63 50 45 51 48 52 62 53 81 54 46 55 47 56 61 58
REMARK SMILES IDX 82 59 49 60 33 61 34 62 42 63 35 64 37 65 43 66 36 67 38 68
REMARK SMILES IDX 39 69 40 70 41 71 65 72 66 73 74 74 67 75 69 76 75 77 68 78
REMARK SMILES IDX 70 79 71 80 72 81 73 82 50 83 51 84 59 85 52 86 54 87 60 88
REMARK SMILES IDX 53 89 55 90 56 91 57 92 58 93
REMARK H PARENT 14 6 5 20 21 27 80 46 48 57
REMARK Flexibility Score: inf
ROOT
ATOM      1  C   UNL A   1      34.841  29.957  27.174  1.00  0.00     0.021 C 
ENDROOT
BRANCH   1   2
ATOM      2  C   UNL A   1      33.475  29.283  27.338  1.00  0.00     0.116 C 
BRANCH   2   3
ATOM      3  N   UNL A   1      32.457  29.987  26.576  1.00  0.00    -0.351 N 
ATOM      4  C   UNL A   1      31.924  29.744  25.328  1.00  0.00     0.269 C 
ATOM      5  O   UNL A   1      30.995  30.464  24.958  1.00  0.00    -0.268 OA
ATOM      6  H   UNL A   1      32.082  30.776  27.032  1.00  0.00     0.163 HD
BRANCH   4   7
ATOM      7  C   UNL A   1      32.425  28.639  24.442  1.00  0.00     0.128 A 
ATOM      8  C   UNL A   1      33.283  26.506  22.948  1.00  0.00     0.137 A 
ATOM      9  C   UNL A   1      33.984  27.701  22.884  1.00  0.00     0.050 A 
ATOM     10  C   UNL A   1      32.114  26.469  23.689  1.00  0.00     0.158 A 
ATOM     11  C   UNL A   1      33.549  28.786  23.638  1.00  0.00     0.038 A 
ATOM     12  N   UNL A   1      31.677  27.500  24.448  1.00  0.00    -0.247 NA
BRANCH   8  13
ATOM     13  O   UNL A   1      33.721  25.430  22.237  1.00  0.00    -0.489 OA
BRANCH  13  14
ATOM     14  C   UNL A   1      34.233  24.380  23.086  1.00  0.00     0.263 C 
BRANCH  14  15
ATOM     15  C   UNL A   1      33.591  23.006  22.801  1.00  0.00     0.177 C 
BRANCH  15  16
ATOM     16  C   UNL A   1      33.206  22.272  24.101  1.00  0.00     0.195 C 
BRANCH  16  17
ATOM     17  O   UNL A   1      31.898  22.670  24.531  1.00  0.00    -0.382 OA
ATOM     18  C   UNL A   1      31.880  23.242  25.834  1.00  0.00     0.195 C 
ENDBRANCH  16  17
ENDBRANCH  15  16
BRANCH  15  19
ATOM     19  O   UNL A   1      32.404  23.211  22.019  1.00  0.00    -0.387 OA
ATOM     20  H   UNL A   1      31.623  23.129  22.589  1.00  0.00     0.211 HD
ENDBRANCH  15  19
ENDBRANCH  14  15
ENDBRANCH  13  14
ENDBRANCH   8  13
ENDBRANCH   4   7
ENDBRANCH   2   3
ENDBRANCH   1   2
BRANCH   1  21
ATOM     21  C   UNL A   1      34.886  31.410  27.665  1.00  0.00     0.002 C 
BRANCH  21  22
ATOM     22  C   UNL A   1      33.603  31.909  28.339  1.00  0.00     0.002 C 
BRANCH  22  23
ATOM     23  C   UNL A   1      32.994  33.171  27.724  1.00  0.00     0.021 C 
BRANCH  23  24
ATOM     24  C   UNL A   1      33.754  34.458  28.035  1.00  0.00     0.116 C 
BRANCH  24  25
ATOM     25  N   UNL A   1      33.229  35.122  29.219  1.00  0.00    -0.352 N 
ATOM     26  C   UNL A   1      33.518  34.895  30.540  1.00  0.00     0.251 C 
ATOM     27  H   UNL A   1      32.573  35.837  29.047  1.00  0.00     0.163 HD
ATOM     28  O   UNL A   1      32.812  35.390  31.420  1.00  0.00    -0.269 OA
BRANCH  26  29
ATOM     29  C   UNL A   1      34.671  34.047  30.905  1.00  0.00     0.039 A 
ATOM     30  C   UNL A   1      35.949  34.409  30.472  1.00  0.00     0.014 A 
ATOM     31  C   UNL A   1      34.487  32.894  31.674  1.00  0.00     0.014 A 
ATOM     32  C   UNL A   1      37.052  33.646  30.863  1.00  0.00     0.010 A 
ATOM     33  C   UNL A   1      35.594  32.179  32.122  1.00  0.00     0.010 A 
ATOM     34  C   UNL A   1      36.887  32.544  31.719  1.00  0.00    -0.014 A 
BRANCH  34  35
ATOM     35  C   UNL A   1      38.053  31.773  32.221  1.00  0.00     0.031 A 
ATOM     36  C   UNL A   1      38.692  32.134  33.534  1.00  0.00     0.074 A 
ATOM     37  C   UNL A   1      38.593  30.810  31.448  1.00  0.00     0.049 A 
ATOM     38  N   UNL A   1      39.759  31.628  34.097  1.00  0.00    -0.248 NA
ATOM     39  C   UNL A   1      38.068  33.223  34.303  1.00  0.00     0.031 C 
ATOM     40  C   UNL A   1      38.110  30.418  30.122  1.00  0.00     0.029 A 
ATOM     41  N   UNL A   1      39.689  30.007  31.651  1.00  0.00    -0.354 N 
ATOM     42  C   UNL A   1      39.956  32.357  35.263  1.00  0.00     0.074 A 
ATOM     43  C   UNL A   1      38.917  33.363  35.312  1.00  0.00     0.031 C 
ATOM     44  C   UNL A   1      38.902  29.451  29.632  1.00  0.00     0.029 A 
ATOM     45  C   UNL A   1      39.969  29.179  30.589  1.00  0.00     0.049 A 
ATOM     46  H   UNL A   1      40.221  30.022  32.478  1.00  0.00     0.167 HD
ATOM     47  C   UNL A   1      40.899  32.190  36.220  1.00  0.00     0.034 A 
ATOM     48  C   UNL A   1      40.982  28.311  30.398  1.00  0.00     0.034 A 
ATOM     49  C   UNL A   1      41.909  31.166  36.184  1.00  0.00     0.049 A 
ATOM     50  C   UNL A   1      42.004  28.128  31.488  1.00  0.00     0.074 A 
ATOM     51  C   UNL A   1      42.854  30.858  37.146  1.00  0.00     0.029 A 
ATOM     52  N   UNL A   1      42.115  30.293  35.127  1.00  0.00    -0.354 N 
ATOM     53  N   UNL A   1      42.081  28.721  32.653  1.00  0.00    -0.248 NA
ATOM     54  C   UNL A   1      43.057  27.131  31.251  1.00  0.00     0.031 C 
ATOM     55  C   UNL A   1      43.655  29.822  36.655  1.00  0.00     0.029 A 
ATOM     56  C   UNL A   1      43.183  29.457  35.405  1.00  0.00     0.049 A 
ATOM     57  H   UNL A   1      41.580  30.271  34.301  1.00  0.00     0.167 HD
ATOM     58  C   UNL A   1      43.167  28.145  33.304  1.00  0.00     0.074 A 
ATOM     59  C   UNL A   1      43.705  27.142  32.408  1.00  0.00     0.031 C 
ATOM     60  C   UNL A   1      43.679  28.430  34.526  1.00  0.00     0.034 A 
BRANCH  47  61
ATOM     61  C   UNL A   1      40.861  33.110  37.412  1.00  0.00     0.023 A 
ATOM     62  C   UNL A   1      39.951  32.858  38.461  1.00  0.00     0.012 A 
ATOM     63  C   UNL A   1      41.762  34.186  37.525  1.00  0.00     0.148 A 
ATOM     64  C   UNL A   1      39.914  33.683  39.584  1.00  0.00     0.002 A 
ATOM     65  C   UNL A   1      41.753  34.975  38.670  1.00  0.00     0.091 A 
ATOM     66  F   UNL A   1      42.607  34.422  36.511  1.00  0.00    -0.205 F 
ATOM     67  C   UNL A   1      40.821  34.733  39.694  1.00  0.00     0.022 A 
BRANCH  65  68
ATOM     68  S   UNL A   1      42.933  36.300  38.944  1.00  0.00     0.127 S 
ATOM     69  O   UNL A   1      42.485  37.300  37.976  1.00  0.00    -0.237 OA
ATOM     70  O   UNL A   1      42.683  36.650  40.342  1.00  0.00    -0.237 OA
ATOM     71  O   UNL A   1      44.248  35.729  38.685  1.00  0.00    -0.744 OA
ENDBRANCH  65  68
ENDBRANCH  47  61
BRANCH  48  72
ATOM     72  C   UNL A   1      41.053  27.514  29.140  1.00  0.00     0.023 A 
ATOM     73  C   UNL A   1      40.263  26.355  29.008  1.00  0.00     0.012 A 
ATOM     74  C   UNL A   1      41.876  27.911  28.069  1.00  0.00     0.148 A 
ATOM     75  C   UNL A   1      40.320  25.586  27.845  1.00  0.00     0.002 A 
ATOM     76  C   UNL A   1      41.885  27.174  26.892  1.00  0.00     0.091 A 
ATOM     77  F   UNL A   1      42.626  29.013  28.218  1.00  0.00    -0.205 F 
ATOM     78  C   UNL A   1      41.122  26.000  26.784  1.00  0.00     0.022 A 
BRANCH  76  79
ATOM     79  S   UNL A   1      42.785  27.702  25.430  1.00  0.00     0.127 S 
ATOM     80  O   UNL A   1      42.722  26.509  24.591  1.00  0.00    -0.237 OA
ATOM     81  O   UNL A   1      41.974  28.828  24.968  1.00  0.00    -0.237 OA
ATOM     82  O   UNL A   1      44.115  28.074  25.898  1.00  0.00    -0.744 OA
ENDBRANCH  76  79
ENDBRANCH  48  72
BRANCH  60  83
ATOM     83  C   UNL A   1      44.862  27.623  34.996  1.00  0.00     0.023 A 
ATOM     84  C   UNL A   1      46.168  28.119  34.823  1.00  0.00     0.012 A 
ATOM     85  C   UNL A   1      44.668  26.407  35.681  1.00  0.00     0.148 A 
ATOM     86  C   UNL A   1      47.267  27.403  35.297  1.00  0.00     0.002 A 
ATOM     87  C   UNL A   1      45.763  25.724  36.196  1.00  0.00     0.091 A 
ATOM     88  F   UNL A   1      43.417  25.942  35.819  1.00  0.00    -0.205 F 
ATOM     89  C   UNL A   1      47.064  26.213  35.993  1.00  0.00     0.022 A 
BRANCH  87  90
ATOM     90  S   UNL A   1      45.593  24.238  37.192  1.00  0.00     0.127 S 
ATOM     91  O   UNL A   1      44.704  24.695  38.258  1.00  0.00    -0.237 OA
ATOM     92  O   UNL A   1      44.984  23.303  36.247  1.00  0.00    -0.237 OA
ATOM     93  O   UNL A   1      46.940  23.881  37.616  1.00  0.00    -0.744 OA
ENDBRANCH  87  90
ENDBRANCH  60  83
ENDBRANCH  34  35
ENDBRANCH  26  29
ENDBRANCH  24  25
ENDBRANCH  23  24
ENDBRANCH  22  23
ENDBRANCH  21  22
ENDBRANCH   1  21
TORSDOF 22
ENDMDL
