MODEL 1
REMARK VINA RESULT:     -10.3      0.000      0.000
REMARK SMILES C/C(=N\Nc1nc(-c2ccc(Cl)cc2)cs1)c1nnn(-c2ccc(C(=O)NCCCCCCNC(=O)c3ccc(-c4c5nc(c(-c6cccc(S(=O)(=O)[O-])c6F)c6ccc([nH]6)c(-c6cccc(S(=O)(=O)[O-])c6F)c6nc(c(-c7cccc(S(=O)(=O)[O-])c7F)c7ccc4[nH]7)C=C6)C=C5)cc3)cc2)c1C
REMARK SMILES IDX 29 1 28 2 27 3 25 4 26 5 24 7 21 8 22 9 101 10 23 11 100 12
REMARK SMILES IDX 20 13 17 14 18 15 102 16 19 17 103 18 2 19 1 20 3 21 4 22
REMARK SMILES IDX 5 24 6 25 16 26 7 27 15 28 8 29 9 30 14 31 10 32 13 33 11 34
REMARK SMILES IDX 12 35 30 36 31 37 32 38 33 39 34 40 35 41 36 43 37 44 38 45
REMARK SMILES IDX 99 46 39 47 98 48 40 49 41 50 42 51 92 52 43 53 97 54 91 55
REMARK SMILES IDX 93 56 44 57 96 58 90 59 89 60 45 62 77 63 57 64 76 65 58 66
REMARK SMILES IDX 61 67 75 68 94 69 59 70 60 71 74 73 95 74 62 75 46 76 47 77
REMARK SMILES IDX 55 78 48 79 50 80 56 81 49 82 51 83 52 84 53 85 54 86 78 87
REMARK SMILES IDX 79 88 87 89 80 90 82 91 88 92 81 93 83 94 84 95 85 96 86 97
REMARK SMILES IDX 63 98 64 99 72 100 65 101 67 102 73 103 66 104 68 105 69 106
REMARK SMILES IDX 70 107 71 108
REMARK H PARENT 27 6 4 23 34 42 93 61 61 72
REMARK Flexibility Score: inf
ROOT
ATOM      1  C   UNL A   1      40.255  25.593  28.022  1.00  0.00     0.021 C 
ENDROOT
BRANCH   1   2
ATOM      2  C   UNL A   1      40.280  27.107  28.240  1.00  0.00     0.116 C 
BRANCH   2   3
ATOM      3  N   UNL A   1      40.629  27.432  29.612  1.00  0.00    -0.352 N 
ATOM      4  C   UNL A   1      40.111  28.327  30.517  1.00  0.00     0.251 C 
ATOM      5  O   UNL A   1      40.562  28.304  31.663  1.00  0.00    -0.269 OA
ATOM      6  H   UNL A   1      41.385  26.908  29.962  1.00  0.00     0.163 HD
BRANCH   4   7
ATOM      7  C   UNL A   1      38.969  29.233  30.203  1.00  0.00     0.039 A 
ATOM      8  C   UNL A   1      36.694  30.631  29.389  1.00  0.00     0.067 A 
ATOM      9  C   UNL A   1      36.548  29.551  30.260  1.00  0.00     0.029 A 
ATOM     10  C   UNL A   1      37.961  31.098  29.035  1.00  0.00     0.029 A 
ATOM     11  C   UNL A   1      37.691  28.839  30.640  1.00  0.00     0.016 A 
ATOM     12  C   UNL A   1      39.096  30.426  29.489  1.00  0.00     0.016 A 
BRANCH   8  13
ATOM     13  N   UNL A   1      35.561  31.165  28.746  1.00  0.00    -0.217 N 
ATOM     14  C   UNL A   1      33.786  31.398  27.504  1.00  0.00     0.132 A 
ATOM     15  N   UNL A   1      33.757  32.347  28.488  1.00  0.00    -0.128 NA
ATOM     16  C   UNL A   1      34.906  30.597  27.666  1.00  0.00     0.071 A 
ATOM     17  N   UNL A   1      34.786  32.124  29.299  1.00  0.00    -0.061 NA
ATOM     18  C   UNL A   1      35.278  29.303  27.035  1.00  0.00     0.069 C 
BRANCH  14  19
ATOM     19  C   UNL A   1      32.676  31.116  26.609  1.00  0.00     0.087 C 
ATOM     20  C   UNL A   1      31.427  31.911  26.906  1.00  0.00     0.071 C 
ATOM     21  N   UNL A   1      32.860  30.180  25.720  1.00  0.00    -0.176 NA
BRANCH  21  22
ATOM     22  N   UNL A   1      31.860  29.680  24.916  1.00  0.00    -0.252 N 
ATOM     23  H   UNL A   1      31.096  30.285  24.781  1.00  0.00     0.193 HD
BRANCH  22  24
ATOM     24  C   UNL A   1      31.761  28.486  24.281  1.00  0.00     0.203 A 
ATOM     25  N   UNL A   1      32.329  27.365  24.659  1.00  0.00    -0.219 NA
ATOM     26  S   UNL A   1      30.943  28.364  22.761  1.00  0.00    -0.103 S 
ATOM     27  C   UNL A   1      32.455  26.509  23.587  1.00  0.00     0.084 A 
ATOM     28  C   UNL A   1      31.766  26.882  22.455  1.00  0.00     0.097 A 
BRANCH  27  29
ATOM     29  C   UNL A   1      33.390  25.404  23.683  1.00  0.00     0.001 A 
ATOM     30  C   UNL A   1      33.292  24.340  22.778  1.00  0.00     0.012 A 
ATOM     31  C   UNL A   1      34.260  25.302  24.779  1.00  0.00     0.012 A 
ATOM     32  C   UNL A   1      34.071  23.194  22.952  1.00  0.00     0.021 A 
ATOM     33  C   UNL A   1      35.029  24.148  24.960  1.00  0.00     0.021 A 
ATOM     34  C   UNL A   1      34.932  23.101  24.043  1.00  0.00     0.041 A 
ATOM     35  Cl  UNL A   1      35.864  21.674  24.277  1.00  0.00    -0.084 Cl
ENDBRANCH  27  29
ENDBRANCH  22  24
ENDBRANCH  21  22
ENDBRANCH  14  19
ENDBRANCH   8  13
ENDBRANCH   4   7
ENDBRANCH   2   3
ENDBRANCH   1   2
BRANCH   1  36
ATOM     36  C   UNL A   1      41.632  24.983  27.727  1.00  0.00     0.002 C 
BRANCH  36  37
ATOM     37  C   UNL A   1      41.998  23.734  28.546  1.00  0.00     0.002 C 
BRANCH  37  38
ATOM     38  C   UNL A   1      41.835  22.386  27.826  1.00  0.00     0.021 C 
BRANCH  38  39
ATOM     39  C   UNL A   1      41.680  22.519  26.318  1.00  0.00     0.116 C 
BRANCH  39  40
ATOM     40  N   UNL A   1      42.474  21.521  25.601  1.00  0.00    -0.352 N 
ATOM     41  C   UNL A   1      43.728  21.668  25.040  1.00  0.00     0.251 C 
ATOM     42  H   UNL A   1      42.062  20.632  25.506  1.00  0.00     0.163 HD
ATOM     43  O   UNL A   1      44.136  20.895  24.194  1.00  0.00    -0.269 OA
BRANCH  41  44
ATOM     44  C   UNL A   1      44.558  22.796  25.496  1.00  0.00     0.039 A 
ATOM     45  C   UNL A   1      44.466  24.047  24.878  1.00  0.00     0.014 A 
ATOM     46  C   UNL A   1      45.387  22.592  26.596  1.00  0.00     0.014 A 
ATOM     47  C   UNL A   1      45.157  25.121  25.431  1.00  0.00     0.010 A 
ATOM     48  C   UNL A   1      45.963  23.675  27.212  1.00  0.00     0.010 A 
ATOM     49  C   UNL A   1      45.890  24.933  26.611  1.00  0.00    -0.014 A 
BRANCH  49  50
ATOM     50  C   UNL A   1      46.519  26.066  27.285  1.00  0.00     0.031 A 
ATOM     51  C   UNL A   1      47.973  26.272  27.006  1.00  0.00     0.074 A 
ATOM     52  C   UNL A   1      45.783  27.022  27.892  1.00  0.00     0.049 A 
ATOM     53  N   UNL A   1      48.957  26.303  27.846  1.00  0.00    -0.248 NA
ATOM     54  C   UNL A   1      48.392  26.377  25.599  1.00  0.00     0.031 C 
ATOM     55  C   UNL A   1      44.317  27.142  27.918  1.00  0.00     0.029 A 
ATOM     56  N   UNL A   1      46.191  28.190  28.457  1.00  0.00    -0.354 N 
ATOM     57  C   UNL A   1      50.092  26.632  27.099  1.00  0.00     0.074 A 
ATOM     58  C   UNL A   1      49.715  26.496  25.717  1.00  0.00     0.031 C 
ATOM     59  C   UNL A   1      43.980  28.419  28.195  1.00  0.00     0.029 A 
ATOM     60  C   UNL A   1      45.182  29.141  28.555  1.00  0.00     0.049 A 
ATOM     61  H   UNL A   1      47.113  28.346  28.766  1.00  0.00     0.167 HD
ATOM     62  C   UNL A   1      51.195  27.197  27.668  1.00  0.00     0.034 A 
ATOM     63  C   UNL A   1      45.333  30.451  28.856  1.00  0.00     0.034 A 
ATOM     64  C   UNL A   1      51.155  27.094  29.103  1.00  0.00     0.049 A 
ATOM     65  C   UNL A   1      46.647  30.602  29.515  1.00  0.00     0.074 A 
ATOM     66  C   UNL A   1      51.149  26.067  30.023  1.00  0.00     0.029 A 
ATOM     67  N   UNL A   1      50.764  28.221  29.781  1.00  0.00    -0.354 N 
ATOM     68  N   UNL A   1      46.945  30.071  30.668  1.00  0.00    -0.248 NA
ATOM     69  C   UNL A   1      47.776  31.038  28.713  1.00  0.00     0.031 C 
ATOM     70  C   UNL A   1      50.325  26.536  31.088  1.00  0.00     0.029 A 
ATOM     71  C   UNL A   1      49.910  27.834  30.776  1.00  0.00     0.049 A 
ATOM     72  H   UNL A   1      51.049  29.143  29.587  1.00  0.00     0.167 HD
ATOM     73  C   UNL A   1      48.278  29.706  30.546  1.00  0.00     0.074 A 
ATOM     74  C   UNL A   1      48.767  30.452  29.391  1.00  0.00     0.031 C 
ATOM     75  C   UNL A   1      48.772  28.618  31.208  1.00  0.00     0.034 A 
BRANCH  62  76
ATOM     76  C   UNL A   1      52.159  28.157  26.995  1.00  0.00     0.023 A 
ATOM     77  C   UNL A   1      53.539  27.838  27.054  1.00  0.00     0.012 A 
ATOM     78  C   UNL A   1      51.832  29.460  26.558  1.00  0.00     0.148 A 
ATOM     79  C   UNL A   1      54.532  28.779  26.759  1.00  0.00     0.002 A 
ATOM     80  C   UNL A   1      52.822  30.366  26.186  1.00  0.00     0.091 A 
ATOM     81  F   UNL A   1      50.570  29.892  26.624  1.00  0.00    -0.205 F 
ATOM     82  C   UNL A   1      54.173  30.044  26.317  1.00  0.00     0.022 A 
BRANCH  80  83
ATOM     83  S   UNL A   1      52.407  31.993  25.542  1.00  0.00     0.127 S 
ATOM     84  O   UNL A   1      51.876  32.652  26.729  1.00  0.00    -0.237 OA
ATOM     85  O   UNL A   1      53.711  32.480  25.091  1.00  0.00    -0.237 OA
ATOM     86  O   UNL A   1      51.461  31.747  24.460  1.00  0.00    -0.744 OA
ENDBRANCH  80  83
ENDBRANCH  62  76
BRANCH  63  87
ATOM     87  C   UNL A   1      44.541  31.610  28.395  1.00  0.00     0.023 A 
ATOM     88  C   UNL A   1      43.841  32.392  29.331  1.00  0.00     0.012 A 
ATOM     89  C   UNL A   1      44.689  32.107  27.080  1.00  0.00     0.148 A 
ATOM     90  C   UNL A   1      43.332  33.647  28.980  1.00  0.00     0.002 A 
ATOM     91  C   UNL A   1      44.180  33.354  26.735  1.00  0.00     0.091 A 
ATOM     92  F   UNL A   1      45.409  31.396  26.201  1.00  0.00    -0.205 F 
ATOM     93  C   UNL A   1      43.510  34.133  27.687  1.00  0.00     0.022 A 
BRANCH  91  94
ATOM     94  S   UNL A   1      44.397  34.059  25.095  1.00  0.00     0.127 S 
ATOM     95  O   UNL A   1      43.979  32.953  24.233  1.00  0.00    -0.237 OA
ATOM     96  O   UNL A   1      43.475  35.191  25.132  1.00  0.00    -0.237 OA
ATOM     97  O   UNL A   1      45.810  34.398  24.993  1.00  0.00    -0.744 OA
ENDBRANCH  91  94
ENDBRANCH  63  87
BRANCH  75  98
ATOM     98  C   UNL A   1      47.932  28.006  32.302  1.00  0.00     0.023 A 
ATOM     99  C   UNL A   1      47.994  28.453  33.638  1.00  0.00     0.012 A 
ATOM    100  C   UNL A   1      46.920  27.104  31.936  1.00  0.00     0.148 A 
ATOM    101  C   UNL A   1      47.077  27.999  34.589  1.00  0.00     0.002 A 
ATOM    102  C   UNL A   1      45.979  26.693  32.872  1.00  0.00     0.091 A 
ATOM    103  F   UNL A   1      46.871  26.690  30.660  1.00  0.00    -0.205 F 
ATOM    104  C   UNL A   1      46.059  27.132  34.203  1.00  0.00     0.022 A 
BRANCH 102 105
ATOM    105  S   UNL A   1      44.563  25.696  32.401  1.00  0.00     0.127 S 
ATOM    106  O   UNL A   1      43.887  26.562  31.437  1.00  0.00    -0.237 OA
ATOM    107  O   UNL A   1      45.193  24.509  31.820  1.00  0.00    -0.237 OA
ATOM    108  O   UNL A   1      43.831  25.434  33.634  1.00  0.00    -0.744 OA
ENDBRANCH 102 105
ENDBRANCH  75  98
ENDBRANCH  49  50
ENDBRANCH  41  44
ENDBRANCH  39  40
ENDBRANCH  38  39
ENDBRANCH  37  38
ENDBRANCH  36  37
ENDBRANCH   1  36
TORSDOF 21
ENDMDL
MODEL 2
REMARK VINA RESULT:     -10.3      5.489     11.890
REMARK SMILES C/C(=N\Nc1nc(-c2ccc(Cl)cc2)cs1)c1nnn(-c2ccc(C(=O)NCCCCCCNC(=O)c3ccc(-c4c5nc(c(-c6cccc(S(=O)(=O)[O-])c6F)c6ccc([nH]6)c(-c6cccc(S(=O)(=O)[O-])c6F)c6nc(c(-c7cccc(S(=O)(=O)[O-])c7F)c7ccc4[nH]7)C=C6)C=C5)cc3)cc2)c1C
REMARK SMILES IDX 29 1 28 2 27 3 25 4 26 5 24 7 21 8 22 9 101 10 23 11 100 12
REMARK SMILES IDX 20 13 17 14 18 15 102 16 19 17 103 18 2 19 1 20 3 21 4 22
REMARK SMILES IDX 5 24 6 25 16 26 7 27 15 28 8 29 9 30 14 31 10 32 13 33 11 34
REMARK SMILES IDX 12 35 30 36 31 37 32 38 33 39 34 40 35 41 36 43 37 44 38 45
REMARK SMILES IDX 99 46 39 47 98 48 40 49 41 50 42 51 92 52 43 53 97 54 91 55
REMARK SMILES IDX 93 56 44 57 96 58 90 59 89 60 45 62 77 63 57 64 76 65 58 66
REMARK SMILES IDX 61 67 75 68 94 69 59 70 60 71 74 73 95 74 62 75 46 76 47 77
REMARK SMILES IDX 55 78 48 79 50 80 56 81 49 82 51 83 52 84 53 85 54 86 78 87
REMARK SMILES IDX 79 88 87 89 80 90 82 91 88 92 81 93 83 94 84 95 85 96 86 97
REMARK SMILES IDX 63 98 64 99 72 100 65 101 67 102 73 103 66 104 68 105 69 106
REMARK SMILES IDX 70 107 71 108
REMARK H PARENT 27 6 4 23 34 42 93 61 61 72
REMARK Flexibility Score: inf
ROOT
ATOM      1  C   UNL A   1      42.929  36.031  28.334  1.00  0.00     0.021 C 
ENDROOT
BRANCH   1   2
ATOM      2  C   UNL A   1      43.660  35.599  27.060  1.00  0.00     0.116 C 
BRANCH   2   3
ATOM      3  N   UNL A   1      44.991  35.105  27.364  1.00  0.00    -0.352 N 
ATOM      4  C   UNL A   1      45.471  33.855  27.675  1.00  0.00     0.251 C 
ATOM      5  O   UNL A   1      46.691  33.725  27.787  1.00  0.00    -0.269 OA
ATOM      6  H   UNL A   1      45.686  35.802  27.344  1.00  0.00     0.163 HD
BRANCH   4   7
ATOM      7  C   UNL A   1      44.599  32.650  27.773  1.00  0.00     0.039 A 
ATOM      8  C   UNL A   1      43.195  30.287  28.264  1.00  0.00     0.067 A 
ATOM      9  C   UNL A   1      43.092  31.337  29.177  1.00  0.00     0.029 A 
ATOM     10  C   UNL A   1      43.874  30.456  27.055  1.00  0.00     0.029 A 
ATOM     11  C   UNL A   1      43.821  32.506  28.937  1.00  0.00     0.016 A 
ATOM     12  C   UNL A   1      44.529  31.659  26.793  1.00  0.00     0.016 A 
BRANCH   8  13
ATOM     13  N   UNL A   1      42.738  29.005  28.623  1.00  0.00    -0.217 N 
ATOM     14  C   UNL A   1      41.522  27.210  28.839  1.00  0.00     0.132 A 
ATOM     15  N   UNL A   1      42.831  26.879  29.055  1.00  0.00    -0.128 NA
ATOM     16  C   UNL A   1      41.433  28.556  28.518  1.00  0.00     0.071 A 
ATOM     17  N   UNL A   1      43.570  27.957  28.813  1.00  0.00    -0.061 NA
ATOM     18  C   UNL A   1      40.304  29.353  27.968  1.00  0.00     0.069 C 
BRANCH  14  19
ATOM     19  C   UNL A   1      40.447  26.242  28.702  1.00  0.00     0.087 C 
ATOM     20  C   UNL A   1      39.206  26.583  29.491  1.00  0.00     0.071 C 
ATOM     21  N   UNL A   1      40.698  25.181  27.987  1.00  0.00    -0.176 NA
BRANCH  21  22
ATOM     22  N   UNL A   1      39.851  24.098  27.900  1.00  0.00    -0.252 N 
ATOM     23  H   UNL A   1      39.641  23.666  28.759  1.00  0.00     0.193 HD
BRANCH  22  24
ATOM     24  C   UNL A   1      39.261  23.532  26.818  1.00  0.00     0.203 A 
ATOM     25  N   UNL A   1      38.298  24.066  26.102  1.00  0.00    -0.219 NA
ATOM     26  S   UNL A   1      39.654  21.915  26.347  1.00  0.00    -0.103 S 
ATOM     27  C   UNL A   1      37.602  23.083  25.433  1.00  0.00     0.084 A 
ATOM     28  C   UNL A   1      38.185  21.836  25.450  1.00  0.00     0.097 A 
BRANCH  27  29
ATOM     29  C   UNL A   1      36.285  23.394  24.912  1.00  0.00     0.001 A 
ATOM     30  C   UNL A   1      35.832  22.748  23.755  1.00  0.00     0.012 A 
ATOM     31  C   UNL A   1      35.544  24.461  25.441  1.00  0.00     0.012 A 
ATOM     32  C   UNL A   1      34.641  23.148  23.145  1.00  0.00     0.021 A 
ATOM     33  C   UNL A   1      34.359  24.870  24.821  1.00  0.00     0.021 A 
ATOM     34  C   UNL A   1      33.913  24.209  23.678  1.00  0.00     0.041 A 
ATOM     35  Cl  UNL A   1      32.465  24.725  22.904  1.00  0.00    -0.084 Cl
ENDBRANCH  27  29
ENDBRANCH  22  24
ENDBRANCH  21  22
ENDBRANCH  14  19
ENDBRANCH   8  13
ENDBRANCH   4   7
ENDBRANCH   2   3
ENDBRANCH   1   2
BRANCH   1  36
ATOM     36  C   UNL A   1      42.991  37.540  28.607  1.00  0.00     0.002 C 
BRANCH  36  37
ATOM     37  C   UNL A   1      44.209  38.274  28.023  1.00  0.00     0.002 C 
BRANCH  37  38
ATOM     38  C   UNL A   1      45.233  38.795  29.042  1.00  0.00     0.021 C 
BRANCH  38  39
ATOM     39  C   UNL A   1      46.264  37.753  29.454  1.00  0.00     0.116 C 
BRANCH  39  40
ATOM     40  N   UNL A   1      46.750  37.980  30.815  1.00  0.00    -0.352 N 
ATOM     41  C   UNL A   1      46.098  37.736  32.008  1.00  0.00     0.251 C 
ATOM     42  H   UNL A   1      47.658  38.353  30.889  1.00  0.00     0.163 HD
ATOM     43  O   UNL A   1      46.454  38.268  33.042  1.00  0.00    -0.269 OA
BRANCH  41  44
ATOM     44  C   UNL A   1      44.950  36.813  31.989  1.00  0.00     0.039 A 
ATOM     45  C   UNL A   1      45.054  35.556  31.385  1.00  0.00     0.014 A 
ATOM     46  C   UNL A   1      43.785  37.208  32.640  1.00  0.00     0.014 A 
ATOM     47  C   UNL A   1      43.997  34.660  31.515  1.00  0.00     0.010 A 
ATOM     48  C   UNL A   1      42.801  36.281  32.876  1.00  0.00     0.010 A 
ATOM     49  C   UNL A   1      42.879  35.022  32.279  1.00  0.00    -0.014 A 
BRANCH  49  50
ATOM     50  C   UNL A   1      41.813  34.057  32.541  1.00  0.00     0.031 A 
ATOM     51  C   UNL A   1      40.589  34.185  31.693  1.00  0.00     0.074 A 
ATOM     52  C   UNL A   1      42.028  32.959  33.296  1.00  0.00     0.049 A 
ATOM     53  N   UNL A   1      39.366  34.375  32.071  1.00  0.00    -0.248 NA
ATOM     54  C   UNL A   1      40.764  34.182  30.232  1.00  0.00     0.031 C 
ATOM     55  C   UNL A   1      43.298  32.511  33.887  1.00  0.00     0.029 A 
ATOM     56  N   UNL A   1      41.195  31.911  33.542  1.00  0.00    -0.354 N 
ATOM     57  C   UNL A   1      38.589  34.312  30.909  1.00  0.00     0.074 A 
ATOM     58  C   UNL A   1      39.514  34.363  29.807  1.00  0.00     0.031 C 
ATOM     59  C   UNL A   1      43.225  31.191  34.153  1.00  0.00     0.029 A 
ATOM     60  C   UNL A   1      41.859  30.756  33.941  1.00  0.00     0.049 A 
ATOM     61  H   UNL A   1      40.217  31.966  33.447  1.00  0.00     0.167 HD
ATOM     62  C   UNL A   1      37.261  34.008  30.941  1.00  0.00     0.034 A 
ATOM     63  C   UNL A   1      41.335  29.514  34.033  1.00  0.00     0.034 A 
ATOM     64  C   UNL A   1      36.736  34.096  32.279  1.00  0.00     0.049 A 
ATOM     65  C   UNL A   1      39.866  29.661  34.104  1.00  0.00     0.074 A 
ATOM     66  C   UNL A   1      36.578  35.092  33.218  1.00  0.00     0.029 A 
ATOM     67  N   UNL A   1      36.578  32.908  32.947  1.00  0.00    -0.354 N 
ATOM     68  N   UNL A   1      39.241  30.242  35.090  1.00  0.00    -0.248 NA
ATOM     69  C   UNL A   1      39.096  29.493  32.884  1.00  0.00     0.031 C 
ATOM     70  C   UNL A   1      36.786  34.448  34.473  1.00  0.00     0.029 A 
ATOM     71  C   UNL A   1      37.015  33.090  34.229  1.00  0.00     0.049 A 
ATOM     72  H   UNL A   1      36.214  32.075  32.570  1.00  0.00     0.167 HD
ATOM     73  C   UNL A   1      38.179  30.899  34.487  1.00  0.00     0.074 A 
ATOM     74  C   UNL A   1      38.058  30.285  33.169  1.00  0.00     0.031 C 
ATOM     75  C   UNL A   1      37.693  32.068  34.999  1.00  0.00     0.034 A 
BRANCH  62  76
ATOM     76  C   UNL A   1      36.478  33.293  29.856  1.00  0.00     0.023 A 
ATOM     77  C   UNL A   1      35.263  33.887  29.433  1.00  0.00     0.012 A 
ATOM     78  C   UNL A   1      36.711  31.966  29.429  1.00  0.00     0.148 A 
ATOM     79  C   UNL A   1      34.310  33.182  28.688  1.00  0.00     0.002 A 
ATOM     80  C   UNL A   1      35.799  31.297  28.618  1.00  0.00     0.091 A 
ATOM     81  F   UNL A   1      37.752  31.281  29.911  1.00  0.00    -0.205 F 
ATOM     82  C   UNL A   1      34.582  31.887  28.273  1.00  0.00     0.022 A 
BRANCH  80  83
ATOM     83  S   UNL A   1      36.135  29.644  27.997  1.00  0.00     0.127 S 
ATOM     84  O   UNL A   1      37.260  29.890  27.102  1.00  0.00    -0.237 OA
ATOM     85  O   UNL A   1      36.466  28.921  29.225  1.00  0.00    -0.237 OA
ATOM     86  O   UNL A   1      34.892  29.209  27.371  1.00  0.00    -0.744 OA
ENDBRANCH  80  83
ENDBRANCH  62  76
BRANCH  63  87
ATOM     87  C   UNL A   1      41.990  28.207  33.816  1.00  0.00     0.023 A 
ATOM     88  C   UNL A   1      42.771  28.003  32.663  1.00  0.00     0.012 A 
ATOM     89  C   UNL A   1      42.072  27.259  34.861  1.00  0.00     0.148 A 
ATOM     90  C   UNL A   1      43.634  26.906  32.567  1.00  0.00     0.002 A 
ATOM     91  C   UNL A   1      42.929  26.170  34.760  1.00  0.00     0.091 A 
ATOM     92  F   UNL A   1      41.379  27.482  35.986  1.00  0.00    -0.205 F 
ATOM     93  C   UNL A   1      43.721  25.996  33.618  1.00  0.00     0.022 A 
BRANCH  91  94
ATOM     94  S   UNL A   1      43.117  24.970  36.086  1.00  0.00     0.127 S 
ATOM     95  O   UNL A   1      43.979  23.965  35.464  1.00  0.00    -0.237 OA
ATOM     96  O   UNL A   1      43.759  25.771  37.125  1.00  0.00    -0.237 OA
ATOM     97  O   UNL A   1      41.771  24.501  36.391  1.00  0.00    -0.744 OA
ENDBRANCH  91  94
ENDBRANCH  63  87
BRANCH  75  98
ATOM     98  C   UNL A   1      38.124  32.472  36.388  1.00  0.00     0.023 A 
ATOM     99  C   UNL A   1      37.525  31.936  37.548  1.00  0.00     0.012 A 
ATOM    100  C   UNL A   1      39.284  33.251  36.523  1.00  0.00     0.148 A 
ATOM    101  C   UNL A   1      38.064  32.185  38.813  1.00  0.00     0.002 A 
ATOM    102  C   UNL A   1      39.847  33.454  37.778  1.00  0.00     0.091 A 
ATOM    103  F   UNL A   1      39.845  33.751  35.411  1.00  0.00    -0.205 F 
ATOM    104  C   UNL A   1      39.234  32.930  38.927  1.00  0.00     0.022 A 
BRANCH 102 105
ATOM    105  S   UNL A   1      41.428  34.279  37.972  1.00  0.00     0.127 S 
ATOM    106  O   UNL A   1      41.390  35.270  36.899  1.00  0.00    -0.237 OA
ATOM    107  O   UNL A   1      41.330  34.836  39.323  1.00  0.00    -0.237 OA
ATOM    108  O   UNL A   1      42.441  33.239  37.832  1.00  0.00    -0.744 OA
ENDBRANCH 102 105
ENDBRANCH  75  98
ENDBRANCH  49  50
ENDBRANCH  41  44
ENDBRANCH  39  40
ENDBRANCH  38  39
ENDBRANCH  37  38
ENDBRANCH  36  37
ENDBRANCH   1  36
TORSDOF 21
ENDMDL
MODEL 3
REMARK VINA RESULT:     -10.0      4.010      8.997
REMARK SMILES C/C(=N\Nc1nc(-c2ccc(Cl)cc2)cs1)c1nnn(-c2ccc(C(=O)NCCCCCCNC(=O)c3ccc(-c4c5nc(c(-c6cccc(S(=O)(=O)[O-])c6F)c6ccc([nH]6)c(-c6cccc(S(=O)(=O)[O-])c6F)c6nc(c(-c7cccc(S(=O)(=O)[O-])c7F)c7ccc4[nH]7)C=C6)C=C5)cc3)cc2)c1C
REMARK SMILES IDX 29 1 28 2 27 3 25 4 26 5 24 7 21 8 22 9 101 10 23 11 100 12
REMARK SMILES IDX 20 13 17 14 18 15 102 16 19 17 103 18 2 19 1 20 3 21 4 22
REMARK SMILES IDX 5 24 6 25 16 26 7 27 15 28 8 29 9 30 14 31 10 32 13 33 11 34
REMARK SMILES IDX 12 35 30 36 31 37 32 38 33 39 34 40 35 41 36 43 37 44 38 45
REMARK SMILES IDX 99 46 39 47 98 48 40 49 41 50 42 51 92 52 43 53 97 54 91 55
REMARK SMILES IDX 93 56 44 57 96 58 90 59 89 60 45 62 77 63 57 64 76 65 58 66
REMARK SMILES IDX 61 67 75 68 94 69 59 70 60 71 74 73 95 74 62 75 46 76 47 77
REMARK SMILES IDX 55 78 48 79 50 80 56 81 49 82 51 83 52 84 53 85 54 86 78 87
REMARK SMILES IDX 79 88 87 89 80 90 82 91 88 92 81 93 83 94 84 95 85 96 86 97
REMARK SMILES IDX 63 98 64 99 72 100 65 101 67 102 73 103 66 104 68 105 69 106
REMARK SMILES IDX 70 107 71 108
REMARK H PARENT 27 6 4 23 34 42 93 61 61 72
REMARK Flexibility Score: inf
ROOT
ATOM      1  C   UNL A   1      34.148  35.356  33.597  1.00  0.00     0.021 C 
ENDROOT
BRANCH   1   2
ATOM      2  C   UNL A   1      34.766  36.044  32.377  1.00  0.00     0.116 C 
BRANCH   2   3
ATOM      3  N   UNL A   1      33.738  36.477  31.446  1.00  0.00    -0.352 N 
ATOM      4  C   UNL A   1      33.266  35.948  30.269  1.00  0.00     0.251 C 
ATOM      5  O   UNL A   1      32.299  36.501  29.744  1.00  0.00    -0.269 OA
ATOM      6  H   UNL A   1      33.295  37.316  31.709  1.00  0.00     0.163 HD
BRANCH   4   7
ATOM      7  C   UNL A   1      33.797  34.689  29.673  1.00  0.00     0.039 A 
ATOM      8  C   UNL A   1      34.420  32.266  28.433  1.00  0.00     0.067 A 
ATOM      9  C   UNL A   1      34.098  33.368  27.641  1.00  0.00     0.029 A 
ATOM     10  C   UNL A   1      34.565  32.398  29.816  1.00  0.00     0.029 A 
ATOM     11  C   UNL A   1      33.760  34.570  28.271  1.00  0.00     0.016 A 
ATOM     12  C   UNL A   1      34.304  33.626  30.423  1.00  0.00     0.016 A 
BRANCH   8  13
ATOM     13  N   UNL A   1      34.455  30.981  27.858  1.00  0.00    -0.217 N 
ATOM     14  C   UNL A   1      33.984  29.215  26.672  1.00  0.00     0.132 A 
ATOM     15  N   UNL A   1      35.308  29.173  27.011  1.00  0.00    -0.128 NA
ATOM     16  C   UNL A   1      33.418  30.381  27.164  1.00  0.00     0.071 A 
ATOM     17  N   UNL A   1      35.605  30.307  27.638  1.00  0.00    -0.061 NA
ATOM     18  C   UNL A   1      32.106  31.021  26.880  1.00  0.00     0.069 C 
BRANCH  14  19
ATOM     19  C   UNL A   1      33.356  28.313  25.721  1.00  0.00     0.087 C 
ATOM     20  C   UNL A   1      33.928  28.391  24.326  1.00  0.00     0.071 C 
ATOM     21  N   UNL A   1      32.347  27.610  26.156  1.00  0.00    -0.176 NA
BRANCH  21  22
ATOM     22  N   UNL A   1      31.543  26.842  25.343  1.00  0.00    -0.252 N 
ATOM     23  H   UNL A   1      30.715  27.282  25.044  1.00  0.00     0.193 HD
BRANCH  22  24
ATOM     24  C   UNL A   1      31.712  25.575  24.889  1.00  0.00     0.203 A 
ATOM     25  N   UNL A   1      32.621  24.725  25.306  1.00  0.00    -0.219 NA
ATOM     26  S   UNL A   1      30.780  24.988  23.555  1.00  0.00    -0.103 S 
ATOM     27  C   UNL A   1      32.852  23.765  24.344  1.00  0.00     0.084 A 
ATOM     28  C   UNL A   1      31.949  23.747  23.305  1.00  0.00     0.097 A 
BRANCH  27  29
ATOM     29  C   UNL A   1      34.068  22.979  24.422  1.00  0.00     0.001 A 
ATOM     30  C   UNL A   1      34.253  22.102  25.498  1.00  0.00     0.012 A 
ATOM     31  C   UNL A   1      35.132  23.225  23.542  1.00  0.00     0.012 A 
ATOM     32  C   UNL A   1      35.480  21.461  25.682  1.00  0.00     0.021 A 
ATOM     33  C   UNL A   1      36.364  22.593  23.735  1.00  0.00     0.021 A 
ATOM     34  C   UNL A   1      36.530  21.712  24.802  1.00  0.00     0.041 A 
ATOM     35  Cl  UNL A   1      38.053  20.949  25.050  1.00  0.00    -0.084 Cl
ENDBRANCH  27  29
ENDBRANCH  22  24
ENDBRANCH  21  22
ENDBRANCH  14  19
ENDBRANCH   8  13
ENDBRANCH   4   7
ENDBRANCH   2   3
ENDBRANCH   1   2
BRANCH   1  36
ATOM     36  C   UNL A   1      35.163  34.608  34.472  1.00  0.00     0.002 C 
BRANCH  36  37
ATOM     37  C   UNL A   1      35.600  33.227  33.956  1.00  0.00     0.002 C 
BRANCH  37  38
ATOM     38  C   UNL A   1      36.849  33.207  33.062  1.00  0.00     0.021 C 
BRANCH  38  39
ATOM     39  C   UNL A   1      38.139  32.954  33.829  1.00  0.00     0.116 C 
BRANCH  39  40
ATOM     40  N   UNL A   1      37.894  32.252  35.088  1.00  0.00    -0.352 N 
ATOM     41  C   UNL A   1      38.353  31.009  35.479  1.00  0.00     0.251 C 
ATOM     42  H   UNL A   1      37.329  32.726  35.740  1.00  0.00     0.163 HD
ATOM     43  O   UNL A   1      37.820  30.394  36.382  1.00  0.00    -0.269 OA
BRANCH  41  44
ATOM     44  C   UNL A   1      39.510  30.447  34.761  1.00  0.00     0.039 A 
ATOM     45  C   UNL A   1      40.815  30.728  35.177  1.00  0.00     0.014 A 
ATOM     46  C   UNL A   1      39.260  29.583  33.699  1.00  0.00     0.014 A 
ATOM     47  C   UNL A   1      41.873  30.063  34.563  1.00  0.00     0.010 A 
ATOM     48  C   UNL A   1      40.290  28.835  33.185  1.00  0.00     0.010 A 
ATOM     49  C   UNL A   1      41.602  29.103  33.579  1.00  0.00    -0.014 A 
BRANCH  49  50
ATOM     50  C   UNL A   1      42.680  28.297  33.010  1.00  0.00     0.031 A 
ATOM     51  C   UNL A   1      43.289  27.279  33.918  1.00  0.00     0.074 A 
ATOM     52  C   UNL A   1      42.919  28.279  31.681  1.00  0.00     0.049 A 
ATOM     53  N   UNL A   1      44.526  27.162  34.282  1.00  0.00    -0.248 NA
ATOM     54  C   UNL A   1      42.387  26.315  34.569  1.00  0.00     0.031 C 
ATOM     55  C   UNL A   1      42.148  28.949  30.622  1.00  0.00     0.029 A 
ATOM     56  N   UNL A   1      43.792  27.508  30.977  1.00  0.00    -0.354 N 
ATOM     57  C   UNL A   1      44.595  25.991  35.044  1.00  0.00     0.074 A 
ATOM     58  C   UNL A   1      43.235  25.615  35.324  1.00  0.00     0.031 C 
ATOM     59  C   UNL A   1      42.389  28.340  29.443  1.00  0.00     0.029 A 
ATOM     60  C   UNL A   1      43.463  27.387  29.631  1.00  0.00     0.049 A 
ATOM     61  H   UNL A   1      44.580  27.078  31.381  1.00  0.00     0.167 HD
ATOM     62  C   UNL A   1      45.760  25.301  35.207  1.00  0.00     0.034 A 
ATOM     63  C   UNL A   1      43.999  26.518  28.744  1.00  0.00     0.034 A 
ATOM     64  C   UNL A   1      46.895  26.086  34.798  1.00  0.00     0.049 A 
ATOM     65  C   UNL A   1      45.289  26.062  29.301  1.00  0.00     0.074 A 
ATOM     66  C   UNL A   1      47.483  27.266  35.202  1.00  0.00     0.029 A 
ATOM     67  N   UNL A   1      47.411  25.805  33.558  1.00  0.00    -0.354 N 
ATOM     68  N   UNL A   1      46.314  26.844  29.495  1.00  0.00    -0.248 NA
ATOM     69  C   UNL A   1      45.327  24.791  30.003  1.00  0.00     0.031 C 
ATOM     70  C   UNL A   1      47.971  27.861  34.002  1.00  0.00     0.029 A 
ATOM     71  C   UNL A   1      47.691  26.992  32.943  1.00  0.00     0.049 A 
ATOM     72  H   UNL A   1      47.555  24.907  33.180  1.00  0.00     0.167 HD
ATOM     73  C   UNL A   1      46.894  26.371  30.663  1.00  0.00     0.074 A 
ATOM     74  C   UNL A   1      46.338  25.033  30.843  1.00  0.00     0.031 C 
ATOM     75  C   UNL A   1      47.538  27.217  31.520  1.00  0.00     0.034 A 
BRANCH  62  76
ATOM     76  C   UNL A   1      45.894  23.803  35.404  1.00  0.00     0.023 A 
ATOM     77  C   UNL A   1      45.330  22.965  34.409  1.00  0.00     0.012 A 
ATOM     78  C   UNL A   1      46.285  23.175  36.607  1.00  0.00     0.148 A 
ATOM     79  C   UNL A   1      45.110  21.599  34.625  1.00  0.00     0.002 A 
ATOM     80  C   UNL A   1      46.141  21.802  36.786  1.00  0.00     0.091 A 
ATOM     81  F   UNL A   1      46.676  23.912  37.651  1.00  0.00    -0.205 F 
ATOM     82  C   UNL A   1      45.523  21.015  35.813  1.00  0.00     0.022 A 
BRANCH  80  83
ATOM     83  S   UNL A   1      46.722  20.986  38.279  1.00  0.00     0.127 S 
ATOM     84  O   UNL A   1      45.687  21.357  39.237  1.00  0.00    -0.237 OA
ATOM     85  O   UNL A   1      46.720  19.580  37.875  1.00  0.00    -0.237 OA
ATOM     86  O   UNL A   1      48.053  21.530  38.520  1.00  0.00    -0.744 OA
ENDBRANCH  80  83
ENDBRANCH  62  76
BRANCH  63  87
ATOM     87  C   UNL A   1      43.366  25.869  27.577  1.00  0.00     0.023 A 
ATOM     88  C   UNL A   1      43.728  26.268  26.277  1.00  0.00     0.012 A 
ATOM     89  C   UNL A   1      42.614  24.682  27.733  1.00  0.00     0.148 A 
ATOM     90  C   UNL A   1      43.381  25.490  25.167  1.00  0.00     0.002 A 
ATOM     91  C   UNL A   1      42.271  23.915  26.626  1.00  0.00     0.091 A 
ATOM     92  F   UNL A   1      42.322  24.264  28.972  1.00  0.00    -0.205 F 
ATOM     93  C   UNL A   1      42.663  24.310  25.340  1.00  0.00     0.022 A 
BRANCH  91  94
ATOM     94  S   UNL A   1      41.371  22.365  26.775  1.00  0.00     0.127 S 
ATOM     95  O   UNL A   1      41.516  21.801  25.432  1.00  0.00    -0.237 OA
ATOM     96  O   UNL A   1      42.130  21.676  27.815  1.00  0.00    -0.237 OA
ATOM     97  O   UNL A   1      40.005  22.731  27.127  1.00  0.00    -0.744 OA
ENDBRANCH  91  94
ENDBRANCH  63  87
BRANCH  75  98
ATOM     98  C   UNL A   1      47.871  28.607  31.036  1.00  0.00     0.023 A 
ATOM     99  C   UNL A   1      48.994  28.872  30.226  1.00  0.00     0.012 A 
ATOM    100  C   UNL A   1      46.923  29.624  31.236  1.00  0.00     0.148 A 
ATOM    101  C   UNL A   1      49.175  30.128  29.642  1.00  0.00     0.002 A 
ATOM    102  C   UNL A   1      47.080  30.856  30.612  1.00  0.00     0.091 A 
ATOM    103  F   UNL A   1      45.858  29.355  32.006  1.00  0.00    -0.205 F 
ATOM    104  C   UNL A   1      48.210  31.115  29.821  1.00  0.00     0.022 A 
BRANCH 102 105
ATOM    105  S   UNL A   1      45.801  32.112  30.686  1.00  0.00     0.127 S 
ATOM    106  O   UNL A   1      44.609  31.357  30.304  1.00  0.00    -0.237 OA
ATOM    107  O   UNL A   1      45.841  32.520  32.092  1.00  0.00    -0.237 OA
ATOM    108  O   UNL A   1      46.211  33.155  29.755  1.00  0.00    -0.744 OA
ENDBRANCH 102 105
ENDBRANCH  75  98
ENDBRANCH  49  50
ENDBRANCH  41  44
ENDBRANCH  39  40
ENDBRANCH  38  39
ENDBRANCH  37  38
ENDBRANCH  36  37
ENDBRANCH   1  36
TORSDOF 21
ENDMDL
