MODEL 1
REMARK VINA RESULT:     -11.8      0.000      0.000
REMARK SMILES CCOc1ccc(-c2csc3ncn([C@H](C)C(=O)NCCCCCCNC(=O)c4ccc(-c5c6nc(c(-c7cccc(S(=O)(=O)[O-])c7F)c7ccc([nH]7)c(-c7cccc(S(=O)(=O)[O-])c7F)c7nc(c(-c8cccc(S(=O)(=O)[O-])c8F)c8ccc5[nH]8)C=C7)C=C6)cc4)c(=O)c23)cc1
REMARK SMILES IDX 22 1 21 2 20 3 19 4 17 5 18 6 15 8 16 9 14 10 8 11 9 12
REMARK SMILES IDX 94 13 10 14 11 15 92 16 12 17 93 18 13 19 7 20 4 21 5 22
REMARK SMILES IDX 96 23 6 24 95 25 3 26 2 27 1 28 23 29 24 30 25 31 26 32
REMARK SMILES IDX 27 33 28 35 29 36 30 37 91 38 31 39 90 40 32 41 33 42 34 43
REMARK SMILES IDX 84 44 35 45 89 46 83 47 85 48 36 49 88 50 82 51 81 52 37 54
REMARK SMILES IDX 69 55 49 56 68 57 50 58 53 59 67 60 86 61 51 62 52 63 66 65
REMARK SMILES IDX 87 66 54 67 38 68 39 69 47 70 40 71 42 72 48 73 41 74 43 75
REMARK SMILES IDX 44 76 45 77 46 78 70 79 71 80 79 81 72 82 74 83 80 84 73 85
REMARK SMILES IDX 75 86 76 87 77 88 78 89 55 90 56 91 64 92 57 93 59 94 65 95
REMARK SMILES IDX 58 96 60 97 61 98 62 99 63 100
REMARK H PARENT 19 7 26 34 85 53 53 64
REMARK Flexibility Score: inf
ROOT
ATOM      1  C   UNL A   1      31.468  28.310  25.520  1.00  0.00     0.002 C 
ENDROOT
BRANCH   1   2
ATOM      2  C   UNL A   1      31.178  28.749  24.081  1.00  0.00     0.021 C 
BRANCH   2   3
ATOM      3  C   UNL A   1      31.426  27.668  23.031  1.00  0.00     0.116 C 
BRANCH   3   4
ATOM      4  N   UNL A   1      30.677  26.466  23.339  1.00  0.00    -0.354 N 
ATOM      5  C   UNL A   1      30.893  25.172  22.965  1.00  0.00     0.242 C 
ATOM      6  O   UNL A   1      29.963  24.373  23.110  1.00  0.00    -0.273 OA
ATOM      7  H   UNL A   1      29.886  26.604  23.909  1.00  0.00     0.163 HD
BRANCH   5   8
ATOM      8  C   UNL A   1      32.215  24.740  22.291  1.00  0.00     0.177 C 
ATOM      9  C   UNL A   1      32.573  25.785  21.231  1.00  0.00     0.042 C 
BRANCH   8  10
ATOM     10  N   UNL A   1      33.235  24.426  23.313  1.00  0.00    -0.286 N 
ATOM     11  C   UNL A   1      34.896  21.527  25.112  1.00  0.00     0.007 A 
ATOM     12  C   UNL A   1      35.865  21.728  26.081  1.00  0.00     0.076 A 
ATOM     13  C   UNL A   1      34.515  22.779  24.513  1.00  0.00     0.085 A 
ATOM     14  S   UNL A   1      36.251  23.378  26.300  1.00  0.00    -0.123 S 
ATOM     15  C   UNL A   1      35.130  23.856  25.112  1.00  0.00     0.131 A 
ATOM     16  C   UNL A   1      33.569  23.069  23.448  1.00  0.00     0.263 A 
ATOM     17  N   UNL A   1      34.907  25.165  24.844  1.00  0.00    -0.227 NA
ATOM     18  O   UNL A   1      33.125  22.193  22.715  1.00  0.00    -0.268 OA
ATOM     19  C   UNL A   1      33.967  25.389  23.980  1.00  0.00     0.204 A 
BRANCH  11  20
ATOM     20  C   UNL A   1      34.368  20.184  24.877  1.00  0.00    -0.016 A 
ATOM     21  C   UNL A   1      33.414  17.580  24.424  1.00  0.00     0.119 A 
ATOM     22  C   UNL A   1      32.523  18.609  24.724  1.00  0.00     0.047 A 
ATOM     23  C   UNL A   1      34.773  17.852  24.315  1.00  0.00     0.047 A 
ATOM     24  C   UNL A   1      32.999  19.907  24.946  1.00  0.00     0.012 A 
ATOM     25  C   UNL A   1      35.251  19.140  24.561  1.00  0.00     0.012 A 
BRANCH  21  26
ATOM     26  O   UNL A   1      32.905  16.349  24.117  1.00  0.00    -0.494 OA
BRANCH  26  27
ATOM     27  C   UNL A   1      33.209  15.342  25.092  1.00  0.00     0.226 C 
ATOM     28  C   UNL A   1      32.129  15.236  26.158  1.00  0.00     0.049 C 
ENDBRANCH  26  27
ENDBRANCH  21  26
ENDBRANCH  11  20
ENDBRANCH   8  10
ENDBRANCH   5   8
ENDBRANCH   3   4
ENDBRANCH   2   3
ENDBRANCH   1   2
BRANCH   1  29
ATOM     29  C   UNL A   1      32.002  29.403  26.460  1.00  0.00     0.002 C 
BRANCH  29  30
ATOM     30  C   UNL A   1      33.269  29.065  27.259  1.00  0.00     0.021 C 
BRANCH  30  31
ATOM     31  C   UNL A   1      34.423  30.023  27.017  1.00  0.00     0.116 C 
BRANCH  31  32
ATOM     32  N   UNL A   1      34.294  31.270  27.779  1.00  0.00    -0.352 N 
ATOM     33  C   UNL A   1      34.971  31.643  28.933  1.00  0.00     0.251 C 
ATOM     34  H   UNL A   1      33.647  31.924  27.429  1.00  0.00     0.163 HD
ATOM     35  O   UNL A   1      34.549  32.517  29.665  1.00  0.00    -0.269 OA
BRANCH  33  36
ATOM     36  C   UNL A   1      36.238  30.952  29.230  1.00  0.00     0.039 A 
ATOM     37  C   UNL A   1      36.311  29.586  29.515  1.00  0.00     0.014 A 
ATOM     38  C   UNL A   1      37.386  31.729  29.152  1.00  0.00     0.014 A 
ATOM     39  C   UNL A   1      37.569  29.002  29.652  1.00  0.00     0.010 A 
ATOM     40  C   UNL A   1      38.595  31.115  29.036  1.00  0.00     0.010 A 
ATOM     41  C   UNL A   1      38.706  29.782  29.403  1.00  0.00    -0.014 A 
BRANCH  41  42
ATOM     42  C   UNL A   1      40.057  29.248  29.469  1.00  0.00     0.031 A 
ATOM     43  C   UNL A   1      40.587  29.042  30.842  1.00  0.00     0.074 A 
ATOM     44  C   UNL A   1      40.639  28.719  28.366  1.00  0.00     0.049 A 
ATOM     45  N   UNL A   1      41.583  29.644  31.403  1.00  0.00    -0.248 NA
ATOM     46  C   UNL A   1      39.836  28.162  31.751  1.00  0.00     0.031 C 
ATOM     47  C   UNL A   1      40.056  28.543  27.023  1.00  0.00     0.029 A 
ATOM     48  N   UNL A   1      41.813  28.049  28.259  1.00  0.00    -0.354 N 
ATOM     49  C   UNL A   1      41.734  29.036  32.650  1.00  0.00     0.074 A 
ATOM     50  C   UNL A   1      40.515  28.309  32.890  1.00  0.00     0.031 C 
ATOM     51  C   UNL A   1      40.734  27.584  26.358  1.00  0.00     0.029 A 
ATOM     52  C   UNL A   1      41.903  27.232  27.136  1.00  0.00     0.049 A 
ATOM     53  H   UNL A   1      42.540  28.134  28.919  1.00  0.00     0.167 HD
ATOM     54  C   UNL A   1      42.950  28.959  33.260  1.00  0.00     0.034 A 
ATOM     55  C   UNL A   1      42.845  26.291  26.896  1.00  0.00     0.034 A 
ATOM     56  C   UNL A   1      43.909  29.824  32.622  1.00  0.00     0.049 A 
ATOM     57  C   UNL A   1      43.997  26.610  27.771  1.00  0.00     0.074 A 
ATOM     58  C   UNL A   1      43.993  31.178  32.372  1.00  0.00     0.029 A 
ATOM     59  N   UNL A   1      44.803  29.225  31.764  1.00  0.00    -0.354 N 
ATOM     60  N   UNL A   1      44.700  27.704  27.660  1.00  0.00    -0.248 NA
ATOM     61  C   UNL A   1      44.073  25.943  29.059  1.00  0.00     0.031 C 
ATOM     62  C   UNL A   1      44.547  31.270  31.061  1.00  0.00     0.029 A 
ATOM     63  C   UNL A   1      44.838  29.976  30.621  1.00  0.00     0.049 A 
ATOM     64  H   UNL A   1      45.321  28.407  31.941  1.00  0.00     0.167 HD
ATOM     65  C   UNL A   1      44.923  28.104  28.972  1.00  0.00     0.074 A 
ATOM     66  C   UNL A   1      44.612  26.928  29.784  1.00  0.00     0.031 C 
ATOM     67  C   UNL A   1      45.046  29.424  29.299  1.00  0.00     0.034 A 
BRANCH  54  68
ATOM     68  C   UNL A   1      43.405  27.847  34.180  1.00  0.00     0.023 A 
ATOM     69  C   UNL A   1      43.869  28.222  35.462  1.00  0.00     0.012 A 
ATOM     70  C   UNL A   1      43.666  26.521  33.770  1.00  0.00     0.148 A 
ATOM     71  C   UNL A   1      44.606  27.345  36.265  1.00  0.00     0.002 A 
ATOM     72  C   UNL A   1      44.330  25.627  34.605  1.00  0.00     0.091 A 
ATOM     73  F   UNL A   1      43.403  26.140  32.518  1.00  0.00    -0.205 F 
ATOM     74  C   UNL A   1      44.832  26.043  35.839  1.00  0.00     0.022 A 
BRANCH  72  75
ATOM     75  S   UNL A   1      44.609  23.920  34.119  1.00  0.00     0.127 S 
ATOM     76  O   UNL A   1      43.297  23.328  34.370  1.00  0.00    -0.237 OA
ATOM     77  O   UNL A   1      44.966  24.064  32.708  1.00  0.00    -0.237 OA
ATOM     78  O   UNL A   1      45.699  23.448  34.963  1.00  0.00    -0.744 OA
ENDBRANCH  72  75
ENDBRANCH  54  68
BRANCH  55  79
ATOM     79  C   UNL A   1      42.710  24.991  26.198  1.00  0.00     0.023 A 
ATOM     80  C   UNL A   1      43.678  24.600  25.253  1.00  0.00     0.012 A 
ATOM     81  C   UNL A   1      41.792  24.018  26.656  1.00  0.00     0.148 A 
ATOM     82  C   UNL A   1      43.749  23.277  24.802  1.00  0.00     0.002 A 
ATOM     83  C   UNL A   1      41.864  22.704  26.202  1.00  0.00     0.091 A 
ATOM     84  F   UNL A   1      40.907  24.362  27.602  1.00  0.00    -0.205 F 
ATOM     85  C   UNL A   1      42.849  22.327  25.281  1.00  0.00     0.022 A 
BRANCH  83  86
ATOM     86  S   UNL A   1      40.758  21.417  26.801  1.00  0.00     0.127 S 
ATOM     87  O   UNL A   1      39.471  21.845  26.254  1.00  0.00    -0.237 OA
ATOM     88  O   UNL A   1      41.318  20.219  26.181  1.00  0.00    -0.237 OA
ATOM     89  O   UNL A   1      40.835  21.463  28.257  1.00  0.00    -0.744 OA
ENDBRANCH  83  86
ENDBRANCH  55  79
BRANCH  67  90
ATOM     90  C   UNL A   1      45.151  30.435  28.181  1.00  0.00     0.023 A 
ATOM     91  C   UNL A   1      44.017  31.015  27.575  1.00  0.00     0.012 A 
ATOM     92  C   UNL A   1      46.417  30.972  27.900  1.00  0.00     0.148 A 
ATOM     93  C   UNL A   1      44.143  32.101  26.704  1.00  0.00     0.002 A 
ATOM     94  C   UNL A   1      46.536  32.081  27.073  1.00  0.00     0.091 A 
ATOM     95  F   UNL A   1      47.484  30.413  28.492  1.00  0.00    -0.205 F 
ATOM     96  C   UNL A   1      45.403  32.645  26.466  1.00  0.00     0.022 A 
BRANCH  94  97
ATOM     97  S   UNL A   1      48.108  32.915  26.842  1.00  0.00     0.127 S 
ATOM     98  O   UNL A   1      47.759  33.959  25.880  1.00  0.00    -0.237 OA
ATOM     99  O   UNL A   1      48.405  33.400  28.192  1.00  0.00    -0.237 OA
ATOM    100  O   UNL A   1      49.035  31.901  26.356  1.00  0.00    -0.744 OA
ENDBRANCH  94  97
ENDBRANCH  67  90
ENDBRANCH  41  42
ENDBRANCH  33  36
ENDBRANCH  31  32
ENDBRANCH  30  31
ENDBRANCH  29  30
ENDBRANCH   1  29
TORSDOF 20
ENDMDL
MODEL 2
REMARK VINA RESULT:     -10.5      5.683     12.074
REMARK SMILES CCOc1ccc(-c2csc3ncn([C@H](C)C(=O)NCCCCCCNC(=O)c4ccc(-c5c6nc(c(-c7cccc(S(=O)(=O)[O-])c7F)c7ccc([nH]7)c(-c7cccc(S(=O)(=O)[O-])c7F)c7nc(c(-c8cccc(S(=O)(=O)[O-])c8F)c8ccc5[nH]8)C=C7)C=C6)cc4)c(=O)c23)cc1
REMARK SMILES IDX 22 1 21 2 20 3 19 4 17 5 18 6 15 8 16 9 14 10 8 11 9 12
REMARK SMILES IDX 94 13 10 14 11 15 92 16 12 17 93 18 13 19 7 20 4 21 5 22
REMARK SMILES IDX 96 23 6 24 95 25 3 26 2 27 1 28 23 29 24 30 25 31 26 32
REMARK SMILES IDX 27 33 28 35 29 36 30 37 91 38 31 39 90 40 32 41 33 42 34 43
REMARK SMILES IDX 84 44 35 45 89 46 83 47 85 48 36 49 88 50 82 51 81 52 37 54
REMARK SMILES IDX 69 55 49 56 68 57 50 58 53 59 67 60 86 61 51 62 52 63 66 65
REMARK SMILES IDX 87 66 54 67 38 68 39 69 47 70 40 71 42 72 48 73 41 74 43 75
REMARK SMILES IDX 44 76 45 77 46 78 70 79 71 80 79 81 72 82 74 83 80 84 73 85
REMARK SMILES IDX 75 86 76 87 77 88 78 89 55 90 56 91 64 92 57 93 59 94 65 95
REMARK SMILES IDX 58 96 60 97 61 98 62 99 63 100
REMARK H PARENT 19 7 26 34 85 53 53 64
REMARK Flexibility Score: inf
ROOT
ATOM      1  C   UNL A   1      44.243  25.830  25.379  1.00  0.00     0.002 C 
ENDROOT
BRANCH   1   2
ATOM      2  C   UNL A   1      44.985  26.883  26.210  1.00  0.00     0.021 C 
BRANCH   2   3
ATOM      3  C   UNL A   1      46.416  26.499  26.580  1.00  0.00     0.116 C 
BRANCH   3   4
ATOM      4  N   UNL A   1      47.371  27.155  25.710  1.00  0.00    -0.354 N 
ATOM      5  C   UNL A   1      48.725  27.276  25.819  1.00  0.00     0.242 C 
ATOM      6  O   UNL A   1      49.280  28.122  25.111  1.00  0.00    -0.273 OA
ATOM      7  H   UNL A   1      46.980  27.580  24.912  1.00  0.00     0.163 HD
BRANCH   5   8
ATOM      8  C   UNL A   1      49.524  26.461  26.860  1.00  0.00     0.177 C 
ATOM      9  C   UNL A   1      50.792  25.936  26.182  1.00  0.00     0.042 C 
BRANCH   8  10
ATOM     10  N   UNL A   1      49.687  27.238  28.106  1.00  0.00    -0.286 N 
ATOM     11  C   UNL A   1      48.445  27.480  31.684  1.00  0.00     0.007 A 
ATOM     12  C   UNL A   1      48.906  28.455  32.552  1.00  0.00     0.076 A 
ATOM     13  C   UNL A   1      49.155  27.542  30.434  1.00  0.00     0.085 A 
ATOM     14  S   UNL A   1      50.108  29.448  31.855  1.00  0.00    -0.123 S 
ATOM     15  C   UNL A   1      50.034  28.601  30.381  1.00  0.00     0.131 A 
ATOM     16  C   UNL A   1      49.045  26.718  29.241  1.00  0.00     0.263 A 
ATOM     17  N   UNL A   1      50.772  28.985  29.313  1.00  0.00    -0.227 NA
ATOM     18  O   UNL A   1      48.457  25.642  29.244  1.00  0.00    -0.268 OA
ATOM     19  C   UNL A   1      50.554  28.306  28.231  1.00  0.00     0.204 A 
BRANCH  11  20
ATOM     20  C   UNL A   1      47.335  26.615  32.082  1.00  0.00    -0.016 A 
ATOM     21  C   UNL A   1      45.167  24.977  32.797  1.00  0.00     0.119 A 
ATOM     22  C   UNL A   1      46.401  24.815  33.422  1.00  0.00     0.047 A 
ATOM     23  C   UNL A   1      44.999  25.975  31.843  1.00  0.00     0.047 A 
ATOM     24  C   UNL A   1      47.481  25.634  33.068  1.00  0.00     0.012 A 
ATOM     25  C   UNL A   1      46.081  26.775  31.472  1.00  0.00     0.012 A 
BRANCH  21  26
ATOM     26  O   UNL A   1      44.112  24.227  33.238  1.00  0.00    -0.494 OA
BRANCH  26  27
ATOM     27  C   UNL A   1      43.464  24.772  34.395  1.00  0.00     0.226 C 
ATOM     28  C   UNL A   1      42.736  23.703  35.197  1.00  0.00     0.049 C 
ENDBRANCH  26  27
ENDBRANCH  21  26
ENDBRANCH  11  20
ENDBRANCH   8  10
ENDBRANCH   5   8
ENDBRANCH   3   4
ENDBRANCH   2   3
ENDBRANCH   1   2
BRANCH   1  29
ATOM     29  C   UNL A   1      44.960  24.482  25.212  1.00  0.00     0.002 C 
BRANCH  29  30
ATOM     30  C   UNL A   1      44.126  23.220  25.481  1.00  0.00     0.021 C 
BRANCH  30  31
ATOM     31  C   UNL A   1      42.672  23.341  25.057  1.00  0.00     0.116 C 
BRANCH  31  32
ATOM     32  N   UNL A   1      41.760  22.600  25.936  1.00  0.00    -0.352 N 
ATOM     33  C   UNL A   1      41.306  22.960  27.197  1.00  0.00     0.251 C 
ATOM     34  H   UNL A   1      41.430  21.741  25.588  1.00  0.00     0.163 HD
ATOM     35  O   UNL A   1      40.850  22.138  27.969  1.00  0.00    -0.269 OA
BRANCH  33  36
ATOM     36  C   UNL A   1      41.375  24.386  27.563  1.00  0.00     0.039 A 
ATOM     37  C   UNL A   1      40.398  25.314  27.190  1.00  0.00     0.014 A 
ATOM     38  C   UNL A   1      42.447  24.757  28.362  1.00  0.00     0.014 A 
ATOM     39  C   UNL A   1      40.487  26.610  27.696  1.00  0.00     0.010 A 
ATOM     40  C   UNL A   1      42.389  25.933  29.045  1.00  0.00     0.010 A 
ATOM     41  C   UNL A   1      41.488  26.903  28.630  1.00  0.00    -0.014 A 
BRANCH  41  42
ATOM     42  C   UNL A   1      41.627  28.211  29.252  1.00  0.00     0.031 A 
ATOM     43  C   UNL A   1      42.703  29.066  28.688  1.00  0.00     0.074 A 
ATOM     44  C   UNL A   1      40.656  28.687  30.067  1.00  0.00     0.049 A 
ATOM     45  N   UNL A   1      43.773  29.483  29.280  1.00  0.00    -0.248 NA
ATOM     46  C   UNL A   1      42.657  29.383  27.252  1.00  0.00     0.031 C 
ATOM     47  C   UNL A   1      39.364  28.063  30.408  1.00  0.00     0.029 A 
ATOM     48  N   UNL A   1      40.532  29.922  30.615  1.00  0.00    -0.354 N 
ATOM     49  C   UNL A   1      44.408  30.320  28.362  1.00  0.00     0.074 A 
ATOM     50  C   UNL A   1      43.806  30.041  27.084  1.00  0.00     0.031 C 
ATOM     51  C   UNL A   1      38.502  29.011  30.833  1.00  0.00     0.029 A 
ATOM     52  C   UNL A   1      39.232  30.252  30.987  1.00  0.00     0.049 A 
ATOM     53  H   UNL A   1      41.295  30.531  30.739  1.00  0.00     0.167 HD
ATOM     54  C   UNL A   1      45.185  31.362  28.769  1.00  0.00     0.034 A 
ATOM     55  C   UNL A   1      38.781  31.478  31.340  1.00  0.00     0.034 A 
ATOM     56  C   UNL A   1      45.489  31.268  30.174  1.00  0.00     0.049 A 
ATOM     57  C   UNL A   1      39.970  32.275  31.722  1.00  0.00     0.074 A 
ATOM     58  C   UNL A   1      46.113  30.339  30.981  1.00  0.00     0.029 A 
ATOM     59  N   UNL A   1      44.755  32.069  31.018  1.00  0.00    -0.354 N 
ATOM     60  N   UNL A   1      40.731  31.983  32.742  1.00  0.00    -0.248 NA
ATOM     61  C   UNL A   1      40.579  33.111  30.703  1.00  0.00     0.031 C 
ATOM     62  C   UNL A   1      45.338  30.320  32.177  1.00  0.00     0.029 A 
ATOM     63  C   UNL A   1      44.337  31.288  32.062  1.00  0.00     0.049 A 
ATOM     64  H   UNL A   1      44.566  33.027  30.894  1.00  0.00     0.167 HD
ATOM     65  C   UNL A   1      42.023  32.200  32.280  1.00  0.00     0.074 A 
ATOM     66  C   UNL A   1      41.861  32.996  31.062  1.00  0.00     0.031 C 
ATOM     67  C   UNL A   1      43.076  31.468  32.750  1.00  0.00     0.034 A 
BRANCH  54  68
ATOM     68  C   UNL A   1      45.368  32.668  28.026  1.00  0.00     0.023 A 
ATOM     69  C   UNL A   1      46.691  33.039  27.694  1.00  0.00     0.012 A 
ATOM     70  C   UNL A   1      44.374  33.662  27.890  1.00  0.00     0.148 A 
ATOM     71  C   UNL A   1      47.017  34.344  27.308  1.00  0.00     0.002 A 
ATOM     72  C   UNL A   1      44.690  34.937  27.430  1.00  0.00     0.091 A 
ATOM     73  F   UNL A   1      43.135  33.439  28.333  1.00  0.00    -0.205 F 
ATOM     74  C   UNL A   1      46.014  35.294  27.170  1.00  0.00     0.022 A 
BRANCH  72  75
ATOM     75  S   UNL A   1      43.422  36.188  27.191  1.00  0.00     0.127 S 
ATOM     76  O   UNL A   1      42.690  35.646  26.049  1.00  0.00    -0.237 OA
ATOM     77  O   UNL A   1      42.708  36.140  28.466  1.00  0.00    -0.237 OA
ATOM     78  O   UNL A   1      44.144  37.433  26.960  1.00  0.00    -0.744 OA
ENDBRANCH  72  75
ENDBRANCH  54  68
BRANCH  55  79
ATOM     79  C   UNL A   1      37.456  32.092  31.094  1.00  0.00     0.023 A 
ATOM     80  C   UNL A   1      36.670  31.651  30.011  1.00  0.00     0.012 A 
ATOM     81  C   UNL A   1      36.845  32.908  32.074  1.00  0.00     0.148 A 
ATOM     82  C   UNL A   1      35.313  31.985  29.924  1.00  0.00     0.002 A 
ATOM     83  C   UNL A   1      35.496  33.241  31.981  1.00  0.00     0.091 A 
ATOM     84  F   UNL A   1      37.565  33.281  33.141  1.00  0.00    -0.205 F 
ATOM     85  C   UNL A   1      34.724  32.772  30.911  1.00  0.00     0.022 A 
BRANCH  83  86
ATOM     86  S   UNL A   1      34.659  34.224  33.235  1.00  0.00     0.127 S 
ATOM     87  O   UNL A   1      33.294  34.283  32.712  1.00  0.00    -0.237 OA
ATOM     88  O   UNL A   1      34.821  33.399  34.429  1.00  0.00    -0.237 OA
ATOM     89  O   UNL A   1      35.345  35.511  33.265  1.00  0.00    -0.744 OA
ENDBRANCH  83  86
ENDBRANCH  55  79
BRANCH  67  90
ATOM     90  C   UNL A   1      42.849  30.566  33.940  1.00  0.00     0.023 A 
ATOM     91  C   UNL A   1      42.247  29.296  33.823  1.00  0.00     0.012 A 
ATOM     92  C   UNL A   1      43.463  30.915  35.153  1.00  0.00     0.148 A 
ATOM     93  C   UNL A   1      42.250  28.397  34.894  1.00  0.00     0.002 A 
ATOM     94  C   UNL A   1      43.508  30.003  36.199  1.00  0.00     0.091 A 
ATOM     95  F   UNL A   1      44.039  32.124  35.244  1.00  0.00    -0.205 F 
ATOM     96  C   UNL A   1      42.896  28.745  36.078  1.00  0.00     0.022 A 
BRANCH  94  97
ATOM     97  S   UNL A   1      44.446  30.333  37.692  1.00  0.00     0.127 S 
ATOM     98  O   UNL A   1      43.585  31.290  38.386  1.00  0.00    -0.237 OA
ATOM     99  O   UNL A   1      44.519  29.010  38.314  1.00  0.00    -0.237 OA
ATOM    100  O   UNL A   1      45.733  30.856  37.253  1.00  0.00    -0.744 OA
ENDBRANCH  94  97
ENDBRANCH  67  90
ENDBRANCH  41  42
ENDBRANCH  33  36
ENDBRANCH  31  32
ENDBRANCH  30  31
ENDBRANCH  29  30
ENDBRANCH   1  29
TORSDOF 20
ENDMDL
MODEL 3
REMARK VINA RESULT:     -10.5      2.068      2.658
REMARK SMILES CCOc1ccc(-c2csc3ncn([C@H](C)C(=O)NCCCCCCNC(=O)c4ccc(-c5c6nc(c(-c7cccc(S(=O)(=O)[O-])c7F)c7ccc([nH]7)c(-c7cccc(S(=O)(=O)[O-])c7F)c7nc(c(-c8cccc(S(=O)(=O)[O-])c8F)c8ccc5[nH]8)C=C7)C=C6)cc4)c(=O)c23)cc1
REMARK SMILES IDX 22 1 21 2 20 3 19 4 17 5 18 6 15 8 16 9 14 10 8 11 9 12
REMARK SMILES IDX 94 13 10 14 11 15 92 16 12 17 93 18 13 19 7 20 4 21 5 22
REMARK SMILES IDX 96 23 6 24 95 25 3 26 2 27 1 28 23 29 24 30 25 31 26 32
REMARK SMILES IDX 27 33 28 35 29 36 30 37 91 38 31 39 90 40 32 41 33 42 34 43
REMARK SMILES IDX 84 44 35 45 89 46 83 47 85 48 36 49 88 50 82 51 81 52 37 54
REMARK SMILES IDX 69 55 49 56 68 57 50 58 53 59 67 60 86 61 51 62 52 63 66 65
REMARK SMILES IDX 87 66 54 67 38 68 39 69 47 70 40 71 42 72 48 73 41 74 43 75
REMARK SMILES IDX 44 76 45 77 46 78 70 79 71 80 79 81 72 82 74 83 80 84 73 85
REMARK SMILES IDX 75 86 76 87 77 88 78 89 55 90 56 91 64 92 57 93 59 94 65 95
REMARK SMILES IDX 58 96 60 97 61 98 62 99 63 100
REMARK H PARENT 19 7 26 34 85 53 53 64
REMARK Flexibility Score: inf
ROOT
ATOM      1  C   UNL A   1      33.005  28.370  27.246  1.00  0.00     0.002 C 
ENDROOT
BRANCH   1   2
ATOM      2  C   UNL A   1      32.547  28.322  25.785  1.00  0.00     0.021 C 
BRANCH   2   3
ATOM      3  C   UNL A   1      31.058  28.041  25.601  1.00  0.00     0.116 C 
BRANCH   3   4
ATOM      4  N   UNL A   1      30.655  26.867  26.350  1.00  0.00    -0.354 N 
ATOM      5  C   UNL A   1      30.371  25.604  25.923  1.00  0.00     0.242 C 
ATOM      6  O   UNL A   1      29.775  24.857  26.706  1.00  0.00    -0.273 OA
ATOM      7  H   UNL A   1      30.577  27.002  27.322  1.00  0.00     0.163 HD
BRANCH   5   8
ATOM      8  C   UNL A   1      30.688  25.152  24.480  1.00  0.00     0.177 C 
ATOM      9  C   UNL A   1      30.212  26.246  23.522  1.00  0.00     0.042 C 
BRANCH   8  10
ATOM     10  N   UNL A   1      32.097  24.717  24.375  1.00  0.00    -0.286 N 
ATOM     11  C   UNL A   1      34.298  21.626  24.355  1.00  0.00     0.007 A 
ATOM     12  C   UNL A   1      35.676  21.712  24.240  1.00  0.00     0.076 A 
ATOM     13  C   UNL A   1      33.700  22.928  24.223  1.00  0.00     0.085 A 
ATOM     14  S   UNL A   1      36.226  23.317  24.045  1.00  0.00    -0.123 S 
ATOM     15  C   UNL A   1      34.640  23.930  24.114  1.00  0.00     0.131 A 
ATOM     16  C   UNL A   1      32.304  23.335  24.244  1.00  0.00     0.263 A 
ATOM     17  N   UNL A   1      34.399  25.262  24.075  1.00  0.00    -0.227 NA
ATOM     18  O   UNL A   1      31.389  22.528  24.131  1.00  0.00    -0.268 OA
ATOM     19  C   UNL A   1      33.155  25.593  24.224  1.00  0.00     0.204 A 
BRANCH  11  20
ATOM     20  C   UNL A   1      33.669  20.338  24.640  1.00  0.00    -0.016 A 
ATOM     21  C   UNL A   1      32.460  17.848  25.126  1.00  0.00     0.119 A 
ATOM     22  C   UNL A   1      32.904  18.628  26.191  1.00  0.00     0.047 A 
ATOM     23  C   UNL A   1      32.584  18.319  23.823  1.00  0.00     0.047 A 
ATOM     24  C   UNL A   1      33.504  19.871  25.948  1.00  0.00     0.012 A 
ATOM     25  C   UNL A   1      33.203  19.546  23.579  1.00  0.00     0.012 A 
BRANCH  21  26
ATOM     26  O   UNL A   1      31.792  16.688  25.405  1.00  0.00    -0.494 OA
BRANCH  26  27
ATOM     27  C   UNL A   1      32.657  15.565  25.624  1.00  0.00     0.226 C 
ATOM     28  C   UNL A   1      34.096  15.869  25.234  1.00  0.00     0.049 C 
ENDBRANCH  26  27
ENDBRANCH  21  26
ENDBRANCH  11  20
ENDBRANCH   8  10
ENDBRANCH   5   8
ENDBRANCH   3   4
ENDBRANCH   2   3
ENDBRANCH   1   2
BRANCH   1  29
ATOM     29  C   UNL A   1      33.535  29.725  27.739  1.00  0.00     0.002 C 
BRANCH  29  30
ATOM     30  C   UNL A   1      34.639  30.381  26.896  1.00  0.00     0.021 C 
BRANCH  30  31
ATOM     31  C   UNL A   1      35.876  30.762  27.691  1.00  0.00     0.116 C 
BRANCH  31  32
ATOM     32  N   UNL A   1      35.554  31.310  29.014  1.00  0.00    -0.352 N 
ATOM     33  C   UNL A   1      36.177  31.042  30.226  1.00  0.00     0.251 C 
ATOM     34  H   UNL A   1      34.803  31.945  29.046  1.00  0.00     0.163 HD
ATOM     35  O   UNL A   1      35.627  31.265  31.288  1.00  0.00    -0.269 OA
BRANCH  33  36
ATOM     36  C   UNL A   1      37.545  30.497  30.181  1.00  0.00     0.039 A 
ATOM     37  C   UNL A   1      38.685  31.306  30.150  1.00  0.00     0.014 A 
ATOM     38  C   UNL A   1      37.649  29.114  30.231  1.00  0.00     0.014 A 
ATOM     39  C   UNL A   1      39.935  30.695  30.241  1.00  0.00     0.010 A 
ATOM     40  C   UNL A   1      38.842  28.551  30.571  1.00  0.00     0.010 A 
ATOM     41  C   UNL A   1      39.996  29.312  30.458  1.00  0.00    -0.014 A 
BRANCH  41  42
ATOM     42  C   UNL A   1      41.252  28.595  30.620  1.00  0.00     0.031 A 
ATOM     43  C   UNL A   1      41.733  28.476  32.021  1.00  0.00     0.074 A 
ATOM     44  C   UNL A   1      41.756  27.860  29.600  1.00  0.00     0.049 A 
ATOM     45  N   UNL A   1      42.803  28.985  32.535  1.00  0.00    -0.248 NA
ATOM     46  C   UNL A   1      40.851  27.830  33.006  1.00  0.00     0.031 C 
ATOM     47  C   UNL A   1      41.164  27.616  28.272  1.00  0.00     0.029 A 
ATOM     48  N   UNL A   1      42.817  27.015  29.602  1.00  0.00    -0.354 N 
ATOM     49  C   UNL A   1      42.851  28.512  33.846  1.00  0.00     0.074 A 
ATOM     50  C   UNL A   1      41.535  28.008  34.137  1.00  0.00     0.031 C 
ATOM     51  C   UNL A   1      41.695  26.495  27.740  1.00  0.00     0.029 A 
ATOM     52  C   UNL A   1      42.791  26.067  28.583  1.00  0.00     0.049 A 
ATOM     53  H   UNL A   1      43.542  27.068  30.266  1.00  0.00     0.167 HD
ATOM     54  C   UNL A   1      44.036  28.328  34.493  1.00  0.00     0.034 A 
ATOM     55  C   UNL A   1      43.583  24.975  28.478  1.00  0.00     0.034 A 
ATOM     56  C   UNL A   1      45.120  28.959  33.784  1.00  0.00     0.049 A 
ATOM     57  C   UNL A   1      44.763  25.220  29.339  1.00  0.00     0.074 A 
ATOM     58  C   UNL A   1      45.410  30.247  33.382  1.00  0.00     0.029 A 
ATOM     59  N   UNL A   1      45.920  28.137  33.024  1.00  0.00    -0.354 N 
ATOM     60  N   UNL A   1      45.623  26.177  29.121  1.00  0.00    -0.248 NA
ATOM     61  C   UNL A   1      44.727  24.705  30.697  1.00  0.00     0.031 C 
ATOM     62  C   UNL A   1      45.981  30.100  32.084  1.00  0.00     0.029 A 
ATOM     63  C   UNL A   1      46.077  28.735  31.803  1.00  0.00     0.049 A 
ATOM     64  H   UNL A   1      46.308  27.278  33.307  1.00  0.00     0.167 HD
ATOM     65  C   UNL A   1      45.894  26.691  30.383  1.00  0.00     0.074 A 
ATOM     66  C   UNL A   1      45.402  25.677  31.317  1.00  0.00     0.031 C 
ATOM     67  C   UNL A   1      46.211  28.007  30.559  1.00  0.00     0.034 A 
BRANCH  54  68
ATOM     68  C   UNL A   1      44.311  27.276  35.546  1.00  0.00     0.023 A 
ATOM     69  C   UNL A   1      44.720  27.733  36.820  1.00  0.00     0.012 A 
ATOM     70  C   UNL A   1      44.465  25.896  35.283  1.00  0.00     0.148 A 
ATOM     71  C   UNL A   1      45.306  26.876  37.758  1.00  0.00     0.002 A 
ATOM     72  C   UNL A   1      44.976  25.033  36.249  1.00  0.00     0.091 A 
ATOM     73  F   UNL A   1      44.254  25.418  34.056  1.00  0.00    -0.205 F 
ATOM     74  C   UNL A   1      45.429  25.522  37.475  1.00  0.00     0.022 A 
BRANCH  72  75
ATOM     75  S   UNL A   1      45.113  23.267  35.948  1.00  0.00     0.127 S 
ATOM     76  O   UNL A   1      46.188  23.223  34.960  1.00  0.00    -0.237 OA
ATOM     77  O   UNL A   1      45.467  22.763  37.275  1.00  0.00    -0.237 OA
ATOM     78  O   UNL A   1      43.796  22.848  35.485  1.00  0.00    -0.744 OA
ENDBRANCH  72  75
ENDBRANCH  54  68
BRANCH  55  79
ATOM     79  C   UNL A   1      43.259  23.637  27.930  1.00  0.00     0.023 A 
ATOM     80  C   UNL A   1      42.016  23.043  28.222  1.00  0.00     0.012 A 
ATOM     81  C   UNL A   1      44.048  23.067  26.904  1.00  0.00     0.148 A 
ATOM     82  C   UNL A   1      41.559  21.937  27.494  1.00  0.00     0.002 A 
ATOM     83  C   UNL A   1      43.591  21.965  26.185  1.00  0.00     0.091 A 
ATOM     84  F   UNL A   1      45.203  23.661  26.574  1.00  0.00    -0.205 F 
ATOM     85  C   UNL A   1      42.341  21.404  26.472  1.00  0.00     0.022 A 
BRANCH  83  86
ATOM     86  S   UNL A   1      44.530  21.244  24.829  1.00  0.00     0.127 S 
ATOM     87  O   UNL A   1      43.834  19.974  24.622  1.00  0.00    -0.237 OA
ATOM     88  O   UNL A   1      44.336  22.227  23.767  1.00  0.00    -0.237 OA
ATOM     89  O   UNL A   1      45.898  21.106  25.314  1.00  0.00    -0.744 OA
ENDBRANCH  83  86
ENDBRANCH  55  79
BRANCH  67  90
ATOM     90  C   UNL A   1      46.477  28.852  29.336  1.00  0.00     0.023 A 
ATOM     91  C   UNL A   1      47.643  28.708  28.555  1.00  0.00     0.012 A 
ATOM     92  C   UNL A   1      45.425  29.640  28.843  1.00  0.00     0.148 A 
ATOM     93  C   UNL A   1      47.760  29.342  27.314  1.00  0.00     0.002 A 
ATOM     94  C   UNL A   1      45.523  30.229  27.589  1.00  0.00     0.091 A 
ATOM     95  F   UNL A   1      44.320  29.759  29.595  1.00  0.00    -0.205 F 
ATOM     96  C   UNL A   1      46.692  30.090  26.823  1.00  0.00     0.022 A 
BRANCH  94  97
ATOM     97  S   UNL A   1      44.134  31.081  26.841  1.00  0.00     0.127 S 
ATOM     98  O   UNL A   1      44.782  31.842  25.775  1.00  0.00    -0.237 OA
ATOM     99  O   UNL A   1      43.297  29.971  26.381  1.00  0.00    -0.237 OA
ATOM    100  O   UNL A   1      43.532  31.880  27.901  1.00  0.00    -0.744 OA
ENDBRANCH  94  97
ENDBRANCH  67  90
ENDBRANCH  41  42
ENDBRANCH  33  36
ENDBRANCH  31  32
ENDBRANCH  30  31
ENDBRANCH  29  30
ENDBRANCH   1  29
TORSDOF 20
ENDMDL
