MODEL 1
REMARK VINA RESULT:     -11.7      0.000      0.000
REMARK SMILES CC(C)(Oc1ccc(Cl)cc1)C(=O)N1CCC[C@H](C(=O)NCCCCCCNC(=O)c2ccc(-c3c4nc(c(-c5cccc(S(=O)(=O)[O-])c5F)c5ccc([nH]5)c(-c5cccc(S(=O)(=O)[O-])c5F)c5nc(c(-c6cccc(S(=O)(=O)[O-])c6F)c6ccc3[nH]6)C=C5)C=C4)cc2)C1
REMARK SMILES IDX 24 1 23 2 22 3 21 4 19 5 20 6 18 8 14 9 15 10 94 11 16 12
REMARK SMILES IDX 17 13 12 14 13 15 2 16 1 17 3 18 4 19 5 20 6 21 11 22 7 23
REMARK SMILES IDX 10 24 8 25 9 26 25 27 26 28 27 29 28 30 29 31 30 33 31 34
REMARK SMILES IDX 32 35 93 36 33 37 92 38 34 39 35 40 36 41 86 42 37 43 91 44
REMARK SMILES IDX 85 45 87 46 38 47 90 48 84 49 83 50 39 52 71 53 51 54 70 55
REMARK SMILES IDX 52 56 55 57 69 58 88 59 53 60 54 61 68 63 89 64 56 65 40 66
REMARK SMILES IDX 41 67 49 68 42 69 44 70 50 71 43 72 45 73 46 74 47 75 48 76
REMARK SMILES IDX 72 77 73 78 81 79 74 80 76 81 82 82 75 83 77 84 78 85 79 86
REMARK SMILES IDX 80 87 57 88 58 89 66 90 59 91 61 92 67 93 60 94 62 95 63 96
REMARK SMILES IDX 64 97 65 98
REMARK H PARENT 21 7 28 32 87 51 55 62
REMARK Flexibility Score: inf
ROOT
ATOM      1  C   UNL A   1      37.055  21.901  25.376  1.00  0.00     0.002 C 
ENDROOT
BRANCH   1   2
ATOM      2  C   UNL A   1      36.459  23.012  24.512  1.00  0.00     0.021 C 
BRANCH   2   3
ATOM      3  C   UNL A   1      35.303  22.561  23.623  1.00  0.00     0.116 C 
BRANCH   3   4
ATOM      4  N   UNL A   1      34.691  23.634  22.876  1.00  0.00    -0.356 N 
ATOM      5  C   UNL A   1      33.385  23.980  22.744  1.00  0.00     0.224 C 
ATOM      6  O   UNL A   1      33.157  25.066  22.193  1.00  0.00    -0.275 OA
ATOM      7  H   UNL A   1      35.322  24.208  22.383  1.00  0.00     0.163 HD
BRANCH   5   8
ATOM      8  C   UNL A   1      32.202  23.106  23.190  1.00  0.00     0.098 C 
ATOM      9  N   UNL A   1      30.870  23.958  25.139  1.00  0.00    -0.338 N 
ATOM     10  C   UNL A   1      31.138  22.749  25.916  1.00  0.00     0.119 C 
ATOM     11  C   UNL A   1      30.962  23.863  23.690  1.00  0.00     0.133 C 
ATOM     12  C   UNL A   1      32.430  22.038  25.531  1.00  0.00     0.022 C 
ATOM     13  C   UNL A   1      32.602  21.884  24.026  1.00  0.00     0.017 C 
BRANCH   9  14
ATOM     14  C   UNL A   1      30.657  25.157  25.817  1.00  0.00     0.266 C 
ATOM     15  O   UNL A   1      29.581  25.326  26.401  1.00  0.00    -0.270 OA
BRANCH  14  16
ATOM     16  C   UNL A   1      31.695  26.333  25.641  1.00  0.00     0.181 C 
ATOM     17  C   UNL A   1      33.087  25.753  25.965  1.00  0.00     0.067 C 
ATOM     18  C   UNL A   1      31.287  27.372  26.705  1.00  0.00     0.067 C 
BRANCH  16  19
ATOM     19  O   UNL A   1      31.677  26.869  24.301  1.00  0.00    -0.478 OA
BRANCH  19  20
ATOM     20  C   UNL A   1      30.759  27.843  24.004  1.00  0.00     0.121 A 
ATOM     21  C   UNL A   1      31.017  29.207  24.146  1.00  0.00     0.048 A 
ATOM     22  C   UNL A   1      29.547  27.432  23.445  1.00  0.00     0.048 A 
ATOM     23  C   UNL A   1      30.037  30.151  23.823  1.00  0.00     0.024 A 
ATOM     24  C   UNL A   1      28.571  28.375  23.100  1.00  0.00     0.024 A 
ATOM     25  C   UNL A   1      28.815  29.732  23.306  1.00  0.00     0.041 A 
ATOM     26  Cl  UNL A   1      27.613  30.894  22.897  1.00  0.00    -0.084 Cl
ENDBRANCH  19  20
ENDBRANCH  16  19
ENDBRANCH  14  16
ENDBRANCH   9  14
ENDBRANCH   5   8
ENDBRANCH   3   4
ENDBRANCH   2   3
ENDBRANCH   1   2
BRANCH   1  27
ATOM     27  C   UNL A   1      36.905  20.479  24.817  1.00  0.00     0.002 C 
BRANCH  27  28
ATOM     28  C   UNL A   1      38.138  19.578  24.938  1.00  0.00     0.021 C 
BRANCH  28  29
ATOM     29  C   UNL A   1      39.079  19.915  26.091  1.00  0.00     0.116 C 
BRANCH  29  30
ATOM     30  N   UNL A   1      40.299  19.119  26.055  1.00  0.00    -0.352 N 
ATOM     31  C   UNL A   1      41.607  19.518  26.093  1.00  0.00     0.251 C 
ATOM     32  H   UNL A   1      40.160  18.146  25.993  1.00  0.00     0.163 HD
ATOM     33  O   UNL A   1      42.502  18.708  25.836  1.00  0.00    -0.269 OA
BRANCH  31  34
ATOM     34  C   UNL A   1      41.953  20.910  26.439  1.00  0.00     0.039 A 
ATOM     35  C   UNL A   1      42.305  21.216  27.757  1.00  0.00     0.014 A 
ATOM     36  C   UNL A   1      41.903  21.919  25.473  1.00  0.00     0.014 A 
ATOM     37  C   UNL A   1      42.655  22.525  28.094  1.00  0.00     0.010 A 
ATOM     38  C   UNL A   1      42.321  23.207  25.794  1.00  0.00     0.010 A 
ATOM     39  C   UNL A   1      42.690  23.526  27.109  1.00  0.00    -0.014 A 
BRANCH  39  40
ATOM     40  C   UNL A   1      43.119  24.910  27.430  1.00  0.00     0.031 A 
ATOM     41  C   UNL A   1      42.157  25.873  28.067  1.00  0.00     0.074 A 
ATOM     42  C   UNL A   1      44.341  25.330  27.048  1.00  0.00     0.049 A 
ATOM     43  N   UNL A   1      42.325  27.138  28.356  1.00  0.00    -0.248 NA
ATOM     44  C   UNL A   1      40.818  25.358  28.394  1.00  0.00     0.031 C 
ATOM     45  C   UNL A   1      45.329  24.516  26.339  1.00  0.00     0.029 A 
ATOM     46  N   UNL A   1      44.944  26.557  27.169  1.00  0.00    -0.354 N 
ATOM     47  C   UNL A   1      41.105  27.581  28.851  1.00  0.00     0.074 A 
ATOM     48  C   UNL A   1      40.196  26.456  28.798  1.00  0.00     0.031 C 
ATOM     49  C   UNL A   1      46.411  25.267  26.079  1.00  0.00     0.029 A 
ATOM     50  C   UNL A   1      46.183  26.620  26.577  1.00  0.00     0.049 A 
ATOM     51  H   UNL A   1      44.530  27.319  27.635  1.00  0.00     0.167 HD
ATOM     52  C   UNL A   1      40.776  28.804  29.330  1.00  0.00     0.034 A 
ATOM     53  C   UNL A   1      47.036  27.654  26.434  1.00  0.00     0.034 A 
ATOM     54  C   UNL A   1      41.698  29.904  29.420  1.00  0.00     0.049 A 
ATOM     55  C   UNL A   1      46.676  28.986  27.029  1.00  0.00     0.074 A 
ATOM     56  C   UNL A   1      41.501  31.146  29.997  1.00  0.00     0.029 A 
ATOM     57  N   UNL A   1      42.985  29.901  28.906  1.00  0.00    -0.354 N 
ATOM     58  N   UNL A   1      45.581  29.338  27.660  1.00  0.00    -0.248 NA
ATOM     59  C   UNL A   1      47.680  30.054  26.929  1.00  0.00     0.031 C 
ATOM     60  C   UNL A   1      42.660  31.906  29.802  1.00  0.00     0.029 A 
ATOM     61  C   UNL A   1      43.590  31.126  29.134  1.00  0.00     0.049 A 
ATOM     62  H   UNL A   1      43.408  29.140  28.446  1.00  0.00     0.167 HD
ATOM     63  C   UNL A   1      45.774  30.655  28.058  1.00  0.00     0.074 A 
ATOM     64  C   UNL A   1      47.100  31.033  27.613  1.00  0.00     0.031 C 
ATOM     65  C   UNL A   1      44.925  31.479  28.722  1.00  0.00     0.034 A 
BRANCH  52  66
ATOM     66  C   UNL A   1      39.367  29.004  29.826  1.00  0.00     0.023 A 
ATOM     67  C   UNL A   1      39.022  28.605  31.135  1.00  0.00     0.012 A 
ATOM     68  C   UNL A   1      38.392  29.615  29.014  1.00  0.00     0.148 A 
ATOM     69  C   UNL A   1      37.720  28.768  31.608  1.00  0.00     0.002 A 
ATOM     70  C   UNL A   1      37.109  29.818  29.509  1.00  0.00     0.091 A 
ATOM     71  F   UNL A   1      38.729  29.968  27.764  1.00  0.00    -0.205 F 
ATOM     72  C   UNL A   1      36.767  29.381  30.800  1.00  0.00     0.022 A 
BRANCH  70  73
ATOM     73  S   UNL A   1      35.838  30.674  28.573  1.00  0.00     0.127 S 
ATOM     74  O   UNL A   1      35.008  31.230  29.641  1.00  0.00    -0.237 OA
ATOM     75  O   UNL A   1      36.617  31.664  27.829  1.00  0.00    -0.237 OA
ATOM     76  O   UNL A   1      35.202  29.660  27.744  1.00  0.00    -0.744 OA
ENDBRANCH  70  73
ENDBRANCH  52  66
BRANCH  53  77
ATOM     77  C   UNL A   1      48.339  27.436  25.747  1.00  0.00     0.023 A 
ATOM     78  C   UNL A   1      49.455  27.014  26.495  1.00  0.00     0.012 A 
ATOM     79  C   UNL A   1      48.458  27.572  24.350  1.00  0.00     0.148 A 
ATOM     80  C   UNL A   1      50.673  26.750  25.866  1.00  0.00     0.002 A 
ATOM     81  C   UNL A   1      49.657  27.255  23.723  1.00  0.00     0.091 A 
ATOM     82  F   UNL A   1      47.383  27.979  23.659  1.00  0.00    -0.205 F 
ATOM     83  C   UNL A   1      50.770  26.859  24.481  1.00  0.00     0.022 A 
BRANCH  81  84
ATOM     84  S   UNL A   1      49.839  27.232  21.935  1.00  0.00     0.127 S 
ATOM     85  O   UNL A   1      48.824  26.257  21.544  1.00  0.00    -0.237 OA
ATOM     86  O   UNL A   1      49.529  28.619  21.585  1.00  0.00    -0.237 OA
ATOM     87  O   UNL A   1      51.217  26.841  21.681  1.00  0.00    -0.744 OA
ENDBRANCH  81  84
ENDBRANCH  53  77
BRANCH  65  88
ATOM     88  C   UNL A   1      45.405  32.872  29.037  1.00  0.00     0.023 A 
ATOM     89  C   UNL A   1      46.141  33.112  30.214  1.00  0.00     0.012 A 
ATOM     90  C   UNL A   1      45.200  33.925  28.123  1.00  0.00     0.148 A 
ATOM     91  C   UNL A   1      46.642  34.384  30.490  1.00  0.00     0.002 A 
ATOM     92  C   UNL A   1      45.744  35.177  28.381  1.00  0.00     0.091 A 
ATOM     93  F   UNL A   1      44.480  33.682  27.018  1.00  0.00    -0.205 F 
ATOM     94  C   UNL A   1      46.454  35.412  29.569  1.00  0.00     0.022 A 
BRANCH  92  95
ATOM     95  S   UNL A   1      45.639  36.534  27.206  1.00  0.00     0.127 S 
ATOM     96  O   UNL A   1      46.099  35.896  25.974  1.00  0.00    -0.237 OA
ATOM     97  O   UNL A   1      44.211  36.853  27.231  1.00  0.00    -0.237 OA
ATOM     98  O   UNL A   1      46.502  37.584  27.728  1.00  0.00    -0.744 OA
ENDBRANCH  92  95
ENDBRANCH  65  88
ENDBRANCH  39  40
ENDBRANCH  31  34
ENDBRANCH  29  30
ENDBRANCH  28  29
ENDBRANCH  27  28
ENDBRANCH   1  27
TORSDOF 20
ENDMDL
MODEL 2
REMARK VINA RESULT:     -11.3      6.363     11.484
REMARK SMILES CC(C)(Oc1ccc(Cl)cc1)C(=O)N1CCC[C@H](C(=O)NCCCCCCNC(=O)c2ccc(-c3c4nc(c(-c5cccc(S(=O)(=O)[O-])c5F)c5ccc([nH]5)c(-c5cccc(S(=O)(=O)[O-])c5F)c5nc(c(-c6cccc(S(=O)(=O)[O-])c6F)c6ccc3[nH]6)C=C5)C=C4)cc2)C1
REMARK SMILES IDX 24 1 23 2 22 3 21 4 19 5 20 6 18 8 14 9 15 10 94 11 16 12
REMARK SMILES IDX 17 13 12 14 13 15 2 16 1 17 3 18 4 19 5 20 6 21 11 22 7 23
REMARK SMILES IDX 10 24 8 25 9 26 25 27 26 28 27 29 28 30 29 31 30 33 31 34
REMARK SMILES IDX 32 35 93 36 33 37 92 38 34 39 35 40 36 41 86 42 37 43 91 44
REMARK SMILES IDX 85 45 87 46 38 47 90 48 84 49 83 50 39 52 71 53 51 54 70 55
REMARK SMILES IDX 52 56 55 57 69 58 88 59 53 60 54 61 68 63 89 64 56 65 40 66
REMARK SMILES IDX 41 67 49 68 42 69 44 70 50 71 43 72 45 73 46 74 47 75 48 76
REMARK SMILES IDX 72 77 73 78 81 79 74 80 76 81 82 82 75 83 77 84 78 85 79 86
REMARK SMILES IDX 80 87 57 88 58 89 66 90 59 91 61 92 67 93 60 94 62 95 63 96
REMARK SMILES IDX 64 97 65 98
REMARK H PARENT 21 7 28 32 87 51 55 62
REMARK Flexibility Score: inf
ROOT
ATOM      1  C   UNL A   1      34.575  29.243  26.802  1.00  0.00     0.002 C 
ENDROOT
BRANCH   1   2
ATOM      2  C   UNL A   1      33.583  28.086  26.917  1.00  0.00     0.021 C 
BRANCH   2   3
ATOM      3  C   UNL A   1      32.165  28.430  26.471  1.00  0.00     0.116 C 
BRANCH   3   4
ATOM      4  N   UNL A   1      31.182  27.439  26.839  1.00  0.00    -0.356 N 
ATOM      5  C   UNL A   1      30.595  26.465  26.098  1.00  0.00     0.224 C 
ATOM      6  O   UNL A   1      29.925  25.630  26.721  1.00  0.00    -0.275 OA
ATOM      7  H   UNL A   1      30.889  27.476  27.780  1.00  0.00     0.163 HD
BRANCH   5   8
ATOM      8  C   UNL A   1      30.679  26.364  24.567  1.00  0.00     0.098 C 
ATOM      9  N   UNL A   1      32.804  25.403  23.637  1.00  0.00    -0.338 N 
ATOM     10  C   UNL A   1      33.072  26.613  22.862  1.00  0.00     0.119 C 
ATOM     11  C   UNL A   1      31.425  25.137  24.018  1.00  0.00     0.133 C 
ATOM     12  C   UNL A   1      32.451  27.876  23.449  1.00  0.00     0.022 C 
ATOM     13  C   UNL A   1      30.998  27.689  23.865  1.00  0.00     0.017 C 
BRANCH   9  14
ATOM     14  C   UNL A   1      33.881  24.631  24.069  1.00  0.00     0.266 C 
ATOM     15  O   UNL A   1      34.808  25.188  24.667  1.00  0.00    -0.270 OA
BRANCH  14  16
ATOM     16  C   UNL A   1      33.985  23.128  23.599  1.00  0.00     0.181 C 
ATOM     17  C   UNL A   1      35.487  22.779  23.544  1.00  0.00     0.067 C 
ATOM     18  C   UNL A   1      33.383  23.125  22.180  1.00  0.00     0.067 C 
BRANCH  16  19
ATOM     19  O   UNL A   1      33.298  22.234  24.499  1.00  0.00    -0.478 OA
BRANCH  19  20
ATOM     20  C   UNL A   1      33.432  20.885  24.302  1.00  0.00     0.121 A 
ATOM     21  C   UNL A   1      34.460  20.127  24.864  1.00  0.00     0.048 A 
ATOM     22  C   UNL A   1      32.427  20.240  23.577  1.00  0.00     0.048 A 
ATOM     23  C   UNL A   1      34.540  18.751  24.625  1.00  0.00     0.024 A 
ATOM     24  C   UNL A   1      32.491  18.859  23.354  1.00  0.00     0.024 A 
ATOM     25  C   UNL A   1      33.558  18.123  23.866  1.00  0.00     0.041 A 
ATOM     26  Cl  UNL A   1      33.648  16.428  23.582  1.00  0.00    -0.084 Cl
ENDBRANCH  19  20
ENDBRANCH  16  19
ENDBRANCH  14  16
ENDBRANCH   9  14
ENDBRANCH   5   8
ENDBRANCH   3   4
ENDBRANCH   2   3
ENDBRANCH   1   2
BRANCH   1  27
ATOM     27  C   UNL A   1      34.367  30.391  27.800  1.00  0.00     0.002 C 
BRANCH  27  28
ATOM     28  C   UNL A   1      33.991  31.746  27.193  1.00  0.00     0.021 C 
BRANCH  28  29
ATOM     29  C   UNL A   1      32.589  32.244  27.532  1.00  0.00     0.116 C 
BRANCH  29  30
ATOM     30  N   UNL A   1      32.544  33.692  27.687  1.00  0.00    -0.352 N 
ATOM     31  C   UNL A   1      33.258  34.507  28.524  1.00  0.00     0.251 C 
ATOM     32  H   UNL A   1      31.900  34.155  27.102  1.00  0.00     0.163 HD
ATOM     33  O   UNL A   1      32.924  35.687  28.660  1.00  0.00    -0.269 OA
BRANCH  31  34
ATOM     34  C   UNL A   1      34.421  33.982  29.263  1.00  0.00     0.039 A 
ATOM     35  C   UNL A   1      34.208  33.147  30.364  1.00  0.00     0.014 A 
ATOM     36  C   UNL A   1      35.722  34.333  28.891  1.00  0.00     0.014 A 
ATOM     37  C   UNL A   1      35.299  32.625  31.060  1.00  0.00     0.010 A 
ATOM     38  C   UNL A   1      36.808  33.756  29.540  1.00  0.00     0.010 A 
ATOM     39  C   UNL A   1      36.609  32.906  30.638  1.00  0.00    -0.014 A 
BRANCH  39  40
ATOM     40  C   UNL A   1      37.785  32.313  31.323  1.00  0.00     0.031 A 
ATOM     41  C   UNL A   1      38.534  31.172  30.692  1.00  0.00     0.074 A 
ATOM     42  C   UNL A   1      38.113  32.733  32.561  1.00  0.00     0.049 A 
ATOM     43  N   UNL A   1      39.537  30.480  31.168  1.00  0.00    -0.248 NA
ATOM     44  C   UNL A   1      38.074  30.725  29.368  1.00  0.00     0.031 C 
ATOM     45  C   UNL A   1      37.405  33.769  33.314  1.00  0.00     0.029 A 
ATOM     46  N   UNL A   1      39.099  32.312  33.417  1.00  0.00    -0.354 N 
ATOM     47  C   UNL A   1      39.797  29.491  30.227  1.00  0.00     0.074 A 
ATOM     48  C   UNL A   1      38.828  29.655  29.166  1.00  0.00     0.031 C 
ATOM     49  C   UNL A   1      37.973  33.897  34.523  1.00  0.00     0.029 A 
ATOM     50  C   UNL A   1      39.065  32.936  34.642  1.00  0.00     0.049 A 
ATOM     51  H   UNL A   1      39.768  31.631  33.177  1.00  0.00     0.167 HD
ATOM     52  C   UNL A   1      40.770  28.549  30.233  1.00  0.00     0.034 A 
ATOM     53  C   UNL A   1      39.817  32.746  35.744  1.00  0.00     0.034 A 
ATOM     54  C   UNL A   1      41.756  28.421  31.271  1.00  0.00     0.049 A 
ATOM     55  C   UNL A   1      40.931  31.737  35.705  1.00  0.00     0.074 A 
ATOM     56  C   UNL A   1      42.854  27.579  31.316  1.00  0.00     0.029 A 
ATOM     57  N   UNL A   1      41.758  29.143  32.455  1.00  0.00    -0.354 N 
ATOM     58  N   UNL A   1      41.278  30.932  34.730  1.00  0.00    -0.248 NA
ATOM     59  C   UNL A   1      41.780  31.636  36.900  1.00  0.00     0.031 C 
ATOM     60  C   UNL A   1      43.500  27.770  32.542  1.00  0.00     0.029 A 
ATOM     61  C   UNL A   1      42.825  28.754  33.247  1.00  0.00     0.049 A 
ATOM     62  H   UNL A   1      41.097  29.832  32.696  1.00  0.00     0.167 HD
ATOM     63  C   UNL A   1      42.403  30.250  35.180  1.00  0.00     0.074 A 
ATOM     64  C   UNL A   1      42.689  30.751  36.508  1.00  0.00     0.031 C 
ATOM     65  C   UNL A   1      43.124  29.288  34.552  1.00  0.00     0.034 A 
BRANCH  52  66
ATOM     66  C   UNL A   1      40.832  27.603  29.061  1.00  0.00     0.023 A 
ATOM     67  C   UNL A   1      39.980  26.479  29.022  1.00  0.00     0.012 A 
ATOM     68  C   UNL A   1      41.707  27.841  27.984  1.00  0.00     0.148 A 
ATOM     69  C   UNL A   1      40.032  25.584  27.954  1.00  0.00     0.002 A 
ATOM     70  C   UNL A   1      41.718  26.971  26.899  1.00  0.00     0.091 A 
ATOM     71  F   UNL A   1      42.526  28.901  28.045  1.00  0.00    -0.205 F 
ATOM     72  C   UNL A   1      40.894  25.834  26.889  1.00  0.00     0.022 A 
BRANCH  70  73
ATOM     73  S   UNL A   1      42.734  27.256  25.445  1.00  0.00     0.127 S 
ATOM     74  O   UNL A   1      42.518  26.024  24.688  1.00  0.00    -0.237 OA
ATOM     75  O   UNL A   1      42.112  28.445  24.862  1.00  0.00    -0.237 OA
ATOM     76  O   UNL A   1      44.088  27.463  25.938  1.00  0.00    -0.744 OA
ENDBRANCH  70  73
ENDBRANCH  52  66
BRANCH  53  77
ATOM     77  C   UNL A   1      39.567  33.582  36.950  1.00  0.00     0.023 A 
ATOM     78  C   UNL A   1      39.950  34.938  36.946  1.00  0.00     0.012 A 
ATOM     79  C   UNL A   1      38.888  33.063  38.069  1.00  0.00     0.148 A 
ATOM     80  C   UNL A   1      39.679  35.756  38.043  1.00  0.00     0.002 A 
ATOM     81  C   UNL A   1      38.572  33.896  39.135  1.00  0.00     0.091 A 
ATOM     82  F   UNL A   1      38.537  31.769  38.054  1.00  0.00    -0.205 F 
ATOM     83  C   UNL A   1      38.979  35.239  39.131  1.00  0.00     0.022 A 
BRANCH  81  84
ATOM     84  S   UNL A   1      37.557  33.358  40.518  1.00  0.00     0.127 S 
ATOM     85  O   UNL A   1      38.370  32.285  41.085  1.00  0.00    -0.237 OA
ATOM     86  O   UNL A   1      37.487  34.574  41.329  1.00  0.00    -0.237 OA
ATOM     87  O   UNL A   1      36.286  32.945  39.941  1.00  0.00    -0.744 OA
ENDBRANCH  81  84
ENDBRANCH  53  77
BRANCH  65  88
ATOM     88  C   UNL A   1      44.317  28.722  35.277  1.00  0.00     0.023 A 
ATOM     89  C   UNL A   1      45.597  29.269  35.060  1.00  0.00     0.012 A 
ATOM     90  C   UNL A   1      44.155  27.705  36.239  1.00  0.00     0.148 A 
ATOM     91  C   UNL A   1      46.701  28.795  35.768  1.00  0.00     0.002 A 
ATOM     92  C   UNL A   1      45.250  27.272  36.977  1.00  0.00     0.091 A 
ATOM     93  F   UNL A   1      42.933  27.182  36.418  1.00  0.00    -0.205 F 
ATOM     94  C   UNL A   1      46.526  27.806  36.734  1.00  0.00     0.022 A 
BRANCH  92  95
ATOM     95  S   UNL A   1      45.103  26.075  38.309  1.00  0.00     0.127 S 
ATOM     96  O   UNL A   1      44.730  24.863  37.580  1.00  0.00    -0.237 OA
ATOM     97  O   UNL A   1      46.457  26.060  38.863  1.00  0.00    -0.237 OA
ATOM     98  O   UNL A   1      44.087  26.600  39.210  1.00  0.00    -0.744 OA
ENDBRANCH  92  95
ENDBRANCH  65  88
ENDBRANCH  39  40
ENDBRANCH  31  34
ENDBRANCH  29  30
ENDBRANCH  28  29
ENDBRANCH  27  28
ENDBRANCH   1  27
TORSDOF 20
ENDMDL
MODEL 3
REMARK VINA RESULT:     -11.0      6.587     10.213
REMARK SMILES CC(C)(Oc1ccc(Cl)cc1)C(=O)N1CCC[C@H](C(=O)NCCCCCCNC(=O)c2ccc(-c3c4nc(c(-c5cccc(S(=O)(=O)[O-])c5F)c5ccc([nH]5)c(-c5cccc(S(=O)(=O)[O-])c5F)c5nc(c(-c6cccc(S(=O)(=O)[O-])c6F)c6ccc3[nH]6)C=C5)C=C4)cc2)C1
REMARK SMILES IDX 24 1 23 2 22 3 21 4 19 5 20 6 18 8 14 9 15 10 94 11 16 12
REMARK SMILES IDX 17 13 12 14 13 15 2 16 1 17 3 18 4 19 5 20 6 21 11 22 7 23
REMARK SMILES IDX 10 24 8 25 9 26 25 27 26 28 27 29 28 30 29 31 30 33 31 34
REMARK SMILES IDX 32 35 93 36 33 37 92 38 34 39 35 40 36 41 86 42 37 43 91 44
REMARK SMILES IDX 85 45 87 46 38 47 90 48 84 49 83 50 39 52 71 53 51 54 70 55
REMARK SMILES IDX 52 56 55 57 69 58 88 59 53 60 54 61 68 63 89 64 56 65 40 66
REMARK SMILES IDX 41 67 49 68 42 69 44 70 50 71 43 72 45 73 46 74 47 75 48 76
REMARK SMILES IDX 72 77 73 78 81 79 74 80 76 81 82 82 75 83 77 84 78 85 79 86
REMARK SMILES IDX 80 87 57 88 58 89 66 90 59 91 61 92 67 93 60 94 62 95 63 96
REMARK SMILES IDX 64 97 65 98
REMARK H PARENT 21 7 28 32 87 51 55 62
REMARK Flexibility Score: inf
ROOT
ATOM      1  C   UNL A   1      35.706  31.683  28.676  1.00  0.00     0.002 C 
ENDROOT
BRANCH   1   2
ATOM      2  C   UNL A   1      35.493  30.397  27.878  1.00  0.00     0.021 C 
BRANCH   2   3
ATOM      3  C   UNL A   1      34.047  30.157  27.453  1.00  0.00     0.116 C 
BRANCH   3   4
ATOM      4  N   UNL A   1      33.889  29.912  26.039  1.00  0.00    -0.356 N 
ATOM      5  C   UNL A   1      33.244  28.911  25.388  1.00  0.00     0.224 C 
ATOM      6  O   UNL A   1      33.104  29.052  24.165  1.00  0.00    -0.275 OA
ATOM      7  H   UNL A   1      34.318  30.577  25.453  1.00  0.00     0.163 HD
BRANCH   5   8
ATOM      8  C   UNL A   1      32.725  27.627  26.055  1.00  0.00     0.098 C 
ATOM      9  N   UNL A   1      32.794  25.546  24.653  1.00  0.00    -0.338 N 
ATOM     10  C   UNL A   1      31.351  25.350  24.783  1.00  0.00     0.119 C 
ATOM     11  C   UNL A   1      33.463  26.332  25.679  1.00  0.00     0.133 C 
ATOM     12  C   UNL A   1      30.570  26.635  25.032  1.00  0.00     0.022 C 
ATOM     13  C   UNL A   1      31.197  27.516  26.104  1.00  0.00     0.017 C 
BRANCH   9  14
ATOM     14  C   UNL A   1      33.435  25.076  23.507  1.00  0.00     0.266 C 
ATOM     15  O   UNL A   1      33.499  25.814  22.519  1.00  0.00    -0.270 OA
BRANCH  14  16
ATOM     16  C   UNL A   1      33.862  23.558  23.436  1.00  0.00     0.181 C 
ATOM     17  C   UNL A   1      35.404  23.524  23.481  1.00  0.00     0.067 C 
ATOM     18  C   UNL A   1      33.356  23.079  22.061  1.00  0.00     0.067 C 
BRANCH  16  19
ATOM     19  O   UNL A   1      33.314  22.794  24.530  1.00  0.00    -0.478 OA
BRANCH  19  20
ATOM     20  C   UNL A   1      33.526  21.440  24.546  1.00  0.00     0.121 A 
ATOM     21  C   UNL A   1      34.778  20.864  24.763  1.00  0.00     0.048 A 
ATOM     22  C   UNL A   1      32.405  20.614  24.433  1.00  0.00     0.048 A 
ATOM     23  C   UNL A   1      34.928  19.473  24.769  1.00  0.00     0.024 A 
ATOM     24  C   UNL A   1      32.548  19.221  24.461  1.00  0.00     0.024 A 
ATOM     25  C   UNL A   1      33.813  18.656  24.613  1.00  0.00     0.041 A 
ATOM     26  Cl  UNL A   1      33.994  16.945  24.633  1.00  0.00    -0.084 Cl
ENDBRANCH  19  20
ENDBRANCH  16  19
ENDBRANCH  14  16
ENDBRANCH   9  14
ENDBRANCH   5   8
ENDBRANCH   3   4
ENDBRANCH   2   3
ENDBRANCH   1   2
BRANCH   1  27
ATOM     27  C   UNL A   1      36.005  32.936  27.840  1.00  0.00     0.002 C 
BRANCH  27  28
ATOM     28  C   UNL A   1      34.969  34.061  27.925  1.00  0.00     0.021 C 
BRANCH  28  29
ATOM     29  C   UNL A   1      33.613  33.654  28.496  1.00  0.00     0.116 C 
BRANCH  29  30
ATOM     30  N   UNL A   1      33.149  34.580  29.521  1.00  0.00    -0.352 N 
ATOM     31  C   UNL A   1      33.545  34.716  30.824  1.00  0.00     0.251 C 
ATOM     32  H   UNL A   1      32.442  35.203  29.233  1.00  0.00     0.163 HD
ATOM     33  O   UNL A   1      32.883  35.415  31.595  1.00  0.00    -0.269 OA
BRANCH  31  34
ATOM     34  C   UNL A   1      34.758  34.030  31.311  1.00  0.00     0.039 A 
ATOM     35  C   UNL A   1      34.634  32.771  31.906  1.00  0.00     0.014 A 
ATOM     36  C   UNL A   1      36.012  34.638  31.208  1.00  0.00     0.014 A 
ATOM     37  C   UNL A   1      35.775  32.100  32.352  1.00  0.00     0.010 A 
ATOM     38  C   UNL A   1      37.154  33.939  31.587  1.00  0.00     0.010 A 
ATOM     39  C   UNL A   1      37.047  32.669  32.173  1.00  0.00    -0.014 A 
BRANCH  39  40
ATOM     40  C   UNL A   1      38.279  31.949  32.582  1.00  0.00     0.031 A 
ATOM     41  C   UNL A   1      39.035  32.378  33.808  1.00  0.00     0.074 A 
ATOM     42  C   UNL A   1      38.773  30.978  31.789  1.00  0.00     0.049 A 
ATOM     43  N   UNL A   1      40.165  31.920  34.283  1.00  0.00    -0.248 NA
ATOM     44  C   UNL A   1      38.466  33.490  34.586  1.00  0.00     0.031 C 
ATOM     45  C   UNL A   1      38.179  30.537  30.526  1.00  0.00     0.029 A 
ATOM     46  N   UNL A   1      39.908  30.217  31.908  1.00  0.00    -0.354 N 
ATOM     47  C   UNL A   1      40.466  32.715  35.382  1.00  0.00     0.074 A 
ATOM     48  C   UNL A   1      39.414  33.703  35.487  1.00  0.00     0.031 C 
ATOM     49  C   UNL A   1      38.959  29.590  29.982  1.00  0.00     0.029 A 
ATOM     50  C   UNL A   1      40.120  29.376  30.841  1.00  0.00     0.049 A 
ATOM     51  H   UNL A   1      40.513  30.266  32.683  1.00  0.00     0.167 HD
ATOM     52  C   UNL A   1      41.509  32.617  36.241  1.00  0.00     0.034 A 
ATOM     53  C   UNL A   1      41.141  28.538  30.573  1.00  0.00     0.034 A 
ATOM     54  C   UNL A   1      42.526  31.605  36.154  1.00  0.00     0.049 A 
ATOM     55  C   UNL A   1      42.256  28.401  31.571  1.00  0.00     0.074 A 
ATOM     56  C   UNL A   1      43.558  31.344  37.039  1.00  0.00     0.029 A 
ATOM     57  N   UNL A   1      42.652  30.697  35.114  1.00  0.00    -0.354 N 
ATOM     58  N   UNL A   1      42.429  29.038  32.705  1.00  0.00    -0.248 NA
ATOM     59  C   UNL A   1      43.295  27.405  31.276  1.00  0.00     0.031 C 
ATOM     60  C   UNL A   1      44.327  30.299  36.516  1.00  0.00     0.029 A 
ATOM     61  C   UNL A   1      43.755  29.886  35.323  1.00  0.00     0.049 A 
ATOM     62  H   UNL A   1      42.047  30.637  34.341  1.00  0.00     0.167 HD
ATOM     63  C   UNL A   1      43.579  28.501  33.273  1.00  0.00     0.074 A 
ATOM     64  C   UNL A   1      44.049  27.474  32.367  1.00  0.00     0.031 C 
ATOM     65  C   UNL A   1      44.192  28.839  34.435  1.00  0.00     0.034 A 
BRANCH  52  66
ATOM     66  C   UNL A   1      41.579  33.614  37.370  1.00  0.00     0.023 A 
ATOM     67  C   UNL A   1      42.439  34.727  37.268  1.00  0.00     0.012 A 
ATOM     68  C   UNL A   1      40.773  33.468  38.515  1.00  0.00     0.148 A 
ATOM     69  C   UNL A   1      42.530  35.653  38.307  1.00  0.00     0.002 A 
ATOM     70  C   UNL A   1      40.833  34.421  39.526  1.00  0.00     0.091 A 
ATOM     71  F   UNL A   1      39.977  32.393  38.607  1.00  0.00    -0.205 F 
ATOM     72  C   UNL A   1      41.722  35.505  39.431  1.00  0.00     0.022 A 
BRANCH  70  73
ATOM     73  S   UNL A   1      39.771  34.361  40.973  1.00  0.00     0.127 S 
ATOM     74  O   UNL A   1      38.450  34.219  40.364  1.00  0.00    -0.237 OA
ATOM     75  O   UNL A   1      40.256  33.165  41.663  1.00  0.00    -0.237 OA
ATOM     76  O   UNL A   1      40.003  35.607  41.690  1.00  0.00    -0.744 OA
ENDBRANCH  70  73
ENDBRANCH  52  66
BRANCH  53  77
ATOM     77  C   UNL A   1      41.108  27.724  29.327  1.00  0.00     0.023 A 
ATOM     78  C   UNL A   1      40.224  26.631  29.236  1.00  0.00     0.012 A 
ATOM     79  C   UNL A   1      41.892  28.071  28.209  1.00  0.00     0.148 A 
ATOM     80  C   UNL A   1      40.136  25.886  28.059  1.00  0.00     0.002 A 
ATOM     81  C   UNL A   1      41.759  27.359  27.023  1.00  0.00     0.091 A 
ATOM     82  F   UNL A   1      42.729  29.112  28.320  1.00  0.00    -0.205 F 
ATOM     83  C   UNL A   1      40.894  26.256  26.951  1.00  0.00     0.022 A 
BRANCH  81  84
ATOM     84  S   UNL A   1      42.589  27.844  25.504  1.00  0.00     0.127 S 
ATOM     85  O   UNL A   1      42.339  26.689  24.645  1.00  0.00    -0.237 OA
ATOM     86  O   UNL A   1      41.855  29.056  25.137  1.00  0.00    -0.237 OA
ATOM     87  O   UNL A   1      43.980  28.069  25.865  1.00  0.00    -0.744 OA
ENDBRANCH  81  84
ENDBRANCH  53  77
BRANCH  65  88
ATOM     88  C   UNL A   1      45.434  28.075  34.818  1.00  0.00     0.023 A 
ATOM     89  C   UNL A   1      46.703  28.580  34.475  1.00  0.00     0.012 A 
ATOM     90  C   UNL A   1      45.343  26.902  35.594  1.00  0.00     0.148 A 
ATOM     91  C   UNL A   1      47.863  27.916  34.874  1.00  0.00     0.002 A 
ATOM     92  C   UNL A   1      46.503  26.273  36.030  1.00  0.00     0.091 A 
ATOM     93  F   UNL A   1      44.126  26.426  35.894  1.00  0.00    -0.205 F 
ATOM     94  C   UNL A   1      47.763  26.771  35.661  1.00  0.00     0.022 A 
BRANCH  92  95
ATOM     95  S   UNL A   1      46.473  24.851  37.129  1.00  0.00     0.127 S 
ATOM     96  O   UNL A   1      45.732  25.377  38.275  1.00  0.00    -0.237 OA
ATOM     97  O   UNL A   1      45.745  23.862  36.334  1.00  0.00    -0.237 OA
ATOM     98  O   UNL A   1      47.865  24.513  37.386  1.00  0.00    -0.744 OA
ENDBRANCH  92  95
ENDBRANCH  65  88
ENDBRANCH  39  40
ENDBRANCH  31  34
ENDBRANCH  29  30
ENDBRANCH  28  29
ENDBRANCH  27  28
ENDBRANCH   1  27
TORSDOF 20
ENDMDL
