MODEL 1
REMARK VINA RESULT:      -9.7      0.000      0.000
REMARK SMILES CC1(C)CC[C@@]2(C(=O)NCCCCCCNC(=O)c3ccc(-c4c5nc(c(-c6cccc(S(=O)(=O)[O-])c6F)c6ccc([nH]6)c(-c6cccc(S(=O)(=O)[O-])c6F)c6nc(c(-c7cccc(S(=O)(=O)[O-])c7F)c7ccc4[nH]7)C=C6)C=C5)cc3)CC[C@@]3(C)C(=CC[C@H]4[C@@]5(C)CC[C@H](O)C(C)(C)[C@@H]5CC[C@]43C)[C@@H]2C1
REMARK SMILES IDX 13 1 12 2 11 3 10 4 9 5 7 6 8 7 6 9 1 10 2 11 3 12 4 13
REMARK SMILES IDX 105 14 5 15 104 16 86 17 82 18 84 19 87 20 83 21 85 22
REMARK SMILES IDX 102 23 88 24 89 25 101 26 103 27 90 28 100 29 91 30 92 31
REMARK SMILES IDX 99 32 93 33 96 34 94 35 97 36 98 37 95 38 14 40 15 41 16 42
REMARK SMILES IDX 17 43 18 45 19 46 20 47 81 48 21 49 80 50 22 51 23 52 24 53
REMARK SMILES IDX 74 54 25 55 79 56 73 57 75 58 26 59 78 60 72 61 71 62 27 64
REMARK SMILES IDX 59 65 39 66 58 67 40 68 43 69 57 70 76 71 41 72 42 73 56 75
REMARK SMILES IDX 77 76 44 77 28 78 29 79 37 80 30 81 32 82 38 83 31 84 33 85
REMARK SMILES IDX 34 86 35 87 36 88 60 89 61 90 69 91 62 92 64 93 70 94 63 95
REMARK SMILES IDX 65 96 66 97 67 98 68 99 45 100 46 101 54 102 47 103 49 104
REMARK SMILES IDX 55 105 48 106 50 107 51 108 52 109 53 110
REMARK H PARENT 9 8 95 39 16 44 75 63 43 74
REMARK Flexibility Score: inf
ROOT
ATOM      1  C   UNL A   1      44.761  23.490  33.495  1.00  0.00     0.002 C 
ENDROOT
BRANCH   1   2
ATOM      2  C   UNL A   1      44.468  24.112  32.129  1.00  0.00     0.002 C 
BRANCH   2   3
ATOM      3  C   UNL A   1      43.532  23.373  31.157  1.00  0.00     0.021 C 
BRANCH   3   4
ATOM      4  C   UNL A   1      43.844  23.157  29.666  1.00  0.00     0.116 C 
BRANCH   4   5
ATOM      5  N   UNL A   1      43.402  24.085  28.639  1.00  0.00    -0.356 N 
ATOM      6  C   UNL A   1      43.857  24.202  27.330  1.00  0.00     0.226 C 
ATOM      7  O   UNL A   1      44.973  23.814  26.985  1.00  0.00    -0.274 OA
ATOM      8  H   UNL A   1      42.689  24.710  28.904  1.00  0.00     0.163 HD
BRANCH   6   9
ATOM      9  C   UNL A   1      42.816  24.658  26.236  1.00  0.00     0.056 C 
ATOM     10  C   UNL A   1      39.891  21.797  26.137  1.00  0.00     0.011 C 
ATOM     11  C   UNL A   1      41.047  22.353  26.990  1.00  0.00    -0.035 C 
ATOM     12  C   UNL A   1      41.149  21.399  28.218  1.00  0.00     0.011 C 
ATOM     13  C   UNL A   1      42.335  22.184  26.160  1.00  0.00     0.007 C 
ATOM     14  C   UNL A   1      40.694  23.846  27.438  1.00  0.00     0.015 C 
ATOM     15  C   UNL A   1      42.656  23.413  25.331  1.00  0.00     0.018 C 
ATOM     16  C   UNL A   1      41.440  25.099  26.781  1.00  0.00     0.031 C 
ATOM     17  C   UNL A   1      41.714  26.417  27.617  1.00  0.00    -0.064 C 
ATOM     18  C   UNL A   1      43.338  25.795  25.322  1.00  0.00     0.018 C 
ATOM     19  C   UNL A   1      42.526  27.615  27.004  1.00  0.00    -0.006 C 
ATOM     20  C   UNL A   1      41.503  26.408  28.941  1.00  0.00    -0.027 C 
ATOM     21  C   UNL A   1      43.638  27.087  26.072  1.00  0.00     0.013 C 
ATOM     22  C   UNL A   1      41.520  28.427  26.132  1.00  0.00     0.017 C 
ATOM     23  C   UNL A   1      43.154  28.628  28.163  1.00  0.00    -0.020 C 
ATOM     24  C   UNL A   1      42.584  26.884  29.880  1.00  0.00     0.032 C 
ATOM     25  C   UNL A   1      43.715  27.791  29.361  1.00  0.00     0.006 C 
ATOM     26  C   UNL A   1      44.226  29.681  27.705  1.00  0.00     0.008 C 
ATOM     27  C   UNL A   1      41.975  29.514  28.755  1.00  0.00     0.012 C 
ATOM     28  C   UNL A   1      45.346  27.400  29.491  1.00  0.00    -0.025 C 
ATOM     29  C   UNL A   1      45.547  29.713  28.523  1.00  0.00     0.005 C 
ATOM     30  C   UNL A   1      45.620  27.673  31.013  1.00  0.00     0.012 C 
ATOM     31  C   UNL A   1      45.897  25.957  29.282  1.00  0.00     0.010 C 
ATOM     32  C   UNL A   1      46.148  28.312  28.532  1.00  0.00     0.003 C 
ATOM     33  C   UNL A   1      47.170  25.622  28.450  1.00  0.00     0.033 C 
ATOM     34  C   UNL A   1      47.712  28.100  28.477  1.00  0.00    -0.006 C 
ATOM     35  C   UNL A   1      47.882  26.755  27.722  1.00  0.00     0.120 C 
ATOM     36  C   UNL A   1      48.468  28.008  29.818  1.00  0.00     0.014 C 
ATOM     37  C   UNL A   1      48.400  29.217  27.672  1.00  0.00     0.014 C 
BRANCH  35  38
ATOM     38  O   UNL A   1      49.263  26.423  27.546  1.00  0.00    -0.393 OA
ATOM     39  H   UNL A   1      49.454  26.326  26.600  1.00  0.00     0.210 HD
ENDBRANCH  35  38
ENDBRANCH   6   9
ENDBRANCH   4   5
ENDBRANCH   3   4
ENDBRANCH   2   3
ENDBRANCH   1   2
BRANCH   1  40
ATOM     40  C   UNL A   1      43.541  23.224  34.362  1.00  0.00     0.021 C 
BRANCH  40  41
ATOM     41  C   UNL A   1      43.512  24.008  35.659  1.00  0.00     0.116 C 
BRANCH  41  42
ATOM     42  N   UNL A   1      42.185  24.143  36.245  1.00  0.00    -0.352 N 
ATOM     43  C   UNL A   1      41.362  25.251  36.181  1.00  0.00     0.251 C 
ATOM     44  H   UNL A   1      41.838  23.364  36.736  1.00  0.00     0.163 HD
ATOM     45  O   UNL A   1      40.280  25.281  36.719  1.00  0.00    -0.269 OA
BRANCH  43  46
ATOM     46  C   UNL A   1      41.903  26.427  35.467  1.00  0.00     0.039 A 
ATOM     47  C   UNL A   1      42.160  26.314  34.102  1.00  0.00     0.014 A 
ATOM     48  C   UNL A   1      41.962  27.662  36.118  1.00  0.00     0.014 A 
ATOM     49  C   UNL A   1      42.428  27.466  33.367  1.00  0.00     0.010 A 
ATOM     50  C   UNL A   1      42.126  28.814  35.364  1.00  0.00     0.010 A 
ATOM     51  C   UNL A   1      42.378  28.726  33.986  1.00  0.00    -0.014 A 
BRANCH  51  52
ATOM     52  C   UNL A   1      42.623  29.969  33.218  1.00  0.00     0.031 A 
ATOM     53  C   UNL A   1      41.486  30.604  32.467  1.00  0.00     0.074 A 
ATOM     54  C   UNL A   1      43.869  30.473  33.126  1.00  0.00     0.049 A 
ATOM     55  N   UNL A   1      41.496  31.656  31.693  1.00  0.00    -0.248 NA
ATOM     56  C   UNL A   1      40.171  29.947  32.569  1.00  0.00     0.031 C 
ATOM     57  C   UNL A   1      45.067  29.891  33.735  1.00  0.00     0.029 A 
ATOM     58  N   UNL A   1      44.339  31.578  32.462  1.00  0.00    -0.354 N 
ATOM     59  C   UNL A   1      40.209  31.757  31.180  1.00  0.00     0.074 A 
ATOM     60  C   UNL A   1      39.455  30.635  31.694  1.00  0.00     0.031 C 
ATOM     61  C   UNL A   1      46.132  30.649  33.423  1.00  0.00     0.029 A 
ATOM     62  C   UNL A   1      45.699  31.752  32.572  1.00  0.00     0.049 A 
ATOM     63  H   UNL A   1      43.756  32.189  31.955  1.00  0.00     0.167 HD
ATOM     64  C   UNL A   1      39.687  32.717  30.385  1.00  0.00     0.034 A 
ATOM     65  C   UNL A   1      46.503  32.695  32.042  1.00  0.00     0.034 A 
ATOM     66  C   UNL A   1      40.426  33.862  29.932  1.00  0.00     0.049 A 
ATOM     67  C   UNL A   1      45.888  33.792  31.214  1.00  0.00     0.074 A 
ATOM     68  C   UNL A   1      39.968  34.952  29.216  1.00  0.00     0.029 A 
ATOM     69  N   UNL A   1      41.781  34.060  30.148  1.00  0.00    -0.354 N 
ATOM     70  N   UNL A   1      44.632  33.968  30.883  1.00  0.00    -0.248 NA
ATOM     71  C   UNL A   1      46.792  34.841  30.720  1.00  0.00     0.031 C 
ATOM     72  C   UNL A   1      41.054  35.801  28.977  1.00  0.00     0.029 A 
ATOM     73  C   UNL A   1      42.181  35.251  29.569  1.00  0.00     0.049 A 
ATOM     74  H   UNL A   1      42.371  33.445  30.640  1.00  0.00     0.167 HD
ATOM     75  C   UNL A   1      44.587  35.162  30.171  1.00  0.00     0.074 A 
ATOM     76  C   UNL A   1      45.942  35.675  30.135  1.00  0.00     0.031 C 
ATOM     77  C   UNL A   1      43.524  35.771  29.590  1.00  0.00     0.034 A 
BRANCH  64  78
ATOM     78  C   UNL A   1      38.236  32.592  30.002  1.00  0.00     0.023 A 
ATOM     79  C   UNL A   1      37.869  31.776  28.912  1.00  0.00     0.012 A 
ATOM     80  C   UNL A   1      37.236  33.255  30.737  1.00  0.00     0.148 A 
ATOM     81  C   UNL A   1      36.534  31.658  28.531  1.00  0.00     0.002 A 
ATOM     82  C   UNL A   1      35.902  33.093  30.382  1.00  0.00     0.091 A 
ATOM     83  F   UNL A   1      37.605  34.048  31.753  1.00  0.00    -0.205 F 
ATOM     84  C   UNL A   1      35.550  32.307  29.272  1.00  0.00     0.022 A 
BRANCH  82  85
ATOM     85  S   UNL A   1      34.557  33.821  31.323  1.00  0.00     0.127 S 
ATOM     86  O   UNL A   1      33.638  34.223  30.261  1.00  0.00    -0.237 OA
ATOM     87  O   UNL A   1      34.099  32.691  32.132  1.00  0.00    -0.237 OA
ATOM     88  O   UNL A   1      35.149  34.910  32.088  1.00  0.00    -0.744 OA
ENDBRANCH  82  85
ENDBRANCH  64  78
BRANCH  65  89
ATOM     89  C   UNL A   1      47.963  32.677  32.341  1.00  0.00     0.023 A 
ATOM     90  C   UNL A   1      48.449  33.377  33.462  1.00  0.00     0.012 A 
ATOM     91  C   UNL A   1      48.863  31.932  31.555  1.00  0.00     0.148 A 
ATOM     92  C   UNL A   1      49.808  33.358  33.779  1.00  0.00     0.002 A 
ATOM     93  C   UNL A   1      50.206  31.872  31.907  1.00  0.00     0.091 A 
ATOM     94  F   UNL A   1      48.382  31.280  30.487  1.00  0.00    -0.205 F 
ATOM     95  C   UNL A   1      50.684  32.598  33.010  1.00  0.00     0.022 A 
BRANCH  93  96
ATOM     96  S   UNL A   1      51.381  30.812  31.057  1.00  0.00     0.127 S 
ATOM     97  O   UNL A   1      52.654  31.279  31.602  1.00  0.00    -0.237 OA
ATOM     98  O   UNL A   1      50.969  29.482  31.507  1.00  0.00    -0.237 OA
ATOM     99  O   UNL A   1      51.176  31.054  29.636  1.00  0.00    -0.744 OA
ENDBRANCH  93  96
ENDBRANCH  65  89
BRANCH  77 100
ATOM    100  C   UNL A   1      43.762  37.081  28.890  1.00  0.00     0.023 A 
ATOM    101  C   UNL A   1      43.843  37.122  27.484  1.00  0.00     0.012 A 
ATOM    102  C   UNL A   1      43.801  38.285  29.622  1.00  0.00     0.148 A 
ATOM    103  C   UNL A   1      43.982  38.338  26.819  1.00  0.00     0.002 A 
ATOM    104  C   UNL A   1      43.890  39.497  28.949  1.00  0.00     0.091 A 
ATOM    105  F   UNL A   1      43.740  38.222  30.960  1.00  0.00    -0.205 F 
ATOM    106  C   UNL A   1      43.991  39.525  27.549  1.00  0.00     0.022 A 
BRANCH 104 107
ATOM    107  S   UNL A   1      43.806  41.078  29.798  1.00  0.00     0.127 S 
ATOM    108  O   UNL A   1      44.142  42.010  28.722  1.00  0.00    -0.237 OA
ATOM    109  O   UNL A   1      42.410  41.123  30.232  1.00  0.00    -0.237 OA
ATOM    110  O   UNL A   1      44.774  41.004  30.884  1.00  0.00    -0.744 OA
ENDBRANCH 104 107
ENDBRANCH  77 100
ENDBRANCH  51  52
ENDBRANCH  43  46
ENDBRANCH  41  42
ENDBRANCH  40  41
ENDBRANCH   1  40
TORSDOF 17
ENDMDL
MODEL 2
REMARK VINA RESULT:      -9.6      1.643      3.878
REMARK SMILES CC1(C)CC[C@@]2(C(=O)NCCCCCCNC(=O)c3ccc(-c4c5nc(c(-c6cccc(S(=O)(=O)[O-])c6F)c6ccc([nH]6)c(-c6cccc(S(=O)(=O)[O-])c6F)c6nc(c(-c7cccc(S(=O)(=O)[O-])c7F)c7ccc4[nH]7)C=C6)C=C5)cc3)CC[C@@]3(C)C(=CC[C@H]4[C@@]5(C)CC[C@H](O)C(C)(C)[C@@H]5CC[C@]43C)[C@@H]2C1
REMARK SMILES IDX 13 1 12 2 11 3 10 4 9 5 7 6 8 7 6 9 1 10 2 11 3 12 4 13
REMARK SMILES IDX 105 14 5 15 104 16 86 17 82 18 84 19 87 20 83 21 85 22
REMARK SMILES IDX 102 23 88 24 89 25 101 26 103 27 90 28 100 29 91 30 92 31
REMARK SMILES IDX 99 32 93 33 96 34 94 35 97 36 98 37 95 38 14 40 15 41 16 42
REMARK SMILES IDX 17 43 18 45 19 46 20 47 81 48 21 49 80 50 22 51 23 52 24 53
REMARK SMILES IDX 74 54 25 55 79 56 73 57 75 58 26 59 78 60 72 61 71 62 27 64
REMARK SMILES IDX 59 65 39 66 58 67 40 68 43 69 57 70 76 71 41 72 42 73 56 75
REMARK SMILES IDX 77 76 44 77 28 78 29 79 37 80 30 81 32 82 38 83 31 84 33 85
REMARK SMILES IDX 34 86 35 87 36 88 60 89 61 90 69 91 62 92 64 93 70 94 63 95
REMARK SMILES IDX 65 96 66 97 67 98 68 99 45 100 46 101 54 102 47 103 49 104
REMARK SMILES IDX 55 105 48 106 50 107 51 108 52 109 53 110
REMARK H PARENT 9 8 95 39 16 44 75 63 43 74
REMARK Flexibility Score: inf
ROOT
ATOM      1  C   UNL A   1      44.553  24.046  34.451  1.00  0.00     0.002 C 
ENDROOT
BRANCH   1   2
ATOM      2  C   UNL A   1      45.268  25.395  34.361  1.00  0.00     0.002 C 
BRANCH   2   3
ATOM      3  C   UNL A   1      45.364  26.101  32.998  1.00  0.00     0.021 C 
BRANCH   3   4
ATOM      4  C   UNL A   1      44.979  25.440  31.663  1.00  0.00     0.116 C 
BRANCH   4   5
ATOM      5  N   UNL A   1      45.452  25.944  30.384  1.00  0.00    -0.356 N 
ATOM      6  C   UNL A   1      45.616  27.267  29.988  1.00  0.00     0.226 C 
ATOM      7  O   UNL A   1      44.999  28.193  30.516  1.00  0.00    -0.274 OA
ATOM      8  H   UNL A   1      45.687  25.263  29.714  1.00  0.00     0.163 HD
BRANCH   6   9
ATOM      9  C   UNL A   1      46.783  27.584  28.974  1.00  0.00     0.056 C 
ATOM     10  C   UNL A   1      50.259  26.401  30.781  1.00  0.00     0.011 C 
ATOM     11  C   UNL A   1      48.728  26.244  30.827  1.00  0.00    -0.035 C 
ATOM     12  C   UNL A   1      48.441  25.366  32.082  1.00  0.00     0.011 C 
ATOM     13  C   UNL A   1      48.143  27.646  31.096  1.00  0.00     0.007 C 
ATOM     14  C   UNL A   1      48.236  25.526  29.486  1.00  0.00     0.015 C 
ATOM     15  C   UNL A   1      47.802  28.386  29.817  1.00  0.00     0.018 C 
ATOM     16  C   UNL A   1      47.465  26.348  28.350  1.00  0.00     0.031 C 
ATOM     17  C   UNL A   1      46.357  25.656  27.452  1.00  0.00    -0.064 C 
ATOM     18  C   UNL A   1      46.354  28.512  27.811  1.00  0.00     0.018 C 
ATOM     19  C   UNL A   1      45.534  26.481  26.397  1.00  0.00    -0.006 C 
ATOM     20  C   UNL A   1      45.918  24.432  27.780  1.00  0.00    -0.027 C 
ATOM     21  C   UNL A   1      45.275  27.910  26.919  1.00  0.00     0.013 C 
ATOM     22  C   UNL A   1      46.435  26.593  25.128  1.00  0.00     0.017 C 
ATOM     23  C   UNL A   1      44.111  25.738  25.967  1.00  0.00    -0.020 C 
ATOM     24  C   UNL A   1      44.437  24.172  27.904  1.00  0.00     0.032 C 
ATOM     25  C   UNL A   1      43.426  25.117  27.229  1.00  0.00     0.006 C 
ATOM     26  C   UNL A   1      43.064  26.586  25.160  1.00  0.00     0.008 C 
ATOM     27  C   UNL A   1      44.445  24.521  25.000  1.00  0.00     0.012 C 
ATOM     28  C   UNL A   1      42.208  25.918  28.070  1.00  0.00    -0.025 C 
ATOM     29  C   UNL A   1      41.615  26.601  25.723  1.00  0.00     0.005 C 
ATOM     30  C   UNL A   1      41.181  24.758  28.327  1.00  0.00     0.012 C 
ATOM     31  C   UNL A   1      42.412  26.536  29.486  1.00  0.00     0.010 C 
ATOM     32  C   UNL A   1      41.662  27.058  27.176  1.00  0.00     0.003 C 
ATOM     33  C   UNL A   1      41.904  27.948  29.903  1.00  0.00     0.033 C 
ATOM     34  C   UNL A   1      40.515  27.959  27.780  1.00  0.00    -0.006 C 
ATOM     35  C   UNL A   1      41.239  28.823  28.847  1.00  0.00     0.120 C 
ATOM     36  C   UNL A   1      39.325  27.246  28.452  1.00  0.00     0.014 C 
ATOM     37  C   UNL A   1      39.911  28.888  26.711  1.00  0.00     0.014 C 
BRANCH  35  38
ATOM     38  O   UNL A   1      40.341  29.740  29.477  1.00  0.00    -0.393 OA
ATOM     39  H   UNL A   1      39.848  29.283  30.176  1.00  0.00     0.210 HD
ENDBRANCH  35  38
ENDBRANCH   6   9
ENDBRANCH   4   5
ENDBRANCH   3   4
ENDBRANCH   2   3
ENDBRANCH   1   2
BRANCH   1  40
ATOM     40  C   UNL A   1      44.358  23.506  35.859  1.00  0.00     0.021 C 
BRANCH  40  41
ATOM     41  C   UNL A   1      44.061  24.567  36.900  1.00  0.00     0.116 C 
BRANCH  41  42
ATOM     42  N   UNL A   1      42.678  24.583  37.357  1.00  0.00    -0.352 N 
ATOM     43  C   UNL A   1      41.695  25.481  36.986  1.00  0.00     0.251 C 
ATOM     44  H   UNL A   1      42.415  23.881  37.994  1.00  0.00     0.163 HD
ATOM     45  O   UNL A   1      40.574  25.431  37.436  1.00  0.00    -0.269 OA
BRANCH  43  46
ATOM     46  C   UNL A   1      42.106  26.551  36.051  1.00  0.00     0.039 A 
ATOM     47  C   UNL A   1      41.847  26.379  34.692  1.00  0.00     0.014 A 
ATOM     48  C   UNL A   1      42.561  27.772  36.556  1.00  0.00     0.014 A 
ATOM     49  C   UNL A   1      41.994  27.466  33.834  1.00  0.00     0.010 A 
ATOM     50  C   UNL A   1      42.605  28.874  35.716  1.00  0.00     0.010 A 
ATOM     51  C   UNL A   1      42.341  28.727  34.346  1.00  0.00    -0.014 A 
BRANCH  51  52
ATOM     52  C   UNL A   1      42.467  29.906  33.457  1.00  0.00     0.031 A 
ATOM     53  C   UNL A   1      41.223  30.573  32.939  1.00  0.00     0.074 A 
ATOM     54  C   UNL A   1      43.684  30.322  33.053  1.00  0.00     0.049 A 
ATOM     55  N   UNL A   1      41.111  31.577  32.111  1.00  0.00    -0.248 NA
ATOM     56  C   UNL A   1      39.934  30.010  33.379  1.00  0.00     0.031 C 
ATOM     57  C   UNL A   1      44.958  29.697  33.417  1.00  0.00     0.029 A 
ATOM     58  N   UNL A   1      44.046  31.355  32.226  1.00  0.00    -0.354 N 
ATOM     59  C   UNL A   1      39.747  31.734  31.895  1.00  0.00     0.074 A 
ATOM     60  C   UNL A   1      39.074  30.694  32.641  1.00  0.00     0.031 C 
ATOM     61  C   UNL A   1      45.961  30.365  32.822  1.00  0.00     0.029 A 
ATOM     62  C   UNL A   1      45.403  31.445  32.016  1.00  0.00     0.049 A 
ATOM     63  H   UNL A   1      43.396  31.974  31.822  1.00  0.00     0.167 HD
ATOM     64  C   UNL A   1      39.108  32.680  31.172  1.00  0.00     0.034 A 
ATOM     65  C   UNL A   1      46.112  32.302  31.255  1.00  0.00     0.034 A 
ATOM     66  C   UNL A   1      39.782  33.747  30.487  1.00  0.00     0.049 A 
ATOM     67  C   UNL A   1      45.382  33.389  30.512  1.00  0.00     0.074 A 
ATOM     68  C   UNL A   1      39.229  34.823  29.818  1.00  0.00     0.029 A 
ATOM     69  N   UNL A   1      41.159  33.867  30.379  1.00  0.00    -0.354 N 
ATOM     70  N   UNL A   1      44.094  33.628  30.460  1.00  0.00    -0.248 NA
ATOM     71  C   UNL A   1      46.202  34.347  29.757  1.00  0.00     0.031 C 
ATOM     72  C   UNL A   1      40.275  35.584  29.284  1.00  0.00     0.029 A 
ATOM     73  C   UNL A   1      41.477  34.995  29.644  1.00  0.00     0.049 A 
ATOM     74  H   UNL A   1      41.813  33.243  30.767  1.00  0.00     0.167 HD
ATOM     75  C   UNL A   1      43.950  34.781  29.696  1.00  0.00     0.074 A 
ATOM     76  C   UNL A   1      45.285  35.201  29.321  1.00  0.00     0.031 C 
ATOM     77  C   UNL A   1      42.815  35.426  29.327  1.00  0.00     0.034 A 
BRANCH  64  78
ATOM     78  C   UNL A   1      37.604  32.630  31.135  1.00  0.00     0.023 A 
ATOM     79  C   UNL A   1      36.953  31.949  30.084  1.00  0.00     0.012 A 
ATOM     80  C   UNL A   1      36.835  33.228  32.151  1.00  0.00     0.148 A 
ATOM     81  C   UNL A   1      35.562  31.903  30.022  1.00  0.00     0.002 A 
ATOM     82  C   UNL A   1      35.450  33.135  32.108  1.00  0.00     0.091 A 
ATOM     83  F   UNL A   1      37.469  33.894  33.127  1.00  0.00    -0.205 F 
ATOM     84  C   UNL A   1      34.811  32.486  31.038  1.00  0.00     0.022 A 
BRANCH  82  85
ATOM     85  S   UNL A   1      34.398  33.782  33.412  1.00  0.00     0.127 S 
ATOM     86  O   UNL A   1      34.342  35.202  33.070  1.00  0.00    -0.237 OA
ATOM     87  O   UNL A   1      33.149  33.052  33.193  1.00  0.00    -0.237 OA
ATOM     88  O   UNL A   1      35.073  33.464  34.663  1.00  0.00    -0.744 OA
ENDBRANCH  82  85
ENDBRANCH  64  78
BRANCH  65  89
ATOM     89  C   UNL A   1      47.599  32.204  31.220  1.00  0.00     0.023 A 
ATOM     90  C   UNL A   1      48.342  32.528  32.371  1.00  0.00     0.012 A 
ATOM     91  C   UNL A   1      48.276  31.746  30.073  1.00  0.00     0.148 A 
ATOM     92  C   UNL A   1      49.733  32.423  32.374  1.00  0.00     0.002 A 
ATOM     93  C   UNL A   1      49.657  31.592  30.099  1.00  0.00     0.091 A 
ATOM     94  F   UNL A   1      47.551  31.451  28.984  1.00  0.00    -0.205 F 
ATOM     95  C   UNL A   1      50.389  31.945  31.243  1.00  0.00     0.022 A 
BRANCH  93  96
ATOM     96  S   UNL A   1      50.572  30.856  28.739  1.00  0.00     0.127 S 
ATOM     97  O   UNL A   1      51.712  31.762  28.621  1.00  0.00    -0.237 OA
ATOM     98  O   UNL A   1      50.890  29.531  29.271  1.00  0.00    -0.237 OA
ATOM     99  O   UNL A   1      49.656  30.843  27.607  1.00  0.00    -0.744 OA
ENDBRANCH  93  96
ENDBRANCH  65  89
BRANCH  77 100
ATOM    100  C   UNL A   1      42.954  36.677  28.503  1.00  0.00     0.023 A 
ATOM    101  C   UNL A   1      42.577  36.668  27.146  1.00  0.00     0.012 A 
ATOM    102  C   UNL A   1      43.361  37.885  29.103  1.00  0.00     0.148 A 
ATOM    103  C   UNL A   1      42.624  37.839  26.391  1.00  0.00     0.002 A 
ATOM    104  C   UNL A   1      43.358  39.058  28.358  1.00  0.00     0.091 A 
ATOM    105  F   UNL A   1      43.732  37.867  30.391  1.00  0.00    -0.205 F 
ATOM    106  C   UNL A   1      43.001  39.035  27.000  1.00  0.00     0.022 A 
BRANCH 104 107
ATOM    107  S   UNL A   1      43.728  40.659  29.082  1.00  0.00     0.127 S 
ATOM    108  O   UNL A   1      45.105  40.468  29.538  1.00  0.00    -0.237 OA
ATOM    109  O   UNL A   1      43.582  41.559  27.937  1.00  0.00    -0.237 OA
ATOM    110  O   UNL A   1      42.745  40.861  30.138  1.00  0.00    -0.744 OA
ENDBRANCH 104 107
ENDBRANCH  77 100
ENDBRANCH  51  52
ENDBRANCH  43  46
ENDBRANCH  41  42
ENDBRANCH  40  41
ENDBRANCH   1  40
TORSDOF 17
ENDMDL
MODEL 3
REMARK VINA RESULT:      -9.4      1.424      7.119
REMARK SMILES CC1(C)CC[C@@]2(C(=O)NCCCCCCNC(=O)c3ccc(-c4c5nc(c(-c6cccc(S(=O)(=O)[O-])c6F)c6ccc([nH]6)c(-c6cccc(S(=O)(=O)[O-])c6F)c6nc(c(-c7cccc(S(=O)(=O)[O-])c7F)c7ccc4[nH]7)C=C6)C=C5)cc3)CC[C@@]3(C)C(=CC[C@H]4[C@@]5(C)CC[C@H](O)C(C)(C)[C@@H]5CC[C@]43C)[C@@H]2C1
REMARK SMILES IDX 13 1 12 2 11 3 10 4 9 5 7 6 8 7 6 9 1 10 2 11 3 12 4 13
REMARK SMILES IDX 105 14 5 15 104 16 86 17 82 18 84 19 87 20 83 21 85 22
REMARK SMILES IDX 102 23 88 24 89 25 101 26 103 27 90 28 100 29 91 30 92 31
REMARK SMILES IDX 99 32 93 33 96 34 94 35 97 36 98 37 95 38 14 40 15 41 16 42
REMARK SMILES IDX 17 43 18 45 19 46 20 47 81 48 21 49 80 50 22 51 23 52 24 53
REMARK SMILES IDX 74 54 25 55 79 56 73 57 75 58 26 59 78 60 72 61 71 62 27 64
REMARK SMILES IDX 59 65 39 66 58 67 40 68 43 69 57 70 76 71 41 72 42 73 56 75
REMARK SMILES IDX 77 76 44 77 28 78 29 79 37 80 30 81 32 82 38 83 31 84 33 85
REMARK SMILES IDX 34 86 35 87 36 88 60 89 61 90 69 91 62 92 64 93 70 94 63 95
REMARK SMILES IDX 65 96 66 97 67 98 68 99 45 100 46 101 54 102 47 103 49 104
REMARK SMILES IDX 55 105 48 106 50 107 51 108 52 109 53 110
REMARK H PARENT 9 8 95 39 16 44 75 63 43 74
REMARK Flexibility Score: inf
ROOT
ATOM      1  C   UNL A   1      45.095  23.873  33.394  1.00  0.00     0.002 C 
ENDROOT
BRANCH   1   2
ATOM      2  C   UNL A   1      44.573  24.385  32.051  1.00  0.00     0.002 C 
BRANCH   2   3
ATOM      3  C   UNL A   1      43.935  23.389  31.068  1.00  0.00     0.021 C 
BRANCH   3   4
ATOM      4  C   UNL A   1      44.181  23.408  29.549  1.00  0.00     0.116 C 
BRANCH   4   5
ATOM      5  N   UNL A   1      43.673  24.469  28.696  1.00  0.00    -0.356 N 
ATOM      6  C   UNL A   1      44.003  24.741  27.372  1.00  0.00     0.226 C 
ATOM      7  O   UNL A   1      45.067  24.377  26.871  1.00  0.00    -0.274 OA
ATOM      8  H   UNL A   1      43.011  25.070  29.106  1.00  0.00     0.163 HD
BRANCH   6   9
ATOM      9  C   UNL A   1      42.877  25.355  26.453  1.00  0.00     0.056 C 
ATOM     10  C   UNL A   1      39.817  22.638  26.379  1.00  0.00     0.011 C 
ATOM     11  C   UNL A   1      41.082  23.052  27.153  1.00  0.00    -0.035 C 
ATOM     12  C   UNL A   1      41.265  21.966  28.255  1.00  0.00     0.011 C 
ATOM     13  C   UNL A   1      42.266  22.925  26.172  1.00  0.00     0.007 C 
ATOM     14  C   UNL A   1      40.855  24.500  27.791  1.00  0.00     0.015 C 
ATOM     15  C   UNL A   1      42.559  24.224  25.447  1.00  0.00     0.018 C 
ATOM     16  C   UNL A   1      41.591  25.787  27.190  1.00  0.00     0.031 C 
ATOM     17  C   UNL A   1      42.018  26.993  28.125  1.00  0.00    -0.064 C 
ATOM     18  C   UNL A   1      43.357  26.564  25.612  1.00  0.00     0.018 C 
ATOM     19  C   UNL A   1      42.821  28.219  27.555  1.00  0.00    -0.006 C 
ATOM     20  C   UNL A   1      41.947  26.848  29.456  1.00  0.00    -0.027 C 
ATOM     21  C   UNL A   1      43.800  27.753  26.456  1.00  0.00     0.013 C 
ATOM     22  C   UNL A   1      41.771  29.160  26.888  1.00  0.00     0.017 C 
ATOM     23  C   UNL A   1      43.618  29.073  28.737  1.00  0.00    -0.020 C 
ATOM     24  C   UNL A   1      43.144  27.176  30.314  1.00  0.00     0.032 C 
ATOM     25  C   UNL A   1      44.258  28.089  29.772  1.00  0.00     0.006 C 
ATOM     26  C   UNL A   1      44.687  30.127  28.276  1.00  0.00     0.008 C 
ATOM     27  C   UNL A   1      42.554  29.935  29.545  1.00  0.00     0.012 C 
ATOM     28  C   UNL A   1      45.872  27.622  29.679  1.00  0.00    -0.025 C 
ATOM     29  C   UNL A   1      46.088  30.017  28.942  1.00  0.00     0.005 C 
ATOM     30  C   UNL A   1      46.319  27.716  31.182  1.00  0.00     0.012 C 
ATOM     31  C   UNL A   1      46.324  26.190  29.261  1.00  0.00     0.010 C 
ATOM     32  C   UNL A   1      46.614  28.601  28.738  1.00  0.00     0.003 C 
ATOM     33  C   UNL A   1      47.484  25.899  28.263  1.00  0.00     0.033 C 
ATOM     34  C   UNL A   1      48.151  28.336  28.489  1.00  0.00    -0.006 C 
ATOM     35  C   UNL A   1      48.172  27.076  27.583  1.00  0.00     0.120 C 
ATOM     36  C   UNL A   1      49.038  28.068  29.721  1.00  0.00     0.014 C 
ATOM     37  C   UNL A   1      48.806  29.507  27.734  1.00  0.00     0.014 C 
BRANCH  35  38
ATOM     38  O   UNL A   1      49.507  26.712  27.222  1.00  0.00    -0.393 OA
ATOM     39  H   UNL A   1      49.554  26.559  26.266  1.00  0.00     0.210 HD
ENDBRANCH  35  38
ENDBRANCH   6   9
ENDBRANCH   4   5
ENDBRANCH   3   4
ENDBRANCH   2   3
ENDBRANCH   1   2
BRANCH   1  40
ATOM     40  C   UNL A   1      44.024  23.513  34.412  1.00  0.00     0.021 C 
BRANCH  40  41
ATOM     41  C   UNL A   1      43.962  24.442  35.609  1.00  0.00     0.116 C 
BRANCH  41  42
ATOM     42  N   UNL A   1      42.886  24.138  36.543  1.00  0.00    -0.352 N 
ATOM     43  C   UNL A   1      41.725  24.864  36.730  1.00  0.00     0.251 C 
ATOM     44  H   UNL A   1      42.996  23.333  37.098  1.00  0.00     0.163 HD
ATOM     45  O   UNL A   1      40.893  24.547  37.548  1.00  0.00    -0.269 OA
BRANCH  43  46
ATOM     46  C   UNL A   1      41.580  26.089  35.914  1.00  0.00     0.039 A 
ATOM     47  C   UNL A   1      41.722  27.325  36.541  1.00  0.00     0.014 A 
ATOM     48  C   UNL A   1      41.498  25.984  34.523  1.00  0.00     0.014 A 
ATOM     49  C   UNL A   1      41.838  28.470  35.758  1.00  0.00     0.010 A 
ATOM     50  C   UNL A   1      41.718  27.113  33.748  1.00  0.00     0.010 A 
ATOM     51  C   UNL A   1      41.872  28.367  34.357  1.00  0.00    -0.014 A 
BRANCH  51  52
ATOM     52  C   UNL A   1      42.032  29.568  33.504  1.00  0.00     0.031 A 
ATOM     53  C   UNL A   1      43.411  30.109  33.248  1.00  0.00     0.074 A 
ATOM     54  C   UNL A   1      40.946  30.214  33.034  1.00  0.00     0.049 A 
ATOM     55  N   UNL A   1      43.767  31.173  32.580  1.00  0.00    -0.248 NA
ATOM     56  C   UNL A   1      44.537  29.377  33.857  1.00  0.00     0.031 C 
ATOM     57  C   UNL A   1      39.555  29.835  33.294  1.00  0.00     0.029 A 
ATOM     58  N   UNL A   1      40.843  31.341  32.260  1.00  0.00    -0.354 N 
ATOM     59  C   UNL A   1      45.146  31.265  32.728  1.00  0.00     0.074 A 
ATOM     60  C   UNL A   1      45.556  30.176  33.586  1.00  0.00     0.031 C 
ATOM     61  C   UNL A   1      38.740  30.711  32.683  1.00  0.00     0.029 A 
ATOM     62  C   UNL A   1      39.546  31.726  32.012  1.00  0.00     0.049 A 
ATOM     63  H   UNL A   1      41.626  31.829  31.913  1.00  0.00     0.167 HD
ATOM     64  C   UNL A   1      46.000  32.151  32.170  1.00  0.00     0.034 A 
ATOM     65  C   UNL A   1      39.065  32.780  31.323  1.00  0.00     0.034 A 
ATOM     66  C   UNL A   1      45.590  33.191  31.268  1.00  0.00     0.049 A 
ATOM     67  C   UNL A   1      40.037  33.715  30.655  1.00  0.00     0.074 A 
ATOM     68  C   UNL A   1      46.382  34.073  30.558  1.00  0.00     0.029 A 
ATOM     69  N   UNL A   1      44.272  33.488  30.958  1.00  0.00    -0.354 N 
ATOM     70  N   UNL A   1      41.347  33.684  30.663  1.00  0.00    -0.248 NA
ATOM     71  C   UNL A   1      39.467  34.807  29.852  1.00  0.00     0.031 C 
ATOM     72  C   UNL A   1      45.539  34.923  29.834  1.00  0.00     0.029 A 
ATOM     73  C   UNL A   1      44.225  34.551  30.073  1.00  0.00     0.049 A 
ATOM     74  H   UNL A   1      43.486  33.014  31.313  1.00  0.00     0.167 HD
ATOM     75  C   UNL A   1      41.760  34.728  29.842  1.00  0.00     0.074 A 
ATOM     76  C   UNL A   1      40.558  35.361  29.339  1.00  0.00     0.031 C 
ATOM     77  C   UNL A   1      43.019  35.132  29.542  1.00  0.00     0.034 A 
BRANCH  64  78
ATOM     78  C   UNL A   1      47.465  31.997  32.482  1.00  0.00     0.023 A 
ATOM     79  C   UNL A   1      48.268  31.165  31.675  1.00  0.00     0.012 A 
ATOM     80  C   UNL A   1      48.053  32.696  33.552  1.00  0.00     0.148 A 
ATOM     81  C   UNL A   1      49.622  30.996  31.954  1.00  0.00     0.002 A 
ATOM     82  C   UNL A   1      49.414  32.561  33.795  1.00  0.00     0.091 A 
ATOM     83  F   UNL A   1      47.270  33.462  34.326  1.00  0.00    -0.205 F 
ATOM     84  C   UNL A   1      50.197  31.702  33.007  1.00  0.00     0.022 A 
BRANCH  82  85
ATOM     85  S   UNL A   1      50.263  33.492  35.075  1.00  0.00     0.127 S 
ATOM     86  O   UNL A   1      50.048  32.646  36.247  1.00  0.00    -0.237 OA
ATOM     87  O   UNL A   1      51.641  33.511  34.582  1.00  0.00    -0.237 OA
ATOM     88  O   UNL A   1      49.618  34.797  35.115  1.00  0.00    -0.744 OA
ENDBRANCH  82  85
ENDBRANCH  64  78
BRANCH  65  89
ATOM     89  C   UNL A   1      37.593  32.958  31.176  1.00  0.00     0.023 A 
ATOM     90  C   UNL A   1      36.900  32.224  30.194  1.00  0.00     0.012 A 
ATOM     91  C   UNL A   1      36.868  33.810  32.033  1.00  0.00     0.148 A 
ATOM     92  C   UNL A   1      35.519  32.354  30.049  1.00  0.00     0.002 A 
ATOM     93  C   UNL A   1      35.486  33.894  31.919  1.00  0.00     0.091 A 
ATOM     94  F   UNL A   1      37.547  34.507  32.955  1.00  0.00    -0.205 F 
ATOM     95  C   UNL A   1      34.811  33.178  30.918  1.00  0.00     0.022 A 
BRANCH  93  96
ATOM     96  S   UNL A   1      34.477  34.824  33.079  1.00  0.00     0.127 S 
ATOM     97  O   UNL A   1      33.130  34.573  32.572  1.00  0.00    -0.237 OA
ATOM     98  O   UNL A   1      34.791  34.166  34.348  1.00  0.00    -0.237 OA
ATOM     99  O   UNL A   1      34.939  36.202  32.988  1.00  0.00    -0.744 OA
ENDBRANCH  93  96
ENDBRANCH  65  89
BRANCH  77 100
ATOM    100  C   UNL A   1      43.177  36.295  28.599  1.00  0.00     0.023 A 
ATOM    101  C   UNL A   1      43.066  36.091  27.210  1.00  0.00     0.012 A 
ATOM    102  C   UNL A   1      43.329  37.603  29.099  1.00  0.00     0.148 A 
ATOM    103  C   UNL A   1      43.129  37.170  26.330  1.00  0.00     0.002 A 
ATOM    104  C   UNL A   1      43.341  38.678  28.220  1.00  0.00     0.091 A 
ATOM    105  F   UNL A   1      43.450  37.772  30.424  1.00  0.00    -0.205 F 
ATOM    106  C   UNL A   1      43.252  38.463  26.835  1.00  0.00     0.022 A 
BRANCH 104 107
ATOM    107  S   UNL A   1      43.393  40.383  28.784  1.00  0.00     0.127 S 
ATOM    108  O   UNL A   1      43.585  41.106  27.527  1.00  0.00    -0.237 OA
ATOM    109  O   UNL A   1      42.071  40.550  29.389  1.00  0.00    -0.237 OA
ATOM    110  O   UNL A   1      44.503  40.462  29.724  1.00  0.00    -0.744 OA
ENDBRANCH 104 107
ENDBRANCH  77 100
ENDBRANCH  51  52
ENDBRANCH  43  46
ENDBRANCH  41  42
ENDBRANCH  40  41
ENDBRANCH   1  40
TORSDOF 17
ENDMDL
