MODEL 1
REMARK VINA RESULT:     -12.2      0.000      0.000
REMARK SMILES O=C(NCCCCCCNC(=O)c1cc(-c2cncnc2)cc(S(=O)(=O)N2CCCC2)c1)c1ccc(-c2c3nc(c(-c4cccc(S(=O)(=O)[O-])c4F)c4ccc([nH]4)c(-c4cccc(S(=O)(=O)[O-])c4F)c4nc(c(-c5cccc(S(=O)(=O)[O-])c5F)c5ccc2[nH]5)C=C4)C=C3)cc1
REMARK SMILES IDX 6 1 5 2 4 3 3 4 1 5 2 6 33 8 34 9 95 10 35 11 94 12 36 13
REMARK SMILES IDX 37 14 38 15 88 16 39 17 93 18 87 19 89 20 40 21 92 22 86 23
REMARK SMILES IDX 85 24 41 26 73 27 53 28 72 29 54 30 57 31 71 32 90 33 55 34
REMARK SMILES IDX 56 35 70 37 91 38 58 39 42 40 43 41 51 42 44 43 46 44 52 45
REMARK SMILES IDX 45 46 47 47 48 48 49 49 50 50 74 51 75 52 83 53 76 54 78 55
REMARK SMILES IDX 84 56 77 57 79 58 80 59 81 60 82 61 59 62 60 63 68 64 61 65
REMARK SMILES IDX 63 66 69 67 62 68 64 69 65 70 66 71 67 72 7 73 8 74 9 75
REMARK SMILES IDX 10 76 11 77 12 79 13 80 14 81 32 82 15 83 23 84 22 85 16 86
REMARK SMILES IDX 17 87 21 88 18 89 20 90 19 91 24 92 25 93 26 94 27 95 28 96
REMARK SMILES IDX 31 97 29 98 30 99
REMARK H PARENT 3 7 89 25 57 36 10 78
REMARK Flexibility Score: inf
ROOT
ATOM      1  C   UNL A   1      31.900  28.981  25.080  1.00  0.00     0.002 C 
ENDROOT
BRANCH   1   2
ATOM      2  C   UNL A   1      33.409  28.735  25.002  1.00  0.00     0.021 C 
BRANCH   2   3
ATOM      3  C   UNL A   1      34.179  28.945  26.303  1.00  0.00     0.116 C 
BRANCH   3   4
ATOM      4  N   UNL A   1      33.990  30.272  26.857  1.00  0.00    -0.352 N 
ATOM      5  O   UNL A   1      34.316  32.002  28.252  1.00  0.00    -0.269 OA
ATOM      6  C   UNL A   1      34.730  30.937  27.802  1.00  0.00     0.251 C 
ATOM      7  H   UNL A   1      33.217  30.768  26.503  1.00  0.00     0.163 HD
BRANCH   6   8
ATOM      8  C   UNL A   1      36.000  30.361  28.297  1.00  0.00     0.039 A 
ATOM      9  C   UNL A   1      36.045  29.598  29.469  1.00  0.00     0.014 A 
ATOM     10  C   UNL A   1      37.163  30.568  27.551  1.00  0.00     0.014 A 
ATOM     11  C   UNL A   1      37.270  29.136  29.951  1.00  0.00     0.010 A 
ATOM     12  C   UNL A   1      38.378  30.054  28.004  1.00  0.00     0.010 A 
ATOM     13  C   UNL A   1      38.446  29.356  29.220  1.00  0.00    -0.014 A 
BRANCH  13  14
ATOM     14  C   UNL A   1      39.743  28.810  29.692  1.00  0.00     0.031 A 
ATOM     15  C   UNL A   1      40.510  29.494  30.788  1.00  0.00     0.074 A 
ATOM     16  C   UNL A   1      40.262  27.732  29.074  1.00  0.00     0.049 A 
ATOM     17  N   UNL A   1      41.695  29.211  31.263  1.00  0.00    -0.248 NA
ATOM     18  C   UNL A   1      39.867  30.652  31.428  1.00  0.00     0.031 C 
ATOM     19  C   UNL A   1      39.627  27.012  27.968  1.00  0.00     0.029 A 
ATOM     20  N   UNL A   1      41.452  27.076  29.262  1.00  0.00    -0.354 N 
ATOM     21  C   UNL A   1      41.961  30.178  32.224  1.00  0.00     0.074 A 
ATOM     22  C   UNL A   1      40.813  31.059  32.265  1.00  0.00     0.031 C 
ATOM     23  C   UNL A   1      40.441  26.027  27.563  1.00  0.00     0.029 A 
ATOM     24  C   UNL A   1      41.670  26.072  28.349  1.00  0.00     0.049 A 
ATOM     25  H   UNL A   1      42.087  27.303  29.979  1.00  0.00     0.167 HD
ATOM     26  C   UNL A   1      43.056  30.312  33.010  1.00  0.00     0.034 A 
ATOM     27  C   UNL A   1      42.749  25.291  28.144  1.00  0.00     0.034 A 
ATOM     28  C   UNL A   1      44.179  29.413  32.989  1.00  0.00     0.049 A 
ATOM     29  C   UNL A   1      43.942  25.442  29.043  1.00  0.00     0.074 A 
ATOM     30  C   UNL A   1      45.302  29.420  33.798  1.00  0.00     0.029 A 
ATOM     31  N   UNL A   1      44.327  28.350  32.109  1.00  0.00    -0.354 N 
ATOM     32  N   UNL A   1      44.119  26.277  30.039  1.00  0.00    -0.248 NA
ATOM     33  C   UNL A   1      45.071  24.529  28.816  1.00  0.00     0.031 C 
ATOM     34  C   UNL A   1      46.136  28.368  33.398  1.00  0.00     0.029 A 
ATOM     35  C   UNL A   1      45.525  27.699  32.349  1.00  0.00     0.049 A 
ATOM     36  H   UNL A   1      43.675  28.098  31.415  1.00  0.00     0.167 HD
ATOM     37  C   UNL A   1      45.363  25.971  30.578  1.00  0.00     0.074 A 
ATOM     38  C   UNL A   1      45.891  24.865  29.804  1.00  0.00     0.031 C 
ATOM     39  C   UNL A   1      46.012  26.562  31.610  1.00  0.00     0.034 A 
BRANCH  26  40
ATOM     40  C   UNL A   1      43.077  31.454  33.991  1.00  0.00     0.023 A 
ATOM     41  C   UNL A   1      43.644  32.686  33.607  1.00  0.00     0.012 A 
ATOM     42  C   UNL A   1      42.499  31.328  35.268  1.00  0.00     0.148 A 
ATOM     43  C   UNL A   1      43.660  33.765  34.489  1.00  0.00     0.002 A 
ATOM     44  C   UNL A   1      42.487  32.420  36.130  1.00  0.00     0.091 A 
ATOM     45  F   UNL A   1      41.988  30.141  35.630  1.00  0.00    -0.205 F 
ATOM     46  C   UNL A   1      43.074  33.636  35.747  1.00  0.00     0.022 A 
BRANCH  44  47
ATOM     47  S   UNL A   1      41.692  32.351  37.740  1.00  0.00     0.127 S 
ATOM     48  O   UNL A   1      42.475  31.316  38.413  1.00  0.00    -0.237 OA
ATOM     49  O   UNL A   1      41.903  33.705  38.256  1.00  0.00    -0.237 OA
ATOM     50  O   UNL A   1      40.299  32.023  37.471  1.00  0.00    -0.744 OA
ENDBRANCH  44  47
ENDBRANCH  26  40
BRANCH  27  51
ATOM     51  C   UNL A   1      42.705  24.267  27.063  1.00  0.00     0.023 A 
ATOM     52  C   UNL A   1      43.382  24.512  25.854  1.00  0.00     0.012 A 
ATOM     53  C   UNL A   1      42.083  23.020  27.267  1.00  0.00     0.148 A 
ATOM     54  C   UNL A   1      43.433  23.534  24.862  1.00  0.00     0.002 A 
ATOM     55  C   UNL A   1      42.185  22.031  26.296  1.00  0.00     0.091 A 
ATOM     56  F   UNL A   1      41.436  22.815  28.423  1.00  0.00    -0.205 F 
ATOM     57  C   UNL A   1      42.849  22.289  25.087  1.00  0.00     0.022 A 
BRANCH  55  58
ATOM     58  S   UNL A   1      41.592  20.355  26.561  1.00  0.00     0.127 S 
ATOM     59  O   UNL A   1      40.144  20.547  26.545  1.00  0.00    -0.237 OA
ATOM     60  O   UNL A   1      42.135  19.656  25.395  1.00  0.00    -0.237 OA
ATOM     61  O   UNL A   1      42.160  19.932  27.833  1.00  0.00    -0.744 OA
ENDBRANCH  55  58
ENDBRANCH  27  51
BRANCH  39  62
ATOM     62  C   UNL A   1      47.356  26.011  32.001  1.00  0.00     0.023 A 
ATOM     63  C   UNL A   1      48.514  26.470  31.343  1.00  0.00     0.012 A 
ATOM     64  C   UNL A   1      47.479  25.124  33.088  1.00  0.00     0.148 A 
ATOM     65  C   UNL A   1      49.776  26.042  31.753  1.00  0.00     0.002 A 
ATOM     66  C   UNL A   1      48.742  24.734  33.517  1.00  0.00     0.091 A 
ATOM     67  F   UNL A   1      46.362  24.687  33.686  1.00  0.00    -0.205 F 
ATOM     68  C   UNL A   1      49.891  25.185  32.847  1.00  0.00     0.022 A 
BRANCH  66  69
ATOM     69  S   UNL A   1      48.990  23.707  34.972  1.00  0.00     0.127 S 
ATOM     70  O   UNL A   1      48.389  24.529  36.021  1.00  0.00    -0.237 OA
ATOM     71  O   UNL A   1      48.235  22.501  34.633  1.00  0.00    -0.237 OA
ATOM     72  O   UNL A   1      50.428  23.508  35.080  1.00  0.00    -0.744 OA
ENDBRANCH  66  69
ENDBRANCH  39  62
ENDBRANCH  13  14
ENDBRANCH   6   8
ENDBRANCH   3   4
ENDBRANCH   2   3
ENDBRANCH   1   2
BRANCH   1  73
ATOM     73  C   UNL A   1      31.010  27.785  24.730  1.00  0.00     0.002 C 
BRANCH  73  74
ATOM     74  C   UNL A   1      30.840  26.732  25.830  1.00  0.00     0.021 C 
BRANCH  74  75
ATOM     75  C   UNL A   1      29.960  25.542  25.463  1.00  0.00     0.116 C 
BRANCH  75  76
ATOM     76  N   UNL A   1      29.793  24.618  26.571  1.00  0.00    -0.352 N 
ATOM     77  C   UNL A   1      30.300  23.356  26.741  1.00  0.00     0.251 C 
ATOM     78  H   UNL A   1      29.232  24.946  27.310  1.00  0.00     0.163 HD
ATOM     79  O   UNL A   1      29.908  22.652  27.667  1.00  0.00    -0.269 OA
BRANCH  77  80
ATOM     80  C   UNL A   1      31.332  22.827  25.820  1.00  0.00     0.041 A 
ATOM     81  C   UNL A   1      31.429  21.444  25.640  1.00  0.00     0.022 A 
ATOM     82  C   UNL A   1      32.263  23.677  25.226  1.00  0.00     0.035 A 
ATOM     83  C   UNL A   1      32.439  20.889  24.834  1.00  0.00    -0.013 A 
ATOM     84  C   UNL A   1      33.254  23.151  24.406  1.00  0.00     0.084 A 
ATOM     85  C   UNL A   1      33.343  21.765  24.207  1.00  0.00     0.030 A 
BRANCH  83  86
ATOM     86  C   UNL A   1      32.561  19.436  24.701  1.00  0.00     0.018 A 
ATOM     87  C   UNL A   1      32.577  18.794  23.473  1.00  0.00     0.123 A 
ATOM     88  C   UNL A   1      32.719  18.583  25.781  1.00  0.00     0.123 A 
ATOM     89  N   UNL A   1      32.741  17.462  23.307  1.00  0.00    -0.244 NA
ATOM     90  N   UNL A   1      32.888  17.245  25.681  1.00  0.00    -0.244 NA
ATOM     91  C   UNL A   1      32.893  16.753  24.435  1.00  0.00     0.221 A 
ENDBRANCH  83  86
BRANCH  84  92
ATOM     92  S   UNL A   1      34.469  24.180  23.602  1.00  0.00     0.243 S 
ATOM     93  O   UNL A   1      34.430  23.806  22.204  1.00  0.00    -0.207 OA
ATOM     94  O   UNL A   1      34.187  25.529  24.042  1.00  0.00    -0.207 OA
BRANCH  92  95
ATOM     95  N   UNL A   1      35.967  23.746  24.206  1.00  0.00    -0.198 NA
ATOM     96  C   UNL A   1      36.776  22.680  23.595  1.00  0.00     0.102 C 
ATOM     97  C   UNL A   1      36.320  23.941  25.618  1.00  0.00     0.102 C 
ATOM     98  C   UNL A   1      37.472  22.011  24.775  1.00  0.00     0.018 C 
ATOM     99  C   UNL A   1      37.597  23.127  25.799  1.00  0.00     0.018 C 
ENDBRANCH  92  95
ENDBRANCH  84  92
ENDBRANCH  77  80
ENDBRANCH  75  76
ENDBRANCH  74  75
ENDBRANCH  73  74
ENDBRANCH   1  73
TORSDOF 19
ENDMDL
MODEL 2
REMARK VINA RESULT:     -11.9      4.604      9.803
REMARK SMILES O=C(NCCCCCCNC(=O)c1cc(-c2cncnc2)cc(S(=O)(=O)N2CCCC2)c1)c1ccc(-c2c3nc(c(-c4cccc(S(=O)(=O)[O-])c4F)c4ccc([nH]4)c(-c4cccc(S(=O)(=O)[O-])c4F)c4nc(c(-c5cccc(S(=O)(=O)[O-])c5F)c5ccc2[nH]5)C=C4)C=C3)cc1
REMARK SMILES IDX 6 1 5 2 4 3 3 4 1 5 2 6 33 8 34 9 95 10 35 11 94 12 36 13
REMARK SMILES IDX 37 14 38 15 88 16 39 17 93 18 87 19 89 20 40 21 92 22 86 23
REMARK SMILES IDX 85 24 41 26 73 27 53 28 72 29 54 30 57 31 71 32 90 33 55 34
REMARK SMILES IDX 56 35 70 37 91 38 58 39 42 40 43 41 51 42 44 43 46 44 52 45
REMARK SMILES IDX 45 46 47 47 48 48 49 49 50 50 74 51 75 52 83 53 76 54 78 55
REMARK SMILES IDX 84 56 77 57 79 58 80 59 81 60 82 61 59 62 60 63 68 64 61 65
REMARK SMILES IDX 63 66 69 67 62 68 64 69 65 70 66 71 67 72 7 73 8 74 9 75
REMARK SMILES IDX 10 76 11 77 12 79 13 80 14 81 32 82 15 83 23 84 22 85 16 86
REMARK SMILES IDX 17 87 21 88 18 89 20 90 19 91 24 92 25 93 26 94 27 95 28 96
REMARK SMILES IDX 31 97 29 98 30 99
REMARK H PARENT 3 7 89 25 57 36 10 78
REMARK Flexibility Score: inf
ROOT
ATOM      1  C   UNL A   1      35.596  22.389  24.180  1.00  0.00     0.002 C 
ENDROOT
BRANCH   1   2
ATOM      2  C   UNL A   1      36.520  23.456  24.771  1.00  0.00     0.021 C 
BRANCH   2   3
ATOM      3  C   UNL A   1      36.997  23.198  26.198  1.00  0.00     0.116 C 
BRANCH   3   4
ATOM      4  N   UNL A   1      38.153  22.324  26.251  1.00  0.00    -0.352 N 
ATOM      5  O   UNL A   1      40.325  21.763  26.368  1.00  0.00    -0.269 OA
ATOM      6  C   UNL A   1      39.465  22.625  26.522  1.00  0.00     0.251 C 
ATOM      7  H   UNL A   1      37.970  21.374  26.066  1.00  0.00     0.163 HD
BRANCH   6   8
ATOM      8  C   UNL A   1      39.841  23.986  26.965  1.00  0.00     0.039 A 
ATOM      9  C   UNL A   1      40.071  25.014  26.044  1.00  0.00     0.014 A 
ATOM     10  C   UNL A   1      39.936  24.240  28.335  1.00  0.00     0.014 A 
ATOM     11  C   UNL A   1      40.502  26.263  26.489  1.00  0.00     0.010 A 
ATOM     12  C   UNL A   1      40.310  25.508  28.782  1.00  0.00     0.010 A 
ATOM     13  C   UNL A   1      40.620  26.523  27.862  1.00  0.00    -0.014 A 
BRANCH  13  14
ATOM     14  C   UNL A   1      41.013  27.869  28.347  1.00  0.00     0.031 A 
ATOM     15  C   UNL A   1      42.460  28.220  28.549  1.00  0.00     0.074 A 
ATOM     16  C   UNL A   1      40.051  28.753  28.673  1.00  0.00     0.049 A 
ATOM     17  N   UNL A   1      42.980  29.311  29.048  1.00  0.00    -0.248 NA
ATOM     18  C   UNL A   1      43.452  27.209  28.149  1.00  0.00     0.031 C 
ATOM     19  C   UNL A   1      38.612  28.506  28.560  1.00  0.00     0.029 A 
ATOM     20  N   UNL A   1      40.134  30.017  29.198  1.00  0.00    -0.354 N 
ATOM     21  C   UNL A   1      44.354  29.105  29.064  1.00  0.00     0.074 A 
ATOM     22  C   UNL A   1      44.589  27.782  28.526  1.00  0.00     0.031 C 
ATOM     23  C   UNL A   1      37.947  29.577  29.018  1.00  0.00     0.029 A 
ATOM     24  C   UNL A   1      38.909  30.565  29.496  1.00  0.00     0.049 A 
ATOM     25  H   UNL A   1      40.987  30.486  29.346  1.00  0.00     0.167 HD
ATOM     26  C   UNL A   1      45.331  29.947  29.478  1.00  0.00     0.034 A 
ATOM     27  C   UNL A   1      38.591  31.719  30.114  1.00  0.00     0.034 A 
ATOM     28  C   UNL A   1      45.094  31.274  29.980  1.00  0.00     0.049 A 
ATOM     29  C   UNL A   1      39.691  32.647  30.542  1.00  0.00     0.074 A 
ATOM     30  C   UNL A   1      46.021  32.231  30.353  1.00  0.00     0.029 A 
ATOM     31  N   UNL A   1      43.841  31.830  30.186  1.00  0.00    -0.354 N 
ATOM     32  N   UNL A   1      40.988  32.492  30.423  1.00  0.00    -0.248 NA
ATOM     33  C   UNL A   1      39.291  33.919  31.159  1.00  0.00     0.031 C 
ATOM     34  C   UNL A   1      45.327  33.362  30.798  1.00  0.00     0.029 A 
ATOM     35  C   UNL A   1      43.968  33.114  30.689  1.00  0.00     0.049 A 
ATOM     36  H   UNL A   1      42.985  31.377  30.003  1.00  0.00     0.167 HD
ATOM     37  C   UNL A   1      41.559  33.657  30.921  1.00  0.00     0.074 A 
ATOM     38  C   UNL A   1      40.465  34.514  31.332  1.00  0.00     0.031 C 
ATOM     39  C   UNL A   1      42.870  33.980  31.038  1.00  0.00     0.034 A 
BRANCH  26  40
ATOM     40  C   UNL A   1      46.756  29.472  29.368  1.00  0.00     0.023 A 
ATOM     41  C   UNL A   1      47.361  28.836  30.471  1.00  0.00     0.012 A 
ATOM     42  C   UNL A   1      47.479  29.607  28.168  1.00  0.00     0.148 A 
ATOM     43  C   UNL A   1      48.673  28.370  30.390  1.00  0.00     0.002 A 
ATOM     44  C   UNL A   1      48.774  29.108  28.083  1.00  0.00     0.091 A 
ATOM     45  F   UNL A   1      46.899  30.239  27.135  1.00  0.00    -0.205 F 
ATOM     46  C   UNL A   1      49.376  28.498  29.195  1.00  0.00     0.022 A 
BRANCH  44  47
ATOM     47  S   UNL A   1      49.720  29.175  26.557  1.00  0.00     0.127 S 
ATOM     48  O   UNL A   1      49.948  30.611  26.412  1.00  0.00    -0.237 OA
ATOM     49  O   UNL A   1      50.918  28.401  26.891  1.00  0.00    -0.237 OA
ATOM     50  O   UNL A   1      48.872  28.558  25.547  1.00  0.00    -0.744 OA
ENDBRANCH  44  47
ENDBRANCH  26  40
BRANCH  27  51
ATOM     51  C   UNL A   1      37.155  32.063  30.308  1.00  0.00     0.023 A 
ATOM     52  C   UNL A   1      36.517  31.706  31.510  1.00  0.00     0.012 A 
ATOM     53  C   UNL A   1      36.453  32.824  29.352  1.00  0.00     0.148 A 
ATOM     54  C   UNL A   1      35.200  32.096  31.754  1.00  0.00     0.002 A 
ATOM     55  C   UNL A   1      35.161  33.254  29.626  1.00  0.00     0.091 A 
ATOM     56  F   UNL A   1      37.079  33.142  28.210  1.00  0.00    -0.205 F 
ATOM     57  C   UNL A   1      34.527  32.881  30.822  1.00  0.00     0.022 A 
BRANCH  55  58
ATOM     58  S   UNL A   1      34.274  34.388  28.551  1.00  0.00     0.127 S 
ATOM     59  O   UNL A   1      34.329  33.688  27.270  1.00  0.00    -0.237 OA
ATOM     60  O   UNL A   1      32.951  34.425  29.177  1.00  0.00    -0.237 OA
ATOM     61  O   UNL A   1      35.004  35.647  28.615  1.00  0.00    -0.744 OA
ENDBRANCH  55  58
ENDBRANCH  27  51
BRANCH  39  62
ATOM     62  C   UNL A   1      43.213  35.332  31.601  1.00  0.00     0.023 A 
ATOM     63  C   UNL A   1      43.276  35.509  32.997  1.00  0.00     0.012 A 
ATOM     64  C   UNL A   1      43.575  36.393  30.749  1.00  0.00     0.148 A 
ATOM     65  C   UNL A   1      43.681  36.729  33.537  1.00  0.00     0.002 A 
ATOM     66  C   UNL A   1      44.018  37.592  31.294  1.00  0.00     0.091 A 
ATOM     67  F   UNL A   1      43.488  36.207  29.424  1.00  0.00    -0.205 F 
ATOM     68  C   UNL A   1      44.064  37.765  32.687  1.00  0.00     0.022 A 
BRANCH  66  69
ATOM     69  S   UNL A   1      44.616  38.948  30.277  1.00  0.00     0.127 S 
ATOM     70  O   UNL A   1      45.701  38.307  29.536  1.00  0.00    -0.237 OA
ATOM     71  O   UNL A   1      43.439  39.279  29.474  1.00  0.00    -0.237 OA
ATOM     72  O   UNL A   1      45.026  39.993  31.206  1.00  0.00    -0.744 OA
ENDBRANCH  66  69
ENDBRANCH  39  62
ENDBRANCH  13  14
ENDBRANCH   6   8
ENDBRANCH   3   4
ENDBRANCH   2   3
ENDBRANCH   1   2
BRANCH   1  73
ATOM     73  C   UNL A   1      34.573  22.886  23.154  1.00  0.00     0.002 C 
BRANCH  73  74
ATOM     74  C   UNL A   1      33.128  22.427  23.373  1.00  0.00     0.021 C 
BRANCH  74  75
ATOM     75  C   UNL A   1      32.101  23.028  22.418  1.00  0.00     0.116 C 
BRANCH  75  76
ATOM     76  N   UNL A   1      32.716  23.865  21.404  1.00  0.00    -0.352 N 
ATOM     77  C   UNL A   1      32.675  25.227  21.251  1.00  0.00     0.251 C 
ATOM     78  H   UNL A   1      33.240  23.384  20.724  1.00  0.00     0.163 HD
ATOM     79  O   UNL A   1      33.112  25.747  20.229  1.00  0.00    -0.269 OA
BRANCH  77  80
ATOM     80  C   UNL A   1      32.115  26.088  22.316  1.00  0.00     0.041 A 
ATOM     81  C   UNL A   1      31.097  26.990  21.988  1.00  0.00     0.022 A 
ATOM     82  C   UNL A   1      32.659  26.084  23.600  1.00  0.00     0.035 A 
ATOM     83  C   UNL A   1      30.585  27.881  22.948  1.00  0.00    -0.013 A 
ATOM     84  C   UNL A   1      32.149  26.940  24.569  1.00  0.00     0.084 A 
ATOM     85  C   UNL A   1      31.115  27.833  24.249  1.00  0.00     0.030 A 
BRANCH  83  86
ATOM     86  C   UNL A   1      29.559  28.857  22.573  1.00  0.00     0.018 A 
ATOM     87  C   UNL A   1      29.773  29.843  21.623  1.00  0.00     0.123 A 
ATOM     88  C   UNL A   1      28.275  28.851  23.094  1.00  0.00     0.123 A 
ATOM     89  N   UNL A   1      28.836  30.727  21.212  1.00  0.00    -0.244 NA
ATOM     90  N   UNL A   1      27.295  29.705  22.724  1.00  0.00    -0.244 NA
ATOM     91  C   UNL A   1      27.633  30.605  21.790  1.00  0.00     0.221 A 
ENDBRANCH  83  86
BRANCH  84  92
ATOM     92  S   UNL A   1      32.788  26.979  26.234  1.00  0.00     0.243 S 
ATOM     93  O   UNL A   1      31.653  26.711  27.091  1.00  0.00    -0.207 OA
ATOM     94  O   UNL A   1      33.957  26.127  26.221  1.00  0.00    -0.207 OA
BRANCH  92  95
ATOM     95  N   UNL A   1      33.298  28.543  26.535  1.00  0.00    -0.198 NA
ATOM     96  C   UNL A   1      34.721  28.888  26.672  1.00  0.00     0.102 C 
ATOM     97  C   UNL A   1      32.443  29.517  27.227  1.00  0.00     0.102 C 
ATOM     98  C   UNL A   1      34.743  29.984  27.731  1.00  0.00     0.018 C 
ATOM     99  C   UNL A   1      33.390  30.660  27.579  1.00  0.00     0.018 C 
ENDBRANCH  92  95
ENDBRANCH  84  92
ENDBRANCH  77  80
ENDBRANCH  75  76
ENDBRANCH  74  75
ENDBRANCH  73  74
ENDBRANCH   1  73
TORSDOF 19
ENDMDL
MODEL 3
REMARK VINA RESULT:     -11.7      1.442      2.136
REMARK SMILES O=C(NCCCCCCNC(=O)c1cc(-c2cncnc2)cc(S(=O)(=O)N2CCCC2)c1)c1ccc(-c2c3nc(c(-c4cccc(S(=O)(=O)[O-])c4F)c4ccc([nH]4)c(-c4cccc(S(=O)(=O)[O-])c4F)c4nc(c(-c5cccc(S(=O)(=O)[O-])c5F)c5ccc2[nH]5)C=C4)C=C3)cc1
REMARK SMILES IDX 6 1 5 2 4 3 3 4 1 5 2 6 33 8 34 9 95 10 35 11 94 12 36 13
REMARK SMILES IDX 37 14 38 15 88 16 39 17 93 18 87 19 89 20 40 21 92 22 86 23
REMARK SMILES IDX 85 24 41 26 73 27 53 28 72 29 54 30 57 31 71 32 90 33 55 34
REMARK SMILES IDX 56 35 70 37 91 38 58 39 42 40 43 41 51 42 44 43 46 44 52 45
REMARK SMILES IDX 45 46 47 47 48 48 49 49 50 50 74 51 75 52 83 53 76 54 78 55
REMARK SMILES IDX 84 56 77 57 79 58 80 59 81 60 82 61 59 62 60 63 68 64 61 65
REMARK SMILES IDX 63 66 69 67 62 68 64 69 65 70 66 71 67 72 7 73 8 74 9 75
REMARK SMILES IDX 10 76 11 77 12 79 13 80 14 81 32 82 15 83 23 84 22 85 16 86
REMARK SMILES IDX 17 87 21 88 18 89 20 90 19 91 24 92 25 93 26 94 27 95 28 96
REMARK SMILES IDX 31 97 29 98 30 99
REMARK H PARENT 3 7 89 25 57 36 10 78
REMARK Flexibility Score: inf
ROOT
ATOM      1  C   UNL A   1      31.734  28.115  26.771  1.00  0.00     0.002 C 
ENDROOT
BRANCH   1   2
ATOM      2  C   UNL A   1      33.170  28.240  27.283  1.00  0.00     0.021 C 
BRANCH   2   3
ATOM      3  C   UNL A   1      34.050  29.243  26.543  1.00  0.00     0.116 C 
BRANCH   3   4
ATOM      4  N   UNL A   1      33.885  30.599  27.032  1.00  0.00    -0.352 N 
ATOM      5  O   UNL A   1      34.242  32.389  28.342  1.00  0.00    -0.269 OA
ATOM      6  C   UNL A   1      34.636  31.296  27.945  1.00  0.00     0.251 C 
ATOM      7  H   UNL A   1      33.121  31.092  26.653  1.00  0.00     0.163 HD
BRANCH   6   8
ATOM      8  C   UNL A   1      35.895  30.721  28.468  1.00  0.00     0.039 A 
ATOM      9  C   UNL A   1      37.139  31.104  27.955  1.00  0.00     0.014 A 
ATOM     10  C   UNL A   1      35.824  29.799  29.515  1.00  0.00     0.014 A 
ATOM     11  C   UNL A   1      38.302  30.486  28.413  1.00  0.00     0.010 A 
ATOM     12  C   UNL A   1      36.994  29.225  30.014  1.00  0.00     0.010 A 
ATOM     13  C   UNL A   1      38.240  29.544  29.451  1.00  0.00    -0.014 A 
BRANCH  13  14
ATOM     14  C   UNL A   1      39.478  28.930  29.991  1.00  0.00     0.031 A 
ATOM     15  C   UNL A   1      40.152  29.503  31.206  1.00  0.00     0.074 A 
ATOM     16  C   UNL A   1      40.034  27.894  29.335  1.00  0.00     0.049 A 
ATOM     17  N   UNL A   1      41.282  29.152  31.761  1.00  0.00    -0.248 NA
ATOM     18  C   UNL A   1      39.472  30.620  31.879  1.00  0.00     0.031 C 
ATOM     19  C   UNL A   1      39.492  27.283  28.119  1.00  0.00     0.029 A 
ATOM     20  N   UNL A   1      41.190  27.196  29.574  1.00  0.00    -0.354 N 
ATOM     21  C   UNL A   1      41.475  30.031  32.820  1.00  0.00     0.074 A 
ATOM     22  C   UNL A   1      40.343  30.934  32.830  1.00  0.00     0.031 C 
ATOM     23  C   UNL A   1      40.323  26.314  27.709  1.00  0.00     0.029 A 
ATOM     24  C   UNL A   1      41.475  26.264  28.604  1.00  0.00     0.049 A 
ATOM     25  H   UNL A   1      41.760  27.347  30.362  1.00  0.00     0.167 HD
ATOM     26  C   UNL A   1      42.494  30.073  33.711  1.00  0.00     0.034 A 
ATOM     27  C   UNL A   1      42.555  25.477  28.434  1.00  0.00     0.034 A 
ATOM     28  C   UNL A   1      43.599  29.152  33.717  1.00  0.00     0.049 A 
ATOM     29  C   UNL A   1      43.662  25.525  29.446  1.00  0.00     0.074 A 
ATOM     30  C   UNL A   1      44.642  29.065  34.622  1.00  0.00     0.029 A 
ATOM     31  N   UNL A   1      43.810  28.162  32.768  1.00  0.00    -0.354 N 
ATOM     32  N   UNL A   1      43.759  26.270  30.521  1.00  0.00    -0.248 NA
ATOM     33  C   UNL A   1      44.791  24.605  29.247  1.00  0.00     0.031 C 
ATOM     34  C   UNL A   1      45.491  28.029  34.213  1.00  0.00     0.029 A 
ATOM     35  C   UNL A   1      44.969  27.464  33.061  1.00  0.00     0.049 A 
ATOM     36  H   UNL A   1      43.221  27.983  31.999  1.00  0.00     0.167 HD
ATOM     37  C   UNL A   1      44.943  25.890  31.143  1.00  0.00     0.074 A 
ATOM     38  C   UNL A   1      45.522  24.839  30.330  1.00  0.00     0.031 C 
ATOM     39  C   UNL A   1      45.503  26.379  32.276  1.00  0.00     0.034 A 
BRANCH  26  40
ATOM     40  C   UNL A   1      42.444  31.130  34.782  1.00  0.00     0.023 A 
ATOM     41  C   UNL A   1      41.849  30.829  36.024  1.00  0.00     0.012 A 
ATOM     42  C   UNL A   1      43.022  32.397  34.583  1.00  0.00     0.148 A 
ATOM     43  C   UNL A   1      41.805  31.782  37.040  1.00  0.00     0.002 A 
ATOM     44  C   UNL A   1      43.005  33.332  35.613  1.00  0.00     0.091 A 
ATOM     45  F   UNL A   1      43.560  32.679  33.386  1.00  0.00    -0.205 F 
ATOM     46  C   UNL A   1      42.390  33.030  36.838  1.00  0.00     0.022 A 
BRANCH  44  47
ATOM     47  S   UNL A   1      43.798  34.936  35.453  1.00  0.00     0.127 S 
ATOM     48  O   UNL A   1      43.536  35.528  36.764  1.00  0.00    -0.237 OA
ATOM     49  O   UNL A   1      45.198  34.577  35.217  1.00  0.00    -0.237 OA
ATOM     50  O   UNL A   1      43.147  35.580  34.321  1.00  0.00    -0.744 OA
ENDBRANCH  44  47
ENDBRANCH  26  40
BRANCH  27  51
ATOM     51  C   UNL A   1      42.594  24.547  27.271  1.00  0.00     0.023 A 
ATOM     52  C   UNL A   1      43.283  24.929  26.105  1.00  0.00     0.012 A 
ATOM     53  C   UNL A   1      42.040  23.254  27.354  1.00  0.00     0.148 A 
ATOM     54  C   UNL A   1      43.413  24.041  25.037  1.00  0.00     0.002 A 
ATOM     55  C   UNL A   1      42.220  22.357  26.308  1.00  0.00     0.091 A 
ATOM     56  F   UNL A   1      41.379  22.918  28.470  1.00  0.00    -0.205 F 
ATOM     57  C   UNL A   1      42.896  22.752  25.143  1.00  0.00     0.022 A 
BRANCH  55  58
ATOM     58  S   UNL A   1      41.717  20.635  26.417  1.00  0.00     0.127 S 
ATOM     59  O   UNL A   1      42.508  20.027  25.350  1.00  0.00    -0.237 OA
ATOM     60  O   UNL A   1      42.137  20.285  27.775  1.00  0.00    -0.237 OA
ATOM     61  O   UNL A   1      40.274  20.632  26.215  1.00  0.00    -0.744 OA
ENDBRANCH  55  58
ENDBRANCH  27  51
BRANCH  39  62
ATOM     62  C   UNL A   1      46.796  25.766  32.740  1.00  0.00     0.023 A 
ATOM     63  C   UNL A   1      48.021  26.329  32.331  1.00  0.00     0.012 A 
ATOM     64  C   UNL A   1      46.795  24.702  33.663  1.00  0.00     0.148 A 
ATOM     65  C   UNL A   1      49.226  25.833  32.824  1.00  0.00     0.002 A 
ATOM     66  C   UNL A   1      47.998  24.239  34.181  1.00  0.00     0.091 A 
ATOM     67  F   UNL A   1      45.618  24.169  34.022  1.00  0.00    -0.205 F 
ATOM     68  C   UNL A   1      49.215  24.798  33.758  1.00  0.00     0.022 A 
BRANCH  66  69
ATOM     69  S   UNL A   1      48.075  22.973  35.455  1.00  0.00     0.127 S 
ATOM     70  O   UNL A   1      47.445  21.838  34.783  1.00  0.00    -0.237 OA
ATOM     71  O   UNL A   1      49.515  22.835  35.670  1.00  0.00    -0.237 OA
ATOM     72  O   UNL A   1      47.343  23.509  36.595  1.00  0.00    -0.744 OA
ENDBRANCH  66  69
ENDBRANCH  39  62
ENDBRANCH  13  14
ENDBRANCH   6   8
ENDBRANCH   3   4
ENDBRANCH   2   3
ENDBRANCH   1   2
BRANCH   1  73
ATOM     73  C   UNL A   1      31.540  27.228  25.538  1.00  0.00     0.002 C 
BRANCH  73  74
ATOM     74  C   UNL A   1      30.097  26.810  25.234  1.00  0.00     0.021 C 
BRANCH  74  75
ATOM     75  C   UNL A   1      29.882  25.315  25.024  1.00  0.00     0.116 C 
BRANCH  75  76
ATOM     76  N   UNL A   1      29.861  24.580  26.276  1.00  0.00    -0.352 N 
ATOM     77  C   UNL A   1      30.492  23.411  26.615  1.00  0.00     0.251 C 
ATOM     78  H   UNL A   1      29.312  24.980  26.989  1.00  0.00     0.163 HD
ATOM     79  O   UNL A   1      30.218  22.844  27.668  1.00  0.00    -0.269 OA
BRANCH  77  80
ATOM     80  C   UNL A   1      31.518  22.823  25.725  1.00  0.00     0.041 A 
ATOM     81  C   UNL A   1      31.570  21.432  25.583  1.00  0.00     0.022 A 
ATOM     82  C   UNL A   1      32.485  23.624  25.121  1.00  0.00     0.035 A 
ATOM     83  C   UNL A   1      32.572  20.822  24.809  1.00  0.00    -0.013 A 
ATOM     84  C   UNL A   1      33.469  23.043  24.330  1.00  0.00     0.084 A 
ATOM     85  C   UNL A   1      33.514  21.649  24.171  1.00  0.00     0.030 A 
BRANCH  83  86
ATOM     86  C   UNL A   1      32.646  19.363  24.717  1.00  0.00     0.018 A 
ATOM     87  C   UNL A   1      32.682  18.687  23.507  1.00  0.00     0.123 A 
ATOM     88  C   UNL A   1      32.737  18.533  25.824  1.00  0.00     0.123 A 
ATOM     89  N   UNL A   1      32.804  17.347  23.382  1.00  0.00    -0.244 NA
ATOM     90  N   UNL A   1      32.862  17.189  25.765  1.00  0.00    -0.244 NA
ATOM     91  C   UNL A   1      32.892  16.664  24.532  1.00  0.00     0.221 A 
ENDBRANCH  83  86
BRANCH  84  92
ATOM     92  S   UNL A   1      34.729  24.007  23.517  1.00  0.00     0.243 S 
ATOM     93  O   UNL A   1      35.315  24.832  24.552  1.00  0.00    -0.207 OA
ATOM     94  O   UNL A   1      35.514  23.058  22.758  1.00  0.00    -0.207 OA
BRANCH  92  95
ATOM     95  N   UNL A   1      33.959  25.019  22.431  1.00  0.00    -0.198 NA
ATOM     96  C   UNL A   1      33.717  26.440  22.724  1.00  0.00     0.102 C 
ATOM     97  C   UNL A   1      33.003  24.508  21.438  1.00  0.00     0.102 C 
ATOM     98  C   UNL A   1      32.371  26.736  22.072  1.00  0.00     0.018 C 
ATOM     99  C   UNL A   1      32.313  25.761  20.908  1.00  0.00     0.018 C 
ENDBRANCH  92  95
ENDBRANCH  84  92
ENDBRANCH  77  80
ENDBRANCH  75  76
ENDBRANCH  74  75
ENDBRANCH  73  74
ENDBRANCH   1  73
TORSDOF 19
ENDMDL
