MODEL 1
REMARK VINA RESULT:     -10.9      0.000      0.000
REMARK SMILES C[C@@H]1CN(C(=O)NC(=O)CCCCC(=O)NCCCCCCNC(=O)c2ccc(-c3c4nc(c(-c5cccc(S(=O)(=O)[O-])c5F)c5ccc([nH]5)c(-c5cccc(S(=O)(=O)[O-])c5F)c5nc(c(-c6cccc(S(=O)(=O)[O-])c6F)c6ccc3[nH]6)C=C5)C=C4)cc2)CCO1
REMARK SMILES IDX 18 1 17 2 16 3 14 4 15 5 13 7 12 8 11 9 10 10 8 11 5 12 6 13
REMARK SMILES IDX 7 14 9 16 4 17 1 18 2 19 3 20 91 21 90 22 89 23 19 24 20 25
REMARK SMILES IDX 21 26 22 27 23 28 24 29 25 31 26 32 27 33 88 34 28 35 87 36
REMARK SMILES IDX 29 37 30 38 31 39 81 40 32 41 86 42 80 43 82 44 33 45 85 46
REMARK SMILES IDX 79 47 78 48 34 50 66 51 46 52 65 53 47 54 50 55 64 56 83 57
REMARK SMILES IDX 48 58 49 59 63 61 84 62 51 63 35 64 36 65 44 66 37 67 39 68
REMARK SMILES IDX 45 69 38 70 40 71 41 72 42 73 43 74 67 75 68 76 76 77 69 78
REMARK SMILES IDX 71 79 77 80 70 81 72 82 73 83 74 84 75 85 52 86 53 87 61 88
REMARK SMILES IDX 54 89 56 90 62 91 55 92 57 93 58 94 59 95 60 96
REMARK H PARENT 16 6 7 15 23 30 82 49 50 60
REMARK Flexibility Score: inf
ROOT
ATOM      1  C   UNL A   1      30.331  27.339  24.117  1.00  0.00     0.021 C 
ENDROOT
BRANCH   1   2
ATOM      2  C   UNL A   1      30.519  27.409  22.613  1.00  0.00     0.116 C 
BRANCH   2   3
ATOM      3  N   UNL A   1      31.898  27.633  22.273  1.00  0.00    -0.356 N 
ATOM      4  C   UNL A   1      32.932  26.747  22.316  1.00  0.00     0.219 C 
ATOM      5  O   UNL A   1      34.078  27.185  22.212  1.00  0.00    -0.275 OA
ATOM      6  H   UNL A   1      32.125  28.543  21.972  1.00  0.00     0.163 HD
BRANCH   4   7
ATOM      7  C   UNL A   1      32.656  25.251  22.332  1.00  0.00     0.100 C 
BRANCH   7   8
ATOM      8  C   UNL A   1      32.463  24.475  23.630  1.00  0.00     0.010 C 
BRANCH   8   9
ATOM      9  C   UNL A   1      31.048  24.095  24.105  1.00  0.00     0.010 C 
BRANCH   9  10
ATOM     10  C   UNL A   1      30.854  22.968  25.127  1.00  0.00     0.100 C 
BRANCH  10  11
ATOM     11  C   UNL A   1      31.279  23.240  26.550  1.00  0.00     0.227 C 
ATOM     12  C   UNL A   1      33.511  22.264  26.708  1.00  0.00     0.324 C 
ATOM     13  O   UNL A   1      34.361  23.100  27.014  1.00  0.00    -0.248 OA
ATOM     14  N   UNL A   1      32.220  22.425  27.140  1.00  0.00    -0.278 N 
ATOM     15  H   UNL A   1      31.943  21.917  27.936  1.00  0.00     0.174 HD
ATOM     16  O   UNL A   1      30.740  24.123  27.217  1.00  0.00    -0.275 OA
BRANCH  12  17
ATOM     17  N   UNL A   1      33.843  21.066  26.087  1.00  0.00    -0.320 N 
ATOM     18  C   UNL A   1      32.400  17.869  24.539  1.00  0.00     0.040 C 
ATOM     19  C   UNL A   1      33.462  18.696  25.259  1.00  0.00     0.134 C 
ATOM     20  C   UNL A   1      32.870  20.031  25.721  1.00  0.00     0.153 C 
ATOM     21  O   UNL A   1      34.523  18.919  24.319  1.00  0.00    -0.375 OA
ATOM     22  C   UNL A   1      35.590  19.636  24.942  1.00  0.00     0.182 C 
ATOM     23  C   UNL A   1      35.153  21.018  25.422  1.00  0.00     0.150 C 
ENDBRANCH  12  17
ENDBRANCH  10  11
ENDBRANCH   9  10
ENDBRANCH   8   9
ENDBRANCH   7   8
ENDBRANCH   4   7
ENDBRANCH   2   3
ENDBRANCH   1   2
BRANCH   1  24
ATOM     24  C   UNL A   1      31.219  28.333  24.862  1.00  0.00     0.002 C 
BRANCH  24  25
ATOM     25  C   UNL A   1      31.554  27.937  26.306  1.00  0.00     0.002 C 
BRANCH  25  26
ATOM     26  C   UNL A   1      32.158  29.048  27.171  1.00  0.00     0.021 C 
BRANCH  26  27
ATOM     27  C   UNL A   1      33.210  29.907  26.477  1.00  0.00     0.116 C 
BRANCH  27  28
ATOM     28  N   UNL A   1      33.101  31.313  26.831  1.00  0.00    -0.352 N 
ATOM     29  C   UNL A   1      33.901  32.069  27.637  1.00  0.00     0.251 C 
ATOM     30  H   UNL A   1      32.337  31.788  26.431  1.00  0.00     0.163 HD
ATOM     31  O   UNL A   1      33.566  33.223  27.920  1.00  0.00    -0.269 OA
BRANCH  29  32
ATOM     32  C   UNL A   1      35.144  31.501  28.188  1.00  0.00     0.039 A 
ATOM     33  C   UNL A   1      36.294  32.291  28.176  1.00  0.00     0.014 A 
ATOM     34  C   UNL A   1      35.181  30.203  28.707  1.00  0.00     0.014 A 
ATOM     35  C   UNL A   1      37.475  31.793  28.722  1.00  0.00     0.010 A 
ATOM     36  C   UNL A   1      36.341  29.736  29.319  1.00  0.00     0.010 A 
ATOM     37  C   UNL A   1      37.502  30.521  29.320  1.00  0.00    -0.014 A 
BRANCH  37  38
ATOM     38  C   UNL A   1      38.743  30.022  29.960  1.00  0.00     0.031 A 
ATOM     39  C   UNL A   1      39.165  30.529  31.310  1.00  0.00     0.074 A 
ATOM     40  C   UNL A   1      39.510  29.136  29.294  1.00  0.00     0.049 A 
ATOM     41  N   UNL A   1      40.192  30.171  32.037  1.00  0.00    -0.248 NA
ATOM     42  C   UNL A   1      38.345  31.591  31.918  1.00  0.00     0.031 C 
ATOM     43  C   UNL A   1      39.248  28.641  27.939  1.00  0.00     0.029 A 
ATOM     44  N   UNL A   1      40.669  28.501  29.659  1.00  0.00    -0.354 N 
ATOM     45  C   UNL A   1      40.161  30.982  33.166  1.00  0.00     0.074 A 
ATOM     46  C   UNL A   1      39.033  31.873  33.016  1.00  0.00     0.031 C 
ATOM     47  C   UNL A   1      40.206  27.765  27.597  1.00  0.00     0.029 A 
ATOM     48  C   UNL A   1      41.162  27.654  28.694  1.00  0.00     0.049 A 
ATOM     49  H   UNL A   1      41.109  28.640  30.529  1.00  0.00     0.167 HD
ATOM     50  C   UNL A   1      40.982  30.964  34.242  1.00  0.00     0.034 A 
ATOM     51  C   UNL A   1      42.257  26.872  28.696  1.00  0.00     0.034 A 
ATOM     52  C   UNL A   1      42.074  30.042  34.403  1.00  0.00     0.049 A 
ATOM     53  C   UNL A   1      43.116  26.833  29.931  1.00  0.00     0.074 A 
ATOM     54  C   UNL A   1      42.902  29.872  35.498  1.00  0.00     0.029 A 
ATOM     55  N   UNL A   1      42.500  29.144  33.437  1.00  0.00    -0.354 N 
ATOM     56  N   UNL A   1      42.962  27.473  31.065  1.00  0.00    -0.248 NA
ATOM     57  C   UNL A   1      44.277  25.933  29.903  1.00  0.00     0.031 C 
ATOM     58  C   UNL A   1      43.849  28.892  35.182  1.00  0.00     0.029 A 
ATOM     59  C   UNL A   1      43.590  28.429  33.902  1.00  0.00     0.049 A 
ATOM     60  H   UNL A   1      42.089  29.032  32.549  1.00  0.00     0.167 HD
ATOM     61  C   UNL A   1      43.984  27.029  31.896  1.00  0.00     0.074 A 
ATOM     62  C   UNL A   1      44.730  26.040  31.143  1.00  0.00     0.031 C 
ATOM     63  C   UNL A   1      44.292  27.416  33.158  1.00  0.00     0.034 A 
BRANCH  50  64
ATOM     64  C   UNL A   1      40.706  31.936  35.359  1.00  0.00     0.023 A 
ATOM     65  C   UNL A   1      41.530  33.069  35.520  1.00  0.00     0.012 A 
ATOM     66  C   UNL A   1      39.586  31.772  36.198  1.00  0.00     0.148 A 
ATOM     67  C   UNL A   1      41.257  34.011  36.512  1.00  0.00     0.002 A 
ATOM     68  C   UNL A   1      39.295  32.738  37.154  1.00  0.00     0.091 A 
ATOM     69  F   UNL A   1      38.827  30.677  36.044  1.00  0.00    -0.205 F 
ATOM     70  C   UNL A   1      40.135  33.851  37.320  1.00  0.00     0.022 A 
BRANCH  68  71
ATOM     71  S   UNL A   1      37.829  32.670  38.190  1.00  0.00     0.127 S 
ATOM     72  O   UNL A   1      38.064  33.785  39.107  1.00  0.00    -0.237 OA
ATOM     73  O   UNL A   1      36.757  32.894  37.219  1.00  0.00    -0.237 OA
ATOM     74  O   UNL A   1      37.830  31.349  38.804  1.00  0.00    -0.744 OA
ENDBRANCH  68  71
ENDBRANCH  50  64
BRANCH  51  75
ATOM     75  C   UNL A   1      42.569  26.008  27.522  1.00  0.00     0.023 A 
ATOM     76  C   UNL A   1      43.322  26.533  26.453  1.00  0.00     0.012 A 
ATOM     77  C   UNL A   1      42.132  24.671  27.459  1.00  0.00     0.148 A 
ATOM     78  C   UNL A   1      43.596  25.759  25.325  1.00  0.00     0.002 A 
ATOM     79  C   UNL A   1      42.458  23.886  26.360  1.00  0.00     0.091 A 
ATOM     80  F   UNL A   1      41.407  24.189  28.479  1.00  0.00    -0.205 F 
ATOM     81  C   UNL A   1      43.171  24.433  25.283  1.00  0.00     0.022 A 
BRANCH  79  82
ATOM     82  S   UNL A   1      42.072  22.133  26.287  1.00  0.00     0.127 S 
ATOM     83  O   UNL A   1      40.627  22.153  26.082  1.00  0.00    -0.237 OA
ATOM     84  O   UNL A   1      42.853  21.696  25.129  1.00  0.00    -0.237 OA
ATOM     85  O   UNL A   1      42.528  21.580  27.555  1.00  0.00    -0.744 OA
ENDBRANCH  79  82
ENDBRANCH  51  75
BRANCH  63  86
ATOM     86  C   UNL A   1      45.470  26.747  33.817  1.00  0.00     0.023 A 
ATOM     87  C   UNL A   1      46.745  27.344  33.751  1.00  0.00     0.012 A 
ATOM     88  C   UNL A   1      45.304  25.549  34.541  1.00  0.00     0.148 A 
ATOM     89  C   UNL A   1      47.845  26.736  34.352  1.00  0.00     0.002 A 
ATOM     90  C   UNL A   1      46.395  24.978  35.184  1.00  0.00     0.091 A 
ATOM     91  F   UNL A   1      44.088  24.986  34.579  1.00  0.00    -0.205 F 
ATOM     92  C   UNL A   1      47.668  25.560  35.077  1.00  0.00     0.022 A 
BRANCH  90  93
ATOM     93  S   UNL A   1      46.240  23.519  36.221  1.00  0.00     0.127 S 
ATOM     94  O   UNL A   1      45.131  23.892  37.097  1.00  0.00    -0.237 OA
ATOM     95  O   UNL A   1      45.921  22.477  35.244  1.00  0.00    -0.237 OA
ATOM     96  O   UNL A   1      47.531  23.356  36.876  1.00  0.00    -0.744 OA
ENDBRANCH  90  93
ENDBRANCH  63  86
ENDBRANCH  37  38
ENDBRANCH  29  32
ENDBRANCH  27  28
ENDBRANCH  26  27
ENDBRANCH  25  26
ENDBRANCH  24  25
ENDBRANCH   1  24
TORSDOF 21
ENDMDL
MODEL 2
REMARK VINA RESULT:     -10.7      2.533      4.136
REMARK SMILES C[C@@H]1CN(C(=O)NC(=O)CCCCC(=O)NCCCCCCNC(=O)c2ccc(-c3c4nc(c(-c5cccc(S(=O)(=O)[O-])c5F)c5ccc([nH]5)c(-c5cccc(S(=O)(=O)[O-])c5F)c5nc(c(-c6cccc(S(=O)(=O)[O-])c6F)c6ccc3[nH]6)C=C5)C=C4)cc2)CCO1
REMARK SMILES IDX 18 1 17 2 16 3 14 4 15 5 13 7 12 8 11 9 10 10 8 11 5 12 6 13
REMARK SMILES IDX 7 14 9 16 4 17 1 18 2 19 3 20 91 21 90 22 89 23 19 24 20 25
REMARK SMILES IDX 21 26 22 27 23 28 24 29 25 31 26 32 27 33 88 34 28 35 87 36
REMARK SMILES IDX 29 37 30 38 31 39 81 40 32 41 86 42 80 43 82 44 33 45 85 46
REMARK SMILES IDX 79 47 78 48 34 50 66 51 46 52 65 53 47 54 50 55 64 56 83 57
REMARK SMILES IDX 48 58 49 59 63 61 84 62 51 63 35 64 36 65 44 66 37 67 39 68
REMARK SMILES IDX 45 69 38 70 40 71 41 72 42 73 43 74 67 75 68 76 76 77 69 78
REMARK SMILES IDX 71 79 77 80 70 81 72 82 73 83 74 84 75 85 52 86 53 87 61 88
REMARK SMILES IDX 54 89 56 90 62 91 55 92 57 93 58 94 59 95 60 96
REMARK H PARENT 16 6 7 15 23 30 82 49 50 60
REMARK Flexibility Score: inf
ROOT
ATOM      1  C   UNL A   1      34.871  30.226  27.714  1.00  0.00     0.021 C 
ENDROOT
BRANCH   1   2
ATOM      2  C   UNL A   1      33.429  30.052  27.274  1.00  0.00     0.116 C 
BRANCH   2   3
ATOM      3  N   UNL A   1      33.324  30.035  25.840  1.00  0.00    -0.356 N 
ATOM      4  C   UNL A   1      33.118  28.967  25.022  1.00  0.00     0.219 C 
ATOM      5  O   UNL A   1      33.291  29.118  23.812  1.00  0.00    -0.275 OA
ATOM      6  H   UNL A   1      33.412  30.908  25.392  1.00  0.00     0.163 HD
BRANCH   4   7
ATOM      7  C   UNL A   1      32.539  27.676  25.582  1.00  0.00     0.100 C 
BRANCH   7   8
ATOM      8  C   UNL A   1      31.036  27.442  25.692  1.00  0.00     0.010 C 
BRANCH   8   9
ATOM      9  C   UNL A   1      30.308  26.565  24.655  1.00  0.00     0.010 C 
BRANCH   9  10
ATOM     10  C   UNL A   1      29.515  27.216  23.516  1.00  0.00     0.100 C 
BRANCH  10  11
ATOM     11  C   UNL A   1      30.302  27.904  22.426  1.00  0.00     0.227 C 
ATOM     12  C   UNL A   1      31.820  26.178  21.601  1.00  0.00     0.324 C 
ATOM     13  O   UNL A   1      31.655  25.954  20.402  1.00  0.00    -0.248 OA
ATOM     14  N   UNL A   1      31.553  27.428  22.095  1.00  0.00    -0.278 N 
ATOM     15  H   UNL A   1      32.316  28.035  22.226  1.00  0.00     0.174 HD
ATOM     16  O   UNL A   1      29.883  28.928  21.888  1.00  0.00    -0.275 OA
BRANCH  12  17
ATOM     17  N   UNL A   1      32.432  25.262  22.447  1.00  0.00    -0.320 N 
ATOM     18  C   UNL A   1      32.467  21.587  23.539  1.00  0.00     0.040 C 
ATOM     19  C   UNL A   1      32.665  23.088  23.738  1.00  0.00     0.134 C 
ATOM     20  C   UNL A   1      32.012  23.864  22.590  1.00  0.00     0.153 C 
ATOM     21  O   UNL A   1      34.080  23.322  23.757  1.00  0.00    -0.375 OA
ATOM     22  C   UNL A   1      34.347  24.703  24.005  1.00  0.00     0.182 C 
ATOM     23  C   UNL A   1      33.785  25.605  22.909  1.00  0.00     0.150 C 
ENDBRANCH  12  17
ENDBRANCH  10  11
ENDBRANCH   9  10
ENDBRANCH   8   9
ENDBRANCH   7   8
ENDBRANCH   4   7
ENDBRANCH   2   3
ENDBRANCH   1   2
BRANCH   1  24
ATOM     24  C   UNL A   1      35.045  31.384  28.695  1.00  0.00     0.002 C 
BRANCH  24  25
ATOM     25  C   UNL A   1      35.156  32.768  28.040  1.00  0.00     0.002 C 
BRANCH  25  26
ATOM     26  C   UNL A   1      33.857  33.579  27.989  1.00  0.00     0.021 C 
BRANCH  26  27
ATOM     27  C   UNL A   1      33.982  35.029  28.447  1.00  0.00     0.116 C 
BRANCH  27  28
ATOM     28  N   UNL A   1      33.123  35.331  29.580  1.00  0.00    -0.352 N 
ATOM     29  C   UNL A   1      33.274  35.000  30.895  1.00  0.00     0.251 C 
ATOM     30  H   UNL A   1      32.313  35.848  29.366  1.00  0.00     0.163 HD
ATOM     31  O   UNL A   1      32.363  35.238  31.692  1.00  0.00    -0.269 OA
BRANCH  29  32
ATOM     32  C   UNL A   1      34.509  34.339  31.355  1.00  0.00     0.039 A 
ATOM     33  C   UNL A   1      34.403  33.082  31.949  1.00  0.00     0.014 A 
ATOM     34  C   UNL A   1      35.758  34.951  31.207  1.00  0.00     0.014 A 
ATOM     35  C   UNL A   1      35.557  32.418  32.361  1.00  0.00     0.010 A 
ATOM     36  C   UNL A   1      36.913  34.255  31.549  1.00  0.00     0.010 A 
ATOM     37  C   UNL A   1      36.823  32.988  32.142  1.00  0.00    -0.014 A 
BRANCH  37  38
ATOM     38  C   UNL A   1      38.051  32.249  32.521  1.00  0.00     0.031 A 
ATOM     39  C   UNL A   1      38.774  32.571  33.799  1.00  0.00     0.074 A 
ATOM     40  C   UNL A   1      38.535  31.312  31.681  1.00  0.00     0.049 A 
ATOM     41  N   UNL A   1      39.834  31.998  34.308  1.00  0.00    -0.248 NA
ATOM     42  C   UNL A   1      38.260  33.694  34.600  1.00  0.00     0.031 C 
ATOM     43  C   UNL A   1      37.969  30.978  30.371  1.00  0.00     0.029 A 
ATOM     44  N   UNL A   1      39.615  30.476  31.797  1.00  0.00    -0.354 N 
ATOM     45  C   UNL A   1      40.130  32.707  35.466  1.00  0.00     0.074 A 
ATOM     46  C   UNL A   1      39.160  33.773  35.570  1.00  0.00     0.031 C 
ATOM     47  C   UNL A   1      38.693  29.994  29.815  1.00  0.00     0.029 A 
ATOM     48  C   UNL A   1      39.787  29.645  30.715  1.00  0.00     0.049 A 
ATOM     49  H   UNL A   1      40.212  30.472  32.580  1.00  0.00     0.167 HD
ATOM     50  C   UNL A   1      41.106  32.471  36.375  1.00  0.00     0.034 A 
ATOM     51  C   UNL A   1      40.720  28.703  30.478  1.00  0.00     0.034 A 
ATOM     52  C   UNL A   1      42.039  31.380  36.287  1.00  0.00     0.049 A 
ATOM     53  C   UNL A   1      41.755  28.428  31.534  1.00  0.00     0.074 A 
ATOM     54  C   UNL A   1      42.999  30.993  37.205  1.00  0.00     0.029 A 
ATOM     55  N   UNL A   1      42.138  30.509  35.213  1.00  0.00    -0.354 N 
ATOM     56  N   UNL A   1      41.905  28.989  32.710  1.00  0.00    -0.248 NA
ATOM     57  C   UNL A   1      42.727  27.363  31.249  1.00  0.00     0.031 C 
ATOM     58  C   UNL A   1      43.700  29.905  36.671  1.00  0.00     0.029 A 
ATOM     59  C   UNL A   1      43.154  29.596  35.436  1.00  0.00     0.049 A 
ATOM     60  H   UNL A   1      41.570  30.537  34.409  1.00  0.00     0.167 HD
ATOM     61  C   UNL A   1      42.963  28.323  33.318  1.00  0.00     0.074 A 
ATOM     62  C   UNL A   1      43.394  27.295  32.392  1.00  0.00     0.031 C 
ATOM     63  C   UNL A   1      43.540  28.551  34.523  1.00  0.00     0.034 A 
BRANCH  50  64
ATOM     64  C   UNL A   1      41.190  33.379  37.575  1.00  0.00     0.023 A 
ATOM     65  C   UNL A   1      42.188  34.374  37.630  1.00  0.00     0.012 A 
ATOM     66  C   UNL A   1      40.235  33.301  38.607  1.00  0.00     0.148 A 
ATOM     67  C   UNL A   1      42.248  35.261  38.704  1.00  0.00     0.002 A 
ATOM     68  C   UNL A   1      40.274  34.218  39.651  1.00  0.00     0.091 A 
ATOM     69  F   UNL A   1      39.307  32.335  38.547  1.00  0.00    -0.205 F 
ATOM     70  C   UNL A   1      41.285  35.190  39.707  1.00  0.00     0.022 A 
BRANCH  68  71
ATOM     71  S   UNL A   1      39.033  34.265  40.949  1.00  0.00     0.127 S 
ATOM     72  O   UNL A   1      37.978  33.427  40.380  1.00  0.00    -0.237 OA
ATOM     73  O   UNL A   1      39.747  33.664  42.076  1.00  0.00    -0.237 OA
ATOM     74  O   UNL A   1      38.685  35.668  41.125  1.00  0.00    -0.744 OA
ENDBRANCH  68  71
ENDBRANCH  50  64
BRANCH  51  75
ATOM     75  C   UNL A   1      40.679  27.901  29.222  1.00  0.00     0.023 A 
ATOM     76  C   UNL A   1      39.731  26.868  29.088  1.00  0.00     0.012 A 
ATOM     77  C   UNL A   1      41.566  28.158  28.159  1.00  0.00     0.148 A 
ATOM     78  C   UNL A   1      39.696  26.077  27.939  1.00  0.00     0.002 A 
ATOM     79  C   UNL A   1      41.488  27.406  26.993  1.00  0.00     0.091 A 
ATOM     80  F   UNL A   1      42.470  29.137  28.307  1.00  0.00    -0.205 F 
ATOM     81  C   UNL A   1      40.568  26.351  26.889  1.00  0.00     0.022 A 
BRANCH  79  82
ATOM     82  S   UNL A   1      42.477  27.783  25.542  1.00  0.00     0.127 S 
ATOM     83  O   UNL A   1      43.818  27.878  26.110  1.00  0.00    -0.237 OA
ATOM     84  O   UNL A   1      42.245  26.608  24.701  1.00  0.00    -0.237 OA
ATOM     85  O   UNL A   1      41.924  29.019  25.004  1.00  0.00    -0.744 OA
ENDBRANCH  79  82
ENDBRANCH  51  75
BRANCH  63  86
ATOM     86  C   UNL A   1      44.682  27.653  34.923  1.00  0.00     0.023 A 
ATOM     87  C   UNL A   1      46.011  28.069  34.704  1.00  0.00     0.012 A 
ATOM     88  C   UNL A   1      44.439  26.419  35.557  1.00  0.00     0.148 A 
ATOM     89  C   UNL A   1      47.079  27.248  35.065  1.00  0.00     0.002 A 
ATOM     90  C   UNL A   1      45.508  25.632  35.963  1.00  0.00     0.091 A 
ATOM     91  F   UNL A   1      43.168  26.033  35.741  1.00  0.00    -0.205 F 
ATOM     92  C   UNL A   1      46.828  26.036  35.704  1.00  0.00     0.022 A 
BRANCH  90  93
ATOM     93  S   UNL A   1      45.280  24.104  36.880  1.00  0.00     0.127 S 
ATOM     94  O   UNL A   1      46.662  23.697  37.130  1.00  0.00    -0.237 OA
ATOM     95  O   UNL A   1      44.555  24.560  38.067  1.00  0.00    -0.237 OA
ATOM     96  O   UNL A   1      44.514  23.225  36.008  1.00  0.00    -0.744 OA
ENDBRANCH  90  93
ENDBRANCH  63  86
ENDBRANCH  37  38
ENDBRANCH  29  32
ENDBRANCH  27  28
ENDBRANCH  26  27
ENDBRANCH  25  26
ENDBRANCH  24  25
ENDBRANCH   1  24
TORSDOF 21
ENDMDL
MODEL 3
REMARK VINA RESULT:     -10.7      2.772      4.152
REMARK SMILES C[C@@H]1CN(C(=O)NC(=O)CCCCC(=O)NCCCCCCNC(=O)c2ccc(-c3c4nc(c(-c5cccc(S(=O)(=O)[O-])c5F)c5ccc([nH]5)c(-c5cccc(S(=O)(=O)[O-])c5F)c5nc(c(-c6cccc(S(=O)(=O)[O-])c6F)c6ccc3[nH]6)C=C5)C=C4)cc2)CCO1
REMARK SMILES IDX 18 1 17 2 16 3 14 4 15 5 13 7 12 8 11 9 10 10 8 11 5 12 6 13
REMARK SMILES IDX 7 14 9 16 4 17 1 18 2 19 3 20 91 21 90 22 89 23 19 24 20 25
REMARK SMILES IDX 21 26 22 27 23 28 24 29 25 31 26 32 27 33 88 34 28 35 87 36
REMARK SMILES IDX 29 37 30 38 31 39 81 40 32 41 86 42 80 43 82 44 33 45 85 46
REMARK SMILES IDX 79 47 78 48 34 50 66 51 46 52 65 53 47 54 50 55 64 56 83 57
REMARK SMILES IDX 48 58 49 59 63 61 84 62 51 63 35 64 36 65 44 66 37 67 39 68
REMARK SMILES IDX 45 69 38 70 40 71 41 72 42 73 43 74 67 75 68 76 76 77 69 78
REMARK SMILES IDX 71 79 77 80 70 81 72 82 73 83 74 84 75 85 52 86 53 87 61 88
REMARK SMILES IDX 54 89 56 90 62 91 55 92 57 93 58 94 59 95 60 96
REMARK H PARENT 16 6 7 15 23 30 82 49 50 60
REMARK Flexibility Score: inf
ROOT
ATOM      1  C   UNL A   1      35.361  30.670  28.207  1.00  0.00     0.021 C 
ENDROOT
BRANCH   1   2
ATOM      2  C   UNL A   1      35.136  29.416  27.382  1.00  0.00     0.116 C 
BRANCH   2   3
ATOM      3  N   UNL A   1      34.346  29.700  26.215  1.00  0.00    -0.356 N 
ATOM      4  C   UNL A   1      33.330  28.964  25.684  1.00  0.00     0.219 C 
ATOM      5  O   UNL A   1      32.933  29.249  24.554  1.00  0.00    -0.275 OA
ATOM      6  H   UNL A   1      34.567  30.532  25.738  1.00  0.00     0.163 HD
BRANCH   4   7
ATOM      7  C   UNL A   1      32.612  27.927  26.535  1.00  0.00     0.100 C 
BRANCH   7   8
ATOM      8  C   UNL A   1      32.392  26.496  26.057  1.00  0.00     0.010 C 
BRANCH   8   9
ATOM      9  C   UNL A   1      31.000  25.844  26.170  1.00  0.00     0.010 C 
BRANCH   9  10
ATOM     10  C   UNL A   1      30.786  24.398  25.709  1.00  0.00     0.100 C 
BRANCH  10  11
ATOM     11  C   UNL A   1      30.501  23.365  26.773  1.00  0.00     0.227 C 
ATOM     12  C   UNL A   1      32.704  22.503  27.379  1.00  0.00     0.324 C 
ATOM     13  O   UNL A   1      32.954  22.673  28.573  1.00  0.00    -0.248 OA
ATOM     14  N   UNL A   1      31.403  22.343  26.979  1.00  0.00    -0.278 N 
ATOM     15  H   UNL A   1      31.087  21.424  26.826  1.00  0.00     0.174 HD
ATOM     16  O   UNL A   1      29.442  23.373  27.400  1.00  0.00    -0.275 OA
BRANCH  12  17
ATOM     17  N   UNL A   1      33.703  22.293  26.437  1.00  0.00    -0.320 N 
ATOM     18  C   UNL A   1      37.165  23.459  25.274  1.00  0.00     0.040 C 
ATOM     19  C   UNL A   1      35.773  22.863  25.081  1.00  0.00     0.134 C 
ATOM     20  C   UNL A   1      34.914  23.113  26.324  1.00  0.00     0.153 C 
ATOM     21  O   UNL A   1      35.949  21.454  24.872  1.00  0.00    -0.375 OA
ATOM     22  C   UNL A   1      34.687  20.833  24.618  1.00  0.00     0.182 C 
ATOM     23  C   UNL A   1      33.731  20.969  25.801  1.00  0.00     0.150 C 
ENDBRANCH  12  17
ENDBRANCH  10  11
ENDBRANCH   9  10
ENDBRANCH   8   9
ENDBRANCH   7   8
ENDBRANCH   4   7
ENDBRANCH   2   3
ENDBRANCH   1   2
BRANCH   1  24
ATOM     24  C   UNL A   1      34.404  31.797  27.826  1.00  0.00     0.002 C 
BRANCH  24  25
ATOM     25  C   UNL A   1      34.442  33.014  28.761  1.00  0.00     0.002 C 
BRANCH  25  26
ATOM     26  C   UNL A   1      33.382  34.087  28.490  1.00  0.00     0.021 C 
BRANCH  26  27
ATOM     27  C   UNL A   1      33.630  35.429  29.173  1.00  0.00     0.116 C 
BRANCH  27  28
ATOM     28  N   UNL A   1      32.749  35.646  30.307  1.00  0.00    -0.352 N 
ATOM     29  C   UNL A   1      32.899  35.264  31.609  1.00  0.00     0.251 C 
ATOM     30  H   UNL A   1      31.922  36.141  30.107  1.00  0.00     0.163 HD
ATOM     31  O   UNL A   1      31.971  35.431  32.405  1.00  0.00    -0.269 OA
BRANCH  29  32
ATOM     32  C   UNL A   1      34.154  34.631  32.053  1.00  0.00     0.039 A 
ATOM     33  C   UNL A   1      34.103  33.315  32.512  1.00  0.00     0.014 A 
ATOM     34  C   UNL A   1      35.367  35.326  32.025  1.00  0.00     0.014 A 
ATOM     35  C   UNL A   1      35.279  32.680  32.906  1.00  0.00     0.010 A 
ATOM     36  C   UNL A   1      36.549  34.666  32.346  1.00  0.00     0.010 A 
ATOM     37  C   UNL A   1      36.515  33.341  32.803  1.00  0.00    -0.014 A 
BRANCH  37  38
ATOM     38  C   UNL A   1      37.771  32.639  33.159  1.00  0.00     0.031 A 
ATOM     39  C   UNL A   1      38.548  33.035  34.383  1.00  0.00     0.074 A 
ATOM     40  C   UNL A   1      38.230  31.667  32.345  1.00  0.00     0.049 A 
ATOM     41  N   UNL A   1      39.639  32.502  34.870  1.00  0.00    -0.248 NA
ATOM     42  C   UNL A   1      38.054  34.191  35.151  1.00  0.00     0.031 C 
ATOM     43  C   UNL A   1      37.608  31.259  31.082  1.00  0.00     0.029 A 
ATOM     44  N   UNL A   1      39.327  30.852  32.451  1.00  0.00    -0.354 N 
ATOM     45  C   UNL A   1      39.979  33.273  35.975  1.00  0.00     0.074 A 
ATOM     46  C   UNL A   1      38.998  34.331  36.072  1.00  0.00     0.031 C 
ATOM     47  C   UNL A   1      38.321  30.258  30.542  1.00  0.00     0.029 A 
ATOM     48  C   UNL A   1      39.462  29.970  31.405  1.00  0.00     0.049 A 
ATOM     49  H   UNL A   1      39.960  30.896  33.204  1.00  0.00     0.167 HD
ATOM     50  C   UNL A   1      41.000  33.098  36.847  1.00  0.00     0.034 A 
ATOM     51  C   UNL A   1      40.397  29.030  31.171  1.00  0.00     0.034 A 
ATOM     52  C   UNL A   1      41.944  32.016  36.769  1.00  0.00     0.049 A 
ATOM     53  C   UNL A   1      41.485  28.823  32.190  1.00  0.00     0.074 A 
ATOM     54  C   UNL A   1      42.952  31.689  37.659  1.00  0.00     0.029 A 
ATOM     55  N   UNL A   1      42.007  31.093  35.737  1.00  0.00    -0.354 N 
ATOM     56  N   UNL A   1      41.680  29.445  33.328  1.00  0.00    -0.248 NA
ATOM     57  C   UNL A   1      42.459  27.758  31.912  1.00  0.00     0.031 C 
ATOM     58  C   UNL A   1      43.644  30.585  37.148  1.00  0.00     0.029 A 
ATOM     59  C   UNL A   1      43.046  30.206  35.957  1.00  0.00     0.049 A 
ATOM     60  H   UNL A   1      41.402  31.072  34.961  1.00  0.00     0.167 HD
ATOM     61  C   UNL A   1      42.776  28.825  33.917  1.00  0.00     0.074 A 
ATOM     62  C   UNL A   1      43.180  27.757  33.024  1.00  0.00     0.031 C 
ATOM     63  C   UNL A   1      43.406  29.122  35.081  1.00  0.00     0.034 A 
BRANCH  50  64
ATOM     64  C   UNL A   1      41.126  34.066  37.994  1.00  0.00     0.023 A 
ATOM     65  C   UNL A   1      41.894  35.238  37.839  1.00  0.00     0.012 A 
ATOM     66  C   UNL A   1      40.419  33.858  39.195  1.00  0.00     0.148 A 
ATOM     67  C   UNL A   1      41.977  36.176  38.868  1.00  0.00     0.002 A 
ATOM     68  C   UNL A   1      40.470  34.818  40.199  1.00  0.00     0.091 A 
ATOM     69  F   UNL A   1      39.712  32.728  39.332  1.00  0.00    -0.205 F 
ATOM     70  C   UNL A   1      41.257  35.971  40.042  1.00  0.00     0.022 A 
BRANCH  68  71
ATOM     71  S   UNL A   1      39.516  34.691  41.715  1.00  0.00     0.127 S 
ATOM     72  O   UNL A   1      38.156  34.545  41.197  1.00  0.00    -0.237 OA
ATOM     73  O   UNL A   1      40.068  33.480  42.324  1.00  0.00    -0.237 OA
ATOM     74  O   UNL A   1      39.770  35.918  42.457  1.00  0.00    -0.744 OA
ENDBRANCH  68  71
ENDBRANCH  50  64
BRANCH  51  75
ATOM     75  C   UNL A   1      40.310  28.164  29.960  1.00  0.00     0.023 A 
ATOM     76  C   UNL A   1      39.371  27.114  29.923  1.00  0.00     0.012 A 
ATOM     77  C   UNL A   1      41.144  28.377  28.846  1.00  0.00     0.148 A 
ATOM     78  C   UNL A   1      39.295  26.266  28.818  1.00  0.00     0.002 A 
ATOM     79  C   UNL A   1      41.022  27.566  27.725  1.00  0.00     0.091 A 
ATOM     80  F   UNL A   1      42.039  29.374  28.902  1.00  0.00    -0.205 F 
ATOM     81  C   UNL A   1      40.114  26.497  27.716  1.00  0.00     0.022 A 
BRANCH  79  82
ATOM     82  S   UNL A   1      41.938  27.881  26.212  1.00  0.00     0.127 S 
ATOM     83  O   UNL A   1      43.316  27.674  26.648  1.00  0.00    -0.237 OA
ATOM     84  O   UNL A   1      41.413  26.849  25.317  1.00  0.00    -0.237 OA
ATOM     85  O   UNL A   1      41.591  29.241  25.821  1.00  0.00    -0.744 OA
ENDBRANCH  79  82
ENDBRANCH  51  75
BRANCH  63  86
ATOM     86  C   UNL A   1      44.579  28.261  35.470  1.00  0.00     0.023 A 
ATOM     87  C   UNL A   1      45.891  28.688  35.179  1.00  0.00     0.012 A 
ATOM     88  C   UNL A   1      44.384  27.051  36.165  1.00  0.00     0.148 A 
ATOM     89  C   UNL A   1      46.987  27.902  35.529  1.00  0.00     0.002 A 
ATOM     90  C   UNL A   1      45.484  26.299  36.559  1.00  0.00     0.091 A 
ATOM     91  F   UNL A   1      43.129  26.652  36.418  1.00  0.00    -0.205 F 
ATOM     92  C   UNL A   1      46.784  26.714  36.228  1.00  0.00     0.022 A 
BRANCH  90  93
ATOM     93  S   UNL A   1      45.321  24.809  37.548  1.00  0.00     0.127 S 
ATOM     94  O   UNL A   1      44.610  25.307  38.724  1.00  0.00    -0.237 OA
ATOM     95  O   UNL A   1      44.526  23.943  36.676  1.00  0.00    -0.237 OA
ATOM     96  O   UNL A   1      46.679  24.338  37.788  1.00  0.00    -0.744 OA
ENDBRANCH  90  93
ENDBRANCH  63  86
ENDBRANCH  37  38
ENDBRANCH  29  32
ENDBRANCH  27  28
ENDBRANCH  26  27
ENDBRANCH  25  26
ENDBRANCH  24  25
ENDBRANCH   1  24
TORSDOF 21
ENDMDL
