MODEL 1
REMARK VINA RESULT:     -11.9      0.000      0.000
REMARK SMILES Cc1ccc(S(=O)(=O)N(CC(=O)NCCCCCCNC(=O)c2ccc(-c3c4nc(c(-c5cccc(S(=O)(=O)[O-])c5F)c5ccc([nH]5)c(-c5cccc(S(=O)(=O)[O-])c5F)c5nc(c(-c6cccc(S(=O)(=O)[O-])c6F)c6ccc3[nH]6)C=C5)C=C4)cc2)c2cc(Cl)cc(Cl)c2)cc1
REMARK SMILES IDX 16 1 15 2 14 3 13 4 11 5 12 6 10 8 9 9 6 10 7 11 8 12 5 13
REMARK SMILES IDX 1 14 2 15 3 16 95 17 4 18 94 19 86 20 87 21 93 22 88 23
REMARK SMILES IDX 91 24 89 25 90 26 92 27 17 28 18 29 19 30 20 31 21 32 22 34
REMARK SMILES IDX 23 35 24 36 85 37 25 38 84 39 26 40 27 41 28 42 78 43 29 44
REMARK SMILES IDX 83 45 77 46 79 47 30 48 82 49 76 50 75 51 31 53 63 54 43 55
REMARK SMILES IDX 62 56 44 57 47 58 61 59 80 60 45 61 46 62 60 64 81 65 48 66
REMARK SMILES IDX 32 67 33 68 41 69 34 70 36 71 42 72 35 73 37 74 38 75 39 76
REMARK SMILES IDX 40 77 64 78 65 79 73 80 66 81 68 82 74 83 67 84 69 85 70 86
REMARK SMILES IDX 71 87 72 88 49 89 50 90 58 91 51 92 53 93 59 94 52 95 54 96
REMARK SMILES IDX 55 97 56 98 57 99
REMARK H PARENT 13 7 20 33 79 52 47 63
REMARK Flexibility Score: inf
ROOT
ATOM      1  C   UNL A   1      35.796  21.895  24.933  1.00  0.00     0.002 C 
ENDROOT
BRANCH   1   2
ATOM      2  C   UNL A   1      34.941  20.631  25.059  1.00  0.00     0.021 C 
BRANCH   2   3
ATOM      3  C   UNL A   1      33.503  20.848  25.525  1.00  0.00     0.116 C 
BRANCH   3   4
ATOM      4  N   UNL A   1      32.537  21.040  24.459  1.00  0.00    -0.355 N 
ATOM      5  C   UNL A   1      32.255  22.121  23.679  1.00  0.00     0.240 C 
ATOM      6  O   UNL A   1      31.540  21.919  22.690  1.00  0.00    -0.273 OA
ATOM      7  H   UNL A   1      31.988  20.247  24.263  1.00  0.00     0.163 HD
BRANCH   5   8
ATOM      8  C   UNL A   1      32.777  23.529  23.947  1.00  0.00     0.235 C 
BRANCH   8   9
ATOM      9  N   UNL A   1      31.828  24.445  24.637  1.00  0.00    -0.257 N 
BRANCH   9  10
ATOM     10  S   UNL A   1      32.228  24.827  26.277  1.00  0.00     0.264 S 
ATOM     11  O   UNL A   1      33.504  24.189  26.541  1.00  0.00    -0.201 OA
ATOM     12  O   UNL A   1      31.066  24.523  27.086  1.00  0.00    -0.201 OA
BRANCH  10  13
ATOM     13  C   UNL A   1      32.517  26.595  26.495  1.00  0.00     0.088 A 
ATOM     14  C   UNL A   1      33.602  30.652  27.537  1.00  0.00     0.044 C 
ATOM     15  C   UNL A   1      33.213  29.264  27.121  1.00  0.00    -0.051 A 
ATOM     16  C   UNL A   1      34.150  28.402  26.543  1.00  0.00     0.005 A 
ATOM     17  C   UNL A   1      31.919  28.793  27.346  1.00  0.00     0.005 A 
ATOM     18  C   UNL A   1      33.806  27.081  26.226  1.00  0.00     0.022 A 
ATOM     19  C   UNL A   1      31.577  27.469  27.050  1.00  0.00     0.022 A 
ENDBRANCH  10  13
ENDBRANCH   9  10
BRANCH   9  20
ATOM     20  C   UNL A   1      31.493  25.591  23.761  1.00  0.00     0.055 A 
ATOM     21  C   UNL A   1      32.553  26.242  23.103  1.00  0.00     0.047 A 
ATOM     22  C   UNL A   1      30.236  26.207  23.736  1.00  0.00     0.047 A 
ATOM     23  C   UNL A   1      32.368  27.479  22.482  1.00  0.00     0.044 A 
ATOM     24  C   UNL A   1      30.055  27.432  23.083  1.00  0.00     0.044 A 
ATOM     25  Cl  UNL A   1      33.721  28.298  21.801  1.00  0.00    -0.084 Cl
ATOM     26  C   UNL A   1      31.119  28.082  22.469  1.00  0.00     0.041 A 
ATOM     27  Cl  UNL A   1      28.505  28.183  23.098  1.00  0.00    -0.084 Cl
ENDBRANCH   9  20
ENDBRANCH   8   9
ENDBRANCH   5   8
ENDBRANCH   3   4
ENDBRANCH   2   3
ENDBRANCH   1   2
BRANCH   1  28
ATOM     28  C   UNL A   1      36.860  22.110  26.019  1.00  0.00     0.002 C 
BRANCH  28  29
ATOM     29  C   UNL A   1      38.311  22.163  25.541  1.00  0.00     0.021 C 
BRANCH  29  30
ATOM     30  C   UNL A   1      39.320  22.519  26.619  1.00  0.00     0.116 C 
BRANCH  30  31
ATOM     31  N   UNL A   1      40.541  23.101  26.085  1.00  0.00    -0.352 N 
ATOM     32  C   UNL A   1      41.125  24.330  26.339  1.00  0.00     0.251 C 
ATOM     33  H   UNL A   1      41.027  22.534  25.444  1.00  0.00     0.163 HD
ATOM     34  O   UNL A   1      42.056  24.699  25.630  1.00  0.00    -0.269 OA
BRANCH  32  35
ATOM     35  C   UNL A   1      40.740  25.089  27.555  1.00  0.00     0.039 A 
ATOM     36  C   UNL A   1      39.489  25.720  27.539  1.00  0.00     0.014 A 
ATOM     37  C   UNL A   1      41.686  25.442  28.510  1.00  0.00     0.014 A 
ATOM     38  C   UNL A   1      39.312  26.902  28.251  1.00  0.00     0.010 A 
ATOM     39  C   UNL A   1      41.560  26.662  29.127  1.00  0.00     0.010 A 
ATOM     40  C   UNL A   1      40.408  27.428  28.920  1.00  0.00    -0.014 A 
BRANCH  40  41
ATOM     41  C   UNL A   1      40.497  28.776  29.445  1.00  0.00     0.031 A 
ATOM     42  C   UNL A   1      39.489  29.767  29.027  1.00  0.00     0.074 A 
ATOM     43  C   UNL A   1      41.324  29.004  30.493  1.00  0.00     0.049 A 
ATOM     44  N   UNL A   1      39.539  31.019  29.318  1.00  0.00    -0.248 NA
ATOM     45  C   UNL A   1      38.336  29.411  28.205  1.00  0.00     0.031 C 
ATOM     46  C   UNL A   1      41.248  30.105  31.448  1.00  0.00     0.029 A 
ATOM     47  N   UNL A   1      42.536  28.379  30.812  1.00  0.00    -0.354 N 
ATOM     48  C   UNL A   1      38.307  31.559  29.020  1.00  0.00     0.074 A 
ATOM     49  C   UNL A   1      37.654  30.559  28.214  1.00  0.00     0.031 C 
ATOM     50  C   UNL A   1      42.453  30.267  32.016  1.00  0.00     0.029 A 
ATOM     51  C   UNL A   1      43.367  29.417  31.276  1.00  0.00     0.049 A 
ATOM     52  H   UNL A   1      42.758  27.424  30.731  1.00  0.00     0.167 HD
ATOM     53  C   UNL A   1      37.949  32.721  29.638  1.00  0.00     0.034 A 
ATOM     54  C   UNL A   1      44.470  29.868  30.600  1.00  0.00     0.034 A 
ATOM     55  C   UNL A   1      39.111  33.304  30.335  1.00  0.00     0.049 A 
ATOM     56  C   UNL A   1      44.425  31.359  30.286  1.00  0.00     0.074 A 
ATOM     57  C   UNL A   1      39.508  33.351  31.660  1.00  0.00     0.029 A 
ATOM     58  N   UNL A   1      40.211  33.707  29.584  1.00  0.00    -0.354 N 
ATOM     59  N   UNL A   1      43.365  32.109  30.417  1.00  0.00    -0.248 NA
ATOM     60  C   UNL A   1      45.568  32.123  29.793  1.00  0.00     0.031 C 
ATOM     61  C   UNL A   1      40.888  33.704  31.692  1.00  0.00     0.029 A 
ATOM     62  C   UNL A   1      41.318  33.908  30.392  1.00  0.00     0.049 A 
ATOM     63  H   UNL A   1      40.203  33.833  28.607  1.00  0.00     0.167 HD
ATOM     64  C   UNL A   1      43.608  33.374  29.943  1.00  0.00     0.074 A 
ATOM     65  C   UNL A   1      45.029  33.347  29.637  1.00  0.00     0.031 C 
ATOM     66  C   UNL A   1      42.598  34.297  29.798  1.00  0.00     0.034 A 
BRANCH  53  67
ATOM     67  C   UNL A   1      36.526  33.233  29.849  1.00  0.00     0.023 A 
ATOM     68  C   UNL A   1      35.816  33.638  28.695  1.00  0.00     0.012 A 
ATOM     69  C   UNL A   1      35.857  33.446  31.079  1.00  0.00     0.148 A 
ATOM     70  C   UNL A   1      34.567  34.272  28.755  1.00  0.00     0.002 A 
ATOM     71  C   UNL A   1      34.610  34.081  31.145  1.00  0.00     0.091 A 
ATOM     72  F   UNL A   1      36.398  33.037  32.222  1.00  0.00    -0.205 F 
ATOM     73  C   UNL A   1      33.967  34.505  29.982  1.00  0.00     0.022 A 
BRANCH  71  74
ATOM     74  S   UNL A   1      33.776  34.427  32.708  1.00  0.00     0.127 S 
ATOM     75  O   UNL A   1      34.740  35.296  33.383  1.00  0.00    -0.237 OA
ATOM     76  O   UNL A   1      32.555  35.102  32.269  1.00  0.00    -0.237 OA
ATOM     77  O   UNL A   1      33.563  33.141  33.362  1.00  0.00    -0.744 OA
ENDBRANCH  71  74
ENDBRANCH  53  67
BRANCH  54  78
ATOM     78  C   UNL A   1      45.125  28.820  29.757  1.00  0.00     0.023 A 
ATOM     79  C   UNL A   1      45.612  27.676  30.435  1.00  0.00     0.012 A 
ATOM     80  C   UNL A   1      44.913  28.744  28.370  1.00  0.00     0.148 A 
ATOM     81  C   UNL A   1      45.706  26.444  29.787  1.00  0.00     0.002 A 
ATOM     82  C   UNL A   1      45.031  27.512  27.723  1.00  0.00     0.091 A 
ATOM     83  F   UNL A   1      44.540  29.850  27.713  1.00  0.00    -0.205 F 
ATOM     84  C   UNL A   1      45.373  26.354  28.441  1.00  0.00     0.022 A 
BRANCH  82  85
ATOM     85  S   UNL A   1      44.640  27.320  25.977  1.00  0.00     0.127 S 
ATOM     86  O   UNL A   1      43.213  27.626  25.961  1.00  0.00    -0.237 OA
ATOM     87  O   UNL A   1      45.493  28.329  25.348  1.00  0.00    -0.237 OA
ATOM     88  O   UNL A   1      45.013  25.948  25.663  1.00  0.00    -0.744 OA
ENDBRANCH  82  85
ENDBRANCH  54  78
BRANCH  66  89
ATOM     89  C   UNL A   1      42.681  35.640  29.067  1.00  0.00     0.023 A 
ATOM     90  C   UNL A   1      41.992  35.906  27.871  1.00  0.00     0.012 A 
ATOM     91  C   UNL A   1      43.372  36.746  29.642  1.00  0.00     0.148 A 
ATOM     92  C   UNL A   1      42.009  37.168  27.257  1.00  0.00     0.002 A 
ATOM     93  C   UNL A   1      43.289  38.026  29.092  1.00  0.00     0.091 A 
ATOM     94  F   UNL A   1      44.149  36.571  30.719  1.00  0.00    -0.205 F 
ATOM     95  C   UNL A   1      42.632  38.236  27.882  1.00  0.00     0.022 A 
BRANCH  93  96
ATOM     96  S   UNL A   1      43.883  39.463  29.997  1.00  0.00     0.127 S 
ATOM     97  O   UNL A   1      43.073  40.538  29.428  1.00  0.00    -0.237 OA
ATOM     98  O   UNL A   1      43.551  39.122  31.383  1.00  0.00    -0.237 OA
ATOM     99  O   UNL A   1      45.312  39.515  29.725  1.00  0.00    -0.744 OA
ENDBRANCH  93  96
ENDBRANCH  66  89
ENDBRANCH  40  41
ENDBRANCH  32  35
ENDBRANCH  30  31
ENDBRANCH  29  30
ENDBRANCH  28  29
ENDBRANCH   1  28
TORSDOF 20
ENDMDL
MODEL 2
REMARK VINA RESULT:     -11.1      5.641     12.672
REMARK SMILES Cc1ccc(S(=O)(=O)N(CC(=O)NCCCCCCNC(=O)c2ccc(-c3c4nc(c(-c5cccc(S(=O)(=O)[O-])c5F)c5ccc([nH]5)c(-c5cccc(S(=O)(=O)[O-])c5F)c5nc(c(-c6cccc(S(=O)(=O)[O-])c6F)c6ccc3[nH]6)C=C5)C=C4)cc2)c2cc(Cl)cc(Cl)c2)cc1
REMARK SMILES IDX 16 1 15 2 14 3 13 4 11 5 12 6 10 8 9 9 6 10 7 11 8 12 5 13
REMARK SMILES IDX 1 14 2 15 3 16 95 17 4 18 94 19 86 20 87 21 93 22 88 23
REMARK SMILES IDX 91 24 89 25 90 26 92 27 17 28 18 29 19 30 20 31 21 32 22 34
REMARK SMILES IDX 23 35 24 36 85 37 25 38 84 39 26 40 27 41 28 42 78 43 29 44
REMARK SMILES IDX 83 45 77 46 79 47 30 48 82 49 76 50 75 51 31 53 63 54 43 55
REMARK SMILES IDX 62 56 44 57 47 58 61 59 80 60 45 61 46 62 60 64 81 65 48 66
REMARK SMILES IDX 32 67 33 68 41 69 34 70 36 71 42 72 35 73 37 74 38 75 39 76
REMARK SMILES IDX 40 77 64 78 65 79 73 80 66 81 68 82 74 83 67 84 69 85 70 86
REMARK SMILES IDX 71 87 72 88 49 89 50 90 58 91 51 92 53 93 59 94 52 95 54 96
REMARK SMILES IDX 55 97 56 98 57 99
REMARK H PARENT 13 7 20 33 79 52 47 63
REMARK Flexibility Score: inf
ROOT
ATOM      1  C   UNL A   1      40.587  34.091  30.243  1.00  0.00     0.002 C 
ENDROOT
BRANCH   1   2
ATOM      2  C   UNL A   1      41.083  34.937  29.066  1.00  0.00     0.021 C 
BRANCH   2   3
ATOM      3  C   UNL A   1      42.564  34.790  28.723  1.00  0.00     0.116 C 
BRANCH   3   4
ATOM      4  N   UNL A   1      43.397  34.307  29.809  1.00  0.00    -0.355 N 
ATOM      5  C   UNL A   1      44.672  33.826  29.825  1.00  0.00     0.240 C 
ATOM      6  O   UNL A   1      45.206  33.709  30.935  1.00  0.00    -0.273 OA
ATOM      7  H   UNL A   1      42.964  34.333  30.692  1.00  0.00     0.163 HD
BRANCH   5   8
ATOM      8  C   UNL A   1      45.460  33.449  28.575  1.00  0.00     0.235 C 
BRANCH   8   9
ATOM      9  N   UNL A   1      45.540  31.992  28.282  1.00  0.00    -0.257 N 
BRANCH   9  10
ATOM     10  S   UNL A   1      45.268  31.553  26.629  1.00  0.00     0.264 S 
ATOM     11  O   UNL A   1      46.561  31.171  26.093  1.00  0.00    -0.201 OA
ATOM     12  O   UNL A   1      44.500  32.619  26.021  1.00  0.00    -0.201 OA
BRANCH  10  13
ATOM     13  C   UNL A   1      44.234  30.080  26.496  1.00  0.00     0.088 A 
ATOM     14  C   UNL A   1      41.973  26.517  25.536  1.00  0.00     0.044 C 
ATOM     15  C   UNL A   1      42.754  27.738  25.927  1.00  0.00    -0.051 A 
ATOM     16  C   UNL A   1      44.146  27.686  26.049  1.00  0.00     0.005 A 
ATOM     17  C   UNL A   1      42.108  28.957  26.130  1.00  0.00     0.005 A 
ATOM     18  C   UNL A   1      44.882  28.844  26.337  1.00  0.00     0.022 A 
ATOM     19  C   UNL A   1      42.841  30.120  26.398  1.00  0.00     0.022 A 
ENDBRANCH  10  13
ENDBRANCH   9  10
BRANCH   9  20
ATOM     20  C   UNL A   1      46.737  31.404  28.926  1.00  0.00     0.055 A 
ATOM     21  C   UNL A   1      47.864  32.231  29.086  1.00  0.00     0.047 A 
ATOM     22  C   UNL A   1      46.896  30.034  29.163  1.00  0.00     0.047 A 
ATOM     23  C   UNL A   1      49.109  31.698  29.429  1.00  0.00     0.044 A 
ATOM     24  C   UNL A   1      48.142  29.516  29.538  1.00  0.00     0.044 A 
ATOM     25  Cl  UNL A   1      50.487  32.730  29.490  1.00  0.00    -0.084 Cl
ATOM     26  C   UNL A   1      49.255  30.338  29.656  1.00  0.00     0.041 A 
ATOM     27  Cl  UNL A   1      48.316  27.820  29.789  1.00  0.00    -0.084 Cl
ENDBRANCH   9  20
ENDBRANCH   8   9
ENDBRANCH   5   8
ENDBRANCH   3   4
ENDBRANCH   2   3
ENDBRANCH   1   2
BRANCH   1  28
ATOM     28  C   UNL A   1      39.203  34.447  30.803  1.00  0.00     0.002 C 
BRANCH  28  29
ATOM     29  C   UNL A   1      38.076  33.462  30.496  1.00  0.00     0.021 C 
BRANCH  29  30
ATOM     30  C   UNL A   1      37.820  33.232  29.017  1.00  0.00     0.116 C 
BRANCH  30  31
ATOM     31  N   UNL A   1      36.421  32.972  28.716  1.00  0.00    -0.352 N 
ATOM     32  C   UNL A   1      35.817  31.832  28.214  1.00  0.00     0.251 C 
ATOM     33  H   UNL A   1      35.809  33.721  28.898  1.00  0.00     0.163 HD
ATOM     34  O   UNL A   1      34.646  31.895  27.853  1.00  0.00    -0.269 OA
BRANCH  32  35
ATOM     35  C   UNL A   1      36.529  30.531  28.284  1.00  0.00     0.039 A 
ATOM     36  C   UNL A   1      36.484  29.849  29.507  1.00  0.00     0.014 A 
ATOM     37  C   UNL A   1      37.464  30.172  27.320  1.00  0.00     0.014 A 
ATOM     38  C   UNL A   1      37.558  29.049  29.882  1.00  0.00     0.010 A 
ATOM     39  C   UNL A   1      38.576  29.476  27.723  1.00  0.00     0.010 A 
ATOM     40  C   UNL A   1      38.656  28.996  29.035  1.00  0.00    -0.014 A 
BRANCH  40  41
ATOM     41  C   UNL A   1      39.962  28.479  29.392  1.00  0.00     0.031 A 
ATOM     42  C   UNL A   1      40.275  27.072  29.084  1.00  0.00     0.074 A 
ATOM     43  C   UNL A   1      40.929  29.361  29.739  1.00  0.00     0.049 A 
ATOM     44  N   UNL A   1      41.342  26.466  29.468  1.00  0.00    -0.248 NA
ATOM     45  C   UNL A   1      39.368  26.217  28.324  1.00  0.00     0.031 C 
ATOM     46  C   UNL A   1      42.372  29.146  29.692  1.00  0.00     0.029 A 
ATOM     47  N   UNL A   1      40.805  30.594  30.393  1.00  0.00    -0.354 N 
ATOM     48  C   UNL A   1      41.423  25.287  28.758  1.00  0.00     0.074 A 
ATOM     49  C   UNL A   1      40.118  25.122  28.173  1.00  0.00     0.031 C 
ATOM     50  C   UNL A   1      42.964  30.013  30.528  1.00  0.00     0.029 A 
ATOM     51  C   UNL A   1      41.897  30.644  31.281  1.00  0.00     0.049 A 
ATOM     52  H   UNL A   1      40.108  31.275  30.260  1.00  0.00     0.167 HD
ATOM     53  C   UNL A   1      42.646  24.695  28.636  1.00  0.00     0.034 A 
ATOM     54  C   UNL A   1      41.772  30.591  32.643  1.00  0.00     0.034 A 
ATOM     55  C   UNL A   1      43.616  25.342  29.538  1.00  0.00     0.049 A 
ATOM     56  C   UNL A   1      42.555  29.450  33.283  1.00  0.00     0.074 A 
ATOM     57  C   UNL A   1      44.639  26.256  29.347  1.00  0.00     0.029 A 
ATOM     58  N   UNL A   1      43.404  25.276  30.911  1.00  0.00    -0.354 N 
ATOM     59  N   UNL A   1      43.101  28.467  32.619  1.00  0.00    -0.248 NA
ATOM     60  C   UNL A   1      42.779  29.319  34.721  1.00  0.00     0.031 C 
ATOM     61  C   UNL A   1      44.980  26.804  30.617  1.00  0.00     0.029 A 
ATOM     62  C   UNL A   1      44.193  26.197  31.581  1.00  0.00     0.049 A 
ATOM     63  H   UNL A   1      42.776  24.656  31.349  1.00  0.00     0.167 HD
ATOM     64  C   UNL A   1      43.630  27.538  33.482  1.00  0.00     0.074 A 
ATOM     65  C   UNL A   1      43.468  28.164  34.784  1.00  0.00     0.031 C 
ATOM     66  C   UNL A   1      44.096  26.324  33.037  1.00  0.00     0.034 A 
BRANCH  53  67
ATOM     67  C   UNL A   1      43.069  23.709  27.549  1.00  0.00     0.023 A 
ATOM     68  C   UNL A   1      42.272  22.551  27.392  1.00  0.00     0.012 A 
ATOM     69  C   UNL A   1      44.227  23.763  26.735  1.00  0.00     0.148 A 
ATOM     70  C   UNL A   1      42.629  21.492  26.547  1.00  0.00     0.002 A 
ATOM     71  C   UNL A   1      44.589  22.707  25.890  1.00  0.00     0.091 A 
ATOM     72  F   UNL A   1      45.009  24.837  26.745  1.00  0.00    -0.205 F 
ATOM     73  C   UNL A   1      43.796  21.563  25.803  1.00  0.00     0.022 A 
BRANCH  71  74
ATOM     74  S   UNL A   1      46.100  22.727  24.901  1.00  0.00     0.127 S 
ATOM     75  O   UNL A   1      45.655  23.395  23.678  1.00  0.00    -0.237 OA
ATOM     76  O   UNL A   1      47.007  23.520  25.731  1.00  0.00    -0.237 OA
ATOM     77  O   UNL A   1      46.498  21.336  24.717  1.00  0.00    -0.744 OA
ENDBRANCH  71  74
ENDBRANCH  53  67
BRANCH  54  78
ATOM     78  C   UNL A   1      40.479  31.149  33.149  1.00  0.00     0.023 A 
ATOM     79  C   UNL A   1      39.458  30.214  33.443  1.00  0.00     0.012 A 
ATOM     80  C   UNL A   1      40.393  32.439  33.700  1.00  0.00     0.148 A 
ATOM     81  C   UNL A   1      38.484  30.492  34.402  1.00  0.00     0.002 A 
ATOM     82  C   UNL A   1      39.402  32.719  34.643  1.00  0.00     0.091 A 
ATOM     83  F   UNL A   1      41.308  33.352  33.350  1.00  0.00    -0.205 F 
ATOM     84  C   UNL A   1      38.484  31.730  35.034  1.00  0.00     0.022 A 
BRANCH  82  85
ATOM     85  S   UNL A   1      39.321  34.305  35.487  1.00  0.00     0.127 S 
ATOM     86  O   UNL A   1      38.800  35.171  34.435  1.00  0.00    -0.237 OA
ATOM     87  O   UNL A   1      38.387  34.035  36.581  1.00  0.00    -0.237 OA
ATOM     88  O   UNL A   1      40.686  34.563  35.923  1.00  0.00    -0.744 OA
ENDBRANCH  82  85
ENDBRANCH  54  78
BRANCH  66  89
ATOM     89  C   UNL A   1      44.481  25.118  33.898  1.00  0.00     0.023 A 
ATOM     90  C   UNL A   1      43.688  23.960  33.996  1.00  0.00     0.012 A 
ATOM     91  C   UNL A   1      45.745  25.058  34.553  1.00  0.00     0.148 A 
ATOM     92  C   UNL A   1      44.094  22.829  34.721  1.00  0.00     0.002 A 
ATOM     93  C   UNL A   1      46.194  23.891  35.172  1.00  0.00     0.091 A 
ATOM     94  F   UNL A   1      46.526  26.146  34.614  1.00  0.00    -0.205 F 
ATOM     95  C   UNL A   1      45.359  22.783  35.284  1.00  0.00     0.022 A 
BRANCH  93  96
ATOM     96  S   UNL A   1      47.906  23.722  35.701  1.00  0.00     0.127 S 
ATOM     97  O   UNL A   1      47.948  24.586  36.878  1.00  0.00    -0.237 OA
ATOM     98  O   UNL A   1      48.005  22.290  35.995  1.00  0.00    -0.237 OA
ATOM     99  O   UNL A   1      48.697  24.148  34.555  1.00  0.00    -0.744 OA
ENDBRANCH  93  96
ENDBRANCH  66  89
ENDBRANCH  40  41
ENDBRANCH  32  35
ENDBRANCH  30  31
ENDBRANCH  29  30
ENDBRANCH  28  29
ENDBRANCH   1  28
TORSDOF 20
ENDMDL
MODEL 3
REMARK VINA RESULT:     -10.9      4.998      8.875
REMARK SMILES Cc1ccc(S(=O)(=O)N(CC(=O)NCCCCCCNC(=O)c2ccc(-c3c4nc(c(-c5cccc(S(=O)(=O)[O-])c5F)c5ccc([nH]5)c(-c5cccc(S(=O)(=O)[O-])c5F)c5nc(c(-c6cccc(S(=O)(=O)[O-])c6F)c6ccc3[nH]6)C=C5)C=C4)cc2)c2cc(Cl)cc(Cl)c2)cc1
REMARK SMILES IDX 16 1 15 2 14 3 13 4 11 5 12 6 10 8 9 9 6 10 7 11 8 12 5 13
REMARK SMILES IDX 1 14 2 15 3 16 95 17 4 18 94 19 86 20 87 21 93 22 88 23
REMARK SMILES IDX 91 24 89 25 90 26 92 27 17 28 18 29 19 30 20 31 21 32 22 34
REMARK SMILES IDX 23 35 24 36 85 37 25 38 84 39 26 40 27 41 28 42 78 43 29 44
REMARK SMILES IDX 83 45 77 46 79 47 30 48 82 49 76 50 75 51 31 53 63 54 43 55
REMARK SMILES IDX 62 56 44 57 47 58 61 59 80 60 45 61 46 62 60 64 81 65 48 66
REMARK SMILES IDX 32 67 33 68 41 69 34 70 36 71 42 72 35 73 37 74 38 75 39 76
REMARK SMILES IDX 40 77 64 78 65 79 73 80 66 81 68 82 74 83 67 84 69 85 70 86
REMARK SMILES IDX 71 87 72 88 49 89 50 90 58 91 51 92 53 93 59 94 52 95 54 96
REMARK SMILES IDX 55 97 56 98 57 99
REMARK H PARENT 13 7 20 33 79 52 47 63
REMARK Flexibility Score: inf
ROOT
ATOM      1  C   UNL A   1      38.456  29.090  28.633  1.00  0.00     0.002 C 
ENDROOT
BRANCH   1   2
ATOM      2  C   UNL A   1      39.792  28.395  28.354  1.00  0.00     0.021 C 
BRANCH   2   3
ATOM      3  C   UNL A   1      39.967  27.840  26.942  1.00  0.00     0.116 C 
BRANCH   3   4
ATOM      4  N   UNL A   1      41.245  28.137  26.324  1.00  0.00    -0.355 N 
ATOM      5  C   UNL A   1      42.126  27.349  25.644  1.00  0.00     0.240 C 
ATOM      6  O   UNL A   1      43.027  27.931  25.026  1.00  0.00    -0.273 OA
ATOM      7  H   UNL A   1      41.528  29.076  26.410  1.00  0.00     0.163 HD
BRANCH   5   8
ATOM      8  C   UNL A   1      42.049  25.827  25.595  1.00  0.00     0.235 C 
BRANCH   8   9
ATOM      9  N   UNL A   1      42.702  25.114  26.726  1.00  0.00    -0.257 N 
BRANCH   9  10
ATOM     10  S   UNL A   1      41.628  24.255  27.777  1.00  0.00     0.264 S 
ATOM     11  O   UNL A   1      41.014  25.253  28.633  1.00  0.00    -0.201 OA
ATOM     12  O   UNL A   1      42.372  23.149  28.344  1.00  0.00    -0.201 OA
BRANCH  10  13
ATOM     13  C   UNL A   1      40.267  23.500  26.863  1.00  0.00     0.088 A 
ATOM     14  C   UNL A   1      36.675  21.696  25.261  1.00  0.00     0.044 C 
ATOM     15  C   UNL A   1      37.935  22.339  25.761  1.00  0.00    -0.051 A 
ATOM     16  C   UNL A   1      37.948  23.686  26.138  1.00  0.00     0.005 A 
ATOM     17  C   UNL A   1      39.104  21.592  25.903  1.00  0.00     0.005 A 
ATOM     18  C   UNL A   1      39.105  24.265  26.679  1.00  0.00     0.022 A 
ATOM     19  C   UNL A   1      40.255  22.161  26.461  1.00  0.00     0.022 A 
ENDBRANCH  10  13
ENDBRANCH   9  10
BRANCH   9  20
ATOM     20  C   UNL A   1      43.886  24.366  26.247  1.00  0.00     0.055 A 
ATOM     21  C   UNL A   1      45.156  24.842  26.624  1.00  0.00     0.047 A 
ATOM     22  C   UNL A   1      43.830  23.375  25.260  1.00  0.00     0.047 A 
ATOM     23  C   UNL A   1      46.317  24.372  26.007  1.00  0.00     0.044 A 
ATOM     24  C   UNL A   1      45.004  22.887  24.672  1.00  0.00     0.044 A 
ATOM     25  Cl  UNL A   1      47.837  25.074  26.411  1.00  0.00    -0.084 Cl
ATOM     26  C   UNL A   1      46.248  23.393  25.027  1.00  0.00     0.041 A 
ATOM     27  Cl  UNL A   1      44.902  21.691  23.436  1.00  0.00    -0.084 Cl
ENDBRANCH   9  20
ENDBRANCH   8   9
ENDBRANCH   5   8
ENDBRANCH   3   4
ENDBRANCH   2   3
ENDBRANCH   1   2
BRANCH   1  28
ATOM     28  C   UNL A   1      37.856  29.905  27.479  1.00  0.00     0.002 C 
BRANCH  28  29
ATOM     29  C   UNL A   1      36.332  29.899  27.367  1.00  0.00     0.021 C 
BRANCH  29  30
ATOM     30  C   UNL A   1      35.599  29.934  28.697  1.00  0.00     0.116 C 
BRANCH  30  31
ATOM     31  N   UNL A   1      35.047  31.243  29.007  1.00  0.00    -0.352 N 
ATOM     32  C   UNL A   1      35.594  32.290  29.728  1.00  0.00     0.251 C 
ATOM     33  H   UNL A   1      34.146  31.411  28.648  1.00  0.00     0.163 HD
ATOM     34  O   UNL A   1      34.875  33.236  30.033  1.00  0.00    -0.269 OA
BRANCH  32  35
ATOM     35  C   UNL A   1      37.059  32.333  29.964  1.00  0.00     0.039 A 
ATOM     36  C   UNL A   1      37.586  31.391  30.856  1.00  0.00     0.014 A 
ATOM     37  C   UNL A   1      37.812  33.443  29.598  1.00  0.00     0.014 A 
ATOM     38  C   UNL A   1      38.704  31.720  31.615  1.00  0.00     0.010 A 
ATOM     39  C   UNL A   1      38.847  33.823  30.417  1.00  0.00     0.010 A 
ATOM     40  C   UNL A   1      39.228  32.998  31.480  1.00  0.00    -0.014 A 
BRANCH  40  41
ATOM     41  C   UNL A   1      40.174  33.613  32.390  1.00  0.00     0.031 A 
ATOM     42  C   UNL A   1      39.661  34.287  33.596  1.00  0.00     0.074 A 
ATOM     43  C   UNL A   1      41.487  33.316  32.248  1.00  0.00     0.049 A 
ATOM     44  N   UNL A   1      40.385  34.979  34.403  1.00  0.00    -0.248 NA
ATOM     45  C   UNL A   1      38.251  34.253  33.971  1.00  0.00     0.031 C 
ATOM     46  C   UNL A   1      42.528  33.428  33.265  1.00  0.00     0.029 A 
ATOM     47  N   UNL A   1      42.204  33.019  31.081  1.00  0.00    -0.354 N 
ATOM     48  C   UNL A   1      39.638  35.198  35.540  1.00  0.00     0.074 A 
ATOM     49  C   UNL A   1      38.292  34.849  35.166  1.00  0.00     0.031 C 
ATOM     50  C   UNL A   1      43.721  33.511  32.655  1.00  0.00     0.029 A 
ATOM     51  C   UNL A   1      43.441  33.672  31.240  1.00  0.00     0.049 A 
ATOM     52  H   UNL A   1      41.907  32.474  30.318  1.00  0.00     0.167 HD
ATOM     53  C   UNL A   1      40.299  35.494  36.695  1.00  0.00     0.034 A 
ATOM     54  C   UNL A   1      43.836  34.747  30.489  1.00  0.00     0.034 A 
ATOM     55  C   UNL A   1      41.719  35.772  36.411  1.00  0.00     0.049 A 
ATOM     56  C   UNL A   1      44.184  35.977  31.320  1.00  0.00     0.074 A 
ATOM     57  C   UNL A   1      42.886  35.043  36.563  1.00  0.00     0.029 A 
ATOM     58  N   UNL A   1      42.042  36.863  35.609  1.00  0.00    -0.354 N 
ATOM     59  N   UNL A   1      43.917  36.107  32.591  1.00  0.00    -0.248 NA
ATOM     60  C   UNL A   1      44.852  37.161  30.785  1.00  0.00     0.031 C 
ATOM     61  C   UNL A   1      43.896  35.662  35.771  1.00  0.00     0.029 A 
ATOM     62  C   UNL A   1      43.354  36.785  35.170  1.00  0.00     0.049 A 
ATOM     63  H   UNL A   1      41.421  37.593  35.385  1.00  0.00     0.167 HD
ATOM     64  C   UNL A   1      44.243  37.368  33.026  1.00  0.00     0.074 A 
ATOM     65  C   UNL A   1      44.898  37.959  31.869  1.00  0.00     0.031 C 
ATOM     66  C   UNL A   1      43.889  37.815  34.277  1.00  0.00     0.034 A 
BRANCH  53  67
ATOM     67  C   UNL A   1      39.772  35.302  38.115  1.00  0.00     0.023 A 
ATOM     68  C   UNL A   1      39.413  36.471  38.826  1.00  0.00     0.012 A 
ATOM     69  C   UNL A   1      39.686  34.095  38.852  1.00  0.00     0.148 A 
ATOM     70  C   UNL A   1      39.064  36.458  40.183  1.00  0.00     0.002 A 
ATOM     71  C   UNL A   1      39.341  34.077  40.209  1.00  0.00     0.091 A 
ATOM     72  F   UNL A   1      39.928  32.928  38.265  1.00  0.00    -0.205 F 
ATOM     73  C   UNL A   1      39.040  35.261  40.881  1.00  0.00     0.022 A 
BRANCH  71  74
ATOM     74  S   UNL A   1      39.299  32.556  41.181  1.00  0.00     0.127 S 
ATOM     75  O   UNL A   1      38.922  33.051  42.506  1.00  0.00    -0.237 OA
ATOM     76  O   UNL A   1      38.260  31.780  40.505  1.00  0.00    -0.237 OA
ATOM     77  O   UNL A   1      40.636  31.978  41.112  1.00  0.00    -0.744 OA
ENDBRANCH  71  74
ENDBRANCH  53  67
BRANCH  54  78
ATOM     78  C   UNL A   1      43.248  34.764  29.113  1.00  0.00     0.023 A 
ATOM     79  C   UNL A   1      42.388  35.846  28.806  1.00  0.00     0.012 A 
ATOM     80  C   UNL A   1      43.810  34.028  28.056  1.00  0.00     0.148 A 
ATOM     81  C   UNL A   1      42.242  36.297  27.494  1.00  0.00     0.002 A 
ATOM     82  C   UNL A   1      43.641  34.471  26.743  1.00  0.00     0.091 A 
ATOM     83  F   UNL A   1      44.550  32.949  28.345  1.00  0.00    -0.205 F 
ATOM     84  C   UNL A   1      42.905  35.635  26.468  1.00  0.00     0.022 A 
BRANCH  82  85
ATOM     85  S   UNL A   1      44.448  33.654  25.358  1.00  0.00     0.127 S 
ATOM     86  O   UNL A   1      43.905  34.395  24.224  1.00  0.00    -0.237 OA
ATOM     87  O   UNL A   1      45.865  33.896  25.629  1.00  0.00    -0.237 OA
ATOM     88  O   UNL A   1      44.053  32.258  25.470  1.00  0.00    -0.744 OA
ENDBRANCH  82  85
ENDBRANCH  54  78
BRANCH  66  89
ATOM     89  C   UNL A   1      43.972  39.254  34.795  1.00  0.00     0.023 A 
ATOM     90  C   UNL A   1      44.595  39.597  36.008  1.00  0.00     0.012 A 
ATOM     91  C   UNL A   1      43.526  40.348  33.997  1.00  0.00     0.148 A 
ATOM     92  C   UNL A   1      44.738  40.928  36.430  1.00  0.00     0.002 A 
ATOM     93  C   UNL A   1      43.776  41.670  34.365  1.00  0.00     0.091 A 
ATOM     94  F   UNL A   1      42.822  40.124  32.879  1.00  0.00    -0.205 F 
ATOM     95  C   UNL A   1      44.356  41.966  35.595  1.00  0.00     0.022 A 
BRANCH  93  96
ATOM     96  S   UNL A   1      43.508  43.020  33.205  1.00  0.00     0.127 S 
ATOM     97  O   UNL A   1      42.083  42.891  32.912  1.00  0.00    -0.237 OA
ATOM     98  O   UNL A   1      43.860  44.196  34.004  1.00  0.00    -0.237 OA
ATOM     99  O   UNL A   1      44.422  42.756  32.103  1.00  0.00    -0.744 OA
ENDBRANCH  93  96
ENDBRANCH  66  89
ENDBRANCH  40  41
ENDBRANCH  32  35
ENDBRANCH  30  31
ENDBRANCH  29  30
ENDBRANCH  28  29
ENDBRANCH   1  28
TORSDOF 20
ENDMDL
