MODEL 1
REMARK VINA RESULT:     -11.4      0.000      0.000
REMARK SMILES O=C(Cn1c(=O)c2c3c(sc2n(Cc2ccc(Cl)cc2Cl)c1=O)CCCC3)NCCCCCCNC(=O)c1ccc(-c2c3nc(c(-c4cccc(S(=O)(=O)[O-])c4F)c4ccc([nH]4)c(-c4cccc(S(=O)(=O)[O-])c4F)c4nc(c(-c5cccc(S(=O)(=O)[O-])c5F)c5ccc2[nH]5)C=C4)C=C3)cc1
REMARK SMILES IDX 31 1 30 2 29 3 28 4 1 5 2 6 3 8 4 9 5 10 22 11 6 12 7 13
REMARK SMILES IDX 12 14 23 15 8 16 11 17 9 18 27 19 10 20 24 21 26 22 25 23
REMARK SMILES IDX 13 24 14 25 15 26 20 27 16 28 19 29 21 30 17 31 18 32 32 33
REMARK SMILES IDX 33 34 34 35 35 36 36 37 37 39 38 40 39 41 100 42 40 43 99 44
REMARK SMILES IDX 41 45 42 46 43 47 93 48 44 49 98 50 92 51 94 52 45 53 97 54
REMARK SMILES IDX 91 55 90 56 46 58 78 59 58 60 77 61 59 62 62 63 76 64 95 65
REMARK SMILES IDX 60 66 61 67 75 69 96 70 63 71 47 72 48 73 56 74 49 75 51 76
REMARK SMILES IDX 57 77 50 78 52 79 53 80 54 81 55 82 79 83 80 84 88 85 81 86
REMARK SMILES IDX 83 87 89 88 82 89 84 90 85 91 86 92 87 93 64 94 65 95 73 96
REMARK SMILES IDX 66 97 68 98 74 99 67 100 69 101 70 102 71 103 72 104
REMARK H PARENT 28 7 35 38 94 57 62 68
REMARK Flexibility Score: inf
ROOT
ATOM      1  C   UNL A   1      41.661  40.185  28.876  1.00  0.00     0.002 C 
ENDROOT
BRANCH   1   2
ATOM      2  C   UNL A   1      40.781  40.959  29.865  1.00  0.00     0.021 C 
BRANCH   2   3
ATOM      3  C   UNL A   1      41.535  41.796  30.898  1.00  0.00     0.116 C 
BRANCH   3   4
ATOM      4  N   UNL A   1      42.736  42.451  30.395  1.00  0.00    -0.355 N 
ATOM      5  O   UNL A   1      42.685  44.183  31.890  1.00  0.00    -0.273 OA
ATOM      6  C   UNL A   1      43.319  43.489  31.095  1.00  0.00     0.240 C 
ATOM      7  H   UNL A   1      43.134  42.152  29.546  1.00  0.00     0.163 HD
BRANCH   6   8
ATOM      8  C   UNL A   1      44.781  43.849  30.757  1.00  0.00     0.230 C 
BRANCH   8   9
ATOM      9  N   UNL A   1      45.428  43.193  29.620  1.00  0.00    -0.250 N 
ATOM     10  C   UNL A   1      46.370  42.216  29.911  1.00  0.00     0.265 A 
ATOM     11  C   UNL A   1      45.442  43.902  28.402  1.00  0.00     0.332 A 
ATOM     12  O   UNL A   1      46.810  41.977  31.038  1.00  0.00    -0.268 OA
ATOM     13  C   UNL A   1      46.812  41.482  28.759  1.00  0.00     0.079 A 
ATOM     14  N   UNL A   1      46.087  43.303  27.304  1.00  0.00    -0.280 N 
ATOM     15  O   UNL A   1      44.949  45.030  28.314  1.00  0.00    -0.247 OA
ATOM     16  C   UNL A   1      47.480  40.219  28.673  1.00  0.00    -0.019 A 
ATOM     17  C   UNL A   1      46.640  42.051  27.525  1.00  0.00     0.113 A 
ATOM     18  C   UNL A   1      47.834  39.942  27.365  1.00  0.00     0.011 A 
ATOM     19  C   UNL A   1      47.847  39.304  29.804  1.00  0.00     0.037 C 
ATOM     20  S   UNL A   1      47.189  41.064  26.274  1.00  0.00    -0.122 S 
ATOM     21  C   UNL A   1      48.659  38.782  26.912  1.00  0.00     0.047 C 
ATOM     22  C   UNL A   1      48.356  37.946  29.286  1.00  0.00     0.005 C 
ATOM     23  C   UNL A   1      49.338  38.119  28.119  1.00  0.00     0.006 C 
BRANCH  14  24
ATOM     24  C   UNL A   1      46.192  44.048  26.027  1.00  0.00     0.165 C 
BRANCH  24  25
ATOM     25  C   UNL A   1      45.069  43.714  25.047  1.00  0.00    -0.009 A 
ATOM     26  C   UNL A   1      44.151  42.705  25.398  1.00  0.00     0.008 A 
ATOM     27  C   UNL A   1      44.877  44.365  23.813  1.00  0.00     0.047 A 
ATOM     28  C   UNL A   1      43.050  42.412  24.586  1.00  0.00     0.021 A 
ATOM     29  C   UNL A   1      43.734  44.125  23.039  1.00  0.00     0.041 A 
ATOM     30  Cl  UNL A   1      46.062  45.400  23.098  1.00  0.00    -0.084 Cl
ATOM     31  C   UNL A   1      42.826  43.150  23.430  1.00  0.00     0.042 A 
ATOM     32  Cl  UNL A   1      41.441  42.834  22.458  1.00  0.00    -0.084 Cl
ENDBRANCH  24  25
ENDBRANCH  14  24
ENDBRANCH   8   9
ENDBRANCH   6   8
ENDBRANCH   3   4
ENDBRANCH   2   3
ENDBRANCH   1   2
BRANCH   1  33
ATOM     33  C   UNL A   1      41.425  40.492  27.392  1.00  0.00     0.002 C 
BRANCH  33  34
ATOM     34  C   UNL A   1      41.741  39.356  26.401  1.00  0.00     0.021 C 
BRANCH  34  35
ATOM     35  C   UNL A   1      42.061  37.985  27.020  1.00  0.00     0.116 C 
BRANCH  35  36
ATOM     36  N   UNL A   1      43.363  37.506  26.589  1.00  0.00    -0.352 N 
ATOM     37  C   UNL A   1      44.262  36.653  27.167  1.00  0.00     0.251 C 
ATOM     38  H   UNL A   1      43.652  37.862  25.717  1.00  0.00     0.163 HD
ATOM     39  O   UNL A   1      45.411  36.649  26.717  1.00  0.00    -0.269 OA
BRANCH  37  40
ATOM     40  C   UNL A   1      43.923  35.747  28.291  1.00  0.00     0.039 A 
ATOM     41  C   UNL A   1      43.102  34.649  27.997  1.00  0.00     0.014 A 
ATOM     42  C   UNL A   1      44.249  36.017  29.624  1.00  0.00     0.014 A 
ATOM     43  C   UNL A   1      42.627  33.824  29.017  1.00  0.00     0.010 A 
ATOM     44  C   UNL A   1      43.778  35.182  30.650  1.00  0.00     0.010 A 
ATOM     45  C   UNL A   1      42.964  34.081  30.354  1.00  0.00    -0.014 A 
BRANCH  45  46
ATOM     46  C   UNL A   1      42.480  33.129  31.378  1.00  0.00     0.031 A 
ATOM     47  C   UNL A   1      41.062  33.276  31.825  1.00  0.00     0.074 A 
ATOM     48  C   UNL A   1      43.064  31.922  31.550  1.00  0.00     0.049 A 
ATOM     49  N   UNL A   1      40.055  32.745  31.198  1.00  0.00    -0.248 NA
ATOM     50  C   UNL A   1      40.675  34.202  32.891  1.00  0.00     0.031 C 
ATOM     51  C   UNL A   1      43.613  31.127  30.445  1.00  0.00     0.029 A 
ATOM     52  N   UNL A   1      43.065  31.060  32.623  1.00  0.00    -0.354 N 
ATOM     53  C   UNL A   1      38.901  33.290  31.735  1.00  0.00     0.074 A 
ATOM     54  C   UNL A   1      39.337  34.181  32.789  1.00  0.00     0.031 C 
ATOM     55  C   UNL A   1      43.735  29.848  30.855  1.00  0.00     0.029 A 
ATOM     56  C   UNL A   1      43.443  29.763  32.283  1.00  0.00     0.049 A 
ATOM     57  H   UNL A   1      42.823  31.333  33.538  1.00  0.00     0.167 HD
ATOM     58  C   UNL A   1      37.651  32.981  31.296  1.00  0.00     0.034 A 
ATOM     59  C   UNL A   1      43.047  28.631  32.930  1.00  0.00     0.034 A 
ATOM     60  C   UNL A   1      37.585  31.991  30.259  1.00  0.00     0.049 A 
ATOM     61  C   UNL A   1      41.591  28.567  32.548  1.00  0.00     0.074 A 
ATOM     62  C   UNL A   1      37.521  31.974  28.883  1.00  0.00     0.029 A 
ATOM     63  N   UNL A   1      37.669  30.667  30.616  1.00  0.00    -0.354 N 
ATOM     64  N   UNL A   1      41.123  28.126  31.410  1.00  0.00    -0.248 NA
ATOM     65  C   UNL A   1      40.652  29.381  33.321  1.00  0.00     0.031 C 
ATOM     66  C   UNL A   1      38.019  30.690  28.489  1.00  0.00     0.029 A 
ATOM     67  C   UNL A   1      38.405  30.025  29.651  1.00  0.00     0.049 A 
ATOM     68  H   UNL A   1      37.273  30.253  31.418  1.00  0.00     0.167 HD
ATOM     69  C   UNL A   1      39.960  28.866  31.181  1.00  0.00     0.074 A 
ATOM     70  C   UNL A   1      39.719  29.603  32.406  1.00  0.00     0.031 C 
ATOM     71  C   UNL A   1      39.354  28.975  29.961  1.00  0.00     0.034 A 
BRANCH  58  72
ATOM     72  C   UNL A   1      36.401  33.469  31.925  1.00  0.00     0.023 A 
ATOM     73  C   UNL A   1      36.066  32.935  33.184  1.00  0.00     0.012 A 
ATOM     74  C   UNL A   1      35.475  34.281  31.249  1.00  0.00     0.148 A 
ATOM     75  C   UNL A   1      34.814  33.163  33.748  1.00  0.00     0.002 A 
ATOM     76  C   UNL A   1      34.225  34.513  31.821  1.00  0.00     0.091 A 
ATOM     77  F   UNL A   1      35.809  34.773  30.047  1.00  0.00    -0.205 F 
ATOM     78  C   UNL A   1      33.891  33.945  33.063  1.00  0.00     0.022 A 
BRANCH  76  79
ATOM     79  S   UNL A   1      32.957  35.513  31.034  1.00  0.00     0.127 S 
ATOM     80  O   UNL A   1      32.712  34.776  29.796  1.00  0.00    -0.237 OA
ATOM     81  O   UNL A   1      31.867  35.445  32.010  1.00  0.00    -0.237 OA
ATOM     82  O   UNL A   1      33.538  36.839  30.875  1.00  0.00    -0.744 OA
ENDBRANCH  76  79
ENDBRANCH  58  72
BRANCH  59  83
ATOM     83  C   UNL A   1      43.561  28.488  34.332  1.00  0.00     0.023 A 
ATOM     84  C   UNL A   1      44.352  29.558  34.824  1.00  0.00     0.012 A 
ATOM     85  C   UNL A   1      43.331  27.406  35.200  1.00  0.00     0.148 A 
ATOM     86  C   UNL A   1      44.801  29.599  36.146  1.00  0.00     0.002 A 
ATOM     87  C   UNL A   1      43.720  27.481  36.538  1.00  0.00     0.091 A 
ATOM     88  F   UNL A   1      42.738  26.304  34.728  1.00  0.00    -0.205 F 
ATOM     89  C   UNL A   1      44.456  28.574  37.014  1.00  0.00     0.022 A 
BRANCH  87  90
ATOM     90  S   UNL A   1      43.224  26.255  37.758  1.00  0.00     0.127 S 
ATOM     91  O   UNL A   1      41.767  26.363  37.728  1.00  0.00    -0.237 OA
ATOM     92  O   UNL A   1      43.765  25.031  37.171  1.00  0.00    -0.237 OA
ATOM     93  O   UNL A   1      43.847  26.668  39.009  1.00  0.00    -0.744 OA
ENDBRANCH  87  90
ENDBRANCH  59  83
BRANCH  71  94
ATOM     94  C   UNL A   1      39.865  28.067  28.879  1.00  0.00     0.023 A 
ATOM     95  C   UNL A   1      39.243  26.814  28.707  1.00  0.00     0.012 A 
ATOM     96  C   UNL A   1      40.894  28.443  27.991  1.00  0.00     0.148 A 
ATOM     97  C   UNL A   1      39.617  25.962  27.669  1.00  0.00     0.002 A 
ATOM     98  C   UNL A   1      41.228  27.613  26.926  1.00  0.00     0.091 A 
ATOM     99  F   UNL A   1      41.536  29.602  28.195  1.00  0.00    -0.205 F 
ATOM    100  C   UNL A   1      40.595  26.369  26.767  1.00  0.00     0.022 A 
BRANCH  98 101
ATOM    101  S   UNL A   1      42.409  28.080  25.654  1.00  0.00     0.127 S 
ATOM    102  O   UNL A   1      41.850  29.341  25.165  1.00  0.00    -0.237 OA
ATOM    103  O   UNL A   1      43.644  28.223  26.427  1.00  0.00    -0.237 OA
ATOM    104  O   UNL A   1      42.423  26.993  24.684  1.00  0.00    -0.744 OA
ENDBRANCH  98 101
ENDBRANCH  71  94
ENDBRANCH  45  46
ENDBRANCH  37  40
ENDBRANCH  35  36
ENDBRANCH  34  35
ENDBRANCH  33  34
ENDBRANCH   1  33
TORSDOF 19
ENDMDL
MODEL 2
REMARK VINA RESULT:     -11.2      9.705     19.592
REMARK SMILES O=C(Cn1c(=O)c2c3c(sc2n(Cc2ccc(Cl)cc2Cl)c1=O)CCCC3)NCCCCCCNC(=O)c1ccc(-c2c3nc(c(-c4cccc(S(=O)(=O)[O-])c4F)c4ccc([nH]4)c(-c4cccc(S(=O)(=O)[O-])c4F)c4nc(c(-c5cccc(S(=O)(=O)[O-])c5F)c5ccc2[nH]5)C=C4)C=C3)cc1
REMARK SMILES IDX 31 1 30 2 29 3 28 4 1 5 2 6 3 8 4 9 5 10 22 11 6 12 7 13
REMARK SMILES IDX 12 14 23 15 8 16 11 17 9 18 27 19 10 20 24 21 26 22 25 23
REMARK SMILES IDX 13 24 14 25 15 26 20 27 16 28 19 29 21 30 17 31 18 32 32 33
REMARK SMILES IDX 33 34 34 35 35 36 36 37 37 39 38 40 39 41 100 42 40 43 99 44
REMARK SMILES IDX 41 45 42 46 43 47 93 48 44 49 98 50 92 51 94 52 45 53 97 54
REMARK SMILES IDX 91 55 90 56 46 58 78 59 58 60 77 61 59 62 62 63 76 64 95 65
REMARK SMILES IDX 60 66 61 67 75 69 96 70 63 71 47 72 48 73 56 74 49 75 51 76
REMARK SMILES IDX 57 77 50 78 52 79 53 80 54 81 55 82 79 83 80 84 88 85 81 86
REMARK SMILES IDX 83 87 89 88 82 89 84 90 85 91 86 92 87 93 64 94 65 95 73 96
REMARK SMILES IDX 66 97 68 98 74 99 67 100 69 101 70 102 71 103 72 104
REMARK H PARENT 28 7 35 38 94 57 62 68
REMARK Flexibility Score: inf
ROOT
ATOM      1  C   UNL A   1      48.521  20.902  36.685  1.00  0.00     0.002 C 
ENDROOT
BRANCH   1   2
ATOM      2  C   UNL A   1      48.368  20.088  37.975  1.00  0.00     0.021 C 
BRANCH   2   3
ATOM      3  C   UNL A   1      47.101  20.368  38.782  1.00  0.00     0.116 C 
BRANCH   3   4
ATOM      4  N   UNL A   1      46.526  19.202  39.441  1.00  0.00    -0.355 N 
ATOM      5  O   UNL A   1      45.254  18.546  37.654  1.00  0.00    -0.273 OA
ATOM      6  C   UNL A   1      45.805  18.269  38.720  1.00  0.00     0.240 C 
ATOM      7  H   UNL A   1      46.651  19.079  40.409  1.00  0.00     0.163 HD
BRANCH   6   8
ATOM      8  C   UNL A   1      45.594  16.879  39.356  1.00  0.00     0.230 C 
BRANCH   8   9
ATOM      9  N   UNL A   1      45.291  16.793  40.786  1.00  0.00    -0.250 N 
ATOM     10  C   UNL A   1      46.372  16.710  41.653  1.00  0.00     0.265 A 
ATOM     11  C   UNL A   1      44.016  16.306  41.136  1.00  0.00     0.332 A 
ATOM     12  O   UNL A   1      47.543  16.546  41.303  1.00  0.00    -0.268 OA
ATOM     13  C   UNL A   1      46.009  16.830  43.037  1.00  0.00     0.079 A 
ATOM     14  N   UNL A   1      43.716  16.184  42.505  1.00  0.00    -0.280 N 
ATOM     15  O   UNL A   1      43.208  15.952  40.272  1.00  0.00    -0.247 OA
ATOM     16  C   UNL A   1      46.818  17.136  44.177  1.00  0.00    -0.019 A 
ATOM     17  C   UNL A   1      44.710  16.575  43.389  1.00  0.00     0.113 A 
ATOM     18  C   UNL A   1      46.081  17.025  45.343  1.00  0.00     0.011 A 
ATOM     19  C   UNL A   1      48.282  17.464  44.194  1.00  0.00     0.037 C 
ATOM     20  S   UNL A   1      44.435  16.775  45.040  1.00  0.00    -0.122 S 
ATOM     21  C   UNL A   1      46.622  17.139  46.730  1.00  0.00     0.047 C 
ATOM     22  C   UNL A   1      48.734  17.945  45.584  1.00  0.00     0.005 C 
ATOM     23  C   UNL A   1      48.156  17.067  46.702  1.00  0.00     0.006 C 
BRANCH  14  24
ATOM     24  C   UNL A   1      42.415  15.604  42.916  1.00  0.00     0.165 C 
BRANCH  24  25
ATOM     25  C   UNL A   1      42.456  14.084  43.051  1.00  0.00    -0.009 A 
ATOM     26  C   UNL A   1      43.152  13.526  44.141  1.00  0.00     0.008 A 
ATOM     27  C   UNL A   1      41.822  13.194  42.161  1.00  0.00     0.047 A 
ATOM     28  C   UNL A   1      43.153  12.145  44.371  1.00  0.00     0.021 A 
ATOM     29  C   UNL A   1      41.759  11.821  42.434  1.00  0.00     0.041 A 
ATOM     30  Cl  UNL A   1      41.189  13.682  40.629  1.00  0.00    -0.084 Cl
ATOM     31  C   UNL A   1      42.424  11.304  43.538  1.00  0.00     0.042 A 
ATOM     32  Cl  UNL A   1      42.374   9.612  43.850  1.00  0.00    -0.084 Cl
ENDBRANCH  24  25
ENDBRANCH  14  24
ENDBRANCH   8   9
ENDBRANCH   6   8
ENDBRANCH   3   4
ENDBRANCH   2   3
ENDBRANCH   1   2
BRANCH   1  33
ATOM     33  C   UNL A   1      47.721  20.396  35.478  1.00  0.00     0.002 C 
BRANCH  33  34
ATOM     34  C   UNL A   1      46.944  21.459  34.679  1.00  0.00     0.021 C 
BRANCH  34  35
ATOM     35  C   UNL A   1      45.410  21.391  34.770  1.00  0.00     0.116 C 
BRANCH  35  36
ATOM     36  N   UNL A   1      44.905  22.293  35.792  1.00  0.00    -0.352 N 
ATOM     37  C   UNL A   1      44.877  23.657  35.876  1.00  0.00     0.251 C 
ATOM     38  H   UNL A   1      44.510  21.835  36.570  1.00  0.00     0.163 HD
ATOM     39  O   UNL A   1      44.652  24.153  36.983  1.00  0.00    -0.269 OA
BRANCH  37  40
ATOM     40  C   UNL A   1      45.100  24.553  34.714  1.00  0.00     0.039 A 
ATOM     41  C   UNL A   1      44.110  24.562  33.721  1.00  0.00     0.014 A 
ATOM     42  C   UNL A   1      46.292  25.250  34.497  1.00  0.00     0.014 A 
ATOM     43  C   UNL A   1      44.303  25.273  32.535  1.00  0.00     0.010 A 
ATOM     44  C   UNL A   1      46.481  25.972  33.308  1.00  0.00     0.010 A 
ATOM     45  C   UNL A   1      45.489  25.988  32.319  1.00  0.00    -0.014 A 
BRANCH  45  46
ATOM     46  C   UNL A   1      45.599  26.770  31.068  1.00  0.00     0.031 A 
ATOM     47  C   UNL A   1      45.623  26.003  29.787  1.00  0.00     0.074 A 
ATOM     48  C   UNL A   1      45.213  28.064  31.011  1.00  0.00     0.049 A 
ATOM     49  N   UNL A   1      44.549  25.612  29.167  1.00  0.00    -0.248 NA
ATOM     50  C   UNL A   1      46.860  25.452  29.233  1.00  0.00     0.031 C 
ATOM     51  C   UNL A   1      44.065  28.597  31.756  1.00  0.00     0.029 A 
ATOM     52  N   UNL A   1      45.551  29.074  30.139  1.00  0.00    -0.354 N 
ATOM     53  C   UNL A   1      44.943  24.729  28.177  1.00  0.00     0.074 A 
ATOM     54  C   UNL A   1      46.388  24.670  28.250  1.00  0.00     0.031 C 
ATOM     55  C   UNL A   1      43.689  29.762  31.190  1.00  0.00     0.029 A 
ATOM     56  C   UNL A   1      44.659  30.143  30.168  1.00  0.00     0.049 A 
ATOM     57  H   UNL A   1      46.342  29.042  29.554  1.00  0.00     0.167 HD
ATOM     58  C   UNL A   1      44.071  24.098  27.345  1.00  0.00     0.034 A 
ATOM     59  C   UNL A   1      44.401  30.984  29.126  1.00  0.00     0.034 A 
ATOM     60  C   UNL A   1      42.691  24.448  27.512  1.00  0.00     0.049 A 
ATOM     61  C   UNL A   1      43.654  30.071  28.189  1.00  0.00     0.074 A 
ATOM     62  C   UNL A   1      41.601  23.957  28.198  1.00  0.00     0.029 A 
ATOM     63  N   UNL A   1      42.237  25.607  26.930  1.00  0.00    -0.354 N 
ATOM     64  N   UNL A   1      42.392  29.747  28.290  1.00  0.00    -0.248 NA
ATOM     65  C   UNL A   1      44.444  29.189  27.330  1.00  0.00     0.031 C 
ATOM     66  C   UNL A   1      40.709  25.067  28.353  1.00  0.00     0.029 A 
ATOM     67  C   UNL A   1      41.338  26.179  27.796  1.00  0.00     0.049 A 
ATOM     68  H   UNL A   1      42.506  25.962  26.052  1.00  0.00     0.167 HD
ATOM     69  C   UNL A   1      42.304  28.453  27.772  1.00  0.00     0.074 A 
ATOM     70  C   UNL A   1      43.599  28.180  27.181  1.00  0.00     0.031 C 
ATOM     71  C   UNL A   1      41.251  27.611  27.999  1.00  0.00     0.034 A 
BRANCH  58  72
ATOM     72  C   UNL A   1      44.477  23.233  26.211  1.00  0.00     0.023 A 
ATOM     73  C   UNL A   1      45.030  23.871  25.084  1.00  0.00     0.012 A 
ATOM     74  C   UNL A   1      44.169  21.863  26.150  1.00  0.00     0.148 A 
ATOM     75  C   UNL A   1      45.235  23.174  23.896  1.00  0.00     0.002 A 
ATOM     76  C   UNL A   1      44.382  21.169  24.961  1.00  0.00     0.091 A 
ATOM     77  F   UNL A   1      43.635  21.276  27.231  1.00  0.00    -0.205 F 
ATOM     78  C   UNL A   1      44.903  21.826  23.832  1.00  0.00     0.022 A 
BRANCH  76  79
ATOM     79  S   UNL A   1      44.002  19.423  24.763  1.00  0.00     0.127 S 
ATOM     80  O   UNL A   1      44.353  19.193  23.362  1.00  0.00    -0.237 OA
ATOM     81  O   UNL A   1      44.909  18.803  25.729  1.00  0.00    -0.237 OA
ATOM     82  O   UNL A   1      42.589  19.286  25.090  1.00  0.00    -0.744 OA
ENDBRANCH  76  79
ENDBRANCH  58  72
BRANCH  59  83
ATOM     83  C   UNL A   1      45.548  31.861  28.718  1.00  0.00     0.023 A 
ATOM     84  C   UNL A   1      46.509  31.277  27.853  1.00  0.00     0.012 A 
ATOM     85  C   UNL A   1      45.758  33.196  29.104  1.00  0.00     0.148 A 
ATOM     86  C   UNL A   1      47.565  32.015  27.314  1.00  0.00     0.002 A 
ATOM     87  C   UNL A   1      46.770  33.950  28.510  1.00  0.00     0.091 A 
ATOM     88  F   UNL A   1      44.977  33.735  30.047  1.00  0.00    -0.205 F 
ATOM     89  C   UNL A   1      47.677  33.363  27.617  1.00  0.00     0.022 A 
BRANCH  87  90
ATOM     90  S   UNL A   1      46.924  35.726  28.758  1.00  0.00     0.127 S 
ATOM     91  O   UNL A   1      47.270  35.809  30.176  1.00  0.00    -0.237 OA
ATOM     92  O   UNL A   1      48.012  36.051  27.837  1.00  0.00    -0.237 OA
ATOM     93  O   UNL A   1      45.627  36.288  28.406  1.00  0.00    -0.744 OA
ENDBRANCH  87  90
ENDBRANCH  59  83
BRANCH  71  94
ATOM     94  C   UNL A   1      40.046  28.214  28.663  1.00  0.00     0.023 A 
ATOM     95  C   UNL A   1      39.004  28.699  27.847  1.00  0.00     0.012 A 
ATOM     96  C   UNL A   1      39.888  28.255  30.064  1.00  0.00     0.148 A 
ATOM     97  C   UNL A   1      37.826  29.194  28.405  1.00  0.00     0.002 A 
ATOM     98  C   UNL A   1      38.691  28.701  30.614  1.00  0.00     0.091 A 
ATOM     99  F   UNL A   1      40.904  27.861  30.844  1.00  0.00    -0.205 F 
ATOM    100  C   UNL A   1      37.661  29.177  29.786  1.00  0.00     0.022 A 
BRANCH  98 101
ATOM    101  S   UNL A   1      38.339  28.636  32.376  1.00  0.00     0.127 S 
ATOM    102  O   UNL A   1      36.918  28.983  32.418  1.00  0.00    -0.237 OA
ATOM    103  O   UNL A   1      38.632  27.238  32.691  1.00  0.00    -0.237 OA
ATOM    104  O   UNL A   1      39.229  29.601  33.009  1.00  0.00    -0.744 OA
ENDBRANCH  98 101
ENDBRANCH  71  94
ENDBRANCH  45  46
ENDBRANCH  37  40
ENDBRANCH  35  36
ENDBRANCH  34  35
ENDBRANCH  33  34
ENDBRANCH   1  33
TORSDOF 19
ENDMDL
MODEL 3
REMARK VINA RESULT:     -10.6      7.174     15.686
REMARK SMILES O=C(Cn1c(=O)c2c3c(sc2n(Cc2ccc(Cl)cc2Cl)c1=O)CCCC3)NCCCCCCNC(=O)c1ccc(-c2c3nc(c(-c4cccc(S(=O)(=O)[O-])c4F)c4ccc([nH]4)c(-c4cccc(S(=O)(=O)[O-])c4F)c4nc(c(-c5cccc(S(=O)(=O)[O-])c5F)c5ccc2[nH]5)C=C4)C=C3)cc1
REMARK SMILES IDX 31 1 30 2 29 3 28 4 1 5 2 6 3 8 4 9 5 10 22 11 6 12 7 13
REMARK SMILES IDX 12 14 23 15 8 16 11 17 9 18 27 19 10 20 24 21 26 22 25 23
REMARK SMILES IDX 13 24 14 25 15 26 20 27 16 28 19 29 21 30 17 31 18 32 32 33
REMARK SMILES IDX 33 34 34 35 35 36 36 37 37 39 38 40 39 41 100 42 40 43 99 44
REMARK SMILES IDX 41 45 42 46 43 47 93 48 44 49 98 50 92 51 94 52 45 53 97 54
REMARK SMILES IDX 91 55 90 56 46 58 78 59 58 60 77 61 59 62 62 63 76 64 95 65
REMARK SMILES IDX 60 66 61 67 75 69 96 70 63 71 47 72 48 73 56 74 49 75 51 76
REMARK SMILES IDX 57 77 50 78 52 79 53 80 54 81 55 82 79 83 80 84 88 85 81 86
REMARK SMILES IDX 83 87 89 88 82 89 84 90 85 91 86 92 87 93 64 94 65 95 73 96
REMARK SMILES IDX 66 97 68 98 74 99 67 100 69 101 70 102 71 103 72 104
REMARK H PARENT 28 7 35 38 94 57 62 68
REMARK Flexibility Score: inf
ROOT
ATOM      1  C   UNL A   1      41.434  24.204  28.337  1.00  0.00     0.002 C 
ENDROOT
BRANCH   1   2
ATOM      2  C   UNL A   1      40.275  24.740  27.488  1.00  0.00     0.021 C 
BRANCH   2   3
ATOM      3  C   UNL A   1      39.191  23.721  27.137  1.00  0.00     0.116 C 
BRANCH   3   4
ATOM      4  N   UNL A   1      38.689  23.809  25.772  1.00  0.00    -0.355 N 
ATOM      5  O   UNL A   1      37.441  21.892  25.873  1.00  0.00    -0.273 OA
ATOM      6  C   UNL A   1      37.674  22.977  25.338  1.00  0.00     0.240 C 
ATOM      7  H   UNL A   1      39.078  24.465  25.151  1.00  0.00     0.163 HD
BRANCH   6   8
ATOM      8  C   UNL A   1      36.907  23.387  24.064  1.00  0.00     0.230 C 
BRANCH   8   9
ATOM      9  N   UNL A   1      35.500  23.774  24.177  1.00  0.00    -0.250 N 
ATOM     10  C   UNL A   1      35.179  24.691  25.168  1.00  0.00     0.265 A 
ATOM     11  C   UNL A   1      34.550  22.868  23.664  1.00  0.00     0.332 A 
ATOM     12  O   UNL A   1      35.953  25.077  26.047  1.00  0.00    -0.268 OA
ATOM     13  C   UNL A   1      33.827  25.172  25.090  1.00  0.00     0.079 A 
ATOM     14  N   UNL A   1      33.190  23.206  23.791  1.00  0.00    -0.280 N 
ATOM     15  O   UNL A   1      34.896  21.794  23.164  1.00  0.00    -0.247 OA
ATOM     16  C   UNL A   1      33.228  26.332  25.676  1.00  0.00    -0.019 A 
ATOM     17  C   UNL A   1      32.913  24.419  24.404  1.00  0.00     0.113 A 
ATOM     18  C   UNL A   1      31.864  26.345  25.447  1.00  0.00     0.011 A 
ATOM     19  C   UNL A   1      33.904  27.388  26.501  1.00  0.00     0.037 C 
ATOM     20  S   UNL A   1      31.380  25.120  24.385  1.00  0.00    -0.122 S 
ATOM     21  C   UNL A   1      30.894  27.327  26.018  1.00  0.00     0.047 C 
ATOM     22  C   UNL A   1      32.968  28.582  26.761  1.00  0.00     0.005 C 
ATOM     23  C   UNL A   1      31.558  28.119  27.154  1.00  0.00     0.006 C 
BRANCH  14  24
ATOM     24  C   UNL A   1      32.156  22.246  23.335  1.00  0.00     0.165 C 
BRANCH  24  25
ATOM     25  C   UNL A   1      32.288  20.872  23.986  1.00  0.00    -0.009 A 
ATOM     26  C   UNL A   1      32.231  19.731  23.161  1.00  0.00     0.008 A 
ATOM     27  C   UNL A   1      32.484  20.666  25.365  1.00  0.00     0.047 A 
ATOM     28  C   UNL A   1      32.433  18.448  23.683  1.00  0.00     0.021 A 
ATOM     29  C   UNL A   1      32.762  19.391  25.873  1.00  0.00     0.041 A 
ATOM     30  Cl  UNL A   1      32.281  21.914  26.544  1.00  0.00    -0.084 Cl
ATOM     31  C   UNL A   1      32.736  18.288  25.030  1.00  0.00     0.042 A 
ATOM     32  Cl  UNL A   1      33.044  16.719  25.665  1.00  0.00    -0.084 Cl
ENDBRANCH  24  25
ENDBRANCH  14  24
ENDBRANCH   8   9
ENDBRANCH   6   8
ENDBRANCH   3   4
ENDBRANCH   2   3
ENDBRANCH   1   2
BRANCH   1  33
ATOM     33  C   UNL A   1      41.494  22.679  28.495  1.00  0.00     0.002 C 
BRANCH  33  34
ATOM     34  C   UNL A   1      42.506  21.940  27.599  1.00  0.00     0.021 C 
BRANCH  34  35
ATOM     35  C   UNL A   1      42.046  21.635  26.163  1.00  0.00     0.116 C 
BRANCH  35  36
ATOM     36  N   UNL A   1      43.168  21.645  25.240  1.00  0.00    -0.352 N 
ATOM     37  C   UNL A   1      43.878  22.667  24.674  1.00  0.00     0.251 C 
ATOM     38  H   UNL A   1      43.474  20.748  24.972  1.00  0.00     0.163 HD
ATOM     39  O   UNL A   1      44.591  22.394  23.705  1.00  0.00    -0.269 OA
BRANCH  37  40
ATOM     40  C   UNL A   1      43.831  24.066  25.166  1.00  0.00     0.039 A 
ATOM     41  C   UNL A   1      44.766  24.426  26.147  1.00  0.00     0.014 A 
ATOM     42  C   UNL A   1      42.825  24.971  24.817  1.00  0.00     0.014 A 
ATOM     43  C   UNL A   1      44.705  25.679  26.758  1.00  0.00     0.010 A 
ATOM     44  C   UNL A   1      42.770  26.236  25.426  1.00  0.00     0.010 A 
ATOM     45  C   UNL A   1      43.709  26.597  26.401  1.00  0.00    -0.014 A 
BRANCH  45  46
ATOM     46  C   UNL A   1      43.743  27.930  27.042  1.00  0.00     0.031 A 
ATOM     47  C   UNL A   1      43.335  28.004  28.477  1.00  0.00     0.074 A 
ATOM     48  C   UNL A   1      44.533  28.919  26.568  1.00  0.00     0.049 A 
ATOM     49  N   UNL A   1      44.148  27.771  29.465  1.00  0.00    -0.248 NA
ATOM     50  C   UNL A   1      41.935  28.144  28.882  1.00  0.00     0.031 C 
ATOM     51  C   UNL A   1      45.861  28.683  25.989  1.00  0.00     0.029 A 
ATOM     52  N   UNL A   1      44.467  30.285  26.725  1.00  0.00    -0.354 N 
ATOM     53  C   UNL A   1      43.383  27.681  30.615  1.00  0.00     0.074 A 
ATOM     54  C   UNL A   1      42.018  27.929  30.204  1.00  0.00     0.031 C 
ATOM     55  C   UNL A   1      46.548  29.844  26.001  1.00  0.00     0.029 A 
ATOM     56  C   UNL A   1      45.665  30.929  26.419  1.00  0.00     0.049 A 
ATOM     57  H   UNL A   1      43.657  30.759  27.022  1.00  0.00     0.167 HD
ATOM     58  C   UNL A   1      43.905  27.414  31.843  1.00  0.00     0.034 A 
ATOM     59  C   UNL A   1      46.084  32.110  26.954  1.00  0.00     0.034 A 
ATOM     60  C   UNL A   1      45.332  27.287  31.896  1.00  0.00     0.049 A 
ATOM     61  C   UNL A   1      46.383  31.702  28.373  1.00  0.00     0.074 A 
ATOM     62  C   UNL A   1      46.258  26.267  31.843  1.00  0.00     0.029 A 
ATOM     63  N   UNL A   1      46.088  28.434  31.944  1.00  0.00    -0.354 N 
ATOM     64  N   UNL A   1      47.467  31.092  28.775  1.00  0.00    -0.248 NA
ATOM     65  C   UNL A   1      45.262  31.634  29.309  1.00  0.00     0.031 C 
ATOM     66  C   UNL A   1      47.480  26.875  31.413  1.00  0.00     0.029 A 
ATOM     67  C   UNL A   1      47.209  28.222  31.179  1.00  0.00     0.049 A 
ATOM     68  H   UNL A   1      45.867  29.257  32.438  1.00  0.00     0.167 HD
ATOM     69  C   UNL A   1      47.064  30.301  29.853  1.00  0.00     0.074 A 
ATOM     70  C   UNL A   1      45.700  30.700  30.141  1.00  0.00     0.031 C 
ATOM     71  C   UNL A   1      47.790  29.253  30.344  1.00  0.00     0.034 A 
BRANCH  58  72
ATOM     72  C   UNL A   1      43.121  27.418  33.101  1.00  0.00     0.023 A 
ATOM     73  C   UNL A   1      42.599  28.654  33.528  1.00  0.00     0.012 A 
ATOM     74  C   UNL A   1      43.040  26.302  33.951  1.00  0.00     0.148 A 
ATOM     75  C   UNL A   1      42.044  28.797  34.797  1.00  0.00     0.002 A 
ATOM     76  C   UNL A   1      42.477  26.449  35.218  1.00  0.00     0.091 A 
ATOM     77  F   UNL A   1      43.551  25.136  33.531  1.00  0.00    -0.205 F 
ATOM     78  C   UNL A   1      41.991  27.697  35.644  1.00  0.00     0.022 A 
BRANCH  76  79
ATOM     79  S   UNL A   1      42.345  25.097  36.395  1.00  0.00     0.127 S 
ATOM     80  O   UNL A   1      43.727  24.955  36.851  1.00  0.00    -0.237 OA
ATOM     81  O   UNL A   1      41.428  25.652  37.392  1.00  0.00    -0.237 OA
ATOM     82  O   UNL A   1      41.809  23.970  35.646  1.00  0.00    -0.744 OA
ENDBRANCH  76  79
ENDBRANCH  58  72
BRANCH  59  83
ATOM     83  C   UNL A   1      45.262  33.307  26.574  1.00  0.00     0.023 A 
ATOM     84  C   UNL A   1      44.320  33.117  25.532  1.00  0.00     0.012 A 
ATOM     85  C   UNL A   1      45.333  34.587  27.151  1.00  0.00     0.148 A 
ATOM     86  C   UNL A   1      43.420  34.117  25.156  1.00  0.00     0.002 A 
ATOM     87  C   UNL A   1      44.389  35.560  26.824  1.00  0.00     0.091 A 
ATOM     88  F   UNL A   1      46.317  34.861  28.016  1.00  0.00    -0.205 F 
ATOM     89  C   UNL A   1      43.433  35.331  25.826  1.00  0.00     0.022 A 
BRANCH  87  90
ATOM     90  S   UNL A   1      44.260  37.119  27.715  1.00  0.00     0.127 S 
ATOM     91  O   UNL A   1      45.573  37.717  27.479  1.00  0.00    -0.237 OA
ATOM     92  O   UNL A   1      43.153  37.762  27.010  1.00  0.00    -0.237 OA
ATOM     93  O   UNL A   1      43.986  36.761  29.100  1.00  0.00    -0.744 OA
ENDBRANCH  87  90
ENDBRANCH  59  83
BRANCH  71  94
ATOM     94  C   UNL A   1      49.188  29.103  29.813  1.00  0.00     0.023 A 
ATOM     95  C   UNL A   1      50.239  29.734  30.508  1.00  0.00     0.012 A 
ATOM     96  C   UNL A   1      49.496  28.308  28.690  1.00  0.00     0.148 A 
ATOM     97  C   UNL A   1      51.565  29.565  30.113  1.00  0.00     0.002 A 
ATOM     98  C   UNL A   1      50.824  28.101  28.331  1.00  0.00     0.091 A 
ATOM     99  F   UNL A   1      48.494  27.765  27.984  1.00  0.00    -0.205 F 
ATOM    100  C   UNL A   1      51.860  28.734  29.038  1.00  0.00     0.022 A 
BRANCH  98 101
ATOM    101  S   UNL A   1      51.319  26.976  27.019  1.00  0.00     0.127 S 
ATOM    102  O   UNL A   1      50.775  25.701  27.486  1.00  0.00    -0.237 OA
ATOM    103  O   UNL A   1      50.628  27.542  25.860  1.00  0.00    -0.237 OA
ATOM    104  O   UNL A   1      52.773  27.038  26.949  1.00  0.00    -0.744 OA
ENDBRANCH  98 101
ENDBRANCH  71  94
ENDBRANCH  45  46
ENDBRANCH  37  40
ENDBRANCH  35  36
ENDBRANCH  34  35
ENDBRANCH  33  34
ENDBRANCH   1  33
TORSDOF 19
ENDMDL
