MODEL 1
REMARK VINA RESULT:     -11.7      0.000      0.000
REMARK SMILES CC(C)c1cc(OCC(=O)NCCCCCCNC(=O)c2ccc(-c3c4nc(c(-c5cccc(S(=O)(=O)[O-])c5F)c5ccc([nH]5)c(-c5cccc(S(=O)(=O)[O-])c5F)c5nc(c(-c6cccc(S(=O)(=O)[O-])c6F)c6ccc3[nH]6)C=C5)C=C4)cc2)nc(Nc2ccc(F)cc2F)n1
REMARK SMILES IDX 14 1 13 2 12 3 11 4 9 5 10 6 8 8 7 9 6 10 4 11 5 12 95 13
REMARK SMILES IDX 85 14 84 15 2 16 1 17 3 18 86 19 87 21 88 22 93 23 89 24
REMARK SMILES IDX 92 25 94 26 90 27 91 28 15 29 16 30 17 31 18 32 19 33 20 35
REMARK SMILES IDX 21 36 22 37 83 38 23 39 82 40 24 41 25 42 26 43 76 44 27 45
REMARK SMILES IDX 81 46 75 47 77 48 28 49 80 50 74 51 73 52 29 54 61 55 41 56
REMARK SMILES IDX 60 57 42 58 45 59 59 60 78 61 43 62 44 63 58 65 79 66 46 67
REMARK SMILES IDX 30 68 31 69 39 70 32 71 34 72 40 73 33 74 35 75 36 76 37 77
REMARK SMILES IDX 38 78 62 79 63 80 71 81 64 82 66 83 72 84 65 85 67 86 68 87
REMARK SMILES IDX 69 88 70 89 47 90 48 91 56 92 49 93 51 94 57 95 50 96 52 97
REMARK SMILES IDX 53 98 54 99 55 100
REMARK H PARENT 11 7 86 20 18 34 77 53 45 64
REMARK Flexibility Score: inf
ROOT
ATOM      1  C   UNL A   1      35.138  23.760  23.824  1.00  0.00     0.002 C 
ENDROOT
BRANCH   1   2
ATOM      2  C   UNL A   1      34.946  24.231  25.272  1.00  0.00     0.021 C 
BRANCH   2   3
ATOM      3  C   UNL A   1      34.101  25.496  25.423  1.00  0.00     0.116 C 
BRANCH   3   4
ATOM      4  N   UNL A   1      33.927  26.178  24.155  1.00  0.00    -0.353 N 
ATOM      5  C   UNL A   1      33.732  27.507  23.933  1.00  0.00     0.258 C 
ATOM      6  O   UNL A   1      33.587  27.907  22.774  1.00  0.00    -0.271 OA
ATOM      7  H   UNL A   1      33.953  25.607  23.353  1.00  0.00     0.163 HD
BRANCH   5   8
ATOM      8  C   UNL A   1      33.715  28.481  25.117  1.00  0.00     0.331 C 
BRANCH   8   9
ATOM      9  O   UNL A   1      32.476  29.081  25.448  1.00  0.00    -0.467 OA
BRANCH   9  10
ATOM     10  C   UNL A   1      31.346  28.628  24.830  1.00  0.00     0.218 A 
ATOM     11  C   UNL A   1      29.487  28.718  23.410  1.00  0.00     0.052 A 
ATOM     12  C   UNL A   1      30.573  29.361  23.961  1.00  0.00     0.092 A 
ATOM     13  N   UNL A   1      29.184  27.453  23.736  1.00  0.00    -0.217 NA
ATOM     14  C   UNL A   1      29.983  26.802  24.594  1.00  0.00     0.230 A 
ATOM     15  N   UNL A   1      31.054  27.360  25.168  1.00  0.00    -0.177 NA
BRANCH  11  16
ATOM     16  C   UNL A   1      28.574  29.447  22.445  1.00  0.00     0.032 C 
ATOM     17  C   UNL A   1      27.588  30.381  23.156  1.00  0.00     0.014 C 
ATOM     18  C   UNL A   1      29.400  30.232  21.424  1.00  0.00     0.014 C 
ENDBRANCH  11  16
BRANCH  14  19
ATOM     19  N   UNL A   1      29.641  25.514  24.995  1.00  0.00    -0.322 N 
ATOM     20  H   UNL A   1      28.683  25.342  25.138  1.00  0.00     0.170 HD
BRANCH  19  21
ATOM     21  C   UNL A   1      30.504  24.435  25.218  1.00  0.00     0.077 A 
ATOM     22  C   UNL A   1      30.827  24.072  26.533  1.00  0.00     0.032 A 
ATOM     23  C   UNL A   1      30.969  23.614  24.173  1.00  0.00     0.149 A 
ATOM     24  C   UNL A   1      31.567  22.914  26.789  1.00  0.00     0.041 A 
ATOM     25  C   UNL A   1      31.721  22.471  24.418  1.00  0.00     0.080 A 
ATOM     26  F   UNL A   1      30.729  23.945  22.894  1.00  0.00    -0.205 F 
ATOM     27  C   UNL A   1      32.002  22.124  25.729  1.00  0.00     0.126 A 
ATOM     28  F   UNL A   1      32.698  21.007  25.981  1.00  0.00    -0.207 F 
ENDBRANCH  19  21
ENDBRANCH  14  19
ENDBRANCH   9  10
ENDBRANCH   8   9
ENDBRANCH   5   8
ENDBRANCH   3   4
ENDBRANCH   2   3
ENDBRANCH   1   2
BRANCH   1  29
ATOM     29  C   UNL A   1      35.086  22.243  23.613  1.00  0.00     0.002 C 
BRANCH  29  30
ATOM     30  C   UNL A   1      35.893  21.418  24.617  1.00  0.00     0.021 C 
BRANCH  30  31
ATOM     31  C   UNL A   1      37.391  21.705  24.623  1.00  0.00     0.116 C 
BRANCH  31  32
ATOM     32  N   UNL A   1      38.150  20.643  25.266  1.00  0.00    -0.352 N 
ATOM     33  C   UNL A   1      39.282  20.732  26.038  1.00  0.00     0.251 C 
ATOM     34  H   UNL A   1      37.802  19.733  25.130  1.00  0.00     0.163 HD
ATOM     35  O   UNL A   1      39.898  19.712  26.344  1.00  0.00    -0.269 OA
BRANCH  33  36
ATOM     36  C   UNL A   1      39.774  22.055  26.481  1.00  0.00     0.039 A 
ATOM     37  C   UNL A   1      40.888  22.118  27.321  1.00  0.00     0.014 A 
ATOM     38  C   UNL A   1      39.140  23.230  26.068  1.00  0.00     0.014 A 
ATOM     39  C   UNL A   1      41.401  23.361  27.698  1.00  0.00     0.010 A 
ATOM     40  C   UNL A   1      39.699  24.466  26.380  1.00  0.00     0.010 A 
ATOM     41  C   UNL A   1      40.832  24.547  27.204  1.00  0.00    -0.014 A 
BRANCH  41  42
ATOM     42  C   UNL A   1      41.416  25.875  27.525  1.00  0.00     0.031 A 
ATOM     43  C   UNL A   1      42.837  26.195  27.142  1.00  0.00     0.074 A 
ATOM     44  C   UNL A   1      40.694  26.766  28.234  1.00  0.00     0.049 A 
ATOM     45  N   UNL A   1      43.529  27.279  27.379  1.00  0.00    -0.248 NA
ATOM     46  C   UNL A   1      43.586  25.151  26.423  1.00  0.00     0.031 C 
ATOM     47  C   UNL A   1      39.333  26.549  28.730  1.00  0.00     0.029 A 
ATOM     48  N   UNL A   1      41.013  28.023  28.686  1.00  0.00    -0.354 N 
ATOM     49  C   UNL A   1      44.802  27.036  26.874  1.00  0.00     0.074 A 
ATOM     50  C   UNL A   1      44.795  25.689  26.345  1.00  0.00     0.031 C 
ATOM     51  C   UNL A   1      38.931  27.636  29.406  1.00  0.00     0.029 A 
ATOM     52  C   UNL A   1      40.015  28.613  29.427  1.00  0.00     0.049 A 
ATOM     53  H   UNL A   1      41.873  28.461  28.496  1.00  0.00     0.167 HD
ATOM     54  C   UNL A   1      45.871  27.865  26.833  1.00  0.00     0.034 A 
ATOM     55  C   UNL A   1      39.979  29.801  30.062  1.00  0.00     0.034 A 
ATOM     56  C   UNL A   1      45.864  29.216  27.327  1.00  0.00     0.049 A 
ATOM     57  C   UNL A   1      41.174  30.713  29.976  1.00  0.00     0.074 A 
ATOM     58  C   UNL A   1      46.867  30.166  27.246  1.00  0.00     0.029 A 
ATOM     59  N   UNL A   1      44.810  29.804  28.009  1.00  0.00    -0.354 N 
ATOM     60  N   UNL A   1      42.312  30.527  29.352  1.00  0.00    -0.248 NA
ATOM     61  C   UNL A   1      41.067  32.014  30.652  1.00  0.00     0.031 C 
ATOM     62  C   UNL A   1      46.435  31.316  27.912  1.00  0.00     0.029 A 
ATOM     63  C   UNL A   1      45.145  31.098  28.370  1.00  0.00     0.049 A 
ATOM     64  H   UNL A   1      43.951  29.367  28.206  1.00  0.00     0.167 HD
ATOM     65  C   UNL A   1      43.039  31.699  29.525  1.00  0.00     0.074 A 
ATOM     66  C   UNL A   1      42.204  32.597  30.296  1.00  0.00     0.031 C 
ATOM     67  C   UNL A   1      44.287  32.002  29.094  1.00  0.00     0.034 A 
BRANCH  54  68
ATOM     68  C   UNL A   1      47.139  27.349  26.198  1.00  0.00     0.023 A 
ATOM     69  C   UNL A   1      47.419  27.650  24.849  1.00  0.00     0.012 A 
ATOM     70  C   UNL A   1      48.081  26.624  26.954  1.00  0.00     0.148 A 
ATOM     71  C   UNL A   1      48.600  27.207  24.253  1.00  0.00     0.002 A 
ATOM     72  C   UNL A   1      49.276  26.229  26.367  1.00  0.00     0.091 A 
ATOM     73  F   UNL A   1      47.788  26.331  28.229  1.00  0.00    -0.205 F 
ATOM     74  C   UNL A   1      49.532  26.508  25.015  1.00  0.00     0.022 A 
BRANCH  72  75
ATOM     75  S   UNL A   1      50.579  25.398  27.283  1.00  0.00     0.127 S 
ATOM     76  O   UNL A   1      50.947  26.418  28.264  1.00  0.00    -0.237 OA
ATOM     77  O   UNL A   1      49.873  24.243  27.839  1.00  0.00    -0.237 OA
ATOM     78  O   UNL A   1      51.611  25.069  26.309  1.00  0.00    -0.744 OA
ENDBRANCH  72  75
ENDBRANCH  54  68
BRANCH  55  79
ATOM     79  C   UNL A   1      38.750  30.224  30.792  1.00  0.00     0.023 A 
ATOM     80  C   UNL A   1      38.593  29.870  32.147  1.00  0.00     0.012 A 
ATOM     81  C   UNL A   1      37.744  30.978  30.160  1.00  0.00     0.148 A 
ATOM     82  C   UNL A   1      37.440  30.226  32.847  1.00  0.00     0.002 A 
ATOM     83  C   UNL A   1      36.625  31.380  30.878  1.00  0.00     0.091 A 
ATOM     84  F   UNL A   1      37.908  31.298  28.868  1.00  0.00    -0.205 F 
ATOM     85  C   UNL A   1      36.460  30.988  32.216  1.00  0.00     0.022 A 
BRANCH  83  86
ATOM     86  S   UNL A   1      35.375  32.471  30.188  1.00  0.00     0.127 S 
ATOM     87  O   UNL A   1      36.165  33.650  29.842  1.00  0.00    -0.237 OA
ATOM     88  O   UNL A   1      34.894  31.693  29.047  1.00  0.00    -0.237 OA
ATOM     89  O   UNL A   1      34.390  32.660  31.244  1.00  0.00    -0.744 OA
ENDBRANCH  83  86
ENDBRANCH  55  79
BRANCH  67  90
ATOM     90  C   UNL A   1      44.821  33.378  29.400  1.00  0.00     0.023 A 
ATOM     91  C   UNL A   1      45.598  33.594  30.554  1.00  0.00     0.012 A 
ATOM     92  C   UNL A   1      44.609  34.441  28.498  1.00  0.00     0.148 A 
ATOM     93  C   UNL A   1      46.126  34.856  30.827  1.00  0.00     0.002 A 
ATOM     94  C   UNL A   1      45.183  35.681  28.748  1.00  0.00     0.091 A 
ATOM     95  F   UNL A   1      43.853  34.220  27.414  1.00  0.00    -0.205 F 
ATOM     96  C   UNL A   1      45.929  35.895  29.919  1.00  0.00     0.022 A 
BRANCH  94  97
ATOM     97  S   UNL A   1      45.068  37.048  27.589  1.00  0.00     0.127 S 
ATOM     98  O   UNL A   1      46.078  36.683  26.597  1.00  0.00    -0.237 OA
ATOM     99  O   UNL A   1      43.686  36.939  27.120  1.00  0.00    -0.237 OA
ATOM    100  O   UNL A   1      45.354  38.252  28.355  1.00  0.00    -0.744 OA
ENDBRANCH  94  97
ENDBRANCH  67  90
ENDBRANCH  41  42
ENDBRANCH  33  36
ENDBRANCH  31  32
ENDBRANCH  30  31
ENDBRANCH  29  30
ENDBRANCH   1  29
TORSDOF 21
ENDMDL
MODEL 2
REMARK VINA RESULT:     -11.2      2.070      2.506
REMARK SMILES CC(C)c1cc(OCC(=O)NCCCCCCNC(=O)c2ccc(-c3c4nc(c(-c5cccc(S(=O)(=O)[O-])c5F)c5ccc([nH]5)c(-c5cccc(S(=O)(=O)[O-])c5F)c5nc(c(-c6cccc(S(=O)(=O)[O-])c6F)c6ccc3[nH]6)C=C5)C=C4)cc2)nc(Nc2ccc(F)cc2F)n1
REMARK SMILES IDX 14 1 13 2 12 3 11 4 9 5 10 6 8 8 7 9 6 10 4 11 5 12 95 13
REMARK SMILES IDX 85 14 84 15 2 16 1 17 3 18 86 19 87 21 88 22 93 23 89 24
REMARK SMILES IDX 92 25 94 26 90 27 91 28 15 29 16 30 17 31 18 32 19 33 20 35
REMARK SMILES IDX 21 36 22 37 83 38 23 39 82 40 24 41 25 42 26 43 76 44 27 45
REMARK SMILES IDX 81 46 75 47 77 48 28 49 80 50 74 51 73 52 29 54 61 55 41 56
REMARK SMILES IDX 60 57 42 58 45 59 59 60 78 61 43 62 44 63 58 65 79 66 46 67
REMARK SMILES IDX 30 68 31 69 39 70 32 71 34 72 40 73 33 74 35 75 36 76 37 77
REMARK SMILES IDX 38 78 62 79 63 80 71 81 64 82 66 83 72 84 65 85 67 86 68 87
REMARK SMILES IDX 69 88 70 89 47 90 48 91 56 92 49 93 51 94 57 95 50 96 52 97
REMARK SMILES IDX 53 98 54 99 55 100
REMARK H PARENT 11 7 86 20 18 34 77 53 45 64
REMARK Flexibility Score: inf
ROOT
ATOM      1  C   UNL A   1      35.572  24.358  25.390  1.00  0.00     0.002 C 
ENDROOT
BRANCH   1   2
ATOM      2  C   UNL A   1      34.212  24.659  26.036  1.00  0.00     0.021 C 
BRANCH   2   3
ATOM      3  C   UNL A   1      33.732  26.099  25.867  1.00  0.00     0.116 C 
BRANCH   3   4
ATOM      4  N   UNL A   1      32.381  26.275  26.365  1.00  0.00    -0.353 N 
ATOM      5  C   UNL A   1      31.744  27.436  26.682  1.00  0.00     0.258 C 
ATOM      6  O   UNL A   1      30.588  27.389  27.110  1.00  0.00    -0.271 OA
ATOM      7  H   UNL A   1      31.858  25.450  26.490  1.00  0.00     0.163 HD
BRANCH   5   8
ATOM      8  C   UNL A   1      32.464  28.776  26.484  1.00  0.00     0.331 C 
BRANCH   8   9
ATOM      9  O   UNL A   1      32.651  29.222  25.153  1.00  0.00    -0.467 OA
BRANCH   9  10
ATOM     10  C   UNL A   1      31.689  28.938  24.228  1.00  0.00     0.218 A 
ATOM     11  C   UNL A   1      29.664  29.193  23.080  1.00  0.00     0.052 A 
ATOM     12  C   UNL A   1      30.493  29.605  24.099  1.00  0.00     0.092 A 
ATOM     13  N   UNL A   1      29.995  28.169  22.280  1.00  0.00    -0.217 NA
ATOM     14  C   UNL A   1      31.177  27.564  22.467  1.00  0.00     0.230 A 
ATOM     15  N   UNL A   1      32.034  27.908  23.434  1.00  0.00    -0.177 NA
BRANCH  11  16
ATOM     16  C   UNL A   1      28.324  29.866  22.863  1.00  0.00     0.032 C 
ATOM     17  C   UNL A   1      28.176  30.447  21.452  1.00  0.00     0.014 C 
ATOM     18  C   UNL A   1      27.186  28.885  23.151  1.00  0.00     0.014 C 
ENDBRANCH  11  16
BRANCH  14  19
ATOM     19  N   UNL A   1      31.502  26.455  21.691  1.00  0.00    -0.322 N 
ATOM     20  H   UNL A   1      31.455  26.576  20.716  1.00  0.00     0.170 HD
BRANCH  19  21
ATOM     21  C   UNL A   1      31.889  25.187  22.140  1.00  0.00     0.077 A 
ATOM     22  C   UNL A   1      31.308  24.662  23.302  1.00  0.00     0.032 A 
ATOM     23  C   UNL A   1      32.754  24.358  21.401  1.00  0.00     0.149 A 
ATOM     24  C   UNL A   1      31.566  23.343  23.692  1.00  0.00     0.041 A 
ATOM     25  C   UNL A   1      33.031  23.052  21.792  1.00  0.00     0.080 A 
ATOM     26  F   UNL A   1      33.374  24.830  20.307  1.00  0.00    -0.205 F 
ATOM     27  C   UNL A   1      32.421  22.553  22.930  1.00  0.00     0.126 A 
ATOM     28  F   UNL A   1      32.653  21.286  23.301  1.00  0.00    -0.207 F 
ENDBRANCH  19  21
ENDBRANCH  14  19
ENDBRANCH   9  10
ENDBRANCH   8   9
ENDBRANCH   5   8
ENDBRANCH   3   4
ENDBRANCH   2   3
ENDBRANCH   1   2
BRANCH   1  29
ATOM     29  C   UNL A   1      35.596  23.160  24.435  1.00  0.00     0.002 C 
BRANCH  29  30
ATOM     30  C   UNL A   1      36.237  21.891  24.998  1.00  0.00     0.021 C 
BRANCH  30  31
ATOM     31  C   UNL A   1      37.675  21.648  24.552  1.00  0.00     0.116 C 
BRANCH  31  32
ATOM     32  N   UNL A   1      38.335  20.632  25.357  1.00  0.00    -0.352 N 
ATOM     33  C   UNL A   1      39.365  20.769  26.254  1.00  0.00     0.251 C 
ATOM     34  H   UNL A   1      37.994  19.715  25.243  1.00  0.00     0.163 HD
ATOM     35  O   UNL A   1      39.925  19.770  26.704  1.00  0.00    -0.269 OA
BRANCH  33  36
ATOM     36  C   UNL A   1      39.818  22.117  26.660  1.00  0.00     0.039 A 
ATOM     37  C   UNL A   1      40.874  22.234  27.567  1.00  0.00     0.014 A 
ATOM     38  C   UNL A   1      39.203  23.264  26.149  1.00  0.00     0.014 A 
ATOM     39  C   UNL A   1      41.353  23.500  27.913  1.00  0.00     0.010 A 
ATOM     40  C   UNL A   1      39.732  24.520  26.433  1.00  0.00     0.010 A 
ATOM     41  C   UNL A   1      40.808  24.653  27.323  1.00  0.00    -0.014 A 
BRANCH  41  42
ATOM     42  C   UNL A   1      41.361  26.002  27.614  1.00  0.00     0.031 A 
ATOM     43  C   UNL A   1      42.760  26.360  27.187  1.00  0.00     0.074 A 
ATOM     44  C   UNL A   1      40.632  26.878  28.335  1.00  0.00     0.049 A 
ATOM     45  N   UNL A   1      43.425  27.467  27.393  1.00  0.00    -0.248 NA
ATOM     46  C   UNL A   1      43.520  25.332  26.457  1.00  0.00     0.031 C 
ATOM     47  C   UNL A   1      39.293  26.626  28.871  1.00  0.00     0.029 A 
ATOM     48  N   UNL A   1      40.925  28.149  28.764  1.00  0.00    -0.354 N 
ATOM     49  C   UNL A   1      44.690  27.257  26.854  1.00  0.00     0.074 A 
ATOM     50  C   UNL A   1      44.709  25.905  26.339  1.00  0.00     0.031 C 
ATOM     51  C   UNL A   1      38.878  27.708  29.548  1.00  0.00     0.029 A 
ATOM     52  C   UNL A   1      39.932  28.717  29.528  1.00  0.00     0.049 A 
ATOM     53  H   UNL A   1      41.766  28.611  28.545  1.00  0.00     0.167 HD
ATOM     54  C   UNL A   1      45.732  28.117  26.773  1.00  0.00     0.034 A 
ATOM     55  C   UNL A   1      39.878  29.911  30.151  1.00  0.00     0.034 A 
ATOM     56  C   UNL A   1      45.697  29.473  27.254  1.00  0.00     0.049 A 
ATOM     57  C   UNL A   1      41.042  30.857  30.021  1.00  0.00     0.074 A 
ATOM     58  C   UNL A   1      46.669  30.452  27.134  1.00  0.00     0.029 A 
ATOM     59  N   UNL A   1      44.646  30.037  27.959  1.00  0.00    -0.354 N 
ATOM     60  N   UNL A   1      42.166  30.699  29.367  1.00  0.00    -0.248 NA
ATOM     61  C   UNL A   1      40.914  32.162  30.687  1.00  0.00     0.031 C 
ATOM     62  C   UNL A   1      46.220  31.595  27.801  1.00  0.00     0.029 A 
ATOM     63  C   UNL A   1      44.952  31.344  28.298  1.00  0.00     0.049 A 
ATOM     64  H   UNL A   1      43.806  29.576  28.186  1.00  0.00     0.167 HD
ATOM     65  C   UNL A   1      42.862  31.894  29.507  1.00  0.00     0.074 A 
ATOM     66  C   UNL A   1      42.022  32.775  30.293  1.00  0.00     0.031 C 
ATOM     67  C   UNL A   1      44.088  32.229  29.038  1.00  0.00     0.034 A 
BRANCH  54  68
ATOM     68  C   UNL A   1      46.996  27.633  26.108  1.00  0.00     0.023 A 
ATOM     69  C   UNL A   1      47.923  26.864  26.841  1.00  0.00     0.012 A 
ATOM     70  C   UNL A   1      47.233  27.882  24.742  1.00  0.00     0.148 A 
ATOM     71  C   UNL A   1      49.083  26.382  26.235  1.00  0.00     0.002 A 
ATOM     72  C   UNL A   1      48.366  27.357  24.133  1.00  0.00     0.091 A 
ATOM     73  F   UNL A   1      46.349  28.631  24.066  1.00  0.00    -0.205 F 
ATOM     74  C   UNL A   1      49.298  26.619  24.880  1.00  0.00     0.022 A 
BRANCH  72  75
ATOM     75  S   UNL A   1      48.692  27.532  22.375  1.00  0.00     0.127 S 
ATOM     76  O   UNL A   1      49.989  28.208  22.382  1.00  0.00    -0.237 OA
ATOM     77  O   UNL A   1      48.733  26.139  21.931  1.00  0.00    -0.237 OA
ATOM     78  O   UNL A   1      47.587  28.311  21.835  1.00  0.00    -0.744 OA
ENDBRANCH  72  75
ENDBRANCH  54  68
BRANCH  55  79
ATOM     79  C   UNL A   1      38.658  30.304  30.912  1.00  0.00     0.023 A 
ATOM     80  C   UNL A   1      38.522  29.906  32.257  1.00  0.00     0.012 A 
ATOM     81  C   UNL A   1      37.640  31.074  30.320  1.00  0.00     0.148 A 
ATOM     82  C   UNL A   1      37.378  30.234  32.985  1.00  0.00     0.002 A 
ATOM     83  C   UNL A   1      36.530  31.447  31.066  1.00  0.00     0.091 A 
ATOM     84  F   UNL A   1      37.783  31.436  29.036  1.00  0.00    -0.205 F 
ATOM     85  C   UNL A   1      36.386  31.012  32.393  1.00  0.00     0.022 A 
BRANCH  83  86
ATOM     86  S   UNL A   1      35.266  32.554  30.430  1.00  0.00     0.127 S 
ATOM     87  O   UNL A   1      34.699  31.765  29.339  1.00  0.00    -0.237 OA
ATOM     88  O   UNL A   1      34.394  32.716  31.593  1.00  0.00    -0.237 OA
ATOM     89  O   UNL A   1      35.967  33.767  30.032  1.00  0.00    -0.744 OA
ENDBRANCH  83  86
ENDBRANCH  55  79
BRANCH  67  90
ATOM     90  C   UNL A   1      44.588  33.624  29.313  1.00  0.00     0.023 A 
ATOM     91  C   UNL A   1      44.309  34.667  28.409  1.00  0.00     0.012 A 
ATOM     92  C   UNL A   1      45.276  33.911  30.510  1.00  0.00     0.148 A 
ATOM     93  C   UNL A   1      44.737  35.968  28.674  1.00  0.00     0.002 A 
ATOM     94  C   UNL A   1      45.652  35.218  30.792  1.00  0.00     0.091 A 
ATOM     95  F   UNL A   1      45.548  32.902  31.350  1.00  0.00    -0.205 F 
ATOM     96  C   UNL A   1      45.397  36.245  29.869  1.00  0.00     0.022 A 
BRANCH  94  97
ATOM     97  S   UNL A   1      46.415  35.687  32.349  1.00  0.00     0.127 S 
ATOM     98  O   UNL A   1      45.415  35.242  33.318  1.00  0.00    -0.237 OA
ATOM     99  O   UNL A   1      47.647  34.897  32.339  1.00  0.00    -0.237 OA
ATOM    100  O   UNL A   1      46.620  37.127  32.281  1.00  0.00    -0.744 OA
ENDBRANCH  94  97
ENDBRANCH  67  90
ENDBRANCH  41  42
ENDBRANCH  33  36
ENDBRANCH  31  32
ENDBRANCH  30  31
ENDBRANCH  29  30
ENDBRANCH   1  29
TORSDOF 21
ENDMDL
MODEL 3
REMARK VINA RESULT:     -11.0      6.151     10.914
REMARK SMILES CC(C)c1cc(OCC(=O)NCCCCCCNC(=O)c2ccc(-c3c4nc(c(-c5cccc(S(=O)(=O)[O-])c5F)c5ccc([nH]5)c(-c5cccc(S(=O)(=O)[O-])c5F)c5nc(c(-c6cccc(S(=O)(=O)[O-])c6F)c6ccc3[nH]6)C=C5)C=C4)cc2)nc(Nc2ccc(F)cc2F)n1
REMARK SMILES IDX 14 1 13 2 12 3 11 4 9 5 10 6 8 8 7 9 6 10 4 11 5 12 95 13
REMARK SMILES IDX 85 14 84 15 2 16 1 17 3 18 86 19 87 21 88 22 93 23 89 24
REMARK SMILES IDX 92 25 94 26 90 27 91 28 15 29 16 30 17 31 18 32 19 33 20 35
REMARK SMILES IDX 21 36 22 37 83 38 23 39 82 40 24 41 25 42 26 43 76 44 27 45
REMARK SMILES IDX 81 46 75 47 77 48 28 49 80 50 74 51 73 52 29 54 61 55 41 56
REMARK SMILES IDX 60 57 42 58 45 59 59 60 78 61 43 62 44 63 58 65 79 66 46 67
REMARK SMILES IDX 30 68 31 69 39 70 32 71 34 72 40 73 33 74 35 75 36 76 37 77
REMARK SMILES IDX 38 78 62 79 63 80 71 81 64 82 66 83 72 84 65 85 67 86 68 87
REMARK SMILES IDX 69 88 70 89 47 90 48 91 56 92 49 93 51 94 57 95 50 96 52 97
REMARK SMILES IDX 53 98 54 99 55 100
REMARK H PARENT 11 7 86 20 18 34 77 53 45 64
REMARK Flexibility Score: inf
ROOT
ATOM      1  C   UNL A   1      35.826  33.361  28.500  1.00  0.00     0.002 C 
ENDROOT
BRANCH   1   2
ATOM      2  C   UNL A   1      35.171  32.033  28.904  1.00  0.00     0.021 C 
BRANCH   2   3
ATOM      3  C   UNL A   1      34.065  31.558  27.963  1.00  0.00     0.116 C 
BRANCH   3   4
ATOM      4  N   UNL A   1      33.989  30.110  27.915  1.00  0.00    -0.353 N 
ATOM      5  C   UNL A   1      33.317  29.330  27.023  1.00  0.00     0.258 C 
ATOM      6  O   UNL A   1      33.356  28.104  27.150  1.00  0.00    -0.271 OA
ATOM      7  H   UNL A   1      34.486  29.630  28.616  1.00  0.00     0.163 HD
BRANCH   5   8
ATOM      8  C   UNL A   1      32.546  29.986  25.872  1.00  0.00     0.331 C 
BRANCH   8   9
ATOM      9  O   UNL A   1      32.469  29.272  24.651  1.00  0.00    -0.467 OA
BRANCH   9  10
ATOM     10  C   UNL A   1      31.247  28.839  24.225  1.00  0.00     0.218 A 
ATOM     11  C   UNL A   1      29.124  29.005  23.250  1.00  0.00     0.052 A 
ATOM     12  C   UNL A   1      30.283  29.633  23.648  1.00  0.00     0.092 A 
ATOM     13  N   UNL A   1      28.936  27.692  23.451  1.00  0.00    -0.217 NA
ATOM     14  C   UNL A   1      29.919  26.982  24.023  1.00  0.00     0.230 A 
ATOM     15  N   UNL A   1      31.071  27.522  24.434  1.00  0.00    -0.177 NA
BRANCH  11  16
ATOM     16  C   UNL A   1      28.004  29.798  22.609  1.00  0.00     0.032 C 
ATOM     17  C   UNL A   1      27.438  30.878  23.539  1.00  0.00     0.014 C 
ATOM     18  C   UNL A   1      28.483  30.428  21.300  1.00  0.00     0.014 C 
ENDBRANCH  11  16
BRANCH  14  19
ATOM     19  N   UNL A   1      29.710  25.635  24.302  1.00  0.00    -0.322 N 
ATOM     20  H   UNL A   1      28.820  25.394  24.646  1.00  0.00     0.170 HD
BRANCH  19  21
ATOM     21  C   UNL A   1      30.620  24.583  24.146  1.00  0.00     0.077 A 
ATOM     22  C   UNL A   1      31.340  24.468  22.950  1.00  0.00     0.032 A 
ATOM     23  C   UNL A   1      30.936  23.700  25.196  1.00  0.00     0.149 A 
ATOM     24  C   UNL A   1      32.358  23.517  22.822  1.00  0.00     0.041 A 
ATOM     25  C   UNL A   1      31.934  22.739  25.071  1.00  0.00     0.080 A 
ATOM     26  F   UNL A   1      30.242  23.737  26.345  1.00  0.00    -0.205 F 
ATOM     27  C   UNL A   1      32.647  22.667  23.886  1.00  0.00     0.126 A 
ATOM     28  F   UNL A   1      33.633  21.769  23.763  1.00  0.00    -0.207 F 
ENDBRANCH  19  21
ENDBRANCH  14  19
ENDBRANCH   9  10
ENDBRANCH   8   9
ENDBRANCH   5   8
ENDBRANCH   3   4
ENDBRANCH   2   3
ENDBRANCH   1   2
BRANCH   1  29
ATOM     29  C   UNL A   1      34.891  34.385  27.848  1.00  0.00     0.002 C 
BRANCH  29  30
ATOM     30  C   UNL A   1      34.177  35.326  28.820  1.00  0.00     0.021 C 
BRANCH  30  31
ATOM     31  C   UNL A   1      33.051  34.683  29.623  1.00  0.00     0.116 C 
BRANCH  31  32
ATOM     32  N   UNL A   1      32.503  35.588  30.623  1.00  0.00    -0.352 N 
ATOM     33  C   UNL A   1      32.846  35.730  31.944  1.00  0.00     0.251 C 
ATOM     34  H   UNL A   1      31.786  36.183  30.306  1.00  0.00     0.163 HD
ATOM     35  O   UNL A   1      32.146  36.415  32.689  1.00  0.00    -0.269 OA
BRANCH  33  36
ATOM     36  C   UNL A   1      34.042  35.042  32.477  1.00  0.00     0.039 A 
ATOM     37  C   UNL A   1      33.891  33.801  33.099  1.00  0.00     0.014 A 
ATOM     38  C   UNL A   1      35.310  35.620  32.362  1.00  0.00     0.014 A 
ATOM     39  C   UNL A   1      35.018  33.111  33.551  1.00  0.00     0.010 A 
ATOM     40  C   UNL A   1      36.438  34.897  32.742  1.00  0.00     0.010 A 
ATOM     41  C   UNL A   1      36.305  33.638  33.347  1.00  0.00    -0.014 A 
BRANCH  41  42
ATOM     42  C   UNL A   1      37.520  32.880  33.746  1.00  0.00     0.031 A 
ATOM     43  C   UNL A   1      38.290  33.270  34.980  1.00  0.00     0.074 A 
ATOM     44  C   UNL A   1      37.977  31.891  32.952  1.00  0.00     0.049 A 
ATOM     45  N   UNL A   1      39.394  32.757  35.457  1.00  0.00    -0.248 NA
ATOM     46  C   UNL A   1      37.766  34.399  35.766  1.00  0.00     0.031 C 
ATOM     47  C   UNL A   1      37.365  31.466  31.691  1.00  0.00     0.029 A 
ATOM     48  N   UNL A   1      39.079  31.080  33.073  1.00  0.00    -0.354 N 
ATOM     49  C   UNL A   1      39.718  33.521  36.573  1.00  0.00     0.074 A 
ATOM     50  C   UNL A   1      38.710  34.552  36.684  1.00  0.00     0.031 C 
ATOM     51  C   UNL A   1      38.092  30.470  31.161  1.00  0.00     0.029 A 
ATOM     52  C   UNL A   1      39.242  30.209  32.021  1.00  0.00     0.049 A 
ATOM     53  H   UNL A   1      39.694  31.119  33.841  1.00  0.00     0.167 HD
ATOM     54  C   UNL A   1      40.746  33.365  37.439  1.00  0.00     0.034 A 
ATOM     55  C   UNL A   1      40.212  29.307  31.770  1.00  0.00     0.034 A 
ATOM     56  C   UNL A   1      41.727  32.317  37.347  1.00  0.00     0.049 A 
ATOM     57  C   UNL A   1      41.329  29.138  32.765  1.00  0.00     0.074 A 
ATOM     58  C   UNL A   1      42.751  32.018  38.229  1.00  0.00     0.029 A 
ATOM     59  N   UNL A   1      41.818  31.406  36.306  1.00  0.00    -0.354 N 
ATOM     60  N   UNL A   1      41.526  29.764  33.900  1.00  0.00    -0.248 NA
ATOM     61  C   UNL A   1      42.338  28.113  32.463  1.00  0.00     0.031 C 
ATOM     62  C   UNL A   1      43.485  30.952  37.701  1.00  0.00     0.029 A 
ATOM     63  C   UNL A   1      42.891  30.557  36.513  1.00  0.00     0.049 A 
ATOM     64  H   UNL A   1      41.208  31.369  35.533  1.00  0.00     0.167 HD
ATOM     65  C   UNL A   1      42.655  29.183  34.466  1.00  0.00     0.074 A 
ATOM     66  C   UNL A   1      43.087  28.141  33.557  1.00  0.00     0.031 C 
ATOM     67  C   UNL A   1      43.283  29.490  35.626  1.00  0.00     0.034 A 
BRANCH  54  68
ATOM     68  C   UNL A   1      40.849  34.332  38.592  1.00  0.00     0.023 A 
ATOM     69  C   UNL A   1      41.669  35.474  38.478  1.00  0.00     0.012 A 
ATOM     70  C   UNL A   1      40.084  34.146  39.760  1.00  0.00     0.148 A 
ATOM     71  C   UNL A   1      41.755  36.395  39.521  1.00  0.00     0.002 A 
ATOM     72  C   UNL A   1      40.137  35.094  40.775  1.00  0.00     0.091 A 
ATOM     73  F   UNL A   1      39.325  33.045  39.859  1.00  0.00    -0.205 F 
ATOM     74  C   UNL A   1      40.980  36.211  40.664  1.00  0.00     0.022 A 
BRANCH  72  75
ATOM     75  S   UNL A   1      39.116  34.993  42.250  1.00  0.00     0.127 S 
ATOM     76  O   UNL A   1      39.806  35.916  43.150  1.00  0.00    -0.237 OA
ATOM     77  O   UNL A   1      37.823  35.471  41.760  1.00  0.00    -0.237 OA
ATOM     78  O   UNL A   1      39.133  33.595  42.658  1.00  0.00    -0.744 OA
ENDBRANCH  72  75
ENDBRANCH  54  68
BRANCH  55  79
ATOM     79  C   UNL A   1      40.145  28.455  30.548  1.00  0.00     0.023 A 
ATOM     80  C   UNL A   1      39.262  27.358  30.517  1.00  0.00     0.012 A 
ATOM     81  C   UNL A   1      40.939  28.729  29.419  1.00  0.00     0.148 A 
ATOM     82  C   UNL A   1      39.199  26.527  29.399  1.00  0.00     0.002 A 
ATOM     83  C   UNL A   1      40.829  27.932  28.286  1.00  0.00     0.091 A 
ATOM     84  F   UNL A   1      41.779  29.773  29.471  1.00  0.00    -0.205 F 
ATOM     85  C   UNL A   1      39.976  26.818  28.280  1.00  0.00     0.022 A 
BRANCH  83  86
ATOM     86  S   UNL A   1      41.693  28.307  26.755  1.00  0.00     0.127 S 
ATOM     87  O   UNL A   1      42.006  26.972  26.254  1.00  0.00    -0.237 OA
ATOM     88  O   UNL A   1      40.667  29.025  26.000  1.00  0.00    -0.237 OA
ATOM     89  O   UNL A   1      42.837  29.122  27.138  1.00  0.00    -0.744 OA
ENDBRANCH  83  86
ENDBRANCH  55  79
BRANCH  67  90
ATOM     90  C   UNL A   1      44.482  28.664  36.016  1.00  0.00     0.023 A 
ATOM     91  C   UNL A   1      45.779  29.096  35.678  1.00  0.00     0.012 A 
ATOM     92  C   UNL A   1      44.321  27.491  36.783  1.00  0.00     0.148 A 
ATOM     93  C   UNL A   1      46.896  28.356  36.065  1.00  0.00     0.002 A 
ATOM     94  C   UNL A   1      45.440  26.789  37.211  1.00  0.00     0.091 A 
ATOM     95  F   UNL A   1      43.077  27.087  37.080  1.00  0.00    -0.205 F 
ATOM     96  C   UNL A   1      46.728  27.210  36.841  1.00  0.00     0.022 A 
BRANCH  94  97
ATOM     97  S   UNL A   1      45.325  25.361  38.295  1.00  0.00     0.127 S 
ATOM     98  O   UNL A   1      46.604  24.697  38.049  1.00  0.00    -0.237 OA
ATOM     99  O   UNL A   1      45.206  25.985  39.614  1.00  0.00    -0.237 OA
ATOM    100  O   UNL A   1      44.147  24.623  37.866  1.00  0.00    -0.744 OA
ENDBRANCH  94  97
ENDBRANCH  67  90
ENDBRANCH  41  42
ENDBRANCH  33  36
ENDBRANCH  31  32
ENDBRANCH  30  31
ENDBRANCH  29  30
ENDBRANCH   1  29
TORSDOF 21
ENDMDL
