MODEL 1
REMARK VINA RESULT:     -11.4      0.000      0.000
REMARK SMILES CC[C@H](C(=O)NCCCCCCNC(=O)c1ccc(-c2c3nc(c(-c4cccc(S(=O)(=O)[O-])c4F)c4ccc([nH]4)c(-c4cccc(S(=O)(=O)[O-])c4F)c4nc(c(-c5cccc(S(=O)(=O)[O-])c5F)c5ccc2[nH]5)C=C4)C=C3)cc1)N1C(=O)/C(=C\c2cccs2)SC1=S
REMARK SMILES IDX 10 1 9 2 8 3 7 4 6 5 4 6 5 7 3 9 2 10 1 11 79 12 80 13 90 14
REMARK SMILES IDX 81 15 82 16 89 17 91 18 83 19 84 20 85 21 88 22 86 23 87 24
REMARK SMILES IDX 11 25 12 26 13 27 14 28 15 30 16 31 17 32 78 33 18 34 77 35
REMARK SMILES IDX 19 36 20 37 21 38 71 39 22 40 76 41 70 42 72 43 23 44 75 45
REMARK SMILES IDX 69 46 68 47 24 49 56 50 36 51 55 52 37 53 40 54 54 55 73 56
REMARK SMILES IDX 38 57 39 58 53 60 74 61 41 62 25 63 26 64 34 65 27 66 29 67
REMARK SMILES IDX 35 68 28 69 30 70 31 71 32 72 33 73 57 74 58 75 66 76 59 77
REMARK SMILES IDX 61 78 67 79 60 80 62 81 63 82 64 83 65 84 42 85 43 86 51 87
REMARK SMILES IDX 44 88 46 89 52 90 45 91 47 92 48 93 49 94 50 95
REMARK H PARENT 6 8 13 29 72 48 40 59
REMARK Flexibility Score: inf
ROOT
ATOM      1  C   UNL A   1      31.856  27.817  27.270  1.00  0.00     0.002 C 
ENDROOT
BRANCH   1   2
ATOM      2  C   UNL A   1      31.118  27.019  26.187  1.00  0.00     0.002 C 
BRANCH   2   3
ATOM      3  C   UNL A   1      31.436  25.522  26.184  1.00  0.00     0.021 C 
BRANCH   3   4
ATOM      4  C   UNL A   1      32.927  25.252  26.328  1.00  0.00     0.116 C 
BRANCH   4   5
ATOM      5  N   UNL A   1      33.181  23.944  26.911  1.00  0.00    -0.354 N 
ATOM      6  C   UNL A   1      33.934  22.910  26.436  1.00  0.00     0.243 C 
ATOM      7  O   UNL A   1      34.266  22.032  27.243  1.00  0.00    -0.273 OA
ATOM      8  H   UNL A   1      32.745  23.780  27.777  1.00  0.00     0.163 HD
BRANCH   6   9
ATOM      9  C   UNL A   1      34.456  22.852  24.975  1.00  0.00     0.181 C 
BRANCH   9  10
ATOM     10  C   UNL A   1      35.978  22.704  24.763  1.00  0.00     0.032 C 
ATOM     11  C   UNL A   1      36.427  23.024  23.338  1.00  0.00     0.006 C 
ENDBRANCH   9  10
BRANCH   9  12
ATOM     12  N   UNL A   1      33.601  22.020  24.079  1.00  0.00    -0.280 N 
ATOM     13  C   UNL A   1      33.714  20.638  24.065  1.00  0.00     0.266 C 
ATOM     14  C   UNL A   1      32.698  22.543  23.171  1.00  0.00     0.149 C 
ATOM     15  O   UNL A   1      34.549  19.967  24.642  1.00  0.00    -0.268 OA
ATOM     16  C   UNL A   1      32.665  20.022  23.206  1.00  0.00     0.081 C 
ATOM     17  S   UNL A   1      31.935  21.248  22.248  1.00  0.00    -0.054 SA
ATOM     18  S   UNL A   1      32.286  24.139  22.899  1.00  0.00    -0.052 S 
ATOM     19  C   UNL A   1      32.284  18.736  23.170  1.00  0.00     0.040 C 
BRANCH  19  20
ATOM     20  C   UNL A   1      32.761  17.744  24.074  1.00  0.00     0.028 A 
ATOM     21  C   UNL A   1      32.339  17.454  25.362  1.00  0.00     0.020 A 
ATOM     22  S   UNL A   1      34.000  16.657  23.586  1.00  0.00    -0.144 S 
ATOM     23  C   UNL A   1      33.067  16.384  25.960  1.00  0.00     0.012 A 
ATOM     24  C   UNL A   1      34.016  15.872  25.106  1.00  0.00     0.065 A 
ENDBRANCH  19  20
ENDBRANCH   9  12
ENDBRANCH   6   9
ENDBRANCH   4   5
ENDBRANCH   3   4
ENDBRANCH   2   3
ENDBRANCH   1   2
BRANCH   1  25
ATOM     25  C   UNL A   1      31.778  29.339  27.114  1.00  0.00     0.021 C 
BRANCH  25  26
ATOM     26  C   UNL A   1      33.081  29.988  26.659  1.00  0.00     0.116 C 
BRANCH  26  27
ATOM     27  N   UNL A   1      33.071  31.422  26.903  1.00  0.00    -0.352 N 
ATOM     28  C   UNL A   1      33.860  32.169  27.737  1.00  0.00     0.251 C 
ATOM     29  H   UNL A   1      32.398  31.930  26.395  1.00  0.00     0.163 HD
ATOM     30  O   UNL A   1      33.530  33.317  28.023  1.00  0.00    -0.269 OA
BRANCH  28  31
ATOM     31  C   UNL A   1      35.103  31.592  28.287  1.00  0.00     0.039 A 
ATOM     32  C   UNL A   1      36.265  32.366  28.276  1.00  0.00     0.014 A 
ATOM     33  C   UNL A   1      35.131  30.286  28.784  1.00  0.00     0.014 A 
ATOM     34  C   UNL A   1      37.445  31.840  28.799  1.00  0.00     0.010 A 
ATOM     35  C   UNL A   1      36.289  29.793  29.380  1.00  0.00     0.010 A 
ATOM     36  C   UNL A   1      37.462  30.560  29.381  1.00  0.00    -0.014 A 
BRANCH  36  37
ATOM     37  C   UNL A   1      38.701  30.042  30.015  1.00  0.00     0.031 A 
ATOM     38  C   UNL A   1      39.147  30.538  31.363  1.00  0.00     0.074 A 
ATOM     39  C   UNL A   1      39.450  29.147  29.344  1.00  0.00     0.049 A 
ATOM     40  N   UNL A   1      40.168  30.151  32.082  1.00  0.00    -0.248 NA
ATOM     41  C   UNL A   1      38.362  31.622  31.975  1.00  0.00     0.031 C 
ATOM     42  C   UNL A   1      39.175  28.664  27.988  1.00  0.00     0.029 A 
ATOM     43  N   UNL A   1      40.599  28.489  29.702  1.00  0.00    -0.354 N 
ATOM     44  C   UNL A   1      40.167  30.956  33.214  1.00  0.00     0.074 A 
ATOM     45  C   UNL A   1      39.063  31.881  33.070  1.00  0.00     0.031 C 
ATOM     46  C   UNL A   1      40.114  27.771  27.640  1.00  0.00     0.029 A 
ATOM     47  C   UNL A   1      41.073  27.640  28.731  1.00  0.00     0.049 A 
ATOM     48  H   UNL A   1      41.041  28.613  30.574  1.00  0.00     0.167 HD
ATOM     49  C   UNL A   1      40.991  30.913  34.288  1.00  0.00     0.034 A 
ATOM     50  C   UNL A   1      42.160  26.843  28.718  1.00  0.00     0.034 A 
ATOM     51  C   UNL A   1      42.072  29.974  34.436  1.00  0.00     0.049 A 
ATOM     52  C   UNL A   1      43.029  26.780  29.943  1.00  0.00     0.074 A 
ATOM     53  C   UNL A   1      42.903  29.785  35.525  1.00  0.00     0.029 A 
ATOM     54  N   UNL A   1      42.485  29.082  33.458  1.00  0.00    -0.354 N 
ATOM     55  N   UNL A   1      42.903  27.422  31.078  1.00  0.00    -0.248 NA
ATOM     56  C   UNL A   1      44.167  25.852  29.897  1.00  0.00     0.031 C 
ATOM     57  C   UNL A   1      43.847  28.807  35.190  1.00  0.00     0.029 A 
ATOM     58  C   UNL A   1      43.574  28.355  33.910  1.00  0.00     0.049 A 
ATOM     59  H   UNL A   1      42.066  28.979  32.574  1.00  0.00     0.167 HD
ATOM     60  C   UNL A   1      43.930  26.959  31.893  1.00  0.00     0.074 A 
ATOM     61  C   UNL A   1      44.645  25.955  31.129  1.00  0.00     0.031 C 
ATOM     62  C   UNL A   1      44.262  27.339  33.151  1.00  0.00     0.034 A 
BRANCH  49  63
ATOM     63  C   UNL A   1      40.735  31.889  35.409  1.00  0.00     0.023 A 
ATOM     64  C   UNL A   1      41.609  32.978  35.605  1.00  0.00     0.012 A 
ATOM     65  C   UNL A   1      39.596  31.764  36.229  1.00  0.00     0.148 A 
ATOM     66  C   UNL A   1      41.376  33.904  36.622  1.00  0.00     0.002 A 
ATOM     67  C   UNL A   1      39.343  32.718  37.208  1.00  0.00     0.091 A 
ATOM     68  F   UNL A   1      38.786  30.712  36.042  1.00  0.00    -0.205 F 
ATOM     69  C   UNL A   1      40.238  33.781  37.415  1.00  0.00     0.022 A 
BRANCH  67  70
ATOM     70  S   UNL A   1      37.864  32.696  38.226  1.00  0.00     0.127 S 
ATOM     71  O   UNL A   1      38.077  33.864  39.081  1.00  0.00    -0.237 OA
ATOM     72  O   UNL A   1      36.804  32.855  37.231  1.00  0.00    -0.237 OA
ATOM     73  O   UNL A   1      37.867  31.413  38.914  1.00  0.00    -0.744 OA
ENDBRANCH  67  70
ENDBRANCH  49  63
BRANCH  50  74
ATOM     74  C   UNL A   1      42.450  26.005  27.522  1.00  0.00     0.023 A 
ATOM     75  C   UNL A   1      43.190  26.545  26.452  1.00  0.00     0.012 A 
ATOM     76  C   UNL A   1      42.024  24.665  27.456  1.00  0.00     0.148 A 
ATOM     77  C   UNL A   1      43.470  25.775  25.322  1.00  0.00     0.002 A 
ATOM     78  C   UNL A   1      42.359  23.886  26.356  1.00  0.00     0.091 A 
ATOM     79  F   UNL A   1      41.315  24.174  28.481  1.00  0.00    -0.205 F 
ATOM     80  C   UNL A   1      43.064  24.444  25.279  1.00  0.00     0.022 A 
BRANCH  78  81
ATOM     81  S   UNL A   1      41.998  22.128  26.277  1.00  0.00     0.127 S 
ATOM     82  O   UNL A   1      40.548  22.128  26.101  1.00  0.00    -0.237 OA
ATOM     83  O   UNL A   1      42.763  21.718  25.098  1.00  0.00    -0.237 OA
ATOM     84  O   UNL A   1      42.482  21.569  27.531  1.00  0.00    -0.744 OA
ENDBRANCH  78  81
ENDBRANCH  50  74
BRANCH  62  85
ATOM     85  C   UNL A   1      45.440  26.653  33.793  1.00  0.00     0.023 A 
ATOM     86  C   UNL A   1      46.726  27.225  33.698  1.00  0.00     0.012 A 
ATOM     87  C   UNL A   1      45.269  25.461  34.524  1.00  0.00     0.148 A 
ATOM     88  C   UNL A   1      47.828  26.595  34.274  1.00  0.00     0.002 A 
ATOM     89  C   UNL A   1      46.362  24.869  35.143  1.00  0.00     0.091 A 
ATOM     90  F   UNL A   1      44.043  24.921  34.591  1.00  0.00    -0.205 F 
ATOM     91  C   UNL A   1      47.644  25.423  35.006  1.00  0.00     0.022 A 
BRANCH  89  92
ATOM     92  S   UNL A   1      46.207  23.415  36.187  1.00  0.00     0.127 S 
ATOM     93  O   UNL A   1      45.791  22.399  35.221  1.00  0.00    -0.237 OA
ATOM     94  O   UNL A   1      47.568  23.251  36.696  1.00  0.00    -0.237 OA
ATOM     95  O   UNL A   1      45.219  23.753  37.202  1.00  0.00    -0.744 OA
ENDBRANCH  89  92
ENDBRANCH  62  85
ENDBRANCH  36  37
ENDBRANCH  28  31
ENDBRANCH  26  27
ENDBRANCH  25  26
ENDBRANCH   1  25
TORSDOF 19
ENDMDL
MODEL 2
REMARK VINA RESULT:     -10.9      3.296      8.951
REMARK SMILES CC[C@H](C(=O)NCCCCCCNC(=O)c1ccc(-c2c3nc(c(-c4cccc(S(=O)(=O)[O-])c4F)c4ccc([nH]4)c(-c4cccc(S(=O)(=O)[O-])c4F)c4nc(c(-c5cccc(S(=O)(=O)[O-])c5F)c5ccc2[nH]5)C=C4)C=C3)cc1)N1C(=O)/C(=C\c2cccs2)SC1=S
REMARK SMILES IDX 10 1 9 2 8 3 7 4 6 5 4 6 5 7 3 9 2 10 1 11 79 12 80 13 90 14
REMARK SMILES IDX 81 15 82 16 89 17 91 18 83 19 84 20 85 21 88 22 86 23 87 24
REMARK SMILES IDX 11 25 12 26 13 27 14 28 15 30 16 31 17 32 78 33 18 34 77 35
REMARK SMILES IDX 19 36 20 37 21 38 71 39 22 40 76 41 70 42 72 43 23 44 75 45
REMARK SMILES IDX 69 46 68 47 24 49 56 50 36 51 55 52 37 53 40 54 54 55 73 56
REMARK SMILES IDX 38 57 39 58 53 60 74 61 41 62 25 63 26 64 34 65 27 66 29 67
REMARK SMILES IDX 35 68 28 69 30 70 31 71 32 72 33 73 57 74 58 75 66 76 59 77
REMARK SMILES IDX 61 78 67 79 60 80 62 81 63 82 64 83 65 84 42 85 43 86 51 87
REMARK SMILES IDX 44 88 46 89 52 90 45 91 47 92 48 93 49 94 50 95
REMARK H PARENT 6 8 13 29 72 48 40 59
REMARK Flexibility Score: inf
ROOT
ATOM      1  C   UNL A   1      31.389  30.770  26.260  1.00  0.00     0.002 C 
ENDROOT
BRANCH   1   2
ATOM      2  C   UNL A   1      32.453  29.887  26.926  1.00  0.00     0.002 C 
BRANCH   2   3
ATOM      3  C   UNL A   1      32.462  28.437  26.436  1.00  0.00     0.021 C 
BRANCH   3   4
ATOM      4  C   UNL A   1      33.720  28.107  25.643  1.00  0.00     0.116 C 
BRANCH   4   5
ATOM      5  N   UNL A   1      33.736  26.717  25.217  1.00  0.00    -0.354 N 
ATOM      6  C   UNL A   1      33.370  26.168  24.023  1.00  0.00     0.243 C 
ATOM      7  O   UNL A   1      33.771  25.022  23.778  1.00  0.00    -0.273 OA
ATOM      8  H   UNL A   1      34.058  26.077  25.890  1.00  0.00     0.163 HD
BRANCH   6   9
ATOM      9  C   UNL A   1      32.570  26.951  22.947  1.00  0.00     0.181 C 
BRANCH   9  10
ATOM     10  C   UNL A   1      32.965  26.746  21.469  1.00  0.00     0.032 C 
ATOM     11  C   UNL A   1      32.535  25.392  20.908  1.00  0.00     0.006 C 
ENDBRANCH   9  10
BRANCH   9  12
ATOM     12  N   UNL A   1      31.103  26.988  23.218  1.00  0.00    -0.280 N 
ATOM     13  C   UNL A   1      30.401  28.184  23.192  1.00  0.00     0.266 C 
ATOM     14  C   UNL A   1      30.356  25.878  23.569  1.00  0.00     0.149 C 
ATOM     15  O   UNL A   1      30.867  29.302  23.079  1.00  0.00    -0.268 OA
ATOM     16  C   UNL A   1      28.938  27.952  23.347  1.00  0.00     0.081 C 
ATOM     17  S   UNL A   1      28.681  26.338  23.878  1.00  0.00    -0.054 SA
ATOM     18  S   UNL A   1      30.839  24.285  23.702  1.00  0.00    -0.052 S 
ATOM     19  C   UNL A   1      27.939  28.811  23.093  1.00  0.00     0.040 C 
BRANCH  19  20
ATOM     20  C   UNL A   1      28.128  30.089  22.495  1.00  0.00     0.028 A 
ATOM     21  C   UNL A   1      28.192  30.431  21.153  1.00  0.00     0.020 A 
ATOM     22  S   UNL A   1      28.253  31.492  23.480  1.00  0.00    -0.144 S 
ATOM     23  C   UNL A   1      28.397  31.825  20.941  1.00  0.00     0.012 A 
ATOM     24  C   UNL A   1      28.468  32.517  22.127  1.00  0.00     0.065 A 
ENDBRANCH  19  20
ENDBRANCH   9  12
ENDBRANCH   6   9
ENDBRANCH   4   5
ENDBRANCH   3   4
ENDBRANCH   2   3
ENDBRANCH   1   2
BRANCH   1  25
ATOM     25  C   UNL A   1      31.319  32.205  26.790  1.00  0.00     0.021 C 
BRANCH  25  26
ATOM     26  C   UNL A   1      32.678  32.866  26.986  1.00  0.00     0.116 C 
BRANCH  26  27
ATOM     27  N   UNL A   1      32.539  34.221  27.498  1.00  0.00    -0.352 N 
ATOM     28  C   UNL A   1      33.099  34.794  28.608  1.00  0.00     0.251 C 
ATOM     29  H   UNL A   1      31.956  34.812  26.968  1.00  0.00     0.163 HD
ATOM     30  O   UNL A   1      32.654  35.856  29.036  1.00  0.00    -0.269 OA
BRANCH  28  31
ATOM     31  C   UNL A   1      34.234  34.136  29.284  1.00  0.00     0.039 A 
ATOM     32  C   UNL A   1      33.991  33.403  30.447  1.00  0.00     0.014 A 
ATOM     33  C   UNL A   1      35.537  34.263  28.791  1.00  0.00     0.014 A 
ATOM     34  C   UNL A   1      35.050  32.767  31.094  1.00  0.00     0.010 A 
ATOM     35  C   UNL A   1      36.579  33.561  29.392  1.00  0.00     0.010 A 
ATOM     36  C   UNL A   1      36.348  32.818  30.557  1.00  0.00    -0.014 A 
BRANCH  36  37
ATOM     37  C   UNL A   1      37.454  32.066  31.202  1.00  0.00     0.031 A 
ATOM     38  C   UNL A   1      38.247  31.043  30.435  1.00  0.00     0.074 A 
ATOM     39  C   UNL A   1      37.715  32.282  32.505  1.00  0.00     0.049 A 
ATOM     40  N   UNL A   1      39.278  30.341  30.828  1.00  0.00    -0.248 NA
ATOM     41  C   UNL A   1      37.816  30.751  29.058  1.00  0.00     0.031 C 
ATOM     42  C   UNL A   1      36.953  33.175  33.381  1.00  0.00     0.029 A 
ATOM     43  N   UNL A   1      38.684  31.763  33.326  1.00  0.00    -0.354 N 
ATOM     44  C   UNL A   1      39.602  29.509  29.764  1.00  0.00     0.074 A 
ATOM     45  C   UNL A   1      38.635  29.765  28.719  1.00  0.00     0.031 C 
ATOM     46  C   UNL A   1      37.496  33.160  34.607  1.00  0.00     0.029 A 
ATOM     47  C   UNL A   1      38.625  32.235  34.615  1.00  0.00     0.049 A 
ATOM     48  H   UNL A   1      39.358  31.113  33.019  1.00  0.00     0.167 HD
ATOM     49  C   UNL A   1      40.628  28.630  29.655  1.00  0.00     0.034 A 
ATOM     50  C   UNL A   1      39.392  31.954  35.686  1.00  0.00     0.034 A 
ATOM     51  C   UNL A   1      41.602  28.398  30.689  1.00  0.00     0.049 A 
ATOM     52  C   UNL A   1      40.552  31.013  35.524  1.00  0.00     0.074 A 
ATOM     53  C   UNL A   1      42.732  27.602  30.643  1.00  0.00     0.029 A 
ATOM     54  N   UNL A   1      41.549  28.943  31.964  1.00  0.00    -0.354 N 
ATOM     55  N   UNL A   1      40.951  30.372  34.452  1.00  0.00    -0.248 NA
ATOM     56  C   UNL A   1      41.391  30.788  36.708  1.00  0.00     0.031 C 
ATOM     57  C   UNL A   1      43.341  27.632  31.903  1.00  0.00     0.029 A 
ATOM     58  C   UNL A   1      42.615  28.483  32.720  1.00  0.00     0.049 A 
ATOM     59  H   UNL A   1      40.857  29.565  32.283  1.00  0.00     0.167 HD
ATOM     60  C   UNL A   1      42.101  29.686  34.825  1.00  0.00     0.074 A 
ATOM     61  C   UNL A   1      42.353  30.022  36.213  1.00  0.00     0.031 C 
ATOM     62  C   UNL A   1      42.871  28.845  34.092  1.00  0.00     0.034 A 
BRANCH  49  63
ATOM     63  C   UNL A   1      40.773  27.878  28.356  1.00  0.00     0.023 A 
ATOM     64  C   UNL A   1      41.452  28.473  27.273  1.00  0.00     0.012 A 
ATOM     65  C   UNL A   1      40.292  26.560  28.226  1.00  0.00     0.148 A 
ATOM     66  C   UNL A   1      41.617  27.786  26.071  1.00  0.00     0.002 A 
ATOM     67  C   UNL A   1      40.503  25.863  27.043  1.00  0.00     0.091 A 
ATOM     68  F   UNL A   1      39.631  26.017  29.258  1.00  0.00    -0.205 F 
ATOM     69  C   UNL A   1      41.153  26.478  25.960  1.00  0.00     0.022 A 
BRANCH  67  70
ATOM     70  S   UNL A   1      40.018  24.147  26.827  1.00  0.00     0.127 S 
ATOM     71  O   UNL A   1      41.145  23.616  26.061  1.00  0.00    -0.237 OA
ATOM     72  O   UNL A   1      39.945  23.674  28.210  1.00  0.00    -0.237 OA
ATOM     73  O   UNL A   1      38.744  24.173  26.124  1.00  0.00    -0.744 OA
ENDBRANCH  67  70
ENDBRANCH  49  63
BRANCH  50  74
ATOM     74  C   UNL A   1      39.114  32.617  36.991  1.00  0.00     0.023 A 
ATOM     75  C   UNL A   1      39.800  33.798  37.336  1.00  0.00     0.012 A 
ATOM     76  C   UNL A   1      38.148  32.101  37.875  1.00  0.00     0.148 A 
ATOM     77  C   UNL A   1      39.554  34.433  38.554  1.00  0.00     0.002 A 
ATOM     78  C   UNL A   1      37.864  32.770  39.058  1.00  0.00     0.091 A 
ATOM     79  F   UNL A   1      37.512  30.972  37.531  1.00  0.00    -0.205 F 
ATOM     80  C   UNL A   1      38.579  33.925  39.409  1.00  0.00     0.022 A 
BRANCH  78  81
ATOM     81  S   UNL A   1      36.531  32.267  40.151  1.00  0.00     0.127 S 
ATOM     82  O   UNL A   1      36.606  33.280  41.201  1.00  0.00    -0.237 OA
ATOM     83  O   UNL A   1      35.365  32.375  39.272  1.00  0.00    -0.237 OA
ATOM     84  O   UNL A   1      36.849  30.906  40.562  1.00  0.00    -0.744 OA
ENDBRANCH  78  81
ENDBRANCH  50  74
BRANCH  62  85
ATOM     85  C   UNL A   1      44.074  28.240  34.770  1.00  0.00     0.023 A 
ATOM     86  C   UNL A   1      45.309  28.919  34.749  1.00  0.00     0.012 A 
ATOM     87  C   UNL A   1      43.971  27.017  35.462  1.00  0.00     0.148 A 
ATOM     88  C   UNL A   1      46.434  28.366  35.360  1.00  0.00     0.002 A 
ATOM     89  C   UNL A   1      45.082  26.499  36.116  1.00  0.00     0.091 A 
ATOM     90  F   UNL A   1      42.793  26.376  35.458  1.00  0.00    -0.205 F 
ATOM     91  C   UNL A   1      46.318  27.162  36.053  1.00  0.00     0.022 A 
BRANCH  89  92
ATOM     92  S   UNL A   1      45.003  25.008  37.113  1.00  0.00     0.127 S 
ATOM     93  O   UNL A   1      44.208  25.455  38.256  1.00  0.00    -0.237 OA
ATOM     94  O   UNL A   1      44.318  24.073  36.221  1.00  0.00    -0.237 OA
ATOM     95  O   UNL A   1      46.384  24.653  37.414  1.00  0.00    -0.744 OA
ENDBRANCH  89  92
ENDBRANCH  62  85
ENDBRANCH  36  37
ENDBRANCH  28  31
ENDBRANCH  26  27
ENDBRANCH  25  26
ENDBRANCH   1  25
TORSDOF 19
ENDMDL
MODEL 3
REMARK VINA RESULT:     -10.8      5.839      8.691
REMARK SMILES CC[C@H](C(=O)NCCCCCCNC(=O)c1ccc(-c2c3nc(c(-c4cccc(S(=O)(=O)[O-])c4F)c4ccc([nH]4)c(-c4cccc(S(=O)(=O)[O-])c4F)c4nc(c(-c5cccc(S(=O)(=O)[O-])c5F)c5ccc2[nH]5)C=C4)C=C3)cc1)N1C(=O)/C(=C\c2cccs2)SC1=S
REMARK SMILES IDX 10 1 9 2 8 3 7 4 6 5 4 6 5 7 3 9 2 10 1 11 79 12 80 13 90 14
REMARK SMILES IDX 81 15 82 16 89 17 91 18 83 19 84 20 85 21 88 22 86 23 87 24
REMARK SMILES IDX 11 25 12 26 13 27 14 28 15 30 16 31 17 32 78 33 18 34 77 35
REMARK SMILES IDX 19 36 20 37 21 38 71 39 22 40 76 41 70 42 72 43 23 44 75 45
REMARK SMILES IDX 69 46 68 47 24 49 56 50 36 51 55 52 37 53 40 54 54 55 73 56
REMARK SMILES IDX 38 57 39 58 53 60 74 61 41 62 25 63 26 64 34 65 27 66 29 67
REMARK SMILES IDX 35 68 28 69 30 70 31 71 32 72 33 73 57 74 58 75 66 76 59 77
REMARK SMILES IDX 61 78 67 79 60 80 62 81 63 82 64 83 65 84 42 85 43 86 51 87
REMARK SMILES IDX 44 88 46 89 52 90 45 91 47 92 48 93 49 94 50 95
REMARK H PARENT 6 8 13 29 72 48 40 59
REMARK Flexibility Score: inf
ROOT
ATOM      1  C   UNL A   1      39.621  21.806  26.033  1.00  0.00     0.002 C 
ENDROOT
BRANCH   1   2
ATOM      2  C   UNL A   1      38.310  22.520  25.675  1.00  0.00     0.002 C 
BRANCH   2   3
ATOM      3  C   UNL A   1      37.257  21.616  25.030  1.00  0.00     0.021 C 
BRANCH   3   4
ATOM      4  C   UNL A   1      36.572  22.286  23.848  1.00  0.00     0.116 C 
BRANCH   4   5
ATOM      5  N   UNL A   1      36.020  23.580  24.212  1.00  0.00    -0.354 N 
ATOM      6  C   UNL A   1      34.999  23.884  25.066  1.00  0.00     0.243 C 
ATOM      7  O   UNL A   1      34.920  25.053  25.464  1.00  0.00    -0.273 OA
ATOM      8  H   UNL A   1      36.445  24.354  23.778  1.00  0.00     0.163 HD
BRANCH   6   9
ATOM      9  C   UNL A   1      34.019  22.813  25.617  1.00  0.00     0.181 C 
BRANCH   9  10
ATOM     10  C   UNL A   1      33.135  23.202  26.822  1.00  0.00     0.032 C 
ATOM     11  C   UNL A   1      33.281  22.255  28.012  1.00  0.00     0.006 C 
ENDBRANCH   9  10
BRANCH   9  12
ATOM     12  N   UNL A   1      33.331  22.040  24.542  1.00  0.00    -0.280 N 
ATOM     13  C   UNL A   1      33.533  20.674  24.403  1.00  0.00     0.266 C 
ATOM     14  C   UNL A   1      32.509  22.610  23.587  1.00  0.00     0.149 C 
ATOM     15  O   UNL A   1      34.336  19.990  25.008  1.00  0.00    -0.268 OA
ATOM     16  C   UNL A   1      32.634  20.101  23.362  1.00  0.00     0.081 C 
ATOM     17  S   UNL A   1      31.945  21.385  22.451  1.00  0.00    -0.054 SA
ATOM     18  S   UNL A   1      32.029  24.202  23.429  1.00  0.00    -0.052 S 
ATOM     19  C   UNL A   1      32.344  18.809  23.150  1.00  0.00     0.040 C 
BRANCH  19  20
ATOM     20  C   UNL A   1      32.775  17.752  24.000  1.00  0.00     0.028 A 
ATOM     21  C   UNL A   1      32.253  17.334  25.215  1.00  0.00     0.020 A 
ATOM     22  S   UNL A   1      34.087  16.746  23.530  1.00  0.00    -0.144 S 
ATOM     23  C   UNL A   1      32.962  16.233  25.778  1.00  0.00     0.012 A 
ATOM     24  C   UNL A   1      33.998  15.826  24.970  1.00  0.00     0.065 A 
ENDBRANCH  19  20
ENDBRANCH   9  12
ENDBRANCH   6   9
ENDBRANCH   4   5
ENDBRANCH   3   4
ENDBRANCH   2   3
ENDBRANCH   1   2
BRANCH   1  25
ATOM     25  C   UNL A   1      39.610  20.290  25.811  1.00  0.00     0.021 C 
BRANCH  25  26
ATOM     26  C   UNL A   1      40.404  19.502  26.846  1.00  0.00     0.116 C 
BRANCH  26  27
ATOM     27  N   UNL A   1      41.563  18.857  26.246  1.00  0.00    -0.352 N 
ATOM     28  C   UNL A   1      42.686  19.419  25.700  1.00  0.00     0.251 C 
ATOM     29  H   UNL A   1      41.534  17.873  26.230  1.00  0.00     0.163 HD
ATOM     30  O   UNL A   1      43.427  18.740  24.996  1.00  0.00    -0.269 OA
BRANCH  28  31
ATOM     31  C   UNL A   1      43.001  20.838  25.962  1.00  0.00     0.039 A 
ATOM     32  C   UNL A   1      43.165  21.258  27.283  1.00  0.00     0.014 A 
ATOM     33  C   UNL A   1      43.108  21.756  24.912  1.00  0.00     0.014 A 
ATOM     34  C   UNL A   1      43.472  22.592  27.547  1.00  0.00     0.010 A 
ATOM     35  C   UNL A   1      43.494  23.068  25.173  1.00  0.00     0.010 A 
ATOM     36  C   UNL A   1      43.667  23.503  26.493  1.00  0.00    -0.014 A 
BRANCH  36  37
ATOM     37  C   UNL A   1      44.079  24.900  26.779  1.00  0.00     0.031 A 
ATOM     38  C   UNL A   1      43.116  25.884  27.384  1.00  0.00     0.074 A 
ATOM     39  C   UNL A   1      45.325  25.291  26.449  1.00  0.00     0.049 A 
ATOM     40  N   UNL A   1      43.330  27.122  27.749  1.00  0.00    -0.248 NA
ATOM     41  C   UNL A   1      41.730  25.433  27.585  1.00  0.00     0.031 C 
ATOM     42  C   UNL A   1      46.318  24.458  25.767  1.00  0.00     0.029 A 
ATOM     43  N   UNL A   1      45.968  26.489  26.630  1.00  0.00    -0.354 N 
ATOM     44  C   UNL A   1      42.107  27.606  28.196  1.00  0.00     0.074 A 
ATOM     45  C   UNL A   1      41.144  26.539  28.022  1.00  0.00     0.031 C 
ATOM     46  C   UNL A   1      47.450  25.160  25.609  1.00  0.00     0.029 A 
ATOM     47  C   UNL A   1      47.255  26.501  26.150  1.00  0.00     0.049 A 
ATOM     48  H   UNL A   1      45.546  27.266  27.065  1.00  0.00     0.167 HD
ATOM     49  C   UNL A   1      41.816  28.817  28.728  1.00  0.00     0.034 A 
ATOM     50  C   UNL A   1      48.179  27.483  26.143  1.00  0.00     0.034 A 
ATOM     51  C   UNL A   1      42.783  29.864  28.921  1.00  0.00     0.049 A 
ATOM     52  C   UNL A   1      47.844  28.800  26.784  1.00  0.00     0.074 A 
ATOM     53  C   UNL A   1      42.611  31.091  29.538  1.00  0.00     0.029 A 
ATOM     54  N   UNL A   1      44.098  29.820  28.481  1.00  0.00    -0.354 N 
ATOM     55  N   UNL A   1      46.731  29.175  27.366  1.00  0.00    -0.248 NA
ATOM     56  C   UNL A   1      48.906  29.815  26.801  1.00  0.00     0.031 C 
ATOM     57  C   UNL A   1      43.811  31.805  29.434  1.00  0.00     0.029 A 
ATOM     58  C   UNL A   1      44.743  31.006  28.793  1.00  0.00     0.049 A 
ATOM     59  H   UNL A   1      44.512  29.057  28.016  1.00  0.00     0.167 HD
ATOM     60  C   UNL A   1      46.965  30.461  27.841  1.00  0.00     0.074 A 
ATOM     61  C   UNL A   1      48.340  30.782  27.509  1.00  0.00     0.031 C 
ATOM     62  C   UNL A   1      46.118  31.304  28.481  1.00  0.00     0.034 A 
BRANCH  49  63
ATOM     63  C   UNL A   1      40.396  29.065  29.175  1.00  0.00     0.023 A 
ATOM     64  C   UNL A   1      39.420  29.445  28.231  1.00  0.00     0.012 A 
ATOM     65  C   UNL A   1      40.015  28.861  30.516  1.00  0.00     0.148 A 
ATOM     66  C   UNL A   1      38.097  29.656  28.621  1.00  0.00     0.002 A 
ATOM     67  C   UNL A   1      38.686  29.025  30.887  1.00  0.00     0.091 A 
ATOM     68  F   UNL A   1      40.960  28.519  31.404  1.00  0.00    -0.205 F 
ATOM     69  C   UNL A   1      37.729  29.435  29.945  1.00  0.00     0.022 A 
BRANCH  67  70
ATOM     70  S   UNL A   1      38.093  28.685  32.548  1.00  0.00     0.127 S 
ATOM     71  O   UNL A   1      38.999  29.501  33.357  1.00  0.00    -0.237 OA
ATOM     72  O   UNL A   1      36.718  29.180  32.489  1.00  0.00    -0.237 OA
ATOM     73  O   UNL A   1      38.216  27.247  32.735  1.00  0.00    -0.744 OA
ENDBRANCH  67  70
ENDBRANCH  49  63
BRANCH  50  74
ATOM     74  C   UNL A   1      49.523  27.231  25.554  1.00  0.00     0.023 A 
ATOM     75  C   UNL A   1      50.554  26.708  26.360  1.00  0.00     0.012 A 
ATOM     76  C   UNL A   1      49.775  27.475  24.191  1.00  0.00     0.148 A 
ATOM     77  C   UNL A   1      51.820  26.467  25.827  1.00  0.00     0.002 A 
ATOM     78  C   UNL A   1      51.019  27.176  23.652  1.00  0.00     0.091 A 
ATOM     79  F   UNL A   1      48.783  27.980  23.444  1.00  0.00    -0.205 F 
ATOM     80  C   UNL A   1      52.050  26.691  24.471  1.00  0.00     0.022 A 
BRANCH  78  81
ATOM     81  S   UNL A   1      51.361  27.301  21.893  1.00  0.00     0.127 S 
ATOM     82  O   UNL A   1      52.687  26.696  21.802  1.00  0.00    -0.237 OA
ATOM     83  O   UNL A   1      50.276  26.503  21.320  1.00  0.00    -0.237 OA
ATOM     84  O   UNL A   1      51.291  28.722  21.577  1.00  0.00    -0.744 OA
ENDBRANCH  78  81
ENDBRANCH  50  74
BRANCH  62  85
ATOM     85  C   UNL A   1      46.658  32.653  28.883  1.00  0.00     0.023 A 
ATOM     86  C   UNL A   1      47.288  32.814  30.135  1.00  0.00     0.012 A 
ATOM     87  C   UNL A   1      46.576  33.752  28.007  1.00  0.00     0.148 A 
ATOM     88  C   UNL A   1      47.780  34.059  30.527  1.00  0.00     0.002 A 
ATOM     89  C   UNL A   1      47.118  34.975  28.381  1.00  0.00     0.091 A 
ATOM     90  F   UNL A   1      45.959  33.586  26.827  1.00  0.00    -0.205 F 
ATOM     91  C   UNL A   1      47.705  35.136  29.646  1.00  0.00     0.022 A 
BRANCH  89  92
ATOM     92  S   UNL A   1      47.156  36.390  27.275  1.00  0.00     0.127 S 
ATOM     93  O   UNL A   1      47.913  35.862  26.141  1.00  0.00    -0.237 OA
ATOM     94  O   UNL A   1      45.736  36.615  27.009  1.00  0.00    -0.237 OA
ATOM     95  O   UNL A   1      47.808  37.461  28.017  1.00  0.00    -0.744 OA
ENDBRANCH  89  92
ENDBRANCH  62  85
ENDBRANCH  36  37
ENDBRANCH  28  31
ENDBRANCH  26  27
ENDBRANCH  25  26
ENDBRANCH   1  25
TORSDOF 19
ENDMDL
