MODEL 1
REMARK VINA RESULT:     -12.0      0.000      0.000
REMARK SMILES C[C@H]1CC[C@@](Nc2ccc(C(N)=O)nn2)(C(=O)NCCCCCCNC(=O)c2ccc(-c3c4nc(c(-c5cccc(S(=O)(=O)[O-])c5F)c5ccc([nH]5)c(-c5cccc(S(=O)(=O)[O-])c5F)c5nc(c(-c6cccc(S(=O)(=O)[O-])c6F)c6ccc3[nH]6)C=C5)C=C4)cc2)CC1
REMARK SMILES IDX 21 1 20 2 19 3 18 4 16 5 17 6 5 8 1 9 2 10 92 11 3 12 91 13
REMARK SMILES IDX 4 14 6 15 7 17 8 18 15 19 9 20 14 21 10 22 11 23 12 24 13 25
REMARK SMILES IDX 22 28 23 29 24 30 25 31 26 32 27 34 28 35 29 36 90 37 30 38
REMARK SMILES IDX 89 39 31 40 32 41 33 42 83 43 34 44 88 45 82 46 84 47 35 48
REMARK SMILES IDX 87 49 81 50 80 51 36 53 68 54 48 55 67 56 49 57 52 58 66 59
REMARK SMILES IDX 85 60 50 61 51 62 65 64 86 65 53 66 37 67 38 68 46 69 39 70
REMARK SMILES IDX 41 71 47 72 40 73 42 74 43 75 44 76 45 77 69 78 70 79 78 80
REMARK SMILES IDX 71 81 73 82 79 83 72 84 74 85 75 86 76 87 77 88 54 89 55 90
REMARK SMILES IDX 63 91 56 92 58 93 64 94 57 95 59 96 60 97 61 98 62 99
REMARK H PARENT 18 7 6 16 12 26 12 27 25 33 84 52 52 63
REMARK Flexibility Score: inf
ROOT
ATOM      1  C   UNL A   1      32.703  22.509  27.672  1.00  0.00     0.002 C 
ENDROOT
BRANCH   1   2
ATOM      2  C   UNL A   1      31.595  23.298  26.967  1.00  0.00     0.021 C 
BRANCH   2   3
ATOM      3  C   UNL A   1      31.372  22.844  25.531  1.00  0.00     0.116 C 
BRANCH   3   4
ATOM      4  N   UNL A   1      30.629  23.850  24.798  1.00  0.00    -0.354 N 
ATOM      5  C   UNL A   1      30.957  24.575  23.694  1.00  0.00     0.245 C 
ATOM      6  O   UNL A   1      30.057  25.283  23.228  1.00  0.00    -0.272 OA
ATOM      7  H   UNL A   1      29.734  24.042  25.161  1.00  0.00     0.163 HD
BRANCH   5   8
ATOM      8  C   UNL A   1      32.371  24.468  23.018  1.00  0.00     0.118 C 
ATOM      9  C   UNL A   1      33.668  28.203  24.953  1.00  0.00     0.007 C 
ATOM     10  C   UNL A   1      33.750  26.949  24.082  1.00  0.00    -0.014 C 
ATOM     11  C   UNL A   1      32.756  27.026  22.915  1.00  0.00     0.006 C 
ATOM     12  C   UNL A   1      33.521  25.704  24.939  1.00  0.00     0.006 C 
ATOM     13  C   UNL A   1      32.630  25.711  22.126  1.00  0.00     0.039 C 
ATOM     14  C   UNL A   1      33.504  24.445  24.078  1.00  0.00     0.039 C 
BRANCH   8  15
ATOM     15  N   UNL A   1      32.495  23.255  22.155  1.00  0.00    -0.354 N 
ATOM     16  H   UNL A   1      32.411  23.365  21.180  1.00  0.00     0.163 HD
BRANCH  15  17
ATOM     17  C   UNL A   1      32.721  21.984  22.652  1.00  0.00     0.149 A 
ATOM     18  C   UNL A   1      31.903  20.894  22.387  1.00  0.00     0.051 A 
ATOM     19  N   UNL A   1      33.733  21.858  23.540  1.00  0.00    -0.132 NA
ATOM     20  C   UNL A   1      32.047  19.724  23.132  1.00  0.00     0.040 A 
ATOM     21  N   UNL A   1      33.880  20.713  24.297  1.00  0.00    -0.143 NA
ATOM     22  C   UNL A   1      33.027  19.683  24.107  1.00  0.00     0.150 A 
BRANCH  22  23
ATOM     23  C   UNL A   1      33.129  18.530  25.045  1.00  0.00     0.269 C 
ATOM     24  N   UNL A   1      32.838  18.779  26.358  1.00  0.00    -0.364 N 
ATOM     25  O   UNL A   1      33.427  17.404  24.657  1.00  0.00    -0.268 OA
ATOM     26  H   UNL A   1      32.600  19.691  26.645  1.00  0.00     0.160 HD
ATOM     27  H   UNL A   1      32.865  18.048  27.016  1.00  0.00     0.160 HD
ENDBRANCH  22  23
ENDBRANCH  15  17
ENDBRANCH   8  15
ENDBRANCH   5   8
ENDBRANCH   3   4
ENDBRANCH   2   3
ENDBRANCH   1   2
BRANCH   1  28
ATOM     28  C   UNL A   1      34.126  22.971  27.332  1.00  0.00     0.002 C 
BRANCH  28  29
ATOM     29  C   UNL A   1      35.054  21.860  26.830  1.00  0.00     0.021 C 
BRANCH  29  30
ATOM     30  C   UNL A   1      36.277  22.364  26.071  1.00  0.00     0.116 C 
BRANCH  30  31
ATOM     31  N   UNL A   1      37.314  21.349  25.992  1.00  0.00    -0.352 N 
ATOM     32  C   UNL A   1      38.674  21.482  26.073  1.00  0.00     0.251 C 
ATOM     33  H   UNL A   1      36.990  20.429  25.861  1.00  0.00     0.163 HD
ATOM     34  O   UNL A   1      39.392  20.537  25.760  1.00  0.00    -0.269 OA
BRANCH  32  35
ATOM     35  C   UNL A   1      39.274  22.754  26.525  1.00  0.00     0.039 A 
ATOM     36  C   UNL A   1      40.291  22.705  27.480  1.00  0.00     0.014 A 
ATOM     37  C   UNL A   1      38.821  23.988  26.045  1.00  0.00     0.014 A 
ATOM     38  C   UNL A   1      40.873  23.890  27.928  1.00  0.00     0.010 A 
ATOM     39  C   UNL A   1      39.457  25.163  26.433  1.00  0.00     0.010 A 
ATOM     40  C   UNL A   1      40.480  25.129  27.390  1.00  0.00    -0.014 A 
BRANCH  40  41
ATOM     41  C   UNL A   1      41.162  26.376  27.821  1.00  0.00     0.031 A 
ATOM     42  C   UNL A   1      42.591  26.651  27.440  1.00  0.00     0.074 A 
ATOM     43  C   UNL A   1      40.487  27.256  28.586  1.00  0.00     0.049 A 
ATOM     44  N   UNL A   1      43.304  27.726  27.659  1.00  0.00    -0.248 NA
ATOM     45  C   UNL A   1      43.322  25.581  26.744  1.00  0.00     0.031 C 
ATOM     46  C   UNL A   1      39.131  27.056  29.104  1.00  0.00     0.029 A 
ATOM     47  N   UNL A   1      40.847  28.490  29.064  1.00  0.00    -0.354 N 
ATOM     48  C   UNL A   1      44.569  27.455  27.150  1.00  0.00     0.074 A 
ATOM     49  C   UNL A   1      44.538  26.099  26.648  1.00  0.00     0.031 C 
ATOM     50  C   UNL A   1      38.762  28.143  29.800  1.00  0.00     0.029 A 
ATOM     51  C   UNL A   1      39.860  29.103  29.800  1.00  0.00     0.049 A 
ATOM     52  H   UNL A   1      41.727  28.898  28.895  1.00  0.00     0.167 HD
ATOM     53  C   UNL A   1      45.648  28.272  27.077  1.00  0.00     0.034 A 
ATOM     54  C   UNL A   1      39.839  30.308  30.402  1.00  0.00     0.034 A 
ATOM     55  C   UNL A   1      45.665  29.629  27.554  1.00  0.00     0.049 A 
ATOM     56  C   UNL A   1      41.031  31.213  30.261  1.00  0.00     0.074 A 
ATOM     57  C   UNL A   1      46.678  30.566  27.450  1.00  0.00     0.029 A 
ATOM     58  N   UNL A   1      44.627  30.240  28.241  1.00  0.00    -0.354 N 
ATOM     59  N   UNL A   1      42.155  31.004  29.619  1.00  0.00    -0.248 NA
ATOM     60  C   UNL A   1      40.934  32.536  30.892  1.00  0.00     0.031 C 
ATOM     61  C   UNL A   1      46.265  31.733  28.104  1.00  0.00     0.029 A 
ATOM     62  C   UNL A   1      44.980  31.536  28.582  1.00  0.00     0.049 A 
ATOM     63  H   UNL A   1      43.765  29.816  28.455  1.00  0.00     0.167 HD
ATOM     64  C   UNL A   1      42.889  32.178  29.745  1.00  0.00     0.074 A 
ATOM     65  C   UNL A   1      42.063  33.105  30.493  1.00  0.00     0.031 C 
ATOM     66  C   UNL A   1      44.139  32.459  29.300  1.00  0.00     0.034 A 
BRANCH  53  67
ATOM     67  C   UNL A   1      46.892  27.732  26.414  1.00  0.00     0.023 A 
ATOM     68  C   UNL A   1      47.807  26.965  27.166  1.00  0.00     0.012 A 
ATOM     69  C   UNL A   1      47.126  27.929  25.039  1.00  0.00     0.148 A 
ATOM     70  C   UNL A   1      48.950  26.434  26.571  1.00  0.00     0.002 A 
ATOM     71  C   UNL A   1      48.243  27.356  24.441  1.00  0.00     0.091 A 
ATOM     72  F   UNL A   1      46.257  28.677  24.344  1.00  0.00    -0.205 F 
ATOM     73  C   UNL A   1      49.162  26.621  25.208  1.00  0.00     0.022 A 
BRANCH  71  74
ATOM     74  S   UNL A   1      48.566  27.469  22.678  1.00  0.00     0.127 S 
ATOM     75  O   UNL A   1      47.398  28.215  22.211  1.00  0.00    -0.237 OA
ATOM     76  O   UNL A   1      49.822  28.219  22.644  1.00  0.00    -0.237 OA
ATOM     77  O   UNL A   1      48.663  26.098  22.198  1.00  0.00    -0.744 OA
ENDBRANCH  71  74
ENDBRANCH  53  67
BRANCH  54  78
ATOM     78  C   UNL A   1      38.619  30.752  31.134  1.00  0.00     0.023 A 
ATOM     79  C   UNL A   1      38.543  30.586  32.530  1.00  0.00     0.012 A 
ATOM     80  C   UNL A   1      37.547  31.362  30.455  1.00  0.00     0.148 A 
ATOM     81  C   UNL A   1      37.406  30.985  33.233  1.00  0.00     0.002 A 
ATOM     82  C   UNL A   1      36.443  31.812  31.168  1.00  0.00     0.091 A 
ATOM     83  F   UNL A   1      37.636  31.503  29.125  1.00  0.00    -0.205 F 
ATOM     84  C   UNL A   1      36.361  31.607  32.554  1.00  0.00     0.022 A 
BRANCH  82  85
ATOM     85  S   UNL A   1      35.118  32.748  30.399  1.00  0.00     0.127 S 
ATOM     86  O   UNL A   1      34.195  32.933  31.515  1.00  0.00    -0.237 OA
ATOM     87  O   UNL A   1      35.815  33.959  29.966  1.00  0.00    -0.237 OA
ATOM     88  O   UNL A   1      34.630  31.914  29.307  1.00  0.00    -0.744 OA
ENDBRANCH  82  85
ENDBRANCH  54  78
BRANCH  66  89
ATOM     89  C   UNL A   1      44.682  33.834  29.595  1.00  0.00     0.023 A 
ATOM     90  C   UNL A   1      45.255  34.108  30.855  1.00  0.00     0.012 A 
ATOM     91  C   UNL A   1      44.651  34.848  28.617  1.00  0.00     0.148 A 
ATOM     92  C   UNL A   1      45.738  35.382  31.154  1.00  0.00     0.002 A 
ATOM     93  C   UNL A   1      45.185  36.098  28.904  1.00  0.00     0.091 A 
ATOM     94  F   UNL A   1      44.087  34.577  27.432  1.00  0.00    -0.205 F 
ATOM     95  C   UNL A   1      45.712  36.373  30.177  1.00  0.00     0.022 A 
BRANCH  93  96
ATOM     96  S   UNL A   1      45.283  37.405  27.675  1.00  0.00     0.127 S 
ATOM     97  O   UNL A   1      43.871  37.695  27.435  1.00  0.00    -0.237 OA
ATOM     98  O   UNL A   1      46.007  38.454  28.394  1.00  0.00    -0.237 OA
ATOM     99  O   UNL A   1      46.008  36.838  26.547  1.00  0.00    -0.744 OA
ENDBRANCH  93  96
ENDBRANCH  66  89
ENDBRANCH  40  41
ENDBRANCH  32  35
ENDBRANCH  30  31
ENDBRANCH  29  30
ENDBRANCH  28  29
ENDBRANCH   1  28
TORSDOF 19
ENDMDL
MODEL 2
REMARK VINA RESULT:     -11.9      5.638      8.346
REMARK SMILES C[C@H]1CC[C@@](Nc2ccc(C(N)=O)nn2)(C(=O)NCCCCCCNC(=O)c2ccc(-c3c4nc(c(-c5cccc(S(=O)(=O)[O-])c5F)c5ccc([nH]5)c(-c5cccc(S(=O)(=O)[O-])c5F)c5nc(c(-c6cccc(S(=O)(=O)[O-])c6F)c6ccc3[nH]6)C=C5)C=C4)cc2)CC1
REMARK SMILES IDX 21 1 20 2 19 3 18 4 16 5 17 6 5 8 1 9 2 10 92 11 3 12 91 13
REMARK SMILES IDX 4 14 6 15 7 17 8 18 15 19 9 20 14 21 10 22 11 23 12 24 13 25
REMARK SMILES IDX 22 28 23 29 24 30 25 31 26 32 27 34 28 35 29 36 90 37 30 38
REMARK SMILES IDX 89 39 31 40 32 41 33 42 83 43 34 44 88 45 82 46 84 47 35 48
REMARK SMILES IDX 87 49 81 50 80 51 36 53 68 54 48 55 67 56 49 57 52 58 66 59
REMARK SMILES IDX 85 60 50 61 51 62 65 64 86 65 53 66 37 67 38 68 46 69 39 70
REMARK SMILES IDX 41 71 47 72 40 73 42 74 43 75 44 76 45 77 69 78 70 79 78 80
REMARK SMILES IDX 71 81 73 82 79 83 72 84 74 85 75 86 76 87 77 88 54 89 55 90
REMARK SMILES IDX 63 91 56 92 58 93 64 94 57 95 59 96 60 97 61 98 62 99
REMARK H PARENT 18 7 6 16 12 26 12 27 25 33 84 52 52 63
REMARK Flexibility Score: inf
ROOT
ATOM      1  C   UNL A   1      33.445  29.777  27.150  1.00  0.00     0.002 C 
ENDROOT
BRANCH   1   2
ATOM      2  C   UNL A   1      34.363  28.587  26.852  1.00  0.00     0.021 C 
BRANCH   2   3
ATOM      3  C   UNL A   1      33.722  27.570  25.918  1.00  0.00     0.116 C 
BRANCH   3   4
ATOM      4  N   UNL A   1      32.387  27.240  26.379  1.00  0.00    -0.354 N 
ATOM      5  C   UNL A   1      31.355  26.613  25.751  1.00  0.00     0.245 C 
ATOM      6  O   UNL A   1      30.365  26.372  26.452  1.00  0.00    -0.272 OA
ATOM      7  H   UNL A   1      32.193  27.519  27.303  1.00  0.00     0.163 HD
BRANCH   5   8
ATOM      8  C   UNL A   1      31.444  26.166  24.247  1.00  0.00     0.118 C 
ATOM      9  C   UNL A   1      28.242  28.975  23.139  1.00  0.00     0.007 C 
ATOM     10  C   UNL A   1      29.316  27.901  22.964  1.00  0.00    -0.014 C 
ATOM     11  C   UNL A   1      28.948  26.627  23.736  1.00  0.00     0.006 C 
ATOM     12  C   UNL A   1      30.676  28.450  23.392  1.00  0.00     0.006 C 
ATOM     13  C   UNL A   1      30.081  25.587  23.783  1.00  0.00     0.039 C 
ATOM     14  C   UNL A   1      31.750  27.370  23.317  1.00  0.00     0.039 C 
BRANCH   8  15
ATOM     15  N   UNL A   1      32.483  25.114  24.030  1.00  0.00    -0.354 N 
ATOM     16  H   UNL A   1      33.370  25.395  23.707  1.00  0.00     0.163 HD
BRANCH  15  17
ATOM     17  C   UNL A   1      32.266  23.767  24.258  1.00  0.00     0.149 A 
ATOM     18  C   UNL A   1      31.387  23.277  25.214  1.00  0.00     0.051 A 
ATOM     19  N   UNL A   1      33.059  22.908  23.578  1.00  0.00    -0.132 NA
ATOM     20  C   UNL A   1      31.423  21.926  25.559  1.00  0.00     0.040 A 
ATOM     21  N   UNL A   1      33.118  21.572  23.917  1.00  0.00    -0.143 NA
ATOM     22  C   UNL A   1      32.330  21.108  24.912  1.00  0.00     0.150 A 
BRANCH  22  23
ATOM     23  C   UNL A   1      32.535  19.697  25.342  1.00  0.00     0.269 C 
ATOM     24  N   UNL A   1      33.221  19.504  26.510  1.00  0.00    -0.364 N 
ATOM     25  O   UNL A   1      32.083  18.751  24.701  1.00  0.00    -0.268 OA
ATOM     26  H   UNL A   1      33.573  20.277  27.008  1.00  0.00     0.160 HD
ATOM     27  H   UNL A   1      33.362  18.593  26.854  1.00  0.00     0.160 HD
ENDBRANCH  22  23
ENDBRANCH  15  17
ENDBRANCH   8  15
ENDBRANCH   5   8
ENDBRANCH   3   4
ENDBRANCH   2   3
ENDBRANCH   1   2
BRANCH   1  28
ATOM     28  C   UNL A   1      34.118  30.922  27.917  1.00  0.00     0.002 C 
BRANCH  28  29
ATOM     29  C   UNL A   1      33.889  32.313  27.317  1.00  0.00     0.021 C 
BRANCH  29  30
ATOM     30  C   UNL A   1      32.505  32.892  27.592  1.00  0.00     0.116 C 
BRANCH  30  31
ATOM     31  N   UNL A   1      32.560  34.324  27.823  1.00  0.00    -0.352 N 
ATOM     32  C   UNL A   1      33.311  35.037  28.719  1.00  0.00     0.251 C 
ATOM     33  H   UNL A   1      31.968  34.864  27.251  1.00  0.00     0.163 HD
ATOM     34  O   UNL A   1      33.053  36.221  28.916  1.00  0.00    -0.269 OA
BRANCH  32  35
ATOM     35  C   UNL A   1      34.419  34.386  29.448  1.00  0.00     0.039 A 
ATOM     36  C   UNL A   1      34.113  33.621  30.575  1.00  0.00     0.014 A 
ATOM     37  C   UNL A   1      35.751  34.549  29.051  1.00  0.00     0.014 A 
ATOM     38  C   UNL A   1      35.138  32.997  31.284  1.00  0.00     0.010 A 
ATOM     39  C   UNL A   1      36.765  33.860  29.712  1.00  0.00     0.010 A 
ATOM     40  C   UNL A   1      36.472  33.090  30.845  1.00  0.00    -0.014 A 
BRANCH  40  41
ATOM     41  C   UNL A   1      37.543  32.357  31.566  1.00  0.00     0.031 A 
ATOM     42  C   UNL A   1      38.273  31.212  30.918  1.00  0.00     0.074 A 
ATOM     43  C   UNL A   1      37.841  32.717  32.830  1.00  0.00     0.049 A 
ATOM     44  N   UNL A   1      39.289  30.526  31.374  1.00  0.00    -0.248 NA
ATOM     45  C   UNL A   1      37.791  30.763  29.602  1.00  0.00     0.031 C 
ATOM     46  C   UNL A   1      37.137  33.745  33.602  1.00  0.00     0.029 A 
ATOM     47  N   UNL A   1      38.808  32.261  33.688  1.00  0.00    -0.354 N 
ATOM     48  C   UNL A   1      39.555  29.554  30.417  1.00  0.00     0.074 A 
ATOM     49  C   UNL A   1      38.566  29.712  29.372  1.00  0.00     0.031 C 
ATOM     50  C   UNL A   1      37.716  33.863  34.806  1.00  0.00     0.029 A 
ATOM     51  C   UNL A   1      38.812  32.905  34.904  1.00  0.00     0.049 A 
ATOM     52  H   UNL A   1      39.439  31.542  33.457  1.00  0.00     0.167 HD
ATOM     53  C   UNL A   1      40.550  28.635  30.392  1.00  0.00     0.034 A 
ATOM     54  C   UNL A   1      39.614  32.747  35.974  1.00  0.00     0.034 A 
ATOM     55  C   UNL A   1      41.548  28.499  31.421  1.00  0.00     0.049 A 
ATOM     56  C   UNL A   1      40.742  31.756  35.899  1.00  0.00     0.074 A 
ATOM     57  C   UNL A   1      42.647  27.660  31.449  1.00  0.00     0.029 A 
ATOM     58  N   UNL A   1      41.559  29.210  32.611  1.00  0.00    -0.354 N 
ATOM     59  N   UNL A   1      41.085  30.969  34.908  1.00  0.00    -0.248 NA
ATOM     60  C   UNL A   1      41.618  31.663  37.074  1.00  0.00     0.031 C 
ATOM     61  C   UNL A   1      43.303  27.838  32.672  1.00  0.00     0.029 A 
ATOM     62  C   UNL A   1      42.636  28.818  33.390  1.00  0.00     0.049 A 
ATOM     63  H   UNL A   1      40.898  29.894  32.866  1.00  0.00     0.167 HD
ATOM     64  C   UNL A   1      42.233  30.306  35.329  1.00  0.00     0.074 A 
ATOM     65  C   UNL A   1      42.544  30.814  36.650  1.00  0.00     0.031 C 
ATOM     66  C   UNL A   1      42.953  29.351  34.689  1.00  0.00     0.034 A 
BRANCH  53  67
ATOM     67  C   UNL A   1      40.639  27.730  29.187  1.00  0.00     0.023 A 
ATOM     68  C   UNL A   1      39.779  26.616  29.086  1.00  0.00     0.012 A 
ATOM     69  C   UNL A   1      41.526  28.013  28.130  1.00  0.00     0.148 A 
ATOM     70  C   UNL A   1      39.824  25.780  27.971  1.00  0.00     0.002 A 
ATOM     71  C   UNL A   1      41.533  27.203  27.001  1.00  0.00     0.091 A 
ATOM     72  F   UNL A   1      42.351  29.063  28.251  1.00  0.00    -0.205 F 
ATOM     73  C   UNL A   1      40.692  26.079  26.926  1.00  0.00     0.022 A 
BRANCH  71  74
ATOM     74  S   UNL A   1      42.555  27.546  25.564  1.00  0.00     0.127 S 
ATOM     75  O   UNL A   1      43.864  27.764  26.179  1.00  0.00    -0.237 OA
ATOM     76  O   UNL A   1      42.439  26.303  24.802  1.00  0.00    -0.237 OA
ATOM     77  O   UNL A   1      41.966  28.712  24.920  1.00  0.00    -0.744 OA
ENDBRANCH  71  74
ENDBRANCH  53  67
BRANCH  54  78
ATOM     78  C   UNL A   1      39.418  33.598  37.182  1.00  0.00     0.023 A 
ATOM     79  C   UNL A   1      39.929  34.910  37.201  1.00  0.00     0.012 A 
ATOM     80  C   UNL A   1      38.706  33.121  38.299  1.00  0.00     0.148 A 
ATOM     81  C   UNL A   1      39.766  35.721  38.325  1.00  0.00     0.002 A 
ATOM     82  C   UNL A   1      38.495  33.953  39.391  1.00  0.00     0.091 A 
ATOM     83  F   UNL A   1      38.236  31.867  38.264  1.00  0.00    -0.205 F 
ATOM     84  C   UNL A   1      39.041  35.247  39.416  1.00  0.00     0.022 A 
BRANCH  82  85
ATOM     85  S   UNL A   1      37.457  33.477  40.776  1.00  0.00     0.127 S 
ATOM     86  O   UNL A   1      36.255  32.996  40.098  1.00  0.00    -0.237 OA
ATOM     87  O   UNL A   1      38.264  32.437  41.414  1.00  0.00    -0.237 OA
ATOM     88  O   UNL A   1      37.291  34.683  41.577  1.00  0.00    -0.744 OA
ENDBRANCH  82  85
ENDBRANCH  54  78
BRANCH  66  89
ATOM     89  C   UNL A   1      44.162  28.806  35.407  1.00  0.00     0.023 A 
ATOM     90  C   UNL A   1      45.435  29.361  35.161  1.00  0.00     0.012 A 
ATOM     91  C   UNL A   1      44.035  27.763  36.346  1.00  0.00     0.148 A 
ATOM     92  C   UNL A   1      46.567  28.852  35.795  1.00  0.00     0.002 A 
ATOM     93  C   UNL A   1      45.160  27.299  37.016  1.00  0.00     0.091 A 
ATOM     94  F   UNL A   1      42.822  27.234  36.556  1.00  0.00    -0.205 F 
ATOM     95  C   UNL A   1      46.429  27.829  36.728  1.00  0.00     0.022 A 
BRANCH  93  96
ATOM     96  S   UNL A   1      45.064  26.052  38.305  1.00  0.00     0.127 S 
ATOM     97  O   UNL A   1      44.165  26.686  39.267  1.00  0.00    -0.237 OA
ATOM     98  O   UNL A   1      44.489  24.911  37.592  1.00  0.00    -0.237 OA
ATOM     99  O   UNL A   1      46.431  25.847  38.764  1.00  0.00    -0.744 OA
ENDBRANCH  93  96
ENDBRANCH  66  89
ENDBRANCH  40  41
ENDBRANCH  32  35
ENDBRANCH  30  31
ENDBRANCH  29  30
ENDBRANCH  28  29
ENDBRANCH   1  28
TORSDOF 19
ENDMDL
MODEL 3
REMARK VINA RESULT:     -11.9      1.986      2.956
REMARK SMILES C[C@H]1CC[C@@](Nc2ccc(C(N)=O)nn2)(C(=O)NCCCCCCNC(=O)c2ccc(-c3c4nc(c(-c5cccc(S(=O)(=O)[O-])c5F)c5ccc([nH]5)c(-c5cccc(S(=O)(=O)[O-])c5F)c5nc(c(-c6cccc(S(=O)(=O)[O-])c6F)c6ccc3[nH]6)C=C5)C=C4)cc2)CC1
REMARK SMILES IDX 21 1 20 2 19 3 18 4 16 5 17 6 5 8 1 9 2 10 92 11 3 12 91 13
REMARK SMILES IDX 4 14 6 15 7 17 8 18 15 19 9 20 14 21 10 22 11 23 12 24 13 25
REMARK SMILES IDX 22 28 23 29 24 30 25 31 26 32 27 34 28 35 29 36 90 37 30 38
REMARK SMILES IDX 89 39 31 40 32 41 33 42 83 43 34 44 88 45 82 46 84 47 35 48
REMARK SMILES IDX 87 49 81 50 80 51 36 53 68 54 48 55 67 56 49 57 52 58 66 59
REMARK SMILES IDX 85 60 50 61 51 62 65 64 86 65 53 66 37 67 38 68 46 69 39 70
REMARK SMILES IDX 41 71 47 72 40 73 42 74 43 75 44 76 45 77 69 78 70 79 78 80
REMARK SMILES IDX 71 81 73 82 79 83 72 84 74 85 75 86 76 87 77 88 54 89 55 90
REMARK SMILES IDX 63 91 56 92 58 93 64 94 57 95 59 96 60 97 61 98 62 99
REMARK H PARENT 18 7 6 16 12 26 12 27 25 33 84 52 52 63
REMARK Flexibility Score: inf
ROOT
ATOM      1  C   UNL A   1      37.562  22.865  25.141  1.00  0.00     0.002 C 
ENDROOT
BRANCH   1   2
ATOM      2  C   UNL A   1      36.899  23.089  23.778  1.00  0.00     0.021 C 
BRANCH   2   3
ATOM      3  C   UNL A   1      35.428  22.694  23.768  1.00  0.00     0.116 C 
BRANCH   3   4
ATOM      4  N   UNL A   1      34.912  22.656  25.122  1.00  0.00    -0.354 N 
ATOM      5  C   UNL A   1      33.662  22.397  25.594  1.00  0.00     0.245 C 
ATOM      6  O   UNL A   1      33.555  22.325  26.824  1.00  0.00    -0.272 OA
ATOM      7  H   UNL A   1      35.579  22.851  25.820  1.00  0.00     0.163 HD
BRANCH   5   8
ATOM      8  C   UNL A   1      32.445  22.144  24.633  1.00  0.00     0.118 C 
ATOM      9  C   UNL A   1      30.466  25.816  26.037  1.00  0.00     0.007 C 
ATOM     10  C   UNL A   1      30.676  24.529  25.237  1.00  0.00    -0.014 C 
ATOM     11  C   UNL A   1      30.712  23.307  26.164  1.00  0.00     0.006 C 
ATOM     12  C   UNL A   1      31.949  24.641  24.398  1.00  0.00     0.006 C 
ATOM     13  C   UNL A   1      31.136  22.009  25.456  1.00  0.00     0.039 C 
ATOM     14  C   UNL A   1      32.233  23.336  23.662  1.00  0.00     0.039 C 
BRANCH   8  15
ATOM     15  N   UNL A   1      32.609  20.894  23.831  1.00  0.00    -0.354 N 
ATOM     16  H   UNL A   1      32.467  20.942  22.858  1.00  0.00     0.163 HD
BRANCH  15  17
ATOM     17  C   UNL A   1      32.948  19.671  24.382  1.00  0.00     0.149 A 
ATOM     18  C   UNL A   1      34.218  19.116  24.307  1.00  0.00     0.051 A 
ATOM     19  N   UNL A   1      31.935  18.949  24.911  1.00  0.00    -0.132 NA
ATOM     20  C   UNL A   1      34.409  17.777  24.651  1.00  0.00     0.040 A 
ATOM     21  N   UNL A   1      32.102  17.620  25.242  1.00  0.00    -0.143 NA
ATOM     22  C   UNL A   1      33.316  17.048  25.082  1.00  0.00     0.150 A 
BRANCH  22  23
ATOM     23  C   UNL A   1      33.414  15.580  25.310  1.00  0.00     0.269 C 
ATOM     24  N   UNL A   1      32.236  14.901  25.459  1.00  0.00    -0.364 N 
ATOM     25  O   UNL A   1      34.496  14.998  25.332  1.00  0.00    -0.268 OA
ATOM     26  H   UNL A   1      31.381  15.389  25.437  1.00  0.00     0.160 HD
ATOM     27  H   UNL A   1      32.242  13.926  25.587  1.00  0.00     0.160 HD
ENDBRANCH  22  23
ENDBRANCH  15  17
ENDBRANCH   8  15
ENDBRANCH   5   8
ENDBRANCH   3   4
ENDBRANCH   2   3
ENDBRANCH   1   2
BRANCH   1  28
ATOM     28  C   UNL A   1      37.615  21.399  25.588  1.00  0.00     0.002 C 
BRANCH  28  29
ATOM     29  C   UNL A   1      38.921  20.675  25.247  1.00  0.00     0.021 C 
BRANCH  29  30
ATOM     30  C   UNL A   1      39.650  20.098  26.456  1.00  0.00     0.116 C 
BRANCH  30  31
ATOM     31  N   UNL A   1      40.923  19.508  26.082  1.00  0.00    -0.352 N 
ATOM     32  C   UNL A   1      42.147  20.099  25.917  1.00  0.00     0.251 C 
ATOM     33  H   UNL A   1      40.903  18.536  25.924  1.00  0.00     0.163 HD
ATOM     34  O   UNL A   1      43.055  19.470  25.382  1.00  0.00    -0.269 OA
BRANCH  32  35
ATOM     35  C   UNL A   1      42.371  21.487  26.372  1.00  0.00     0.039 A 
ATOM     36  C   UNL A   1      42.586  21.712  27.733  1.00  0.00     0.014 A 
ATOM     37  C   UNL A   1      42.338  22.564  25.479  1.00  0.00     0.014 A 
ATOM     38  C   UNL A   1      42.797  23.012  28.192  1.00  0.00     0.010 A 
ATOM     39  C   UNL A   1      42.630  23.850  25.927  1.00  0.00     0.010 A 
ATOM     40  C   UNL A   1      42.847  24.090  27.290  1.00  0.00    -0.014 A 
BRANCH  40  41
ATOM     41  C   UNL A   1      43.149  25.458  27.784  1.00  0.00     0.031 A 
ATOM     42  C   UNL A   1      44.554  25.994  27.775  1.00  0.00     0.074 A 
ATOM     43  C   UNL A   1      42.143  26.212  28.268  1.00  0.00     0.049 A 
ATOM     44  N   UNL A   1      44.976  27.192  28.087  1.00  0.00    -0.248 NA
ATOM     45  C   UNL A   1      45.628  25.065  27.388  1.00  0.00     0.031 C 
ATOM     46  C   UNL A   1      40.755  25.768  28.421  1.00  0.00     0.029 A 
ATOM     47  N   UNL A   1      42.130  27.506  28.721  1.00  0.00    -0.354 N 
ATOM     48  C   UNL A   1      46.359  27.158  27.957  1.00  0.00     0.074 A 
ATOM     49  C   UNL A   1      46.711  25.807  27.577  1.00  0.00     0.031 C 
ATOM     50  C   UNL A   1      40.020  26.783  28.903  1.00  0.00     0.029 A 
ATOM     51  C   UNL A   1      40.885  27.938  29.117  1.00  0.00     0.049 A 
ATOM     52  H   UNL A   1      42.935  28.072  28.760  1.00  0.00     0.167 HD
ATOM     53  C   UNL A   1      47.252  28.165  28.107  1.00  0.00     0.034 A 
ATOM     54  C   UNL A   1      40.484  29.133  29.591  1.00  0.00     0.034 A 
ATOM     55  C   UNL A   1      46.894  29.514  28.460  1.00  0.00     0.049 A 
ATOM     56  C   UNL A   1      41.487  30.247  29.699  1.00  0.00     0.074 A 
ATOM     57  C   UNL A   1      47.712  30.626  28.552  1.00  0.00     0.029 A 
ATOM     58  N   UNL A   1      45.615  29.932  28.793  1.00  0.00    -0.354 N 
ATOM     59  N   UNL A   1      42.763  30.242  29.398  1.00  0.00    -0.248 NA
ATOM     60  C   UNL A   1      40.984  31.544  30.171  1.00  0.00     0.031 C 
ATOM     61  C   UNL A   1      46.933  31.709  28.976  1.00  0.00     0.029 A 
ATOM     62  C   UNL A   1      45.622  31.281  29.109  1.00  0.00     0.049 A 
ATOM     63  H   UNL A   1      44.817  29.354  28.805  1.00  0.00     0.167 HD
ATOM     64  C   UNL A   1      43.211  31.539  29.618  1.00  0.00     0.074 A 
ATOM     65  C   UNL A   1      42.059  32.310  30.042  1.00  0.00     0.031 C 
ATOM     66  C   UNL A   1      44.465  32.044  29.500  1.00  0.00     0.034 A 
BRANCH  53  67
ATOM     67  C   UNL A   1      48.707  27.858  27.845  1.00  0.00     0.023 A 
ATOM     68  C   UNL A   1      49.513  27.357  28.889  1.00  0.00     0.012 A 
ATOM     69  C   UNL A   1      49.259  28.005  26.557  1.00  0.00     0.148 A 
ATOM     70  C   UNL A   1      50.852  27.041  28.665  1.00  0.00     0.002 A 
ATOM     71  C   UNL A   1      50.582  27.643  26.330  1.00  0.00     0.091 A 
ATOM     72  F   UNL A   1      48.485  28.502  25.583  1.00  0.00    -0.205 F 
ATOM     73  C   UNL A   1      51.383  27.174  27.385  1.00  0.00     0.022 A 
BRANCH  71  74
ATOM     74  S   UNL A   1      51.339  27.700  24.703  1.00  0.00     0.127 S 
ATOM     75  O   UNL A   1      50.446  26.837  23.931  1.00  0.00    -0.237 OA
ATOM     76  O   UNL A   1      51.248  29.123  24.372  1.00  0.00    -0.237 OA
ATOM     77  O   UNL A   1      52.697  27.201  24.872  1.00  0.00    -0.744 OA
ENDBRANCH  71  74
ENDBRANCH  53  67
BRANCH  54  78
ATOM     78  C   UNL A   1      39.050  29.353  29.933  1.00  0.00     0.023 A 
ATOM     79  C   UNL A   1      38.580  29.019  31.218  1.00  0.00     0.012 A 
ATOM     80  C   UNL A   1      38.159  29.916  29.000  1.00  0.00     0.148 A 
ATOM     81  C   UNL A   1      37.239  29.207  31.555  1.00  0.00     0.002 A 
ATOM     82  C   UNL A   1      36.840  30.158  29.362  1.00  0.00     0.091 A 
ATOM     83  F   UNL A   1      38.625  30.220  27.781  1.00  0.00    -0.205 F 
ATOM     84  C   UNL A   1      36.372  29.785  30.632  1.00  0.00     0.022 A 
BRANCH  82  85
ATOM     85  S   UNL A   1      35.692  31.025  28.289  1.00  0.00     0.127 S 
ATOM     86  O   UNL A   1      35.381  30.003  27.293  1.00  0.00    -0.237 OA
ATOM     87  O   UNL A   1      34.600  31.344  29.209  1.00  0.00    -0.237 OA
ATOM     88  O   UNL A   1      36.418  32.189  27.794  1.00  0.00    -0.744 OA
ENDBRANCH  82  85
ENDBRANCH  54  78
BRANCH  66  89
ATOM     89  C   UNL A   1      44.650  33.506  29.816  1.00  0.00     0.023 A 
ATOM     90  C   UNL A   1      45.010  33.904  31.121  1.00  0.00     0.012 A 
ATOM     91  C   UNL A   1      44.497  34.486  28.815  1.00  0.00     0.148 A 
ATOM     92  C   UNL A   1      45.159  35.253  31.437  1.00  0.00     0.002 A 
ATOM     93  C   UNL A   1      44.703  35.825  29.125  1.00  0.00     0.091 A 
ATOM     94  F   UNL A   1      44.138  34.094  27.585  1.00  0.00    -0.205 F 
ATOM     95  C   UNL A   1      45.015  36.212  30.439  1.00  0.00     0.022 A 
BRANCH  93  96
ATOM     96  S   UNL A   1      44.635  37.120  27.881  1.00  0.00     0.127 S 
ATOM     97  O   UNL A   1      44.941  38.309  28.673  1.00  0.00    -0.237 OA
ATOM     98  O   UNL A   1      45.692  36.715  26.954  1.00  0.00    -0.237 OA
ATOM     99  O   UNL A   1      43.291  37.066  27.322  1.00  0.00    -0.744 OA
ENDBRANCH  93  96
ENDBRANCH  66  89
ENDBRANCH  40  41
ENDBRANCH  32  35
ENDBRANCH  30  31
ENDBRANCH  29  30
ENDBRANCH  28  29
ENDBRANCH   1  28
TORSDOF 19
ENDMDL
