MODEL 1
REMARK VINA RESULT:      -9.5      0.000      0.000
REMARK SMILES CC1=C(C)C[C@@H](C(=O)NCCCCCCNC(=O)c2ccc(-c3c4nc(c(-c5cccc(S(=O)(=O)[O-])c5F)c5ccc([nH]5)c(-c5cccc(S(=O)(=O)[O-])c5F)c5nc(c(-c6cccc(S(=O)(=O)[O-])c6F)c6ccc3[nH]6)C=C5)C=C4)cc2)[C@@H](C(=O)N2CCN(c3cccc(C(F)(F)F)c3)CC2)C1
REMARK SMILES IDX 12 1 11 2 10 3 9 4 7 5 8 6 6 8 1 9 2 10 3 11 101 12 4 13
REMARK SMILES IDX 5 14 82 15 83 16 84 17 85 18 86 19 100 20 87 21 99 22 88 23
REMARK SMILES IDX 89 24 90 25 98 26 91 27 93 28 92 29 94 30 95 31 96 32 97 33
REMARK SMILES IDX 13 34 14 35 15 36 16 37 17 38 18 40 19 41 20 42 81 43 21 44
REMARK SMILES IDX 80 45 22 46 23 47 24 48 74 49 25 50 79 51 73 52 75 53 26 54
REMARK SMILES IDX 78 55 72 56 71 57 27 59 59 60 39 61 58 62 40 63 43 64 57 65
REMARK SMILES IDX 76 66 41 67 42 68 56 70 77 71 44 72 28 73 29 74 37 75 30 76
REMARK SMILES IDX 32 77 38 78 31 79 33 80 34 81 35 82 36 83 60 84 61 85 69 86
REMARK SMILES IDX 62 87 64 88 70 89 63 90 65 91 66 92 67 93 68 94 45 95 46 96
REMARK SMILES IDX 54 97 47 98 49 99 55 100 48 101 50 102 51 103 52 104 53 105
REMARK H PARENT 9 7 16 39 75 58 43 69
REMARK Flexibility Score: inf
ROOT
ATOM      1  C   UNL A   1      44.579  23.682  24.642  1.00  0.00     0.002 C 
ENDROOT
BRANCH   1   2
ATOM      2  C   UNL A   1      45.764  24.530  25.099  1.00  0.00     0.021 C 
BRANCH   2   3
ATOM      3  C   UNL A   1      45.364  25.943  25.515  1.00  0.00     0.116 C 
BRANCH   3   4
ATOM      4  N   UNL A   1      45.761  26.978  24.587  1.00  0.00    -0.356 N 
ATOM      5  C   UNL A   1      46.635  28.006  24.699  1.00  0.00     0.224 C 
ATOM      6  O   UNL A   1      46.788  28.734  23.708  1.00  0.00    -0.275 OA
ATOM      7  H   UNL A   1      45.313  26.924  23.710  1.00  0.00     0.163 HD
BRANCH   5   8
ATOM      8  C   UNL A   1      47.446  28.300  25.962  1.00  0.00     0.095 C 
ATOM      9  C   UNL A   1      46.906  25.490  29.346  1.00  0.00     0.039 C 
ATOM     10  C   UNL A   1      47.321  26.487  28.286  1.00  0.00    -0.074 C 
ATOM     11  C   UNL A   1      48.249  26.254  27.331  1.00  0.00    -0.074 C 
ATOM     12  C   UNL A   1      46.495  27.761  28.325  1.00  0.00     0.045 C 
ATOM     13  C   UNL A   1      49.023  24.969  27.152  1.00  0.00     0.039 C 
ATOM     14  C   UNL A   1      48.532  27.259  26.240  1.00  0.00     0.045 C 
ATOM     15  C   UNL A   1      46.689  28.793  27.195  1.00  0.00     0.095 C 
BRANCH  15  16
ATOM     16  C   UNL A   1      45.338  29.445  26.868  1.00  0.00     0.226 C 
ATOM     17  O   UNL A   1      44.354  28.865  26.426  1.00  0.00    -0.275 OA
ATOM     18  N   UNL A   1      45.245  30.770  27.230  1.00  0.00    -0.339 N 
ATOM     19  C   UNL A   1      43.997  31.215  27.853  1.00  0.00     0.141 C 
ATOM     20  C   UNL A   1      45.829  31.745  26.313  1.00  0.00     0.141 C 
ATOM     21  C   UNL A   1      44.213  32.528  28.618  1.00  0.00     0.138 C 
ATOM     22  C   UNL A   1      46.045  33.101  26.990  1.00  0.00     0.138 C 
ATOM     23  N   UNL A   1      44.847  33.512  27.729  1.00  0.00    -0.368 N 
BRANCH  23  24
ATOM     24  C   UNL A   1      44.262  34.738  27.542  1.00  0.00     0.037 A 
ATOM     25  C   UNL A   1      43.337  34.935  26.513  1.00  0.00     0.026 A 
ATOM     26  C   UNL A   1      44.602  35.830  28.348  1.00  0.00     0.039 A 
ATOM     27  C   UNL A   1      42.748  36.182  26.300  1.00  0.00     0.003 A 
ATOM     28  C   UNL A   1      44.044  37.100  28.131  1.00  0.00     0.058 A 
ATOM     29  C   UNL A   1      43.103  37.261  27.105  1.00  0.00     0.013 A 
BRANCH  28  30
ATOM     30  C   UNL A   1      44.458  38.278  28.972  1.00  0.00     0.416 C 
ATOM     31  F   UNL A   1      44.528  39.434  28.254  1.00  0.00    -0.166 F 
ATOM     32  F   UNL A   1      43.584  38.525  29.987  1.00  0.00    -0.166 F 
ATOM     33  F   UNL A   1      45.678  38.134  29.562  1.00  0.00    -0.166 F 
ENDBRANCH  28  30
ENDBRANCH  23  24
ENDBRANCH  15  16
ENDBRANCH   5   8
ENDBRANCH   3   4
ENDBRANCH   2   3
ENDBRANCH   1   2
BRANCH   1  34
ATOM     34  C   UNL A   1      43.343  23.865  25.527  1.00  0.00     0.002 C 
BRANCH  34  35
ATOM     35  C   UNL A   1      42.516  22.588  25.707  1.00  0.00     0.021 C 
BRANCH  35  36
ATOM     36  C   UNL A   1      41.390  22.729  26.726  1.00  0.00     0.116 C 
BRANCH  36  37
ATOM     37  N   UNL A   1      40.119  22.966  26.059  1.00  0.00    -0.352 N 
ATOM     38  C   UNL A   1      39.194  23.943  26.325  1.00  0.00     0.251 C 
ATOM     39  H   UNL A   1      39.895  22.347  25.326  1.00  0.00     0.163 HD
ATOM     40  O   UNL A   1      38.049  23.851  25.904  1.00  0.00    -0.269 OA
BRANCH  38  41
ATOM     41  C   UNL A   1      39.611  25.109  27.127  1.00  0.00     0.039 A 
ATOM     42  C   UNL A   1      40.308  26.148  26.510  1.00  0.00     0.014 A 
ATOM     43  C   UNL A   1      39.297  25.170  28.488  1.00  0.00     0.014 A 
ATOM     44  C   UNL A   1      40.662  27.273  27.257  1.00  0.00     0.010 A 
ATOM     45  C   UNL A   1      39.586  26.321  29.210  1.00  0.00     0.010 A 
ATOM     46  C   UNL A   1      40.285  27.377  28.607  1.00  0.00    -0.014 A 
BRANCH  46  47
ATOM     47  C   UNL A   1      40.615  28.581  29.409  1.00  0.00     0.031 A 
ATOM     48  C   UNL A   1      42.013  28.775  29.931  1.00  0.00     0.074 A 
ATOM     49  C   UNL A   1      39.638  29.446  29.744  1.00  0.00     0.049 A 
ATOM     50  N   UNL A   1      42.477  29.716  30.711  1.00  0.00    -0.248 NA
ATOM     51  C   UNL A   1      43.017  27.766  29.551  1.00  0.00     0.031 C 
ATOM     52  C   UNL A   1      38.229  29.319  29.364  1.00  0.00     0.029 A 
ATOM     53  N   UNL A   1      39.674  30.584  30.511  1.00  0.00    -0.354 N 
ATOM     54  C   UNL A   1      43.806  29.391  30.951  1.00  0.00     0.074 A 
ATOM     55  C   UNL A   1      44.072  28.152  30.254  1.00  0.00     0.031 C 
ATOM     56  C   UNL A   1      37.534  30.334  29.905  1.00  0.00     0.029 A 
ATOM     57  C   UNL A   1      38.438  31.161  30.697  1.00  0.00     0.049 A 
ATOM     58  H   UNL A   1      40.504  30.952  30.891  1.00  0.00     0.167 HD
ATOM     59  C   UNL A   1      44.727  30.073  31.670  1.00  0.00     0.034 A 
ATOM     60  C   UNL A   1      38.073  32.224  31.440  1.00  0.00     0.034 A 
ATOM     61  C   UNL A   1      44.468  31.328  32.321  1.00  0.00     0.049 A 
ATOM     62  C   UNL A   1      39.129  32.992  32.188  1.00  0.00     0.074 A 
ATOM     63  C   UNL A   1      45.362  32.150  32.984  1.00  0.00     0.029 A 
ATOM     64  N   UNL A   1      43.228  31.937  32.402  1.00  0.00    -0.354 N 
ATOM     65  N   UNL A   1      40.418  32.758  32.266  1.00  0.00    -0.248 NA
ATOM     66  C   UNL A   1      38.692  34.189  32.920  1.00  0.00     0.031 C 
ATOM     67  C   UNL A   1      44.654  33.239  33.499  1.00  0.00     0.029 A 
ATOM     68  C   UNL A   1      43.327  33.116  33.118  1.00  0.00     0.049 A 
ATOM     69  H   UNL A   1      42.397  31.583  32.008  1.00  0.00     0.167 HD
ATOM     70  C   UNL A   1      40.949  33.801  33.017  1.00  0.00     0.074 A 
ATOM     71  C   UNL A   1      39.846  34.675  33.357  1.00  0.00     0.031 C 
ATOM     72  C   UNL A   1      42.232  34.009  33.398  1.00  0.00     0.034 A 
BRANCH  59  73
ATOM     73  C   UNL A   1      46.117  29.503  31.765  1.00  0.00     0.023 A 
ATOM     74  C   UNL A   1      46.367  28.396  32.603  1.00  0.00     0.012 A 
ATOM     75  C   UNL A   1      47.156  30.007  30.957  1.00  0.00     0.148 A 
ATOM     76  C   UNL A   1      47.633  27.817  32.654  1.00  0.00     0.002 A 
ATOM     77  C   UNL A   1      48.403  29.394  30.978  1.00  0.00     0.091 A 
ATOM     78  F   UNL A   1      46.904  31.073  30.184  1.00  0.00    -0.205 F 
ATOM     79  C   UNL A   1      48.646  28.306  31.833  1.00  0.00     0.022 A 
BRANCH  77  80
ATOM     80  S   UNL A   1      49.747  29.895  29.898  1.00  0.00     0.127 S 
ATOM     81  O   UNL A   1      50.353  30.983  30.666  1.00  0.00    -0.237 OA
ATOM     82  O   UNL A   1      50.554  28.676  29.829  1.00  0.00    -0.237 OA
ATOM     83  O   UNL A   1      49.130  30.290  28.640  1.00  0.00    -0.744 OA
ENDBRANCH  77  80
ENDBRANCH  59  73
BRANCH  60  84
ATOM     84  C   UNL A   1      36.645  32.650  31.483  1.00  0.00     0.023 A 
ATOM     85  C   UNL A   1      35.914  32.523  32.681  1.00  0.00     0.012 A 
ATOM     86  C   UNL A   1      36.012  33.188  30.347  1.00  0.00     0.148 A 
ATOM     87  C   UNL A   1      34.567  32.886  32.734  1.00  0.00     0.002 A 
ATOM     88  C   UNL A   1      34.688  33.603  30.422  1.00  0.00     0.091 A 
ATOM     89  F   UNL A   1      36.721  33.292  29.214  1.00  0.00    -0.205 F 
ATOM     90  C   UNL A   1      33.957  33.433  31.608  1.00  0.00     0.022 A 
BRANCH  88  91
ATOM     91  S   UNL A   1      33.866  34.441  29.063  1.00  0.00     0.127 S 
ATOM     92  O   UNL A   1      33.557  33.328  28.168  1.00  0.00    -0.237 OA
ATOM     93  O   UNL A   1      32.708  35.037  29.729  1.00  0.00    -0.237 OA
ATOM     94  O   UNL A   1      34.830  35.410  28.559  1.00  0.00    -0.744 OA
ENDBRANCH  88  91
ENDBRANCH  60  84
BRANCH  72  95
ATOM     95  C   UNL A   1      42.541  35.259  34.179  1.00  0.00     0.023 A 
ATOM     96  C   UNL A   1      42.448  35.258  35.584  1.00  0.00     0.012 A 
ATOM     97  C   UNL A   1      43.013  36.410  33.515  1.00  0.00     0.148 A 
ATOM     98  C   UNL A   1      42.792  36.394  36.315  1.00  0.00     0.002 A 
ATOM     99  C   UNL A   1      43.404  37.518  34.254  1.00  0.00     0.091 A 
ATOM    100  F   UNL A   1      43.077  36.394  32.176  1.00  0.00    -0.205 F 
ATOM    101  C   UNL A   1      43.282  37.518  35.653  1.00  0.00     0.022 A 
BRANCH  99 102
ATOM    102  S   UNL A   1      44.142  38.969  33.495  1.00  0.00     0.127 S 
ATOM    103  O   UNL A   1      43.010  39.527  32.758  1.00  0.00    -0.237 OA
ATOM    104  O   UNL A   1      44.556  39.751  34.662  1.00  0.00    -0.237 OA
ATOM    105  O   UNL A   1      45.241  38.481  32.673  1.00  0.00    -0.744 OA
ENDBRANCH  99 102
ENDBRANCH  72  95
ENDBRANCH  46  47
ENDBRANCH  38  41
ENDBRANCH  36  37
ENDBRANCH  35  36
ENDBRANCH  34  35
ENDBRANCH   1  34
TORSDOF 19
ENDMDL
MODEL 2
REMARK VINA RESULT:      -9.2      6.573     12.450
REMARK SMILES CC1=C(C)C[C@@H](C(=O)NCCCCCCNC(=O)c2ccc(-c3c4nc(c(-c5cccc(S(=O)(=O)[O-])c5F)c5ccc([nH]5)c(-c5cccc(S(=O)(=O)[O-])c5F)c5nc(c(-c6cccc(S(=O)(=O)[O-])c6F)c6ccc3[nH]6)C=C5)C=C4)cc2)[C@@H](C(=O)N2CCN(c3cccc(C(F)(F)F)c3)CC2)C1
REMARK SMILES IDX 12 1 11 2 10 3 9 4 7 5 8 6 6 8 1 9 2 10 3 11 101 12 4 13
REMARK SMILES IDX 5 14 82 15 83 16 84 17 85 18 86 19 100 20 87 21 99 22 88 23
REMARK SMILES IDX 89 24 90 25 98 26 91 27 93 28 92 29 94 30 95 31 96 32 97 33
REMARK SMILES IDX 13 34 14 35 15 36 16 37 17 38 18 40 19 41 20 42 81 43 21 44
REMARK SMILES IDX 80 45 22 46 23 47 24 48 74 49 25 50 79 51 73 52 75 53 26 54
REMARK SMILES IDX 78 55 72 56 71 57 27 59 59 60 39 61 58 62 40 63 43 64 57 65
REMARK SMILES IDX 76 66 41 67 42 68 56 70 77 71 44 72 28 73 29 74 37 75 30 76
REMARK SMILES IDX 32 77 38 78 31 79 33 80 34 81 35 82 36 83 60 84 61 85 69 86
REMARK SMILES IDX 62 87 64 88 70 89 63 90 65 91 66 92 67 93 68 94 45 95 46 96
REMARK SMILES IDX 54 97 47 98 49 99 55 100 48 101 50 102 51 103 52 104 53 105
REMARK H PARENT 9 7 16 39 75 58 43 69
REMARK Flexibility Score: inf
ROOT
ATOM      1  C   UNL A   1      45.140  42.874  30.352  1.00  0.00     0.002 C 
ENDROOT
BRANCH   1   2
ATOM      2  C   UNL A   1      44.692  42.049  29.148  1.00  0.00     0.021 C 
BRANCH   2   3
ATOM      3  C   UNL A   1      44.745  42.826  27.836  1.00  0.00     0.116 C 
BRANCH   3   4
ATOM      4  N   UNL A   1      43.955  42.257  26.767  1.00  0.00    -0.356 N 
ATOM      5  C   UNL A   1      44.298  41.761  25.555  1.00  0.00     0.224 C 
ATOM      6  O   UNL A   1      43.387  41.312  24.846  1.00  0.00    -0.275 OA
ATOM      7  H   UNL A   1      42.988  42.222  26.957  1.00  0.00     0.163 HD
BRANCH   5   8
ATOM      8  C   UNL A   1      45.734  41.711  25.031  1.00  0.00     0.095 C 
ATOM      9  C   UNL A   1      48.817  43.655  27.551  1.00  0.00     0.039 C 
ATOM     10  C   UNL A   1      47.953  42.842  26.613  1.00  0.00    -0.074 C 
ATOM     11  C   UNL A   1      47.614  41.548  26.805  1.00  0.00    -0.074 C 
ATOM     12  C   UNL A   1      47.394  43.669  25.468  1.00  0.00     0.045 C 
ATOM     13  C   UNL A   1      48.030  40.695  27.981  1.00  0.00     0.039 C 
ATOM     14  C   UNL A   1      46.658  40.833  25.879  1.00  0.00     0.045 C 
ATOM     15  C   UNL A   1      46.356  43.015  24.533  1.00  0.00     0.095 C 
BRANCH  15  16
ATOM     16  C   UNL A   1      45.321  44.067  24.109  1.00  0.00     0.226 C 
ATOM     17  O   UNL A   1      44.697  44.800  24.866  1.00  0.00    -0.275 OA
ATOM     18  N   UNL A   1      45.211  44.239  22.747  1.00  0.00    -0.339 N 
ATOM     19  C   UNL A   1      45.098  45.610  22.246  1.00  0.00     0.141 C 
ATOM     20  C   UNL A   1      44.383  43.275  22.029  1.00  0.00     0.141 C 
ATOM     21  C   UNL A   1      45.467  45.672  20.757  1.00  0.00     0.138 C 
ATOM     22  C   UNL A   1      44.663  43.298  20.524  1.00  0.00     0.138 C 
ATOM     23  N   UNL A   1      44.681  44.674  20.017  1.00  0.00    -0.368 N 
BRANCH  23  24
ATOM     24  C   UNL A   1      43.920  45.064  18.944  1.00  0.00     0.037 A 
ATOM     25  C   UNL A   1      43.156  44.131  18.237  1.00  0.00     0.026 A 
ATOM     26  C   UNL A   1      43.919  46.393  18.507  1.00  0.00     0.039 A 
ATOM     27  C   UNL A   1      42.392  44.512  17.134  1.00  0.00     0.003 A 
ATOM     28  C   UNL A   1      43.183  46.790  17.380  1.00  0.00     0.058 A 
ATOM     29  C   UNL A   1      42.408  45.837  16.705  1.00  0.00     0.013 A 
BRANCH  28  30
ATOM     30  C   UNL A   1      43.231  48.212  16.889  1.00  0.00     0.416 C 
ATOM     31  F   UNL A   1      42.352  48.444  15.874  1.00  0.00    -0.166 F 
ATOM     32  F   UNL A   1      42.918  49.110  17.863  1.00  0.00    -0.166 F 
ATOM     33  F   UNL A   1      44.452  48.591  16.415  1.00  0.00    -0.166 F 
ENDBRANCH  28  30
ENDBRANCH  23  24
ENDBRANCH  15  16
ENDBRANCH   5   8
ENDBRANCH   3   4
ENDBRANCH   2   3
ENDBRANCH   1   2
BRANCH   1  34
ATOM     34  C   UNL A   1      44.295  44.134  30.555  1.00  0.00     0.002 C 
BRANCH  34  35
ATOM     35  C   UNL A   1      44.192  44.582  32.016  1.00  0.00     0.021 C 
BRANCH  35  36
ATOM     36  C   UNL A   1      45.235  43.945  32.927  1.00  0.00     0.116 C 
BRANCH  36  37
ATOM     37  N   UNL A   1      44.730  43.825  34.285  1.00  0.00    -0.352 N 
ATOM     38  C   UNL A   1      44.083  42.759  34.856  1.00  0.00     0.251 C 
ATOM     39  H   UNL A   1      44.869  44.607  34.867  1.00  0.00     0.163 HD
ATOM     40  O   UNL A   1      43.449  42.894  35.894  1.00  0.00    -0.269 OA
BRANCH  38  41
ATOM     41  C   UNL A   1      44.170  41.444  34.192  1.00  0.00     0.039 A 
ATOM     42  C   UNL A   1      45.109  40.514  34.639  1.00  0.00     0.014 A 
ATOM     43  C   UNL A   1      43.309  41.136  33.135  1.00  0.00     0.014 A 
ATOM     44  C   UNL A   1      45.162  39.253  34.044  1.00  0.00     0.010 A 
ATOM     45  C   UNL A   1      43.314  39.856  32.593  1.00  0.00     0.010 A 
ATOM     46  C   UNL A   1      44.250  38.907  33.031  1.00  0.00    -0.014 A 
BRANCH  46  47
ATOM     47  C   UNL A   1      44.260  37.559  32.411  1.00  0.00     0.031 A 
ATOM     48  C   UNL A   1      45.110  37.297  31.198  1.00  0.00     0.074 A 
ATOM     49  C   UNL A   1      43.437  36.603  32.884  1.00  0.00     0.049 A 
ATOM     50  N   UNL A   1      45.195  36.214  30.471  1.00  0.00    -0.248 NA
ATOM     51  C   UNL A   1      45.956  38.405  30.719  1.00  0.00     0.031 C 
ATOM     52  C   UNL A   1      42.508  36.765  34.006  1.00  0.00     0.029 A 
ATOM     53  N   UNL A   1      43.221  35.316  32.458  1.00  0.00    -0.354 N 
ATOM     54  C   UNL A   1      46.061  36.521  29.429  1.00  0.00     0.074 A 
ATOM     55  C   UNL A   1      46.461  37.900  29.603  1.00  0.00     0.031 C 
ATOM     56  C   UNL A   1      41.818  35.625  34.174  1.00  0.00     0.029 A 
ATOM     57  C   UNL A   1      42.227  34.666  33.153  1.00  0.00     0.049 A 
ATOM     58  H   UNL A   1      43.729  34.899  31.726  1.00  0.00     0.167 HD
ATOM     59  C   UNL A   1      46.502  35.721  28.431  1.00  0.00     0.034 A 
ATOM     60  C   UNL A   1      41.692  33.442  32.974  1.00  0.00     0.034 A 
ATOM     61  C   UNL A   1      46.138  34.337  28.293  1.00  0.00     0.049 A 
ATOM     62  C   UNL A   1      42.238  32.557  31.886  1.00  0.00     0.074 A 
ATOM     63  C   UNL A   1      46.613  33.414  27.378  1.00  0.00     0.029 A 
ATOM     64  N   UNL A   1      45.206  33.681  29.078  1.00  0.00    -0.354 N 
ATOM     65  N   UNL A   1      43.182  32.813  31.012  1.00  0.00    -0.248 NA
ATOM     66  C   UNL A   1      41.675  31.204  31.781  1.00  0.00     0.031 C 
ATOM     67  C   UNL A   1      45.939  32.208  27.587  1.00  0.00     0.029 A 
ATOM     68  C   UNL A   1      45.077  32.369  28.660  1.00  0.00     0.049 A 
ATOM     69  H   UNL A   1      44.708  34.088  29.824  1.00  0.00     0.167 HD
ATOM     70  C   UNL A   1      43.355  31.641  30.285  1.00  0.00     0.074 A 
ATOM     71  C   UNL A   1      42.429  30.670  30.830  1.00  0.00     0.031 C 
ATOM     72  C   UNL A   1      44.196  31.395  29.251  1.00  0.00     0.034 A 
BRANCH  59  73
ATOM     73  C   UNL A   1      47.458  36.302  27.425  1.00  0.00     0.023 A 
ATOM     74  C   UNL A   1      46.960  36.963  26.283  1.00  0.00     0.012 A 
ATOM     75  C   UNL A   1      48.848  36.273  27.656  1.00  0.00     0.148 A 
ATOM     76  C   UNL A   1      47.831  37.562  25.374  1.00  0.00     0.002 A 
ATOM     77  C   UNL A   1      49.706  36.914  26.771  1.00  0.00     0.091 A 
ATOM     78  F   UNL A   1      49.302  35.622  28.736  1.00  0.00    -0.205 F 
ATOM     79  C   UNL A   1      49.200  37.549  25.624  1.00  0.00     0.022 A 
BRANCH  77  80
ATOM     80  S   UNL A   1      51.477  37.027  27.048  1.00  0.00     0.127 S 
ATOM     81  O   UNL A   1      51.918  37.738  25.847  1.00  0.00    -0.237 OA
ATOM     82  O   UNL A   1      51.545  37.813  28.280  1.00  0.00    -0.237 OA
ATOM     83  O   UNL A   1      51.956  35.657  27.170  1.00  0.00    -0.744 OA
ENDBRANCH  77  80
ENDBRANCH  59  73
BRANCH  60  84
ATOM     84  C   UNL A   1      40.601  32.966  33.870  1.00  0.00     0.023 A 
ATOM     85  C   UNL A   1      40.907  32.123  34.957  1.00  0.00     0.012 A 
ATOM     86  C   UNL A   1      39.264  33.351  33.657  1.00  0.00     0.148 A 
ATOM     87  C   UNL A   1      39.897  31.639  35.790  1.00  0.00     0.002 A 
ATOM     88  C   UNL A   1      38.270  32.914  34.525  1.00  0.00     0.091 A 
ATOM     89  F   UNL A   1      38.990  34.145  32.612  1.00  0.00    -0.205 F 
ATOM     90  C   UNL A   1      38.581  32.041  35.579  1.00  0.00     0.022 A 
BRANCH  88  91
ATOM     91  S   UNL A   1      36.573  33.491  34.408  1.00  0.00     0.127 S 
ATOM     92  O   UNL A   1      36.114  33.354  35.788  1.00  0.00    -0.237 OA
ATOM     93  O   UNL A   1      36.752  34.868  33.950  1.00  0.00    -0.237 OA
ATOM     94  O   UNL A   1      35.928  32.617  33.436  1.00  0.00    -0.744 OA
ENDBRANCH  88  91
ENDBRANCH  60  84
BRANCH  72  95
ATOM     95  C   UNL A   1      44.211  30.006  28.669  1.00  0.00     0.023 A 
ATOM     96  C   UNL A   1      45.046  29.015  29.221  1.00  0.00     0.012 A 
ATOM     97  C   UNL A   1      43.323  29.665  27.628  1.00  0.00     0.148 A 
ATOM     98  C   UNL A   1      45.019  27.712  28.725  1.00  0.00     0.002 A 
ATOM     99  C   UNL A   1      43.264  28.353  27.177  1.00  0.00     0.091 A 
ATOM    100  F   UNL A   1      42.550  30.628  27.107  1.00  0.00    -0.205 F 
ATOM    101  C   UNL A   1      44.120  27.378  27.714  1.00  0.00     0.022 A 
BRANCH  99 102
ATOM    102  S   UNL A   1      42.067  27.810  25.953  1.00  0.00     0.127 S 
ATOM    103  O   UNL A   1      42.152  26.356  26.079  1.00  0.00    -0.237 OA
ATOM    104  O   UNL A   1      40.823  28.395  26.456  1.00  0.00    -0.237 OA
ATOM    105  O   UNL A   1      42.519  28.352  24.678  1.00  0.00    -0.744 OA
ENDBRANCH  99 102
ENDBRANCH  72  95
ENDBRANCH  46  47
ENDBRANCH  38  41
ENDBRANCH  36  37
ENDBRANCH  35  36
ENDBRANCH  34  35
ENDBRANCH   1  34
TORSDOF 19
ENDMDL
MODEL 3
REMARK VINA RESULT:      -8.9      3.867     10.763
REMARK SMILES CC1=C(C)C[C@@H](C(=O)NCCCCCCNC(=O)c2ccc(-c3c4nc(c(-c5cccc(S(=O)(=O)[O-])c5F)c5ccc([nH]5)c(-c5cccc(S(=O)(=O)[O-])c5F)c5nc(c(-c6cccc(S(=O)(=O)[O-])c6F)c6ccc3[nH]6)C=C5)C=C4)cc2)[C@@H](C(=O)N2CCN(c3cccc(C(F)(F)F)c3)CC2)C1
REMARK SMILES IDX 12 1 11 2 10 3 9 4 7 5 8 6 6 8 1 9 2 10 3 11 101 12 4 13
REMARK SMILES IDX 5 14 82 15 83 16 84 17 85 18 86 19 100 20 87 21 99 22 88 23
REMARK SMILES IDX 89 24 90 25 98 26 91 27 93 28 92 29 94 30 95 31 96 32 97 33
REMARK SMILES IDX 13 34 14 35 15 36 16 37 17 38 18 40 19 41 20 42 81 43 21 44
REMARK SMILES IDX 80 45 22 46 23 47 24 48 74 49 25 50 79 51 73 52 75 53 26 54
REMARK SMILES IDX 78 55 72 56 71 57 27 59 59 60 39 61 58 62 40 63 43 64 57 65
REMARK SMILES IDX 76 66 41 67 42 68 56 70 77 71 44 72 28 73 29 74 37 75 30 76
REMARK SMILES IDX 32 77 38 78 31 79 33 80 34 81 35 82 36 83 60 84 61 85 69 86
REMARK SMILES IDX 62 87 64 88 70 89 63 90 65 91 66 92 67 93 68 94 45 95 46 96
REMARK SMILES IDX 54 97 47 98 49 99 55 100 48 101 50 102 51 103 52 104 53 105
REMARK H PARENT 9 7 16 39 75 58 43 69
REMARK Flexibility Score: inf
ROOT
ATOM      1  C   UNL A   1      38.793  34.544  32.640  1.00  0.00     0.002 C 
ENDROOT
BRANCH   1   2
ATOM      2  C   UNL A   1      38.866  34.413  31.120  1.00  0.00     0.021 C 
BRANCH   2   3
ATOM      3  C   UNL A   1      38.854  32.964  30.643  1.00  0.00     0.116 C 
BRANCH   3   4
ATOM      4  N   UNL A   1      37.674  32.217  31.019  1.00  0.00    -0.356 N 
ATOM      5  C   UNL A   1      36.743  31.567  30.282  1.00  0.00     0.224 C 
ATOM      6  O   UNL A   1      35.837  30.985  30.894  1.00  0.00    -0.275 OA
ATOM      7  H   UNL A   1      37.521  32.171  31.992  1.00  0.00     0.163 HD
BRANCH   5   8
ATOM      8  C   UNL A   1      36.763  31.499  28.754  1.00  0.00     0.095 C 
ATOM      9  C   UNL A   1      33.928  28.659  26.874  1.00  0.00     0.039 C 
ATOM     10  C   UNL A   1      34.874  29.759  27.302  1.00  0.00    -0.074 C 
ATOM     11  C   UNL A   1      34.502  31.029  27.581  1.00  0.00    -0.074 C 
ATOM     12  C   UNL A   1      36.295  29.264  27.503  1.00  0.00     0.045 C 
ATOM     13  C   UNL A   1      33.092  31.565  27.523  1.00  0.00     0.039 C 
ATOM     14  C   UNL A   1      35.488  32.045  28.106  1.00  0.00     0.045 C 
ATOM     15  C   UNL A   1      37.330  30.236  28.105  1.00  0.00     0.095 C 
BRANCH  15  16
ATOM     16  C   UNL A   1      38.289  29.455  29.015  1.00  0.00     0.226 C 
ATOM     17  O   UNL A   1      38.356  29.553  30.234  1.00  0.00    -0.275 OA
ATOM     18  N   UNL A   1      39.031  28.494  28.366  1.00  0.00    -0.339 N 
ATOM     19  C   UNL A   1      39.193  27.200  29.031  1.00  0.00     0.141 C 
ATOM     20  C   UNL A   1      40.225  28.951  27.661  1.00  0.00     0.141 C 
ATOM     21  C   UNL A   1      39.600  26.119  28.020  1.00  0.00     0.138 C 
ATOM     22  C   UNL A   1      40.721  27.911  26.653  1.00  0.00     0.138 C 
ATOM     23  N   UNL A   1      40.772  26.577  27.261  1.00  0.00    -0.368 N 
BRANCH  23  24
ATOM     24  C   UNL A   1      41.903  25.801  27.219  1.00  0.00     0.037 A 
ATOM     25  C   UNL A   1      42.868  26.004  26.229  1.00  0.00     0.026 A 
ATOM     26  C   UNL A   1      42.100  24.766  28.139  1.00  0.00     0.039 A 
ATOM     27  C   UNL A   1      44.013  25.210  26.164  1.00  0.00     0.003 A 
ATOM     28  C   UNL A   1      43.230  23.936  28.072  1.00  0.00     0.058 A 
ATOM     29  C   UNL A   1      44.192  24.177  27.081  1.00  0.00     0.013 A 
BRANCH  28  30
ATOM     30  C   UNL A   1      43.406  22.792  29.035  1.00  0.00     0.416 C 
ATOM     31  F   UNL A   1      42.653  22.938  30.161  1.00  0.00    -0.166 F 
ATOM     32  F   UNL A   1      43.038  21.597  28.496  1.00  0.00    -0.166 F 
ATOM     33  F   UNL A   1      44.688  22.625  29.465  1.00  0.00    -0.166 F 
ENDBRANCH  28  30
ENDBRANCH  23  24
ENDBRANCH  15  16
ENDBRANCH   5   8
ENDBRANCH   3   4
ENDBRANCH   2   3
ENDBRANCH   1   2
BRANCH   1  34
ATOM     34  C   UNL A   1      37.356  34.580  33.163  1.00  0.00     0.002 C 
BRANCH  34  35
ATOM     35  C   UNL A   1      37.231  34.251  34.655  1.00  0.00     0.021 C 
BRANCH  35  36
ATOM     36  C   UNL A   1      38.505  34.520  35.448  1.00  0.00     0.116 C 
BRANCH  36  37
ATOM     37  N   UNL A   1      38.538  33.714  36.659  1.00  0.00    -0.352 N 
ATOM     38  C   UNL A   1      38.982  32.425  36.804  1.00  0.00     0.251 C 
ATOM     39  H   UNL A   1      38.200  34.149  37.475  1.00  0.00     0.163 HD
ATOM     40  O   UNL A   1      38.680  31.767  37.791  1.00  0.00    -0.269 OA
BRANCH  38  41
ATOM     41  C   UNL A   1      39.834  31.848  35.746  1.00  0.00     0.039 A 
ATOM     42  C   UNL A   1      39.238  31.168  34.684  1.00  0.00     0.014 A 
ATOM     43  C   UNL A   1      41.223  31.996  35.809  1.00  0.00     0.014 A 
ATOM     44  C   UNL A   1      40.039  30.663  33.659  1.00  0.00     0.010 A 
ATOM     45  C   UNL A   1      42.011  31.557  34.752  1.00  0.00     0.010 A 
ATOM     46  C   UNL A   1      41.429  30.872  33.674  1.00  0.00    -0.014 A 
BRANCH  46  47
ATOM     47  C   UNL A   1      42.295  30.379  32.575  1.00  0.00     0.031 A 
ATOM     48  C   UNL A   1      42.908  29.008  32.660  1.00  0.00     0.074 A 
ATOM     49  C   UNL A   1      42.603  31.200  31.552  1.00  0.00     0.049 A 
ATOM     50  N   UNL A   1      43.750  28.431  31.843  1.00  0.00    -0.248 NA
ATOM     51  C   UNL A   1      42.552  28.185  33.829  1.00  0.00     0.031 C 
ATOM     52  C   UNL A   1      42.134  32.580  31.402  1.00  0.00     0.029 A 
ATOM     53  N   UNL A   1      43.414  31.006  30.461  1.00  0.00    -0.354 N 
ATOM     54  C   UNL A   1      44.058  27.204  32.418  1.00  0.00     0.074 A 
ATOM     55  C   UNL A   1      43.332  27.126  33.665  1.00  0.00     0.031 C 
ATOM     56  C   UNL A   1      42.669  33.109  30.290  1.00  0.00     0.029 A 
ATOM     57  C   UNL A   1      43.546  32.122  29.668  1.00  0.00     0.049 A 
ATOM     58  H   UNL A   1      43.857  30.149  30.265  1.00  0.00     0.167 HD
ATOM     59  C   UNL A   1      44.857  26.223  31.939  1.00  0.00     0.034 A 
ATOM     60  C   UNL A   1      44.305  32.334  28.575  1.00  0.00     0.034 A 
ATOM     61  C   UNL A   1      45.539  26.288  30.675  1.00  0.00     0.049 A 
ATOM     62  C   UNL A   1      45.145  31.206  28.039  1.00  0.00     0.074 A 
ATOM     63  C   UNL A   1      46.287  25.304  30.053  1.00  0.00     0.029 A 
ATOM     64  N   UNL A   1      45.568  27.397  29.847  1.00  0.00    -0.354 N 
ATOM     65  N   UNL A   1      45.292  29.991  28.511  1.00  0.00    -0.248 NA
ATOM     66  C   UNL A   1      45.895  31.462  26.801  1.00  0.00     0.031 C 
ATOM     67  C   UNL A   1      46.798  25.832  28.865  1.00  0.00     0.029 A 
ATOM     68  C   UNL A   1      46.333  27.130  28.726  1.00  0.00     0.049 A 
ATOM     69  H   UNL A   1      45.111  28.251  30.029  1.00  0.00     0.167 HD
ATOM     70  C   UNL A   1      46.113  29.328  27.607  1.00  0.00     0.074 A 
ATOM     71  C   UNL A   1      46.419  30.270  26.550  1.00  0.00     0.031 C 
ATOM     72  C   UNL A   1      46.580  28.057  27.653  1.00  0.00     0.034 A 
BRANCH  59  73
ATOM     73  C   UNL A   1      45.016  24.972  32.761  1.00  0.00     0.023 A 
ATOM     74  C   UNL A   1      44.037  23.959  32.693  1.00  0.00     0.012 A 
ATOM     75  C   UNL A   1      46.178  24.761  33.529  1.00  0.00     0.148 A 
ATOM     76  C   UNL A   1      44.199  22.767  33.398  1.00  0.00     0.002 A 
ATOM     77  C   UNL A   1      46.355  23.551  34.191  1.00  0.00     0.091 A 
ATOM     78  F   UNL A   1      47.085  25.744  33.597  1.00  0.00    -0.205 F 
ATOM     79  C   UNL A   1      45.362  22.559  34.134  1.00  0.00     0.022 A 
BRANCH  77  80
ATOM     80  S   UNL A   1      47.853  23.152  35.096  1.00  0.00     0.127 S 
ATOM     81  O   UNL A   1      47.699  23.971  36.298  1.00  0.00    -0.237 OA
ATOM     82  O   UNL A   1      47.703  21.713  35.317  1.00  0.00    -0.237 OA
ATOM     83  O   UNL A   1      48.961  23.523  34.228  1.00  0.00    -0.744 OA
ENDBRANCH  77  80
ENDBRANCH  59  73
BRANCH  60  84
ATOM     84  C   UNL A   1      44.277  33.658  27.891  1.00  0.00     0.023 A 
ATOM     85  C   UNL A   1      43.404  33.864  26.805  1.00  0.00     0.012 A 
ATOM     86  C   UNL A   1      45.104  34.714  28.317  1.00  0.00     0.148 A 
ATOM     87  C   UNL A   1      43.385  35.085  26.129  1.00  0.00     0.002 A 
ATOM     88  C   UNL A   1      45.037  35.947  27.678  1.00  0.00     0.091 A 
ATOM     89  F   UNL A   1      45.935  34.496  29.346  1.00  0.00    -0.205 F 
ATOM     90  C   UNL A   1      44.195  36.128  26.571  1.00  0.00     0.022 A 
BRANCH  88  91
ATOM     91  S   UNL A   1      45.944  37.382  28.266  1.00  0.00     0.127 S 
ATOM     92  O   UNL A   1      45.537  38.407  27.308  1.00  0.00    -0.237 OA
ATOM     93  O   UNL A   1      45.405  37.549  29.615  1.00  0.00    -0.237 OA
ATOM     94  O   UNL A   1      47.350  37.001  28.227  1.00  0.00    -0.744 OA
ENDBRANCH  88  91
ENDBRANCH  60  84
BRANCH  72  95
ATOM     95  C   UNL A   1      47.425  27.574  26.503  1.00  0.00     0.023 A 
ATOM     96  C   UNL A   1      46.816  27.058  25.343  1.00  0.00     0.012 A 
ATOM     97  C   UNL A   1      48.827  27.719  26.545  1.00  0.00     0.148 A 
ATOM     98  C   UNL A   1      47.591  26.667  24.252  1.00  0.00     0.002 A 
ATOM     99  C   UNL A   1      49.587  27.378  25.434  1.00  0.00     0.091 A 
ATOM    100  F   UNL A   1      49.386  28.196  27.666  1.00  0.00    -0.205 F 
ATOM    101  C   UNL A   1      48.973  26.838  24.292  1.00  0.00     0.022 A 
BRANCH  99 102
ATOM    102  S   UNL A   1      51.359  27.660  25.358  1.00  0.00     0.127 S 
ATOM    103  O   UNL A   1      51.852  26.730  26.372  1.00  0.00    -0.237 OA
ATOM    104  O   UNL A   1      51.672  27.281  23.979  1.00  0.00    -0.237 OA
ATOM    105  O   UNL A   1      51.557  29.071  25.658  1.00  0.00    -0.744 OA
ENDBRANCH  99 102
ENDBRANCH  72  95
ENDBRANCH  46  47
ENDBRANCH  38  41
ENDBRANCH  36  37
ENDBRANCH  35  36
ENDBRANCH  34  35
ENDBRANCH   1  34
TORSDOF 19
ENDMDL
