MODEL 1
REMARK VINA RESULT:     -11.3      0.000      0.000
REMARK SMILES Cc1cnc(C)c(N2CCC[C@@](CC3CC3)(C(=O)NCCCCCCNC(=O)c3ccc(-c4c5nc(c(-c6cccc(S(=O)(=O)[O-])c6F)c6ccc([nH]6)c(-c6cccc(S(=O)(=O)[O-])c6F)c6nc(c(-c7cccc(S(=O)(=O)[O-])c7F)c7ccc4[nH]7)C=C6)C=C5)cc3)C2)n1
REMARK SMILES IDX 23 1 22 2 21 3 20 4 19 5 17 6 18 7 12 9 8 10 9 11 92 12
REMARK SMILES IDX 10 13 11 14 7 15 1 16 2 17 3 18 93 19 4 20 5 21 6 22 13 23
REMARK SMILES IDX 14 24 15 25 16 26 24 27 25 28 26 29 27 30 28 32 29 33 30 34
REMARK SMILES IDX 91 35 31 36 90 37 32 38 33 39 34 40 84 41 35 42 89 43 83 44
REMARK SMILES IDX 85 45 36 46 88 47 82 48 81 49 37 51 69 52 49 53 68 54 50 55
REMARK SMILES IDX 53 56 67 57 86 58 51 59 52 60 66 62 87 63 54 64 38 65 39 66
REMARK SMILES IDX 47 67 40 68 42 69 48 70 41 71 43 72 44 73 45 74 46 75 70 76
REMARK SMILES IDX 71 77 79 78 72 79 74 80 80 81 73 82 75 83 76 84 77 85 78 86
REMARK SMILES IDX 55 87 56 88 64 89 57 90 59 91 65 92 58 93 60 94 61 95 62 96
REMARK SMILES IDX 63 97
REMARK H PARENT 19 8 26 31 85 50 53 61
REMARK Flexibility Score: inf
ROOT
ATOM      1  C   UNL A   1      34.792  21.670  25.002  1.00  0.00     0.002 C 
ENDROOT
BRANCH   1   2
ATOM      2  C   UNL A   1      33.684  22.265  24.124  1.00  0.00     0.002 C 
BRANCH   2   3
ATOM      3  C   UNL A   1      34.092  23.396  23.182  1.00  0.00     0.021 C 
BRANCH   3   4
ATOM      4  C   UNL A   1      33.657  24.791  23.602  1.00  0.00     0.116 C 
BRANCH   4   5
ATOM      5  N   UNL A   1      33.813  25.824  22.614  1.00  0.00    -0.356 N 
ATOM      6  C   UNL A   1      33.226  27.051  22.530  1.00  0.00     0.228 C 
ATOM      7  O   UNL A   1      33.757  27.814  21.710  1.00  0.00    -0.274 OA
ATOM      8  H   UNL A   1      34.441  25.613  21.887  1.00  0.00     0.163 HD
BRANCH   6   9
ATOM      9  C   UNL A   1      32.006  27.518  23.391  1.00  0.00     0.067 C 
ATOM     10  N   UNL A   1      29.928  28.825  23.010  1.00  0.00    -0.354 N 
ATOM     11  C   UNL A   1      28.981  27.744  23.194  1.00  0.00     0.118 C 
ATOM     12  C   UNL A   1      31.201  28.448  22.390  1.00  0.00     0.135 C 
ATOM     13  C   UNL A   1      29.616  26.749  24.153  1.00  0.00     0.023 C 
ATOM     14  C   UNL A   1      31.042  26.355  23.749  1.00  0.00     0.020 C 
BRANCH  10  15
ATOM     15  C   UNL A   1      29.426  30.089  22.764  1.00  0.00     0.150 A 
ATOM     16  C   UNL A   1      27.853  31.895  19.973  1.00  0.00     0.068 C 
ATOM     17  C   UNL A   1      28.448  31.598  21.312  1.00  0.00     0.058 A 
ATOM     18  C   UNL A   1      28.561  32.599  22.265  1.00  0.00     0.135 A 
ATOM     19  N   UNL A   1      28.883  30.338  21.549  1.00  0.00    -0.233 NA
ATOM     20  N   UNL A   1      29.088  32.387  23.486  1.00  0.00    -0.256 NA
ATOM     21  C   UNL A   1      29.519  31.118  23.728  1.00  0.00     0.080 A 
ATOM     22  C   UNL A   1      30.240  30.929  25.032  1.00  0.00     0.071 C 
ENDBRANCH  10  15
BRANCH   9  23
ATOM     23  C   UNL A   1      32.478  28.481  24.525  1.00  0.00     0.022 C 
BRANCH  23  24
ATOM     24  C   UNL A   1      32.799  28.098  25.946  1.00  0.00    -0.010 C 
ATOM     25  C   UNL A   1      33.913  28.468  26.893  1.00  0.00     0.004 C 
ATOM     26  C   UNL A   1      32.609  29.194  26.975  1.00  0.00     0.004 C 
ENDBRANCH  23  24
ENDBRANCH   9  23
ENDBRANCH   6   9
ENDBRANCH   4   5
ENDBRANCH   3   4
ENDBRANCH   2   3
ENDBRANCH   1   2
BRANCH   1  27
ATOM     27  C   UNL A   1      35.385  22.580  26.084  1.00  0.00     0.021 C 
BRANCH  27  28
ATOM     28  C   UNL A   1      36.732  23.220  25.759  1.00  0.00     0.116 C 
BRANCH  28  29
ATOM     29  N   UNL A   1      37.852  22.332  26.018  1.00  0.00    -0.352 N 
ATOM     30  C   UNL A   1      39.129  22.612  26.433  1.00  0.00     0.251 C 
ATOM     31  H   UNL A   1      37.665  21.376  25.873  1.00  0.00     0.163 HD
ATOM     32  O   UNL A   1      39.967  21.712  26.449  1.00  0.00    -0.269 OA
BRANCH  30  33
ATOM     33  C   UNL A   1      39.512  23.981  26.845  1.00  0.00     0.039 A 
ATOM     34  C   UNL A   1      39.321  24.355  28.178  1.00  0.00     0.014 A 
ATOM     35  C   UNL A   1      40.014  24.907  25.926  1.00  0.00     0.014 A 
ATOM     36  C   UNL A   1      39.677  25.639  28.601  1.00  0.00     0.010 A 
ATOM     37  C   UNL A   1      40.431  26.164  26.362  1.00  0.00     0.010 A 
ATOM     38  C   UNL A   1      40.258  26.545  27.701  1.00  0.00    -0.014 A 
BRANCH  38  39
ATOM     39  C   UNL A   1      40.700  27.894  28.145  1.00  0.00     0.031 A 
ATOM     40  C   UNL A   1      42.163  28.246  28.167  1.00  0.00     0.074 A 
ATOM     41  C   UNL A   1      39.789  28.770  28.610  1.00  0.00     0.049 A 
ATOM     42  N   UNL A   1      42.739  29.348  28.573  1.00  0.00    -0.248 NA
ATOM     43  C   UNL A   1      43.104  27.218  27.694  1.00  0.00     0.031 C 
ATOM     44  C   UNL A   1      38.349  28.517  28.713  1.00  0.00     0.029 A 
ATOM     45  N   UNL A   1      39.939  30.039  29.110  1.00  0.00    -0.354 N 
ATOM     46  C   UNL A   1      44.106  29.133  28.445  1.00  0.00     0.074 A 
ATOM     47  C   UNL A   1      44.276  27.785  27.948  1.00  0.00     0.031 C 
ATOM     48  C   UNL A   1      37.750  29.596  29.241  1.00  0.00     0.029 A 
ATOM     49  C   UNL A   1      38.761  30.605  29.540  1.00  0.00     0.049 A 
ATOM     50  H   UNL A   1      40.807  30.501  29.158  1.00  0.00     0.167 HD
ATOM     51  C   UNL A   1      45.127  29.989  28.690  1.00  0.00     0.034 A 
ATOM     52  C   UNL A   1      38.522  31.801  30.115  1.00  0.00     0.034 A 
ATOM     53  C   UNL A   1      44.952  31.346  29.134  1.00  0.00     0.049 A 
ATOM     54  C   UNL A   1      39.669  32.751  30.328  1.00  0.00     0.074 A 
ATOM     55  C   UNL A   1      45.914  32.322  29.318  1.00  0.00     0.029 A 
ATOM     56  N   UNL A   1      43.734  31.918  29.470  1.00  0.00    -0.354 N 
ATOM     57  N   UNL A   1      40.939  32.589  30.045  1.00  0.00    -0.248 NA
ATOM     58  C   UNL A   1      39.346  34.064  30.906  1.00  0.00     0.031 C 
ATOM     59  C   UNL A   1      45.281  33.479  29.783  1.00  0.00     0.029 A 
ATOM     60  C   UNL A   1      43.921  33.230  29.868  1.00  0.00     0.049 A 
ATOM     61  H   UNL A   1      42.865  31.457  29.430  1.00  0.00     0.167 HD
ATOM     62  C   UNL A   1      41.559  33.788  30.373  1.00  0.00     0.074 A 
ATOM     63  C   UNL A   1      40.522  34.676  30.859  1.00  0.00     0.031 C 
ATOM     64  C   UNL A   1      42.872  34.120  30.295  1.00  0.00     0.034 A 
BRANCH  51  65
ATOM     65  C   UNL A   1      46.529  29.502  28.429  1.00  0.00     0.023 A 
ATOM     66  C   UNL A   1      47.110  29.707  27.161  1.00  0.00     0.012 A 
ATOM     67  C   UNL A   1      47.292  28.900  29.449  1.00  0.00     0.148 A 
ATOM     68  C   UNL A   1      48.416  29.291  26.901  1.00  0.00     0.002 A 
ATOM     69  C   UNL A   1      48.607  28.527  29.195  1.00  0.00     0.091 A 
ATOM     70  F   UNL A   1      46.716  28.694  30.642  1.00  0.00    -0.205 F 
ATOM     71  C   UNL A   1      49.166  28.710  27.920  1.00  0.00     0.022 A 
BRANCH  69  72
ATOM     72  S   UNL A   1      49.679  27.843  30.465  1.00  0.00     0.127 S 
ATOM     73  O   UNL A   1      50.851  27.452  29.680  1.00  0.00    -0.237 OA
ATOM     74  O   UNL A   1      49.895  28.999  31.339  1.00  0.00    -0.237 OA
ATOM     75  O   UNL A   1      48.939  26.753  31.073  1.00  0.00    -0.744 OA
ENDBRANCH  69  72
ENDBRANCH  51  65
BRANCH  52  76
ATOM     76  C   UNL A   1      37.126  32.194  30.459  1.00  0.00     0.023 A 
ATOM     77  C   UNL A   1      36.662  32.007  31.776  1.00  0.00     0.012 A 
ATOM     78  C   UNL A   1      36.271  32.778  29.505  1.00  0.00     0.148 A 
ATOM     79  C   UNL A   1      35.361  32.365  32.128  1.00  0.00     0.002 A 
ATOM     80  C   UNL A   1      34.994  33.184  29.878  1.00  0.00     0.091 A 
ATOM     81  F   UNL A   1      36.727  32.936  28.255  1.00  0.00    -0.205 F 
ATOM     82  C   UNL A   1      34.531  32.962  31.184  1.00  0.00     0.022 A 
BRANCH  80  83
ATOM     83  S   UNL A   1      33.907  34.079  28.762  1.00  0.00     0.127 S 
ATOM     84  O   UNL A   1      34.811  35.079  28.201  1.00  0.00    -0.237 OA
ATOM     85  O   UNL A   1      33.496  33.027  27.831  1.00  0.00    -0.237 OA
ATOM     86  O   UNL A   1      32.828  34.594  29.596  1.00  0.00    -0.744 OA
ENDBRANCH  80  83
ENDBRANCH  52  76
BRANCH  64  87
ATOM     87  C   UNL A   1      43.267  35.513  30.709  1.00  0.00     0.023 A 
ATOM     88  C   UNL A   1      43.661  35.762  32.039  1.00  0.00     0.012 A 
ATOM     89  C   UNL A   1      43.320  36.556  29.764  1.00  0.00     0.148 A 
ATOM     90  C   UNL A   1      44.073  37.037  32.428  1.00  0.00     0.002 A 
ATOM     91  C   UNL A   1      43.777  37.811  30.148  1.00  0.00     0.091 A 
ATOM     92  F   UNL A   1      42.921  36.304  28.509  1.00  0.00    -0.205 F 
ATOM     93  C   UNL A   1      44.143  38.056  31.482  1.00  0.00     0.022 A 
BRANCH  91  94
ATOM     94  S   UNL A   1      43.992  39.155  28.976  1.00  0.00     0.127 S 
ATOM     95  O   UNL A   1      42.613  39.584  28.757  1.00  0.00    -0.237 OA
ATOM     96  O   UNL A   1      44.813  40.102  29.733  1.00  0.00    -0.237 OA
ATOM     97  O   UNL A   1      44.659  38.574  27.818  1.00  0.00    -0.744 OA
ENDBRANCH  91  94
ENDBRANCH  64  87
ENDBRANCH  38  39
ENDBRANCH  30  33
ENDBRANCH  28  29
ENDBRANCH  27  28
ENDBRANCH   1  27
TORSDOF 19
ENDMDL
MODEL 2
REMARK VINA RESULT:     -11.0      4.021      8.758
REMARK SMILES Cc1cnc(C)c(N2CCC[C@@](CC3CC3)(C(=O)NCCCCCCNC(=O)c3ccc(-c4c5nc(c(-c6cccc(S(=O)(=O)[O-])c6F)c6ccc([nH]6)c(-c6cccc(S(=O)(=O)[O-])c6F)c6nc(c(-c7cccc(S(=O)(=O)[O-])c7F)c7ccc4[nH]7)C=C6)C=C5)cc3)C2)n1
REMARK SMILES IDX 23 1 22 2 21 3 20 4 19 5 17 6 18 7 12 9 8 10 9 11 92 12
REMARK SMILES IDX 10 13 11 14 7 15 1 16 2 17 3 18 93 19 4 20 5 21 6 22 13 23
REMARK SMILES IDX 14 24 15 25 16 26 24 27 25 28 26 29 27 30 28 32 29 33 30 34
REMARK SMILES IDX 91 35 31 36 90 37 32 38 33 39 34 40 84 41 35 42 89 43 83 44
REMARK SMILES IDX 85 45 36 46 88 47 82 48 81 49 37 51 69 52 49 53 68 54 50 55
REMARK SMILES IDX 53 56 67 57 86 58 51 59 52 60 66 62 87 63 54 64 38 65 39 66
REMARK SMILES IDX 47 67 40 68 42 69 48 70 41 71 43 72 44 73 45 74 46 75 70 76
REMARK SMILES IDX 71 77 79 78 72 79 74 80 80 81 73 82 75 83 76 84 77 85 78 86
REMARK SMILES IDX 55 87 56 88 64 89 57 90 59 91 65 92 58 93 60 94 61 95 62 96
REMARK SMILES IDX 63 97
REMARK H PARENT 19 8 26 31 85 50 53 61
REMARK Flexibility Score: inf
ROOT
ATOM      1  C   UNL A   1      39.646  22.347  26.849  1.00  0.00     0.002 C 
ENDROOT
BRANCH   1   2
ATOM      2  C   UNL A   1      39.089  23.598  26.157  1.00  0.00     0.002 C 
BRANCH   2   3
ATOM      3  C   UNL A   1      37.834  24.216  26.770  1.00  0.00     0.021 C 
BRANCH   3   4
ATOM      4  C   UNL A   1      36.535  23.941  26.029  1.00  0.00     0.116 C 
BRANCH   4   5
ATOM      5  N   UNL A   1      36.667  23.363  24.720  1.00  0.00    -0.356 N 
ATOM      6  C   UNL A   1      35.796  23.360  23.671  1.00  0.00     0.228 C 
ATOM      7  O   UNL A   1      36.298  23.008  22.594  1.00  0.00    -0.274 OA
ATOM      8  H   UNL A   1      37.518  22.897  24.555  1.00  0.00     0.163 HD
BRANCH   6   9
ATOM      9  C   UNL A   1      34.292  23.783  23.759  1.00  0.00     0.067 C 
ATOM     10  N   UNL A   1      33.033  25.840  24.353  1.00  0.00    -0.354 N 
ATOM     11  C   UNL A   1      32.499  26.130  23.037  1.00  0.00     0.118 C 
ATOM     12  C   UNL A   1      34.370  25.244  24.373  1.00  0.00     0.135 C 
ATOM     13  C   UNL A   1      32.358  24.802  22.308  1.00  0.00     0.023 C 
ATOM     14  C   UNL A   1      33.632  23.951  22.363  1.00  0.00     0.020 C 
BRANCH  10  15
ATOM     15  C   UNL A   1      32.669  26.672  25.396  1.00  0.00     0.150 A 
ATOM     16  C   UNL A   1      33.936  29.725  27.008  1.00  0.00     0.068 C 
ATOM     17  C   UNL A   1      33.094  28.527  26.708  1.00  0.00     0.058 A 
ATOM     18  C   UNL A   1      32.008  28.216  27.511  1.00  0.00     0.135 A 
ATOM     19  N   UNL A   1      33.439  27.757  25.648  1.00  0.00    -0.233 NA
ATOM     20  N   UNL A   1      31.216  27.150  27.287  1.00  0.00    -0.256 NA
ATOM     21  C   UNL A   1      31.557  26.379  26.216  1.00  0.00     0.080 A 
ATOM     22  C   UNL A   1      30.761  25.115  26.065  1.00  0.00     0.071 C 
ENDBRANCH  10  15
BRANCH   9  23
ATOM     23  C   UNL A   1      33.554  22.942  24.846  1.00  0.00     0.022 C 
BRANCH  23  24
ATOM     24  C   UNL A   1      33.301  21.457  24.807  1.00  0.00    -0.010 C 
ATOM     25  C   UNL A   1      34.207  20.252  24.781  1.00  0.00     0.004 C 
ATOM     26  C   UNL A   1      33.628  20.707  26.082  1.00  0.00     0.004 C 
ENDBRANCH  23  24
ENDBRANCH   9  23
ENDBRANCH   6   9
ENDBRANCH   4   5
ENDBRANCH   3   4
ENDBRANCH   2   3
ENDBRANCH   1   2
BRANCH   1  27
ATOM     27  C   UNL A   1      39.678  21.055  26.025  1.00  0.00     0.021 C 
BRANCH  27  28
ATOM     28  C   UNL A   1      40.198  19.812  26.744  1.00  0.00     0.116 C 
BRANCH  28  29
ATOM     29  N   UNL A   1      41.313  19.189  26.052  1.00  0.00    -0.352 N 
ATOM     30  C   UNL A   1      42.499  19.724  25.620  1.00  0.00     0.251 C 
ATOM     31  H   UNL A   1      41.198  18.229  25.865  1.00  0.00     0.163 HD
ATOM     32  O   UNL A   1      43.246  19.042  24.921  1.00  0.00    -0.269 OA
BRANCH  30  33
ATOM     33  C   UNL A   1      42.881  21.110  25.970  1.00  0.00     0.039 A 
ATOM     34  C   UNL A   1      43.168  21.407  27.305  1.00  0.00     0.014 A 
ATOM     35  C   UNL A   1      42.917  22.123  25.007  1.00  0.00     0.014 A 
ATOM     36  C   UNL A   1      43.537  22.705  27.668  1.00  0.00     0.010 A 
ATOM     37  C   UNL A   1      43.350  23.401  25.358  1.00  0.00     0.010 A 
ATOM     38  C   UNL A   1      43.656  23.707  26.693  1.00  0.00    -0.014 A 
BRANCH  38  39
ATOM     39  C   UNL A   1      44.106  25.078  27.049  1.00  0.00     0.031 A 
ATOM     40  C   UNL A   1      43.138  26.068  27.639  1.00  0.00     0.074 A 
ATOM     41  C   UNL A   1      45.366  25.459  26.760  1.00  0.00     0.049 A 
ATOM     42  N   UNL A   1      43.333  27.321  27.959  1.00  0.00    -0.248 NA
ATOM     43  C   UNL A   1      41.763  25.596  27.876  1.00  0.00     0.031 C 
ATOM     44  C   UNL A   1      46.376  24.615  26.117  1.00  0.00     0.029 A 
ATOM     45  N   UNL A   1      46.004  26.660  26.944  1.00  0.00    -0.354 N 
ATOM     46  C   UNL A   1      42.102  27.798  28.396  1.00  0.00     0.074 A 
ATOM     47  C   UNL A   1      41.159  26.708  28.273  1.00  0.00     0.031 C 
ATOM     48  C   UNL A   1      47.506  25.324  25.961  1.00  0.00     0.029 A 
ATOM     49  C   UNL A   1      47.294  26.676  26.466  1.00  0.00     0.049 A 
ATOM     50  H   UNL A   1      45.580  27.435  27.376  1.00  0.00     0.167 HD
ATOM     51  C   UNL A   1      41.791  29.024  28.882  1.00  0.00     0.034 A 
ATOM     52  C   UNL A   1      48.203  27.671  26.434  1.00  0.00     0.034 A 
ATOM     53  C   UNL A   1      42.743  30.089  29.050  1.00  0.00     0.049 A 
ATOM     54  C   UNL A   1      47.846  29.007  27.028  1.00  0.00     0.074 A 
ATOM     55  C   UNL A   1      42.549  31.333  29.623  1.00  0.00     0.029 A 
ATOM     56  N   UNL A   1      44.067  30.039  28.642  1.00  0.00    -0.354 N 
ATOM     57  N   UNL A   1      46.724  29.387  27.588  1.00  0.00    -0.248 NA
ATOM     58  C   UNL A   1      48.893  30.040  27.018  1.00  0.00     0.031 C 
ATOM     59  C   UNL A   1      43.751  32.043  29.544  1.00  0.00     0.029 A 
ATOM     60  C   UNL A   1      44.700  31.233  28.941  1.00  0.00     0.049 A 
ATOM     61  H   UNL A   1      44.493  29.268  28.204  1.00  0.00     0.167 HD
ATOM     62  C   UNL A   1      46.939  30.686  28.031  1.00  0.00     0.074 A 
ATOM     63  C   UNL A   1      48.307  31.022  27.691  1.00  0.00     0.031 C 
ATOM     64  C   UNL A   1      46.078  31.533  28.650  1.00  0.00     0.034 A 
BRANCH  51  65
ATOM     65  C   UNL A   1      40.370  29.264  29.321  1.00  0.00     0.023 A 
ATOM     66  C   UNL A   1      39.410  29.674  28.373  1.00  0.00     0.012 A 
ATOM     67  C   UNL A   1      39.969  29.025  30.651  1.00  0.00     0.148 A 
ATOM     68  C   UNL A   1      38.082  29.876  28.746  1.00  0.00     0.002 A 
ATOM     69  C   UNL A   1      38.633  29.188  31.006  1.00  0.00     0.091 A 
ATOM     70  F   UNL A   1      40.898  28.656  31.544  1.00  0.00    -0.205 F 
ATOM     71  C   UNL A   1      37.692  29.624  30.059  1.00  0.00     0.022 A 
BRANCH  69  72
ATOM     72  S   UNL A   1      38.020  28.813  32.652  1.00  0.00     0.127 S 
ATOM     73  O   UNL A   1      36.641  29.299  32.569  1.00  0.00    -0.237 OA
ATOM     74  O   UNL A   1      38.145  27.353  32.701  1.00  0.00    -0.237 OA
ATOM     75  O   UNL A   1      38.882  29.526  33.575  1.00  0.00    -0.744 OA
ENDBRANCH  69  72
ENDBRANCH  51  65
BRANCH  52  76
ATOM     76  C   UNL A   1      49.565  27.415  25.885  1.00  0.00     0.023 A 
ATOM     77  C   UNL A   1      50.586  26.980  26.752  1.00  0.00     0.012 A 
ATOM     78  C   UNL A   1      49.846  27.570  24.515  1.00  0.00     0.148 A 
ATOM     79  C   UNL A   1      51.871  26.732  26.268  1.00  0.00     0.002 A 
ATOM     80  C   UNL A   1      51.115  27.267  24.030  1.00  0.00     0.091 A 
ATOM     81  F   UNL A   1      48.865  27.997  23.708  1.00  0.00    -0.205 F 
ATOM     82  C   UNL A   1      52.133  26.865  24.908  1.00  0.00     0.022 A 
BRANCH  80  83
ATOM     83  S   UNL A   1      51.503  27.284  22.276  1.00  0.00     0.127 S 
ATOM     84  O   UNL A   1      51.692  28.710  22.025  1.00  0.00    -0.237 OA
ATOM     85  O   UNL A   1      52.726  26.481  22.229  1.00  0.00    -0.237 OA
ATOM     86  O   UNL A   1      50.358  26.669  21.616  1.00  0.00    -0.744 OA
ENDBRANCH  80  83
ENDBRANCH  52  76
BRANCH  64  87
ATOM     87  C   UNL A   1      46.592  32.895  29.035  1.00  0.00     0.023 A 
ATOM     88  C   UNL A   1      47.277  33.065  30.255  1.00  0.00     0.012 A 
ATOM     89  C   UNL A   1      46.464  33.987  28.155  1.00  0.00     0.148 A 
ATOM     90  C   UNL A   1      47.799  34.309  30.606  1.00  0.00     0.002 A 
ATOM     91  C   UNL A   1      47.029  35.212  28.490  1.00  0.00     0.091 A 
ATOM     92  F   UNL A   1      45.792  33.809  27.008  1.00  0.00    -0.205 F 
ATOM     93  C   UNL A   1      47.685  35.378  29.720  1.00  0.00     0.022 A 
BRANCH  91  94
ATOM     94  S   UNL A   1      47.016  36.614  27.367  1.00  0.00     0.127 S 
ATOM     95  O   UNL A   1      47.727  37.626  28.146  1.00  0.00    -0.237 OA
ATOM     96  O   UNL A   1      47.758  36.098  26.215  1.00  0.00    -0.237 OA
ATOM     97  O   UNL A   1      45.613  36.900  27.100  1.00  0.00    -0.744 OA
ENDBRANCH  91  94
ENDBRANCH  64  87
ENDBRANCH  38  39
ENDBRANCH  30  33
ENDBRANCH  28  29
ENDBRANCH  27  28
ENDBRANCH   1  27
TORSDOF 19
ENDMDL
MODEL 3
REMARK VINA RESULT:     -10.8      3.358      5.046
REMARK SMILES Cc1cnc(C)c(N2CCC[C@@](CC3CC3)(C(=O)NCCCCCCNC(=O)c3ccc(-c4c5nc(c(-c6cccc(S(=O)(=O)[O-])c6F)c6ccc([nH]6)c(-c6cccc(S(=O)(=O)[O-])c6F)c6nc(c(-c7cccc(S(=O)(=O)[O-])c7F)c7ccc4[nH]7)C=C6)C=C5)cc3)C2)n1
REMARK SMILES IDX 23 1 22 2 21 3 20 4 19 5 17 6 18 7 12 9 8 10 9 11 92 12
REMARK SMILES IDX 10 13 11 14 7 15 1 16 2 17 3 18 93 19 4 20 5 21 6 22 13 23
REMARK SMILES IDX 14 24 15 25 16 26 24 27 25 28 26 29 27 30 28 32 29 33 30 34
REMARK SMILES IDX 91 35 31 36 90 37 32 38 33 39 34 40 84 41 35 42 89 43 83 44
REMARK SMILES IDX 85 45 36 46 88 47 82 48 81 49 37 51 69 52 49 53 68 54 50 55
REMARK SMILES IDX 53 56 67 57 86 58 51 59 52 60 66 62 87 63 54 64 38 65 39 66
REMARK SMILES IDX 47 67 40 68 42 69 48 70 41 71 43 72 44 73 45 74 46 75 70 76
REMARK SMILES IDX 71 77 79 78 72 79 74 80 80 81 73 82 75 83 76 84 77 85 78 86
REMARK SMILES IDX 55 87 56 88 64 89 57 90 59 91 65 92 58 93 60 94 61 95 62 96
REMARK SMILES IDX 63 97
REMARK H PARENT 19 8 26 31 85 50 53 61
REMARK Flexibility Score: inf
ROOT
ATOM      1  C   UNL A   1      40.395  21.904  27.097  1.00  0.00     0.002 C 
ENDROOT
BRANCH   1   2
ATOM      2  C   UNL A   1      39.783  22.997  26.212  1.00  0.00     0.002 C 
BRANCH   2   3
ATOM      3  C   UNL A   1      38.715  23.879  26.856  1.00  0.00     0.021 C 
BRANCH   3   4
ATOM      4  C   UNL A   1      37.456  24.095  26.030  1.00  0.00     0.116 C 
BRANCH   4   5
ATOM      5  N   UNL A   1      37.403  23.410  24.769  1.00  0.00    -0.356 N 
ATOM      6  C   UNL A   1      36.359  23.230  23.911  1.00  0.00     0.228 C 
ATOM      7  O   UNL A   1      36.687  22.824  22.788  1.00  0.00    -0.274 OA
ATOM      8  H   UNL A   1      38.253  23.008  24.478  1.00  0.00     0.163 HD
BRANCH   6   9
ATOM      9  C   UNL A   1      34.861  23.525  24.256  1.00  0.00     0.067 C 
ATOM     10  N   UNL A   1      33.311  25.455  24.044  1.00  0.00    -0.354 N 
ATOM     11  C   UNL A   1      32.429  24.889  23.044  1.00  0.00     0.118 C 
ATOM     12  C   UNL A   1      34.720  25.072  23.931  1.00  0.00     0.135 C 
ATOM     13  C   UNL A   1      32.451  23.379  23.229  1.00  0.00     0.023 C 
ATOM     14  C   UNL A   1      33.871  22.805  23.301  1.00  0.00     0.020 C 
BRANCH  10  15
ATOM     15  C   UNL A   1      33.010  26.712  24.534  1.00  0.00     0.150 A 
ATOM     16  C   UNL A   1      31.512  28.161  27.564  1.00  0.00     0.068 C 
ATOM     17  C   UNL A   1      32.126  28.040  26.207  1.00  0.00     0.058 A 
ATOM     18  C   UNL A   1      32.320  29.168  25.423  1.00  0.00     0.135 A 
ATOM     19  N   UNL A   1      32.463  26.803  25.769  1.00  0.00    -0.233 NA
ATOM     20  N   UNL A   1      32.867  29.116  24.194  1.00  0.00    -0.256 NA
ATOM     21  C   UNL A   1      33.214  27.874  23.756  1.00  0.00     0.080 A 
ATOM     22  C   UNL A   1      33.683  27.810  22.331  1.00  0.00     0.071 C 
ENDBRANCH  10  15
BRANCH   9  23
ATOM     23  C   UNL A   1      34.628  23.427  25.796  1.00  0.00     0.022 C 
BRANCH  23  24
ATOM     24  C   UNL A   1      33.681  22.489  26.498  1.00  0.00    -0.010 C 
ATOM     25  C   UNL A   1      33.243  22.342  27.933  1.00  0.00     0.004 C 
ATOM     26  C   UNL A   1      32.386  23.112  26.981  1.00  0.00     0.004 C 
ENDBRANCH  23  24
ENDBRANCH   9  23
ENDBRANCH   6   9
ENDBRANCH   4   5
ENDBRANCH   3   4
ENDBRANCH   2   3
ENDBRANCH   1   2
BRANCH   1  27
ATOM     27  C   UNL A   1      40.504  20.500  26.490  1.00  0.00     0.021 C 
BRANCH  27  28
ATOM     28  C   UNL A   1      41.685  19.654  26.959  1.00  0.00     0.116 C 
BRANCH  28  29
ATOM     29  N   UNL A   1      42.581  19.291  25.875  1.00  0.00    -0.352 N 
ATOM     30  C   UNL A   1      43.470  20.055  25.165  1.00  0.00     0.251 C 
ATOM     31  H   UNL A   1      42.542  18.344  25.607  1.00  0.00     0.163 HD
ATOM     32  O   UNL A   1      44.028  19.571  24.182  1.00  0.00    -0.269 OA
BRANCH  30  33
ATOM     33  C   UNL A   1      43.755  21.453  25.558  1.00  0.00     0.039 A 
ATOM     34  C   UNL A   1      43.437  22.477  24.661  1.00  0.00     0.014 A 
ATOM     35  C   UNL A   1      44.369  21.759  26.776  1.00  0.00     0.014 A 
ATOM     36  C   UNL A   1      43.689  23.809  25.004  1.00  0.00     0.010 A 
ATOM     37  C   UNL A   1      44.558  23.090  27.145  1.00  0.00     0.010 A 
ATOM     38  C   UNL A   1      44.229  24.127  26.259  1.00  0.00    -0.014 A 
BRANCH  38  39
ATOM     39  C   UNL A   1      44.447  25.540  26.667  1.00  0.00     0.031 A 
ATOM     40  C   UNL A   1      45.821  26.150  26.589  1.00  0.00     0.074 A 
ATOM     41  C   UNL A   1      43.425  26.246  27.187  1.00  0.00     0.049 A 
ATOM     42  N   UNL A   1      46.213  27.344  26.952  1.00  0.00    -0.248 NA
ATOM     43  C   UNL A   1      46.900  25.300  26.060  1.00  0.00     0.031 C 
ATOM     44  C   UNL A   1      42.064  25.740  27.386  1.00  0.00     0.029 A 
ATOM     45  N   UNL A   1      43.375  27.530  27.670  1.00  0.00    -0.354 N 
ATOM     46  C   UNL A   1      47.586  27.376  26.734  1.00  0.00     0.074 A 
ATOM     47  C   UNL A   1      47.964  26.072  26.234  1.00  0.00     0.031 C 
ATOM     48  C   UNL A   1      41.316  26.703  27.948  1.00  0.00     0.029 A 
ATOM     49  C   UNL A   1      42.145  27.882  28.174  1.00  0.00     0.049 A 
ATOM     50  H   UNL A   1      44.147  28.140  27.658  1.00  0.00     0.167 HD
ATOM     51  C   UNL A   1      48.449  28.406  26.907  1.00  0.00     0.034 A 
ATOM     52  C   UNL A   1      41.732  29.024  28.759  1.00  0.00     0.034 A 
ATOM     53  C   UNL A   1      48.061  29.716  27.356  1.00  0.00     0.049 A 
ATOM     54  C   UNL A   1      42.700  30.169  28.891  1.00  0.00     0.074 A 
ATOM     55  C   UNL A   1      48.841  30.852  27.471  1.00  0.00     0.029 A 
ATOM     56  N   UNL A   1      46.785  30.065  27.769  1.00  0.00    -0.354 N 
ATOM     57  N   UNL A   1      43.957  30.232  28.525  1.00  0.00    -0.248 NA
ATOM     58  C   UNL A   1      42.183  31.412  29.483  1.00  0.00     0.031 C 
ATOM     59  C   UNL A   1      48.042  31.884  27.972  1.00  0.00     0.029 A 
ATOM     60  C   UNL A   1      46.757  31.396  28.148  1.00  0.00     0.049 A 
ATOM     61  H   UNL A   1      46.012  29.455  27.789  1.00  0.00     0.167 HD
ATOM     62  C   UNL A   1      44.371  31.529  28.806  1.00  0.00     0.074 A 
ATOM     63  C   UNL A   1      43.224  32.224  29.355  1.00  0.00     0.031 C 
ATOM     64  C   UNL A   1      45.594  32.090  28.639  1.00  0.00     0.034 A 
BRANCH  51  65
ATOM     65  C   UNL A   1      49.896  28.174  26.556  1.00  0.00     0.023 A 
ATOM     66  C   UNL A   1      50.307  28.264  25.210  1.00  0.00     0.012 A 
ATOM     67  C   UNL A   1      50.858  27.930  27.557  1.00  0.00     0.148 A 
ATOM     68  C   UNL A   1      51.645  28.082  24.861  1.00  0.00     0.002 A 
ATOM     69  C   UNL A   1      52.196  27.791  27.205  1.00  0.00     0.091 A 
ATOM     70  F   UNL A   1      50.446  27.826  28.828  1.00  0.00    -0.205 F 
ATOM     71  C   UNL A   1      52.590  27.856  25.858  1.00  0.00     0.022 A 
BRANCH  69  72
ATOM     72  S   UNL A   1      53.497  27.575  28.425  1.00  0.00     0.127 S 
ATOM     73  O   UNL A   1      54.693  27.562  27.580  1.00  0.00    -0.237 OA
ATOM     74  O   UNL A   1      53.351  28.780  29.247  1.00  0.00    -0.237 OA
ATOM     75  O   UNL A   1      53.202  26.333  29.113  1.00  0.00    -0.744 OA
ENDBRANCH  69  72
ENDBRANCH  51  65
BRANCH  52  76
ATOM     76  C   UNL A   1      40.313  29.166  29.193  1.00  0.00     0.023 A 
ATOM     77  C   UNL A   1      39.316  29.397  28.224  1.00  0.00     0.012 A 
ATOM     78  C   UNL A   1      39.943  29.044  30.545  1.00  0.00     0.148 A 
ATOM     79  C   UNL A   1      37.980  29.534  28.599  1.00  0.00     0.002 A 
ATOM     80  C   UNL A   1      38.601  29.126  30.905  1.00  0.00     0.091 A 
ATOM     81  F   UNL A   1      40.906  28.837  31.453  1.00  0.00    -0.205 F 
ATOM     82  C   UNL A   1      37.621  29.388  29.936  1.00  0.00     0.022 A 
BRANCH  80  83
ATOM     83  S   UNL A   1      38.036  28.820  32.583  1.00  0.00     0.127 S 
ATOM     84  O   UNL A   1      38.229  27.378  32.706  1.00  0.00    -0.237 OA
ATOM     85  O   UNL A   1      38.964  29.636  33.368  1.00  0.00    -0.237 OA
ATOM     86  O   UNL A   1      36.655  29.283  32.621  1.00  0.00    -0.744 OA
ENDBRANCH  80  83
ENDBRANCH  52  76
BRANCH  64  87
ATOM     87  C   UNL A   1      45.757  33.538  29.020  1.00  0.00     0.023 A 
ATOM     88  C   UNL A   1      46.191  33.876  30.317  1.00  0.00     0.012 A 
ATOM     89  C   UNL A   1      45.555  34.558  28.070  1.00  0.00     0.148 A 
ATOM     90  C   UNL A   1      46.390  35.210  30.673  1.00  0.00     0.002 A 
ATOM     91  C   UNL A   1      45.802  35.881  28.417  1.00  0.00     0.091 A 
ATOM     92  F   UNL A   1      45.123  34.217  26.847  1.00  0.00    -0.205 F 
ATOM     93  C   UNL A   1      46.208  36.209  29.720  1.00  0.00     0.022 A 
BRANCH  91  94
ATOM     94  S   UNL A   1      45.688  37.223  27.228  1.00  0.00     0.127 S 
ATOM     95  O   UNL A   1      44.252  37.265  26.962  1.00  0.00    -0.237 OA
ATOM     96  O   UNL A   1      46.201  38.362  27.992  1.00  0.00    -0.237 OA
ATOM     97  O   UNL A   1      46.524  36.831  26.100  1.00  0.00    -0.744 OA
ENDBRANCH  91  94
ENDBRANCH  64  87
ENDBRANCH  38  39
ENDBRANCH  30  33
ENDBRANCH  28  29
ENDBRANCH  27  28
ENDBRANCH   1  27
TORSDOF 19
ENDMDL
