MODEL 1
REMARK VINA RESULT:     -11.0      0.000      0.000
REMARK SMILES O=C(CCCN1C(=O)/C(=C\c2ccc(O)c(O)c2)SC1=S)NCCCCCCNC(=O)c1ccc(-c2c3nc(c(-c4cccc(S(=O)(=O)[O-])c4F)c4ccc([nH]4)c(-c4cccc(S(=O)(=O)[O-])c4F)c4nc(c(-c5cccc(S(=O)(=O)[O-])c5F)c5ccc2[nH]5)C=C4)C=C3)cc1
REMARK SMILES IDX 24 1 23 2 22 3 1 4 2 5 3 7 4 8 5 9 6 10 7 11 20 12 8 13 9 14
REMARK SMILES IDX 19 15 21 16 10 17 11 18 12 19 18 20 13 21 16 22 14 23 17 24
REMARK SMILES IDX 15 26 25 28 26 29 27 30 28 31 29 32 30 33 31 35 32 36 33 37
REMARK SMILES IDX 94 38 34 39 93 40 35 41 36 42 37 43 87 44 38 45 92 46 86 47
REMARK SMILES IDX 88 48 39 49 91 50 85 51 84 52 40 54 72 55 52 56 71 57 53 58
REMARK SMILES IDX 56 59 70 60 89 61 54 62 55 63 69 65 90 66 57 67 41 68 42 69
REMARK SMILES IDX 50 70 43 71 45 72 51 73 44 74 46 75 47 76 48 77 49 78 73 79
REMARK SMILES IDX 74 80 82 81 75 82 77 83 83 84 76 85 78 86 79 87 80 88 81 89
REMARK SMILES IDX 58 90 59 91 67 92 60 93 62 94 68 95 61 96 63 97 64 98 65 99
REMARK SMILES IDX 66 100
REMARK H PARENT 22 6 17 25 15 27 29 34 88 53 56 64
REMARK Flexibility Score: inf
ROOT
ATOM      1  C   UNL A   1      31.050  28.343  24.891  1.00  0.00     0.021 C 
ENDROOT
BRANCH   1   2
ATOM      2  C   UNL A   1      31.332  27.408  26.071  1.00  0.00     0.116 C 
BRANCH   2   3
ATOM      3  N   UNL A   1      31.932  26.169  25.620  1.00  0.00    -0.356 N 
ATOM      4  O   UNL A   1      34.132  26.793  25.775  1.00  0.00    -0.275 OA
ATOM      5  C   UNL A   1      33.281  25.938  25.560  1.00  0.00     0.220 C 
ATOM      6  H   UNL A   1      31.329  25.443  25.338  1.00  0.00     0.163 HD
BRANCH   5   7
ATOM      7  C   UNL A   1      33.645  24.499  25.219  1.00  0.00     0.102 C 
BRANCH   7   8
ATOM      8  C   UNL A   1      35.152  24.259  25.075  1.00  0.00     0.032 C 
BRANCH   8   9
ATOM      9  C   UNL A   1      35.873  23.438  26.158  1.00  0.00     0.128 C 
BRANCH   9  10
ATOM     10  N   UNL A   1      36.717  22.312  25.714  1.00  0.00    -0.293 N 
ATOM     11  C   UNL A   1      38.090  22.434  25.924  1.00  0.00     0.266 C 
ATOM     12  C   UNL A   1      36.298  21.080  25.253  1.00  0.00     0.148 C 
ATOM     13  O   UNL A   1      38.663  23.462  26.250  1.00  0.00    -0.268 OA
ATOM     14  C   UNL A   1      38.769  21.119  25.731  1.00  0.00     0.081 C 
ATOM     15  S   UNL A   1      37.659  19.980  25.090  1.00  0.00    -0.054 SA
ATOM     16  S   UNL A   1      34.776  20.523  24.880  1.00  0.00    -0.052 S 
ATOM     17  C   UNL A   1      40.032  20.781  26.018  1.00  0.00     0.029 C 
BRANCH  17  18
ATOM     18  C   UNL A   1      41.037  21.690  26.558  1.00  0.00    -0.020 A 
ATOM     19  C   UNL A   1      41.147  21.921  27.938  1.00  0.00     0.012 A 
ATOM     20  C   UNL A   1      41.880  22.358  25.665  1.00  0.00     0.058 A 
ATOM     21  C   UNL A   1      42.066  22.852  28.426  1.00  0.00     0.051 A 
ATOM     22  C   UNL A   1      42.792  23.276  26.161  1.00  0.00     0.157 A 
ATOM     23  C   UNL A   1      42.878  23.532  27.527  1.00  0.00     0.157 A 
BRANCH  22  24
ATOM     24  O   UNL A   1      43.598  23.948  25.286  1.00  0.00    -0.504 OA
ATOM     25  H   UNL A   1      44.051  23.479  24.613  1.00  0.00     0.293 HD
ENDBRANCH  22  24
BRANCH  23  26
ATOM     26  O   UNL A   1      43.777  24.477  27.940  1.00  0.00    -0.504 OA
ATOM     27  H   UNL A   1      43.863  24.675  28.852  1.00  0.00     0.293 HD
ENDBRANCH  23  26
ENDBRANCH  17  18
ENDBRANCH   9  10
ENDBRANCH   8   9
ENDBRANCH   7   8
ENDBRANCH   5   7
ENDBRANCH   2   3
ENDBRANCH   1   2
BRANCH   1  28
ATOM     28  C   UNL A   1      31.610  29.768  25.032  1.00  0.00     0.002 C 
BRANCH  28  29
ATOM     29  C   UNL A   1      31.978  30.206  26.449  1.00  0.00     0.002 C 
BRANCH  29  30
ATOM     30  C   UNL A   1      31.700  31.674  26.769  1.00  0.00     0.021 C 
BRANCH  30  31
ATOM     31  C   UNL A   1      32.886  32.447  27.337  1.00  0.00     0.116 C 
BRANCH  31  32
ATOM     32  N   UNL A   1      32.566  33.839  27.622  1.00  0.00    -0.352 N 
ATOM     33  C   UNL A   1      33.098  34.670  28.580  1.00  0.00     0.251 C 
ATOM     34  H   UNL A   1      31.872  34.241  27.050  1.00  0.00     0.163 HD
ATOM     35  O   UNL A   1      32.595  35.770  28.787  1.00  0.00    -0.269 OA
BRANCH  33  36
ATOM     36  C   UNL A   1      34.262  34.221  29.377  1.00  0.00     0.039 A 
ATOM     37  C   UNL A   1      34.041  33.564  30.591  1.00  0.00     0.014 A 
ATOM     38  C   UNL A   1      35.565  34.428  28.919  1.00  0.00     0.014 A 
ATOM     39  C   UNL A   1      35.127  33.055  31.309  1.00  0.00     0.010 A 
ATOM     40  C   UNL A   1      36.637  33.850  29.595  1.00  0.00     0.010 A 
ATOM     41  C   UNL A   1      36.431  33.160  30.799  1.00  0.00    -0.014 A 
BRANCH  41  42
ATOM     42  C   UNL A   1      37.588  32.540  31.499  1.00  0.00     0.031 A 
ATOM     43  C   UNL A   1      38.336  31.396  30.867  1.00  0.00     0.074 A 
ATOM     44  C   UNL A   1      37.912  32.949  32.742  1.00  0.00     0.049 A 
ATOM     45  N   UNL A   1      39.332  30.697  31.348  1.00  0.00    -0.248 NA
ATOM     46  C   UNL A   1      37.890  30.964  29.532  1.00  0.00     0.031 C 
ATOM     47  C   UNL A   1      37.218  33.993  33.499  1.00  0.00     0.029 A 
ATOM     48  N   UNL A   1      38.893  32.516  33.601  1.00  0.00    -0.354 N 
ATOM     49  C   UNL A   1      39.609  29.724  30.395  1.00  0.00     0.074 A 
ATOM     50  C   UNL A   1      38.652  29.899  29.323  1.00  0.00     0.031 C 
ATOM     51  C   UNL A   1      37.796  34.124  34.702  1.00  0.00     0.029 A 
ATOM     52  C   UNL A   1      38.878  33.153  34.821  1.00  0.00     0.049 A 
ATOM     53  H   UNL A   1      39.544  31.816  33.367  1.00  0.00     0.167 HD
ATOM     54  C   UNL A   1      40.586  28.786  30.395  1.00  0.00     0.034 A 
ATOM     55  C   UNL A   1      39.642  32.969  35.917  1.00  0.00     0.034 A 
ATOM     56  C   UNL A   1      41.558  28.636  31.444  1.00  0.00     0.049 A 
ATOM     57  C   UNL A   1      40.739  31.939  35.880  1.00  0.00     0.074 A 
ATOM     58  C   UNL A   1      42.641  27.776  31.497  1.00  0.00     0.029 A 
ATOM     59  N   UNL A   1      41.560  29.352  32.631  1.00  0.00    -0.354 N 
ATOM     60  N   UNL A   1      41.086  31.136  34.904  1.00  0.00    -0.248 NA
ATOM     61  C   UNL A   1      41.574  31.813  37.084  1.00  0.00     0.031 C 
ATOM     62  C   UNL A   1      43.278  27.948  32.731  1.00  0.00     0.029 A 
ATOM     63  C   UNL A   1      42.615  28.944  33.431  1.00  0.00     0.049 A 
ATOM     64  H   UNL A   1      40.907  30.048  32.872  1.00  0.00     0.167 HD
ATOM     65  C   UNL A   1      42.200  30.440  35.359  1.00  0.00     0.074 A 
ATOM     66  C   UNL A   1      42.481  30.931  36.693  1.00  0.00     0.031 C 
ATOM     67  C   UNL A   1      42.917  29.474  34.735  1.00  0.00     0.034 A 
BRANCH  54  68
ATOM     68  C   UNL A   1      40.683  27.873  29.200  1.00  0.00     0.023 A 
ATOM     69  C   UNL A   1      39.836  26.748  29.111  1.00  0.00     0.012 A 
ATOM     70  C   UNL A   1      41.565  28.157  28.139  1.00  0.00     0.148 A 
ATOM     71  C   UNL A   1      39.894  25.899  28.007  1.00  0.00     0.002 A 
ATOM     72  C   UNL A   1      41.583  27.333  27.019  1.00  0.00     0.091 A 
ATOM     73  F   UNL A   1      42.375  29.219  28.248  1.00  0.00    -0.205 F 
ATOM     74  C   UNL A   1      40.758  26.198  26.957  1.00  0.00     0.022 A 
BRANCH  72  75
ATOM     75  S   UNL A   1      42.599  27.677  25.579  1.00  0.00     0.127 S 
ATOM     76  O   UNL A   1      41.987  28.904  25.072  1.00  0.00    -0.237 OA
ATOM     77  O   UNL A   1      43.924  27.859  26.174  1.00  0.00    -0.237 OA
ATOM     78  O   UNL A   1      42.477  26.514  24.712  1.00  0.00    -0.744 OA
ENDBRANCH  72  75
ENDBRANCH  54  68
BRANCH  55  79
ATOM     79  C   UNL A   1      39.434  33.819  37.124  1.00  0.00     0.023 A 
ATOM     80  C   UNL A   1      39.887  35.153  37.119  1.00  0.00     0.012 A 
ATOM     81  C   UNL A   1      38.776  33.322  38.265  1.00  0.00     0.148 A 
ATOM     82  C   UNL A   1      39.723  35.964  38.241  1.00  0.00     0.002 A 
ATOM     83  C   UNL A   1      38.563  34.153  39.358  1.00  0.00     0.091 A 
ATOM     84  F   UNL A   1      38.361  32.048  38.253  1.00  0.00    -0.205 F 
ATOM     85  C   UNL A   1      39.052  35.469  39.357  1.00  0.00     0.022 A 
BRANCH  83  86
ATOM     86  S   UNL A   1      37.595  33.644  40.783  1.00  0.00     0.127 S 
ATOM     87  O   UNL A   1      38.480  32.665  41.410  1.00  0.00    -0.237 OA
ATOM     88  O   UNL A   1      37.452  34.903  41.515  1.00  0.00    -0.237 OA
ATOM     89  O   UNL A   1      36.349  33.117  40.244  1.00  0.00    -0.744 OA
ENDBRANCH  83  86
ENDBRANCH  55  79
BRANCH  67  90
ATOM     90  C   UNL A   1      44.110  28.907  35.461  1.00  0.00     0.023 A 
ATOM     91  C   UNL A   1      45.384  29.483  35.288  1.00  0.00     0.012 A 
ATOM     92  C   UNL A   1      43.951  27.844  36.374  1.00  0.00     0.148 A 
ATOM     93  C   UNL A   1      46.486  28.989  35.983  1.00  0.00     0.002 A 
ATOM     94  C   UNL A   1      45.043  27.392  37.103  1.00  0.00     0.091 A 
ATOM     95  F   UNL A   1      42.734  27.297  36.512  1.00  0.00    -0.205 F 
ATOM     96  C   UNL A   1      46.314  27.953  36.899  1.00  0.00     0.022 A 
BRANCH  94  97
ATOM     97  S   UNL A   1      44.899  26.131  38.375  1.00  0.00     0.127 S 
ATOM     98  O   UNL A   1      43.810  26.661  39.196  1.00  0.00    -0.237 OA
ATOM     99  O   UNL A   1      44.552  24.942  37.595  1.00  0.00    -0.237 OA
ATOM    100  O   UNL A   1      46.199  26.068  39.030  1.00  0.00    -0.744 OA
ENDBRANCH  94  97
ENDBRANCH  67  90
ENDBRANCH  41  42
ENDBRANCH  33  36
ENDBRANCH  31  32
ENDBRANCH  30  31
ENDBRANCH  29  30
ENDBRANCH  28  29
ENDBRANCH   1  28
TORSDOF 22
ENDMDL
MODEL 2
REMARK VINA RESULT:      -9.9      2.230      8.514
REMARK SMILES O=C(CCCN1C(=O)/C(=C\c2ccc(O)c(O)c2)SC1=S)NCCCCCCNC(=O)c1ccc(-c2c3nc(c(-c4cccc(S(=O)(=O)[O-])c4F)c4ccc([nH]4)c(-c4cccc(S(=O)(=O)[O-])c4F)c4nc(c(-c5cccc(S(=O)(=O)[O-])c5F)c5ccc2[nH]5)C=C4)C=C3)cc1
REMARK SMILES IDX 24 1 23 2 22 3 1 4 2 5 3 7 4 8 5 9 6 10 7 11 20 12 8 13 9 14
REMARK SMILES IDX 19 15 21 16 10 17 11 18 12 19 18 20 13 21 16 22 14 23 17 24
REMARK SMILES IDX 15 26 25 28 26 29 27 30 28 31 29 32 30 33 31 35 32 36 33 37
REMARK SMILES IDX 94 38 34 39 93 40 35 41 36 42 37 43 87 44 38 45 92 46 86 47
REMARK SMILES IDX 88 48 39 49 91 50 85 51 84 52 40 54 72 55 52 56 71 57 53 58
REMARK SMILES IDX 56 59 70 60 89 61 54 62 55 63 69 65 90 66 57 67 41 68 42 69
REMARK SMILES IDX 50 70 43 71 45 72 51 73 44 74 46 75 47 76 48 77 49 78 73 79
REMARK SMILES IDX 74 80 82 81 75 82 77 83 83 84 76 85 78 86 79 87 80 88 81 89
REMARK SMILES IDX 58 90 59 91 67 92 60 93 62 94 68 95 61 96 63 97 64 98 65 99
REMARK SMILES IDX 66 100
REMARK H PARENT 22 6 17 25 15 27 29 34 88 53 56 64
REMARK Flexibility Score: inf
ROOT
ATOM      1  C   UNL A   1      34.762  28.744  27.270  1.00  0.00     0.021 C 
ENDROOT
BRANCH   1   2
ATOM      2  C   UNL A   1      33.495  28.235  26.574  1.00  0.00     0.116 C 
BRANCH   2   3
ATOM      3  N   UNL A   1      33.705  28.102  25.147  1.00  0.00    -0.356 N 
ATOM      4  O   UNL A   1      32.179  29.663  24.444  1.00  0.00    -0.275 OA
ATOM      5  C   UNL A   1      33.074  28.863  24.197  1.00  0.00     0.220 C 
ATOM      6  H   UNL A   1      34.344  27.420  24.838  1.00  0.00     0.163 HD
BRANCH   5   7
ATOM      7  C   UNL A   1      33.599  28.644  22.785  1.00  0.00     0.102 C 
BRANCH   7   8
ATOM      8  C   UNL A   1      33.642  27.173  22.360  1.00  0.00     0.032 C 
BRANCH   8   9
ATOM      9  C   UNL A   1      32.344  26.512  21.864  1.00  0.00     0.128 C 
BRANCH   9  10
ATOM     10  N   UNL A   1      31.486  25.852  22.868  1.00  0.00    -0.293 N 
ATOM     11  C   UNL A   1      31.896  24.598  23.318  1.00  0.00     0.266 C 
ATOM     12  C   UNL A   1      30.403  26.393  23.532  1.00  0.00     0.148 C 
ATOM     13  O   UNL A   1      32.778  23.922  22.812  1.00  0.00    -0.268 OA
ATOM     14  C   UNL A   1      31.132  24.204  24.538  1.00  0.00     0.081 C 
ATOM     15  S   UNL A   1      29.860  25.320  24.814  1.00  0.00    -0.054 SA
ATOM     16  S   UNL A   1      29.610  27.838  23.314  1.00  0.00    -0.052 S 
ATOM     17  C   UNL A   1      31.354  23.176  25.367  1.00  0.00     0.029 C 
BRANCH  17  18
ATOM     18  C   UNL A   1      32.408  22.181  25.199  1.00  0.00    -0.020 A 
ATOM     19  C   UNL A   1      32.201  21.021  24.436  1.00  0.00     0.012 A 
ATOM     20  C   UNL A   1      33.631  22.390  25.841  1.00  0.00     0.058 A 
ATOM     21  C   UNL A   1      33.198  20.046  24.352  1.00  0.00     0.051 A 
ATOM     22  C   UNL A   1      34.615  21.420  25.746  1.00  0.00     0.157 A 
ATOM     23  C   UNL A   1      34.400  20.252  25.019  1.00  0.00     0.157 A 
BRANCH  22  24
ATOM     24  O   UNL A   1      35.802  21.612  26.395  1.00  0.00    -0.504 OA
ATOM     25  H   UNL A   1      36.184  20.914  26.889  1.00  0.00     0.293 HD
ENDBRANCH  22  24
BRANCH  23  26
ATOM     26  O   UNL A   1      35.403  19.322  24.999  1.00  0.00    -0.504 OA
ATOM     27  H   UNL A   1      35.365  18.605  24.397  1.00  0.00     0.293 HD
ENDBRANCH  23  26
ENDBRANCH  17  18
ENDBRANCH   9  10
ENDBRANCH   8   9
ENDBRANCH   7   8
ENDBRANCH   5   7
ENDBRANCH   2   3
ENDBRANCH   1   2
BRANCH   1  28
ATOM     28  C   UNL A   1      34.811  30.259  27.523  1.00  0.00     0.002 C 
BRANCH  28  29
ATOM     29  C   UNL A   1      33.521  31.029  27.234  1.00  0.00     0.002 C 
BRANCH  29  30
ATOM     30  C   UNL A   1      33.267  32.234  28.138  1.00  0.00     0.021 C 
BRANCH  30  31
ATOM     31  C   UNL A   1      33.009  33.548  27.407  1.00  0.00     0.116 C 
BRANCH  31  32
ATOM     32  N   UNL A   1      32.814  34.669  28.315  1.00  0.00    -0.352 N 
ATOM     33  C   UNL A   1      33.433  34.927  29.516  1.00  0.00     0.251 C 
ATOM     34  H   UNL A   1      32.146  35.335  28.030  1.00  0.00     0.163 HD
ATOM     35  O   UNL A   1      33.030  35.839  30.231  1.00  0.00    -0.269 OA
BRANCH  33  36
ATOM     36  C   UNL A   1      34.569  34.084  29.952  1.00  0.00     0.039 A 
ATOM     37  C   UNL A   1      35.826  34.287  29.376  1.00  0.00     0.014 A 
ATOM     38  C   UNL A   1      34.399  33.111  30.940  1.00  0.00     0.014 A 
ATOM     39  C   UNL A   1      36.925  33.561  29.842  1.00  0.00     0.010 A 
ATOM     40  C   UNL A   1      35.509  32.448  31.457  1.00  0.00     0.010 A 
ATOM     41  C   UNL A   1      36.784  32.662  30.913  1.00  0.00    -0.014 A 
BRANCH  41  42
ATOM     42  C   UNL A   1      37.959  31.953  31.487  1.00  0.00     0.031 A 
ATOM     43  C   UNL A   1      38.597  32.444  32.760  1.00  0.00     0.074 A 
ATOM     44  C   UNL A   1      38.506  30.918  30.819  1.00  0.00     0.049 A 
ATOM     45  N   UNL A   1      39.655  31.989  33.381  1.00  0.00    -0.248 NA
ATOM     46  C   UNL A   1      37.981  33.615  33.406  1.00  0.00     0.031 C 
ATOM     47  C   UNL A   1      38.032  30.393  29.536  1.00  0.00     0.029 A 
ATOM     48  N   UNL A   1      39.597  30.138  31.112  1.00  0.00    -0.354 N 
ATOM     49  C   UNL A   1      39.853  32.835  34.465  1.00  0.00     0.074 A 
ATOM     50  C   UNL A   1      38.827  33.853  34.399  1.00  0.00     0.031 C 
ATOM     51  C   UNL A   1      38.822  29.377  29.157  1.00  0.00     0.029 A 
ATOM     52  C   UNL A   1      39.879  29.197  30.147  1.00  0.00     0.049 A 
ATOM     53  H   UNL A   1      40.129  30.241  31.934  1.00  0.00     0.167 HD
ATOM     54  C   UNL A   1      40.786  32.759  35.445  1.00  0.00     0.034 A 
ATOM     55  C   UNL A   1      40.881  28.299  30.062  1.00  0.00     0.034 A 
ATOM     56  C   UNL A   1      41.783  31.727  35.528  1.00  0.00     0.049 A 
ATOM     57  C   UNL A   1      41.888  28.218  31.177  1.00  0.00     0.074 A 
ATOM     58  C   UNL A   1      42.716  31.512  36.527  1.00  0.00     0.029 A 
ATOM     59  N   UNL A   1      41.989  30.744  34.573  1.00  0.00    -0.354 N 
ATOM     60  N   UNL A   1      41.961  28.927  32.277  1.00  0.00    -0.248 NA
ATOM     61  C   UNL A   1      42.930  27.188  31.058  1.00  0.00     0.031 C 
ATOM     62  C   UNL A   1      43.508  30.418  36.159  1.00  0.00     0.029 A 
ATOM     63  C   UNL A   1      43.043  29.929  34.949  1.00  0.00     0.049 A 
ATOM     64  H   UNL A   1      41.464  30.641  33.746  1.00  0.00     0.167 HD
ATOM     65  C   UNL A   1      43.030  28.405  32.998  1.00  0.00     0.074 A 
ATOM     66  C   UNL A   1      43.562  27.307  32.217  1.00  0.00     0.031 C 
ATOM     67  C   UNL A   1      43.532  28.806  34.191  1.00  0.00     0.034 A 
BRANCH  54  68
ATOM     68  C   UNL A   1      40.745  33.800  36.534  1.00  0.00     0.023 A 
ATOM     69  C   UNL A   1      41.325  35.066  36.312  1.00  0.00     0.012 A 
ATOM     70  C   UNL A   1      40.084  33.549  37.753  1.00  0.00     0.148 A 
ATOM     71  C   UNL A   1      41.284  36.051  37.298  1.00  0.00     0.002 A 
ATOM     72  C   UNL A   1      40.005  34.552  38.713  1.00  0.00     0.091 A 
ATOM     73  F   UNL A   1      39.555  32.335  37.955  1.00  0.00    -0.205 F 
ATOM     74  C   UNL A   1      40.616  35.798  38.492  1.00  0.00     0.022 A 
BRANCH  72  75
ATOM     75  S   UNL A   1      39.096  34.354  40.249  1.00  0.00     0.127 S 
ATOM     76  O   UNL A   1      39.947  33.413  40.975  1.00  0.00    -0.237 OA
ATOM     77  O   UNL A   1      39.099  35.716  40.784  1.00  0.00    -0.237 OA
ATOM     78  O   UNL A   1      37.782  33.850  39.878  1.00  0.00    -0.744 OA
ENDBRANCH  72  75
ENDBRANCH  54  68
BRANCH  55  79
ATOM     79  C   UNL A   1      40.949  27.364  28.903  1.00  0.00     0.023 A 
ATOM     80  C   UNL A   1      40.046  26.285  28.829  1.00  0.00     0.012 A 
ATOM     81  C   UNL A   1      41.886  27.546  27.868  1.00  0.00     0.148 A 
ATOM     82  C   UNL A   1      40.100  25.384  27.765  1.00  0.00     0.002 A 
ATOM     83  C   UNL A   1      41.896  26.679  26.782  1.00  0.00     0.091 A 
ATOM     84  F   UNL A   1      42.743  28.574  27.962  1.00  0.00    -0.205 F 
ATOM     85  C   UNL A   1      41.017  25.586  26.737  1.00  0.00     0.022 A 
BRANCH  83  86
ATOM     86  S   UNL A   1      42.952  26.938  25.352  1.00  0.00     0.127 S 
ATOM     87  O   UNL A   1      42.295  28.065  24.696  1.00  0.00    -0.237 OA
ATOM     88  O   UNL A   1      44.236  27.251  25.978  1.00  0.00    -0.237 OA
ATOM     89  O   UNL A   1      42.933  25.680  24.617  1.00  0.00    -0.744 OA
ENDBRANCH  83  86
ENDBRANCH  55  79
BRANCH  67  90
ATOM     90  C   UNL A   1      44.693  28.030  34.759  1.00  0.00     0.023 A 
ATOM     91  C   UNL A   1      46.013  28.469  34.538  1.00  0.00     0.012 A 
ATOM     92  C   UNL A   1      44.467  26.904  35.577  1.00  0.00     0.148 A 
ATOM     93  C   UNL A   1      47.091  27.779  35.090  1.00  0.00     0.002 A 
ATOM     94  C   UNL A   1      45.543  26.253  36.167  1.00  0.00     0.091 A 
ATOM     95  F   UNL A   1      43.204  26.491  35.760  1.00  0.00    -0.205 F 
ATOM     96  C   UNL A   1      46.856  26.680  35.914  1.00  0.00     0.022 A 
BRANCH  94  97
ATOM     97  S   UNL A   1      45.331  24.892  37.320  1.00  0.00     0.127 S 
ATOM     98  O   UNL A   1      44.696  23.881  36.474  1.00  0.00    -0.237 OA
ATOM     99  O   UNL A   1      46.712  24.590  37.699  1.00  0.00    -0.237 OA
ATOM    100  O   UNL A   1      44.505  25.406  38.403  1.00  0.00    -0.744 OA
ENDBRANCH  94  97
ENDBRANCH  67  90
ENDBRANCH  41  42
ENDBRANCH  33  36
ENDBRANCH  31  32
ENDBRANCH  30  31
ENDBRANCH  29  30
ENDBRANCH  28  29
ENDBRANCH   1  28
TORSDOF 22
ENDMDL
MODEL 3
REMARK VINA RESULT:      -9.9      4.986      9.900
REMARK SMILES O=C(CCCN1C(=O)/C(=C\c2ccc(O)c(O)c2)SC1=S)NCCCCCCNC(=O)c1ccc(-c2c3nc(c(-c4cccc(S(=O)(=O)[O-])c4F)c4ccc([nH]4)c(-c4cccc(S(=O)(=O)[O-])c4F)c4nc(c(-c5cccc(S(=O)(=O)[O-])c5F)c5ccc2[nH]5)C=C4)C=C3)cc1
REMARK SMILES IDX 24 1 23 2 22 3 1 4 2 5 3 7 4 8 5 9 6 10 7 11 20 12 8 13 9 14
REMARK SMILES IDX 19 15 21 16 10 17 11 18 12 19 18 20 13 21 16 22 14 23 17 24
REMARK SMILES IDX 15 26 25 28 26 29 27 30 28 31 29 32 30 33 31 35 32 36 33 37
REMARK SMILES IDX 94 38 34 39 93 40 35 41 36 42 37 43 87 44 38 45 92 46 86 47
REMARK SMILES IDX 88 48 39 49 91 50 85 51 84 52 40 54 72 55 52 56 71 57 53 58
REMARK SMILES IDX 56 59 70 60 89 61 54 62 55 63 69 65 90 66 57 67 41 68 42 69
REMARK SMILES IDX 50 70 43 71 45 72 51 73 44 74 46 75 47 76 48 77 49 78 73 79
REMARK SMILES IDX 74 80 82 81 75 82 77 83 83 84 76 85 78 86 79 87 80 88 81 89
REMARK SMILES IDX 58 90 59 91 67 92 60 93 62 94 68 95 61 96 63 97 64 98 65 99
REMARK SMILES IDX 66 100
REMARK H PARENT 22 6 17 25 15 27 29 34 88 53 56 64
REMARK Flexibility Score: inf
ROOT
ATOM      1  C   UNL A   1      35.643  20.184  24.973  1.00  0.00     0.021 C 
ENDROOT
BRANCH   1   2
ATOM      2  C   UNL A   1      34.133  20.297  25.207  1.00  0.00     0.116 C 
BRANCH   2   3
ATOM      3  N   UNL A   1      33.816  21.474  25.990  1.00  0.00    -0.356 N 
ATOM      4  O   UNL A   1      31.587  21.620  25.476  1.00  0.00    -0.275 OA
ATOM      5  C   UNL A   1      32.560  22.011  26.109  1.00  0.00     0.220 C 
ATOM      6  H   UNL A   1      34.552  21.919  26.470  1.00  0.00     0.163 HD
BRANCH   5   7
ATOM      7  C   UNL A   1      32.467  23.139  27.126  1.00  0.00     0.102 C 
BRANCH   7   8
ATOM      8  C   UNL A   1      31.590  24.311  26.673  1.00  0.00     0.032 C 
BRANCH   8   9
ATOM      9  C   UNL A   1      32.270  25.542  26.051  1.00  0.00     0.128 C 
BRANCH   9  10
ATOM     10  N   UNL A   1      32.105  25.754  24.599  1.00  0.00    -0.293 N 
ATOM     11  C   UNL A   1      31.125  26.663  24.204  1.00  0.00     0.266 C 
ATOM     12  C   UNL A   1      32.910  25.275  23.584  1.00  0.00     0.148 C 
ATOM     13  O   UNL A   1      30.268  27.136  24.935  1.00  0.00    -0.268 OA
ATOM     14  C   UNL A   1      31.287  27.014  22.762  1.00  0.00     0.081 C 
ATOM     15  S   UNL A   1      32.468  26.000  22.046  1.00  0.00    -0.054 SA
ATOM     16  S   UNL A   1      34.175  24.196  23.622  1.00  0.00    -0.052 S 
ATOM     17  C   UNL A   1      30.673  27.978  22.064  1.00  0.00     0.029 C 
BRANCH  17  18
ATOM     18  C   UNL A   1      29.655  28.876  22.597  1.00  0.00    -0.020 A 
ATOM     19  C   UNL A   1      28.297  28.520  22.600  1.00  0.00     0.012 A 
ATOM     20  C   UNL A   1      30.055  30.123  23.085  1.00  0.00     0.058 A 
ATOM     21  C   UNL A   1      27.332  29.426  23.046  1.00  0.00     0.051 A 
ATOM     22  C   UNL A   1      29.090  31.012  23.529  1.00  0.00     0.157 A 
ATOM     23  C   UNL A   1      27.739  30.675  23.500  1.00  0.00     0.157 A 
BRANCH  22  24
ATOM     24  O   UNL A   1      29.478  32.241  23.982  1.00  0.00    -0.504 OA
ATOM     25  H   UNL A   1      30.142  32.720  23.525  1.00  0.00     0.293 HD
ENDBRANCH  22  24
BRANCH  23  26
ATOM     26  O   UNL A   1      26.840  31.615  23.922  1.00  0.00    -0.504 OA
ATOM     27  H   UNL A   1      26.576  31.641  24.821  1.00  0.00     0.293 HD
ENDBRANCH  23  26
ENDBRANCH  17  18
ENDBRANCH   9  10
ENDBRANCH   8   9
ENDBRANCH   7   8
ENDBRANCH   5   7
ENDBRANCH   2   3
ENDBRANCH   1   2
BRANCH   1  28
ATOM     28  C   UNL A   1      36.351  21.496  24.597  1.00  0.00     0.002 C 
BRANCH  28  29
ATOM     29  C   UNL A   1      37.316  22.060  25.639  1.00  0.00     0.002 C 
BRANCH  29  30
ATOM     30  C   UNL A   1      38.678  21.370  25.706  1.00  0.00     0.021 C 
BRANCH  30  31
ATOM     31  C   UNL A   1      39.793  22.200  26.332  1.00  0.00     0.116 C 
BRANCH  31  32
ATOM     32  N   UNL A   1      41.103  21.895  25.774  1.00  0.00    -0.352 N 
ATOM     33  C   UNL A   1      42.211  22.704  25.675  1.00  0.00     0.251 C 
ATOM     34  H   UNL A   1      41.211  20.982  25.418  1.00  0.00     0.163 HD
ATOM     35  O   UNL A   1      43.186  22.334  25.028  1.00  0.00    -0.269 OA
BRANCH  33  36
ATOM     36  C   UNL A   1      42.211  24.032  26.329  1.00  0.00     0.039 A 
ATOM     37  C   UNL A   1      42.409  24.108  27.710  1.00  0.00     0.014 A 
ATOM     38  C   UNL A   1      42.037  25.198  25.579  1.00  0.00     0.014 A 
ATOM     39  C   UNL A   1      42.501  25.360  28.327  1.00  0.00     0.010 A 
ATOM     40  C   UNL A   1      42.210  26.441  26.183  1.00  0.00     0.010 A 
ATOM     41  C   UNL A   1      42.441  26.537  27.563  1.00  0.00    -0.014 A 
BRANCH  41  42
ATOM     42  C   UNL A   1      42.634  27.873  28.186  1.00  0.00     0.031 A 
ATOM     43  C   UNL A   1      44.021  28.413  28.413  1.00  0.00     0.074 A 
ATOM     44  C   UNL A   1      41.565  28.566  28.627  1.00  0.00     0.049 A 
ATOM     45  N   UNL A   1      44.387  29.531  28.988  1.00  0.00    -0.248 NA
ATOM     46  C   UNL A   1      45.146  27.578  27.959  1.00  0.00     0.031 C 
ATOM     47  C   UNL A   1      40.173  28.119  28.539  1.00  0.00     0.029 A 
ATOM     48  N   UNL A   1      41.482  29.781  29.261  1.00  0.00    -0.354 N 
ATOM     49  C   UNL A   1      45.777  29.517  28.997  1.00  0.00     0.074 A 
ATOM     50  C   UNL A   1      46.190  28.264  28.403  1.00  0.00     0.031 C 
ATOM     51  C   UNL A   1      39.376  29.047  29.092  1.00  0.00     0.029 A 
ATOM     52  C   UNL A   1      40.198  30.138  29.605  1.00  0.00     0.049 A 
ATOM     53  H   UNL A   1      42.267  30.343  29.453  1.00  0.00     0.167 HD
ATOM     54  C   UNL A   1      46.635  30.469  29.434  1.00  0.00     0.034 A 
ATOM     55  C   UNL A   1      39.734  31.216  30.268  1.00  0.00     0.034 A 
ATOM     56  C   UNL A   1      46.223  31.729  29.993  1.00  0.00     0.049 A 
ATOM     57  C   UNL A   1      40.707  32.273  30.719  1.00  0.00     0.074 A 
ATOM     58  C   UNL A   1      47.013  32.796  30.383  1.00  0.00     0.029 A 
ATOM     59  N   UNL A   1      44.910  32.089  30.254  1.00  0.00    -0.354 N 
ATOM     60  N   UNL A   1      42.008  32.313  30.573  1.00  0.00    -0.248 NA
ATOM     61  C   UNL A   1      40.142  33.451  31.394  1.00  0.00     0.031 C 
ATOM     62  C   UNL A   1      46.180  33.788  30.912  1.00  0.00     0.029 A 
ATOM     63  C   UNL A   1      44.867  33.354  30.814  1.00  0.00     0.049 A 
ATOM     64  H   UNL A   1      44.123  31.527  30.069  1.00  0.00     0.167 HD
ATOM     65  C   UNL A   1      42.415  33.534  31.101  1.00  0.00     0.074 A 
ATOM     66  C   UNL A   1      41.216  34.212  31.552  1.00  0.00     0.031 C 
ATOM     67  C   UNL A   1      43.666  34.042  31.213  1.00  0.00     0.034 A 
BRANCH  54  68
ATOM     68  C   UNL A   1      48.112  30.206  29.285  1.00  0.00     0.023 A 
ATOM     69  C   UNL A   1      48.835  29.657  30.365  1.00  0.00     0.012 A 
ATOM     70  C   UNL A   1      48.771  30.443  28.064  1.00  0.00     0.148 A 
ATOM     71  C   UNL A   1      50.198  29.387  30.245  1.00  0.00     0.002 A 
ATOM     72  C   UNL A   1      50.119  30.127  27.936  1.00  0.00     0.091 A 
ATOM     73  F   UNL A   1      48.074  30.982  27.055  1.00  0.00    -0.205 F 
ATOM     74  C   UNL A   1      50.836  29.611  29.029  1.00  0.00     0.022 A 
BRANCH  72  75
ATOM     75  S   UNL A   1      51.014  30.300  26.389  1.00  0.00     0.127 S 
ATOM     76  O   UNL A   1      50.388  29.263  25.570  1.00  0.00    -0.237 OA
ATOM     77  O   UNL A   1      50.683  31.669  25.994  1.00  0.00    -0.237 OA
ATOM     78  O   UNL A   1      52.417  30.081  26.707  1.00  0.00    -0.744 OA
ENDBRANCH  72  75
ENDBRANCH  54  68
BRANCH  55  79
ATOM     79  C   UNL A   1      38.270  31.380  30.497  1.00  0.00     0.023 A 
ATOM     80  C   UNL A   1      37.674  30.784  31.626  1.00  0.00     0.012 A 
ATOM     81  C   UNL A   1      37.470  32.134  29.616  1.00  0.00     0.148 A 
ATOM     82  C   UNL A   1      36.303  30.904  31.853  1.00  0.00     0.002 A 
ATOM     83  C   UNL A   1      36.116  32.299  29.880  1.00  0.00     0.091 A 
ATOM     84  F   UNL A   1      38.055  32.685  28.543  1.00  0.00    -0.205 F 
ATOM     85  C   UNL A   1      35.526  31.670  30.988  1.00  0.00     0.022 A 
BRANCH  83  86
ATOM     86  S   UNL A   1      35.066  33.373  28.896  1.00  0.00     0.127 S 
ATOM     87  O   UNL A   1      35.788  34.641  28.963  1.00  0.00    -0.237 OA
ATOM     88  O   UNL A   1      35.100  32.713  27.591  1.00  0.00    -0.237 OA
ATOM     89  O   UNL A   1      33.763  33.352  29.546  1.00  0.00    -0.744 OA
ENDBRANCH  83  86
ENDBRANCH  55  79
BRANCH  67  90
ATOM     90  C   UNL A   1      43.813  35.420  31.807  1.00  0.00     0.023 A 
ATOM     91  C   UNL A   1      43.858  36.550  30.968  1.00  0.00     0.012 A 
ATOM     92  C   UNL A   1      43.832  35.596  33.205  1.00  0.00     0.148 A 
ATOM     93  C   UNL A   1      43.957  37.831  31.509  1.00  0.00     0.002 A 
ATOM     94  C   UNL A   1      43.877  36.878  33.738  1.00  0.00     0.091 A 
ATOM     95  F   UNL A   1      43.807  34.506  33.987  1.00  0.00    -0.205 F 
ATOM     96  C   UNL A   1      43.954  37.996  32.892  1.00  0.00     0.022 A 
BRANCH  94  97
ATOM     97  S   UNL A   1      43.777  37.192  35.504  1.00  0.00     0.127 S 
ATOM     98  O   UNL A   1      44.893  36.395  36.012  1.00  0.00    -0.237 OA
ATOM     99  O   UNL A   1      43.980  38.640  35.573  1.00  0.00    -0.237 OA
ATOM    100  O   UNL A   1      42.454  36.746  35.918  1.00  0.00    -0.744 OA
ENDBRANCH  94  97
ENDBRANCH  67  90
ENDBRANCH  41  42
ENDBRANCH  33  36
ENDBRANCH  31  32
ENDBRANCH  30  31
ENDBRANCH  29  30
ENDBRANCH  28  29
ENDBRANCH   1  28
TORSDOF 22
ENDMDL
