MODEL 1
REMARK VINA RESULT:     -10.9      0.000      0.000
REMARK SMILES CN(CCS(C)(=O)=O)C(=O)Nc1cccc(C(=O)NCCCCCCNC(=O)c2ccc(-c3c4nc(c(-c5cccc(S(=O)(=O)[O-])c5F)c5ccc([nH]5)c(-c5cccc(S(=O)(=O)[O-])c5F)c5nc(c(-c6cccc(S(=O)(=O)[O-])c6F)c6ccc3[nH]6)C=C5)C=C4)cc2)c1
REMARK SMILES IDX 21 1 20 2 19 3 17 4 18 5 16 7 12 8 13 9 92 10 14 11 15 12
REMARK SMILES IDX 11 13 9 14 10 15 2 17 1 18 3 19 4 20 5 21 6 22 7 23 8 24
REMARK SMILES IDX 22 25 23 26 24 27 25 28 26 29 27 30 28 32 29 33 30 34 91 35
REMARK SMILES IDX 31 36 90 37 32 38 33 39 34 40 84 41 35 42 89 43 83 44 85 45
REMARK SMILES IDX 36 46 88 47 82 48 81 49 37 51 69 52 49 53 68 54 50 55 53 56
REMARK SMILES IDX 67 57 86 58 51 59 52 60 66 62 87 63 54 64 38 65 39 66 47 67
REMARK SMILES IDX 40 68 42 69 48 70 41 71 43 72 44 73 45 74 46 75 70 76 71 77
REMARK SMILES IDX 79 78 72 79 74 80 80 81 73 82 75 83 76 84 77 85 78 86 55 87
REMARK SMILES IDX 56 88 64 89 57 90 59 91 65 92 58 93 60 94 61 95 62 96 63 97
REMARK H PARENT 19 6 11 16 26 31 85 50 53 61
REMARK Flexibility Score: inf
ROOT
ATOM      1  C   UNL A   1      33.454  28.601  25.162  1.00  0.00     0.021 C 
ENDROOT
BRANCH   1   2
ATOM      2  C   UNL A   1      33.380  29.213  23.751  1.00  0.00     0.116 C 
BRANCH   2   3
ATOM      3  N   UNL A   1      32.104  29.189  23.063  1.00  0.00    -0.352 N 
ATOM      4  C   UNL A   1      31.325  28.139  22.600  1.00  0.00     0.251 C 
ATOM      5  O   UNL A   1      30.266  28.444  22.042  1.00  0.00    -0.269 OA
ATOM      6  H   UNL A   1      31.721  30.080  22.894  1.00  0.00     0.163 HD
BRANCH   4   7
ATOM      7  C   UNL A   1      31.661  26.666  22.699  1.00  0.00     0.041 A 
ATOM      8  C   UNL A   1      31.440  24.399  23.685  1.00  0.00     0.043 A 
ATOM      9  C   UNL A   1      32.379  23.952  22.736  1.00  0.00     0.026 A 
ATOM     10  C   UNL A   1      31.098  25.763  23.623  1.00  0.00     0.040 A 
ATOM     11  C   UNL A   1      32.930  24.809  21.783  1.00  0.00     0.003 A 
ATOM     12  C   UNL A   1      32.569  26.154  21.763  1.00  0.00     0.014 A 
BRANCH   8  13
ATOM     13  N   UNL A   1      31.042  23.382  24.591  1.00  0.00    -0.308 N 
ATOM     14  C   UNL A   1      31.371  22.512  25.566  1.00  0.00     0.321 C 
ATOM     15  O   UNL A   1      30.403  21.835  25.940  1.00  0.00    -0.248 OA
ATOM     16  H   UNL A   1      30.078  23.251  24.435  1.00  0.00     0.171 HD
BRANCH  14  17
ATOM     17  N   UNL A   1      32.589  22.326  26.119  1.00  0.00    -0.327 N 
ATOM     18  C   UNL A   1      32.782  22.569  27.555  1.00  0.00     0.148 C 
BRANCH  17  19
ATOM     19  C   UNL A   1      33.778  21.924  25.455  1.00  0.00     0.137 C 
BRANCH  19  20
ATOM     20  C   UNL A   1      33.630  20.900  24.355  1.00  0.00     0.158 C 
BRANCH  20  21
ATOM     21  S   UNL A   1      33.197  19.181  24.488  1.00  0.00     0.149 S 
ATOM     22  C   UNL A   1      32.325  18.486  23.109  1.00  0.00     0.158 C 
ATOM     23  O   UNL A   1      34.472  18.482  24.488  1.00  0.00    -0.229 OA
ATOM     24  O   UNL A   1      32.316  19.047  25.633  1.00  0.00    -0.229 OA
ENDBRANCH  20  21
ENDBRANCH  19  20
ENDBRANCH  17  19
ENDBRANCH  14  17
ENDBRANCH   8  13
ENDBRANCH   4   7
ENDBRANCH   2   3
ENDBRANCH   1   2
BRANCH   1  25
ATOM     25  C   UNL A   1      33.060  29.443  26.385  1.00  0.00     0.002 C 
BRANCH  25  26
ATOM     26  C   UNL A   1      31.668  30.093  26.435  1.00  0.00     0.002 C 
BRANCH  26  27
ATOM     27  C   UNL A   1      31.548  31.605  26.680  1.00  0.00     0.021 C 
BRANCH  27  28
ATOM     28  C   UNL A   1      32.820  32.416  26.932  1.00  0.00     0.116 C 
BRANCH  28  29
ATOM     29  N   UNL A   1      32.567  33.743  27.469  1.00  0.00    -0.352 N 
ATOM     30  C   UNL A   1      33.173  34.432  28.494  1.00  0.00     0.251 C 
ATOM     31  H   UNL A   1      31.838  34.231  27.023  1.00  0.00     0.163 HD
ATOM     32  O   UNL A   1      32.703  35.518  28.833  1.00  0.00    -0.269 OA
BRANCH  30  33
ATOM     33  C   UNL A   1      34.357  33.898  29.216  1.00  0.00     0.039 A 
ATOM     34  C   UNL A   1      34.149  32.983  30.257  1.00  0.00     0.014 A 
ATOM     35  C   UNL A   1      35.657  34.322  28.931  1.00  0.00     0.014 A 
ATOM     36  C   UNL A   1      35.236  32.454  30.964  1.00  0.00     0.010 A 
ATOM     37  C   UNL A   1      36.746  33.744  29.592  1.00  0.00     0.010 A 
ATOM     38  C   UNL A   1      36.551  32.806  30.618  1.00  0.00    -0.014 A 
BRANCH  38  39
ATOM     39  C   UNL A   1      37.723  32.195  31.307  1.00  0.00     0.031 A 
ATOM     40  C   UNL A   1      38.466  31.042  30.683  1.00  0.00     0.074 A 
ATOM     41  C   UNL A   1      38.074  32.623  32.537  1.00  0.00     0.049 A 
ATOM     42  N   UNL A   1      39.468  30.347  31.161  1.00  0.00    -0.248 NA
ATOM     43  C   UNL A   1      38.009  30.595  29.356  1.00  0.00     0.031 C 
ATOM     44  C   UNL A   1      37.399  33.686  33.285  1.00  0.00     0.029 A 
ATOM     45  N   UNL A   1      39.065  32.200  33.390  1.00  0.00    -0.354 N 
ATOM     46  C   UNL A   1      39.735  29.361  30.218  1.00  0.00     0.074 A 
ATOM     47  C   UNL A   1      38.772  29.531  29.150  1.00  0.00     0.031 C 
ATOM     48  C   UNL A   1      37.993  33.830  34.480  1.00  0.00     0.029 A 
ATOM     49  C   UNL A   1      39.068  32.851  34.603  1.00  0.00     0.049 A 
ATOM     50  H   UNL A   1      39.713  31.497  33.155  1.00  0.00     0.167 HD
ATOM     51  C   UNL A   1      40.707  28.416  30.223  1.00  0.00     0.034 A 
ATOM     52  C   UNL A   1      39.837  32.674  35.695  1.00  0.00     0.034 A 
ATOM     53  C   UNL A   1      41.686  28.271  31.269  1.00  0.00     0.049 A 
ATOM     54  C   UNL A   1      40.927  31.635  35.665  1.00  0.00     0.074 A 
ATOM     55  C   UNL A   1      42.760  27.398  31.326  1.00  0.00     0.029 A 
ATOM     56  N   UNL A   1      41.704  29.001  32.445  1.00  0.00    -0.354 N 
ATOM     57  N   UNL A   1      41.260  30.815  34.698  1.00  0.00    -0.248 NA
ATOM     58  C   UNL A   1      41.772  31.522  36.863  1.00  0.00     0.031 C 
ATOM     59  C   UNL A   1      43.406  27.581  32.552  1.00  0.00     0.029 A 
ATOM     60  C   UNL A   1      42.761  28.595  33.241  1.00  0.00     0.049 A 
ATOM     61  H   UNL A   1      41.058  29.707  32.681  1.00  0.00     0.167 HD
ATOM     62  C   UNL A   1      42.375  30.120  35.153  1.00  0.00     0.074 A 
ATOM     63  C   UNL A   1      42.672  30.629  36.476  1.00  0.00     0.031 C 
ATOM     64  C   UNL A   1      43.082  29.143  34.533  1.00  0.00     0.034 A 
BRANCH  51  65
ATOM     65  C   UNL A   1      40.792  27.485  29.039  1.00  0.00     0.023 A 
ATOM     66  C   UNL A   1      39.913  26.384  28.950  1.00  0.00     0.012 A 
ATOM     67  C   UNL A   1      41.695  27.730  27.985  1.00  0.00     0.148 A 
ATOM     68  C   UNL A   1      39.959  25.523  27.856  1.00  0.00     0.002 A 
ATOM     69  C   UNL A   1      41.700  26.894  26.873  1.00  0.00     0.091 A 
ATOM     70  F   UNL A   1      42.533  28.772  28.091  1.00  0.00    -0.205 F 
ATOM     71  C   UNL A   1      40.844  25.783  26.814  1.00  0.00     0.022 A 
BRANCH  69  72
ATOM     72  S   UNL A   1      42.742  27.191  25.440  1.00  0.00     0.127 S 
ATOM     73  O   UNL A   1      44.057  27.350  26.058  1.00  0.00    -0.237 OA
ATOM     74  O   UNL A   1      42.572  25.954  24.677  1.00  0.00    -0.237 OA
ATOM     75  O   UNL A   1      42.208  28.382  24.793  1.00  0.00    -0.744 OA
ENDBRANCH  69  72
ENDBRANCH  51  65
BRANCH  52  76
ATOM     76  C   UNL A   1      39.644  33.540  36.894  1.00  0.00     0.023 A 
ATOM     77  C   UNL A   1      38.615  33.239  37.807  1.00  0.00     0.012 A 
ATOM     78  C   UNL A   1      40.483  34.643  37.146  1.00  0.00     0.148 A 
ATOM     79  C   UNL A   1      38.399  34.043  38.928  1.00  0.00     0.002 A 
ATOM     80  C   UNL A   1      40.302  35.404  38.295  1.00  0.00     0.091 A 
ATOM     81  F   UNL A   1      41.452  34.919  36.262  1.00  0.00    -0.205 F 
ATOM     82  C   UNL A   1      39.248  35.118  39.177  1.00  0.00     0.022 A 
BRANCH  80  83
ATOM     83  S   UNL A   1      41.427  36.722  38.769  1.00  0.00     0.127 S 
ATOM     84  O   UNL A   1      40.505  37.738  39.265  1.00  0.00    -0.237 OA
ATOM     85  O   UNL A   1      42.240  36.070  39.795  1.00  0.00    -0.237 OA
ATOM     86  O   UNL A   1      42.160  37.069  37.557  1.00  0.00    -0.744 OA
ENDBRANCH  80  83
ENDBRANCH  52  76
BRANCH  64  87
ATOM     87  C   UNL A   1      44.286  28.587  35.250  1.00  0.00     0.023 A 
ATOM     88  C   UNL A   1      45.570  29.105  34.984  1.00  0.00     0.012 A 
ATOM     89  C   UNL A   1      44.133  27.598  36.242  1.00  0.00     0.148 A 
ATOM     90  C   UNL A   1      46.684  28.622  35.669  1.00  0.00     0.002 A 
ATOM     91  C   UNL A   1      45.240  27.161  36.959  1.00  0.00     0.091 A 
ATOM     92  F   UNL A   1      42.906  27.105  36.468  1.00  0.00    -0.205 F 
ATOM     93  C   UNL A   1      46.518  27.661  36.664  1.00  0.00     0.022 A 
BRANCH  91  94
ATOM     94  S   UNL A   1      45.108  26.002  38.324  1.00  0.00     0.127 S 
ATOM     95  O   UNL A   1      44.781  24.758  37.628  1.00  0.00    -0.237 OA
ATOM     96  O   UNL A   1      46.452  26.044  38.898  1.00  0.00    -0.237 OA
ATOM     97  O   UNL A   1      44.062  26.521  39.195  1.00  0.00    -0.744 OA
ENDBRANCH  91  94
ENDBRANCH  64  87
ENDBRANCH  38  39
ENDBRANCH  30  33
ENDBRANCH  28  29
ENDBRANCH  27  28
ENDBRANCH  26  27
ENDBRANCH  25  26
ENDBRANCH   1  25
TORSDOF 21
ENDMDL
MODEL 2
REMARK VINA RESULT:     -10.9      3.228      8.529
REMARK SMILES CN(CCS(C)(=O)=O)C(=O)Nc1cccc(C(=O)NCCCCCCNC(=O)c2ccc(-c3c4nc(c(-c5cccc(S(=O)(=O)[O-])c5F)c5ccc([nH]5)c(-c5cccc(S(=O)(=O)[O-])c5F)c5nc(c(-c6cccc(S(=O)(=O)[O-])c6F)c6ccc3[nH]6)C=C5)C=C4)cc2)c1
REMARK SMILES IDX 21 1 20 2 19 3 17 4 18 5 16 7 12 8 13 9 92 10 14 11 15 12
REMARK SMILES IDX 11 13 9 14 10 15 2 17 1 18 3 19 4 20 5 21 6 22 7 23 8 24
REMARK SMILES IDX 22 25 23 26 24 27 25 28 26 29 27 30 28 32 29 33 30 34 91 35
REMARK SMILES IDX 31 36 90 37 32 38 33 39 34 40 84 41 35 42 89 43 83 44 85 45
REMARK SMILES IDX 36 46 88 47 82 48 81 49 37 51 69 52 49 53 68 54 50 55 53 56
REMARK SMILES IDX 67 57 86 58 51 59 52 60 66 62 87 63 54 64 38 65 39 66 47 67
REMARK SMILES IDX 40 68 42 69 48 70 41 71 43 72 44 73 45 74 46 75 70 76 71 77
REMARK SMILES IDX 79 78 72 79 74 80 80 81 73 82 75 83 76 84 77 85 78 86 55 87
REMARK SMILES IDX 56 88 64 89 57 90 59 91 65 92 58 93 60 94 61 95 62 96 63 97
REMARK H PARENT 19 6 11 16 26 31 85 50 53 61
REMARK Flexibility Score: inf
ROOT
ATOM      1  C   UNL A   1      33.412  28.888  24.233  1.00  0.00     0.021 C 
ENDROOT
BRANCH   1   2
ATOM      2  C   UNL A   1      33.664  28.959  22.716  1.00  0.00     0.116 C 
BRANCH   2   3
ATOM      3  N   UNL A   1      33.718  27.715  21.974  1.00  0.00    -0.352 N 
ATOM      4  C   UNL A   1      32.904  26.591  21.994  1.00  0.00     0.251 C 
ATOM      5  O   UNL A   1      33.215  25.673  21.230  1.00  0.00    -0.269 OA
ATOM      6  H   UNL A   1      34.469  27.656  21.340  1.00  0.00     0.163 HD
BRANCH   4   7
ATOM      7  C   UNL A   1      31.689  26.385  22.874  1.00  0.00     0.041 A 
ATOM      8  C   UNL A   1      30.471  25.348  24.772  1.00  0.00     0.043 A 
ATOM      9  C   UNL A   1      29.359  26.136  24.420  1.00  0.00     0.026 A 
ATOM     10  C   UNL A   1      31.623  25.513  23.979  1.00  0.00     0.040 A 
ATOM     11  C   UNL A   1      29.400  27.038  23.356  1.00  0.00     0.003 A 
ATOM     12  C   UNL A   1      30.558  27.162  22.593  1.00  0.00     0.014 A 
BRANCH   8  13
ATOM     13  N   UNL A   1      30.206  24.466  25.851  1.00  0.00    -0.308 N 
ATOM     14  C   UNL A   1      30.575  23.399  26.587  1.00  0.00     0.321 C 
ATOM     15  O   UNL A   1      29.762  23.142  27.487  1.00  0.00    -0.248 OA
ATOM     16  H   UNL A   1      29.359  24.778  26.246  1.00  0.00     0.171 HD
BRANCH  14  17
ATOM     17  N   UNL A   1      31.676  22.634  26.423  1.00  0.00    -0.327 N 
ATOM     18  C   UNL A   1      31.707  21.620  25.361  1.00  0.00     0.148 C 
BRANCH  17  19
ATOM     19  C   UNL A   1      32.866  22.670  27.198  1.00  0.00     0.137 C 
BRANCH  19  20
ATOM     20  C   UNL A   1      34.047  21.892  26.670  1.00  0.00     0.158 C 
BRANCH  20  21
ATOM     21  S   UNL A   1      35.280  22.405  25.497  1.00  0.00     0.149 S 
ATOM     22  C   UNL A   1      34.728  23.485  24.204  1.00  0.00     0.158 C 
ATOM     23  O   UNL A   1      36.201  23.223  26.270  1.00  0.00    -0.229 OA
ATOM     24  O   UNL A   1      35.775  21.209  24.841  1.00  0.00    -0.229 OA
ENDBRANCH  20  21
ENDBRANCH  19  20
ENDBRANCH  17  19
ENDBRANCH  14  17
ENDBRANCH   8  13
ENDBRANCH   4   7
ENDBRANCH   2   3
ENDBRANCH   1   2
BRANCH   1  25
ATOM     25  C   UNL A   1      32.062  29.347  24.808  1.00  0.00     0.002 C 
BRANCH  25  26
ATOM     26  C   UNL A   1      31.630  28.854  26.197  1.00  0.00     0.002 C 
BRANCH  26  27
ATOM     27  C   UNL A   1      32.681  28.272  27.154  1.00  0.00     0.021 C 
BRANCH  27  28
ATOM     28  C   UNL A   1      34.017  29.001  27.316  1.00  0.00     0.116 C 
BRANCH  28  29
ATOM     29  N   UNL A   1      33.881  30.358  27.818  1.00  0.00    -0.352 N 
ATOM     30  C   UNL A   1      34.718  31.118  28.604  1.00  0.00     0.251 C 
ATOM     31  H   UNL A   1      33.050  30.811  27.550  1.00  0.00     0.163 HD
ATOM     32  O   UNL A   1      34.327  32.221  28.985  1.00  0.00    -0.269 OA
BRANCH  30  33
ATOM     33  C   UNL A   1      36.062  30.641  29.021  1.00  0.00     0.039 A 
ATOM     34  C   UNL A   1      36.146  29.707  30.064  1.00  0.00     0.014 A 
ATOM     35  C   UNL A   1      37.237  31.135  28.453  1.00  0.00     0.014 A 
ATOM     36  C   UNL A   1      37.392  29.230  30.489  1.00  0.00     0.010 A 
ATOM     37  C   UNL A   1      38.478  30.609  28.832  1.00  0.00     0.010 A 
ATOM     38  C   UNL A   1      38.572  29.653  29.856  1.00  0.00    -0.014 A 
BRANCH  38  39
ATOM     39  C   UNL A   1      39.900  29.098  30.242  1.00  0.00     0.031 A 
ATOM     40  C   UNL A   1      40.711  29.740  31.339  1.00  0.00     0.074 A 
ATOM     41  C   UNL A   1      40.419  28.063  29.550  1.00  0.00     0.049 A 
ATOM     42  N   UNL A   1      41.910  29.434  31.768  1.00  0.00    -0.248 NA
ATOM     43  C   UNL A   1      40.106  30.891  32.028  1.00  0.00     0.031 C 
ATOM     44  C   UNL A   1      39.770  27.391  28.423  1.00  0.00     0.029 A 
ATOM     45  N   UNL A   1      41.623  27.411  29.673  1.00  0.00    -0.354 N 
ATOM     46  C   UNL A   1      42.218  30.373  32.746  1.00  0.00     0.074 A 
ATOM     47  C   UNL A   1      41.090  31.277  32.828  1.00  0.00     0.031 C 
ATOM     48  C   UNL A   1      40.580  26.426  27.958  1.00  0.00     0.029 A 
ATOM     49  C   UNL A   1      41.820  26.430  28.727  1.00  0.00     0.049 A 
ATOM     50  H   UNL A   1      42.284  27.627  30.371  1.00  0.00     0.167 HD
ATOM     51  C   UNL A   1      43.325  30.464  33.524  1.00  0.00     0.034 A 
ATOM     52  C   UNL A   1      42.881  25.632  28.495  1.00  0.00     0.034 A 
ATOM     53  C   UNL A   1      44.430  29.544  33.465  1.00  0.00     0.049 A 
ATOM     54  C   UNL A   1      44.088  25.735  29.391  1.00  0.00     0.074 A 
ATOM     55  C   UNL A   1      45.558  29.503  34.268  1.00  0.00     0.029 A 
ATOM     56  N   UNL A   1      44.557  28.515  32.547  1.00  0.00    -0.354 N 
ATOM     57  N   UNL A   1      44.293  26.532  30.410  1.00  0.00    -0.248 NA
ATOM     58  C   UNL A   1      45.194  24.803  29.127  1.00  0.00     0.031 C 
ATOM     59  C   UNL A   1      46.381  28.468  33.812  1.00  0.00     0.029 A 
ATOM     60  C   UNL A   1      45.747  27.839  32.753  1.00  0.00     0.049 A 
ATOM     61  H   UNL A   1      43.897  28.296  31.849  1.00  0.00     0.167 HD
ATOM     62  C   UNL A   1      45.530  26.172  30.935  1.00  0.00     0.074 A 
ATOM     63  C   UNL A   1      46.018  25.071  30.131  1.00  0.00     0.031 C 
ATOM     64  C   UNL A   1      46.202  26.710  31.982  1.00  0.00     0.034 A 
BRANCH  51  65
ATOM     65  C   UNL A   1      43.381  31.576  34.542  1.00  0.00     0.023 A 
ATOM     66  C   UNL A   1      44.086  32.762  34.244  1.00  0.00     0.012 A 
ATOM     67  C   UNL A   1      42.689  31.477  35.766  1.00  0.00     0.148 A 
ATOM     68  C   UNL A   1      44.135  33.810  35.161  1.00  0.00     0.002 A 
ATOM     69  C   UNL A   1      42.702  32.547  36.654  1.00  0.00     0.091 A 
ATOM     70  F   UNL A   1      42.036  30.338  36.039  1.00  0.00    -0.205 F 
ATOM     71  C   UNL A   1      43.436  33.707  36.360  1.00  0.00     0.022 A 
BRANCH  69  72
ATOM     72  S   UNL A   1      41.764  32.549  38.186  1.00  0.00     0.127 S 
ATOM     73  O   UNL A   1      42.498  31.568  38.983  1.00  0.00    -0.237 OA
ATOM     74  O   UNL A   1      41.915  33.933  38.635  1.00  0.00    -0.237 OA
ATOM     75  O   UNL A   1      40.404  32.170  37.827  1.00  0.00    -0.744 OA
ENDBRANCH  69  72
ENDBRANCH  51  65
BRANCH  52  76
ATOM     76  C   UNL A   1      42.831  24.621  27.400  1.00  0.00     0.023 A 
ATOM     77  C   UNL A   1      43.442  24.908  26.164  1.00  0.00     0.012 A 
ATOM     78  C   UNL A   1      42.202  23.374  27.580  1.00  0.00     0.148 A 
ATOM     79  C   UNL A   1      43.395  23.988  25.115  1.00  0.00     0.002 A 
ATOM     80  C   UNL A   1      42.210  22.439  26.552  1.00  0.00     0.091 A 
ATOM     81  F   UNL A   1      41.619  23.122  28.760  1.00  0.00    -0.205 F 
ATOM     82  C   UNL A   1      42.789  22.751  25.312  1.00  0.00     0.022 A 
BRANCH  80  83
ATOM     83  S   UNL A   1      41.574  20.770  26.758  1.00  0.00     0.127 S 
ATOM     84  O   UNL A   1      41.955  20.147  25.495  1.00  0.00    -0.237 OA
ATOM     85  O   UNL A   1      42.319  20.305  27.927  1.00  0.00    -0.237 OA
ATOM     86  O   UNL A   1      40.141  20.921  26.984  1.00  0.00    -0.744 OA
ENDBRANCH  80  83
ENDBRANCH  52  76
BRANCH  64  87
ATOM     87  C   UNL A   1      47.521  26.088  32.364  1.00  0.00     0.023 A 
ATOM     88  C   UNL A   1      48.719  26.556  31.787  1.00  0.00     0.012 A 
ATOM     89  C   UNL A   1      47.577  25.085  33.353  1.00  0.00     0.148 A 
ATOM     90  C   UNL A   1      49.946  26.011  32.163  1.00  0.00     0.002 A 
ATOM     91  C   UNL A   1      48.807  24.586  33.761  1.00  0.00     0.091 A 
ATOM     92  F   UNL A   1      46.425  24.640  33.877  1.00  0.00    -0.205 F 
ATOM     93  C   UNL A   1      49.991  25.037  33.157  1.00  0.00     0.022 A 
BRANCH  91  94
ATOM     94  S   UNL A   1      48.970  23.404  35.103  1.00  0.00     0.127 S 
ATOM     95  O   UNL A   1      48.818  22.131  34.399  1.00  0.00    -0.237 OA
ATOM     96  O   UNL A   1      50.323  23.673  35.591  1.00  0.00    -0.237 OA
ATOM     97  O   UNL A   1      47.911  23.721  36.052  1.00  0.00    -0.744 OA
ENDBRANCH  91  94
ENDBRANCH  64  87
ENDBRANCH  38  39
ENDBRANCH  30  33
ENDBRANCH  28  29
ENDBRANCH  27  28
ENDBRANCH  26  27
ENDBRANCH  25  26
ENDBRANCH   1  25
TORSDOF 21
ENDMDL
MODEL 3
REMARK VINA RESULT:     -10.7      1.923      2.271
REMARK SMILES CN(CCS(C)(=O)=O)C(=O)Nc1cccc(C(=O)NCCCCCCNC(=O)c2ccc(-c3c4nc(c(-c5cccc(S(=O)(=O)[O-])c5F)c5ccc([nH]5)c(-c5cccc(S(=O)(=O)[O-])c5F)c5nc(c(-c6cccc(S(=O)(=O)[O-])c6F)c6ccc3[nH]6)C=C5)C=C4)cc2)c1
REMARK SMILES IDX 21 1 20 2 19 3 17 4 18 5 16 7 12 8 13 9 92 10 14 11 15 12
REMARK SMILES IDX 11 13 9 14 10 15 2 17 1 18 3 19 4 20 5 21 6 22 7 23 8 24
REMARK SMILES IDX 22 25 23 26 24 27 25 28 26 29 27 30 28 32 29 33 30 34 91 35
REMARK SMILES IDX 31 36 90 37 32 38 33 39 34 40 84 41 35 42 89 43 83 44 85 45
REMARK SMILES IDX 36 46 88 47 82 48 81 49 37 51 69 52 49 53 68 54 50 55 53 56
REMARK SMILES IDX 67 57 86 58 51 59 52 60 66 62 87 63 54 64 38 65 39 66 47 67
REMARK SMILES IDX 40 68 42 69 48 70 41 71 43 72 44 73 45 74 46 75 70 76 71 77
REMARK SMILES IDX 79 78 72 79 74 80 80 81 73 82 75 83 76 84 77 85 78 86 55 87
REMARK SMILES IDX 56 88 64 89 57 90 59 91 65 92 58 93 60 94 61 95 62 96 63 97
REMARK H PARENT 19 6 11 16 26 31 85 50 53 61
REMARK Flexibility Score: inf
ROOT
ATOM      1  C   UNL A   1      32.791  28.663  25.337  1.00  0.00     0.021 C 
ENDROOT
BRANCH   1   2
ATOM      2  C   UNL A   1      32.761  29.291  23.932  1.00  0.00     0.116 C 
BRANCH   2   3
ATOM      3  N   UNL A   1      31.556  29.136  23.141  1.00  0.00    -0.352 N 
ATOM      4  C   UNL A   1      30.950  28.016  22.591  1.00  0.00     0.251 C 
ATOM      5  O   UNL A   1      29.909  28.210  21.955  1.00  0.00    -0.269 OA
ATOM      6  H   UNL A   1      31.081  29.980  22.961  1.00  0.00     0.163 HD
BRANCH   4   7
ATOM      7  C   UNL A   1      31.455  26.592  22.685  1.00  0.00     0.041 A 
ATOM      8  C   UNL A   1      31.489  24.306  23.651  1.00  0.00     0.043 A 
ATOM      9  C   UNL A   1      32.485  23.981  22.712  1.00  0.00     0.026 A 
ATOM     10  C   UNL A   1      30.990  25.621  23.595  1.00  0.00     0.040 A 
ATOM     11  C   UNL A   1      32.943  24.903  21.771  1.00  0.00     0.003 A 
ATOM     12  C   UNL A   1      32.427  26.197  21.757  1.00  0.00     0.014 A 
BRANCH   8  13
ATOM     13  N   UNL A   1      31.201  23.242  24.545  1.00  0.00    -0.308 N 
ATOM     14  C   UNL A   1      31.635  22.363  25.471  1.00  0.00     0.321 C 
ATOM     15  O   UNL A   1      30.730  21.622  25.878  1.00  0.00    -0.248 OA
ATOM     16  H   UNL A   1      30.239  23.061  24.441  1.00  0.00     0.171 HD
BRANCH  14  17
ATOM     17  N   UNL A   1      32.893  22.230  25.946  1.00  0.00    -0.327 N 
ATOM     18  C   UNL A   1      33.467  23.283  26.793  1.00  0.00     0.148 C 
BRANCH  17  19
ATOM     19  C   UNL A   1      33.789  21.156  25.703  1.00  0.00     0.137 C 
BRANCH  19  20
ATOM     20  C   UNL A   1      33.555  20.342  24.453  1.00  0.00     0.158 C 
BRANCH  20  21
ATOM     21  S   UNL A   1      33.173  18.612  24.309  1.00  0.00     0.149 S 
ATOM     22  C   UNL A   1      32.514  18.083  22.750  1.00  0.00     0.158 C 
ATOM     23  O   UNL A   1      34.464  17.946  24.391  1.00  0.00    -0.229 OA
ATOM     24  O   UNL A   1      32.158  18.311  25.301  1.00  0.00    -0.229 OA
ENDBRANCH  20  21
ENDBRANCH  19  20
ENDBRANCH  17  19
ENDBRANCH  14  17
ENDBRANCH   8  13
ENDBRANCH   4   7
ENDBRANCH   2   3
ENDBRANCH   1   2
BRANCH   1  25
ATOM     25  C   UNL A   1      32.400  29.505  26.562  1.00  0.00     0.002 C 
BRANCH  25  26
ATOM     26  C   UNL A   1      31.108  30.335  26.523  1.00  0.00     0.002 C 
BRANCH  26  27
ATOM     27  C   UNL A   1      31.185  31.861  26.682  1.00  0.00     0.021 C 
BRANCH  27  28
ATOM     28  C   UNL A   1      32.559  32.526  26.782  1.00  0.00     0.116 C 
BRANCH  28  29
ATOM     29  N   UNL A   1      32.523  33.850  27.380  1.00  0.00    -0.352 N 
ATOM     30  C   UNL A   1      33.289  34.412  28.376  1.00  0.00     0.251 C 
ATOM     31  H   UNL A   1      31.833  34.445  27.010  1.00  0.00     0.163 HD
ATOM     32  O   UNL A   1      32.993  35.534  28.785  1.00  0.00    -0.269 OA
BRANCH  30  33
ATOM     33  C   UNL A   1      34.444  33.701  28.983  1.00  0.00     0.039 A 
ATOM     34  C   UNL A   1      35.733  34.203  28.757  1.00  0.00     0.014 A 
ATOM     35  C   UNL A   1      34.290  32.522  29.716  1.00  0.00     0.014 A 
ATOM     36  C   UNL A   1      36.849  33.564  29.311  1.00  0.00     0.010 A 
ATOM     37  C   UNL A   1      35.399  31.922  30.324  1.00  0.00     0.010 A 
ATOM     38  C   UNL A   1      36.692  32.433  30.128  1.00  0.00    -0.014 A 
BRANCH  38  39
ATOM     39  C   UNL A   1      37.861  31.785  30.789  1.00  0.00     0.031 A 
ATOM     40  C   UNL A   1      38.663  30.731  30.071  1.00  0.00     0.074 A 
ATOM     41  C   UNL A   1      38.154  32.085  32.071  1.00  0.00     0.049 A 
ATOM     42  N   UNL A   1      39.671  30.018  30.507  1.00  0.00    -0.248 NA
ATOM     43  C   UNL A   1      38.267  30.420  28.687  1.00  0.00     0.031 C 
ATOM     44  C   UNL A   1      37.418  33.038  32.905  1.00  0.00     0.029 A 
ATOM     45  N   UNL A   1      39.130  31.600  32.908  1.00  0.00    -0.354 N 
ATOM     46  C   UNL A   1      40.004  29.151  29.472  1.00  0.00     0.074 A 
ATOM     47  C   UNL A   1      39.072  29.408  28.394  1.00  0.00     0.031 C 
ATOM     48  C   UNL A   1      37.967  33.067  34.130  1.00  0.00     0.029 A 
ATOM     49  C   UNL A   1      39.069  32.113  34.185  1.00  0.00     0.049 A 
ATOM     50  H   UNL A   1      39.809  30.947  32.623  1.00  0.00     0.167 HD
ATOM     51  C   UNL A   1      41.006  28.241  29.411  1.00  0.00     0.034 A 
ATOM     52  C   UNL A   1      39.807  31.839  35.279  1.00  0.00     0.034 A 
ATOM     53  C   UNL A   1      41.953  28.010  30.470  1.00  0.00     0.049 A 
ATOM     54  C   UNL A   1      40.932  30.843  35.176  1.00  0.00     0.074 A 
ATOM     55  C   UNL A   1      43.054  27.169  30.471  1.00  0.00     0.029 A 
ATOM     56  N   UNL A   1      41.906  28.606  31.719  1.00  0.00    -0.354 N 
ATOM     57  N   UNL A   1      41.324  30.146  34.139  1.00  0.00    -0.248 NA
ATOM     58  C   UNL A   1      41.739  30.623  36.386  1.00  0.00     0.031 C 
ATOM     59  C   UNL A   1      43.652  27.235  31.733  1.00  0.00     0.029 A 
ATOM     60  C   UNL A   1      42.949  28.146  32.504  1.00  0.00     0.049 A 
ATOM     61  H   UNL A   1      41.229  29.262  32.007  1.00  0.00     0.167 HD
ATOM     62  C   UNL A   1      42.447  29.438  34.556  1.00  0.00     0.074 A 
ATOM     63  C   UNL A   1      42.681  29.806  35.937  1.00  0.00     0.031 C 
ATOM     64  C   UNL A   1      43.207  28.557  33.860  1.00  0.00     0.034 A 
BRANCH  51  65
ATOM     65  C   UNL A   1      41.162  27.449  28.135  1.00  0.00     0.023 A 
ATOM     66  C   UNL A   1      41.747  28.056  27.003  1.00  0.00     0.012 A 
ATOM     67  C   UNL A   1      40.789  26.092  28.072  1.00  0.00     0.148 A 
ATOM     68  C   UNL A   1      41.919  27.338  25.821  1.00  0.00     0.002 A 
ATOM     69  C   UNL A   1      41.010  25.369  26.905  1.00  0.00     0.091 A 
ATOM     70  F   UNL A   1      40.221  25.534  29.152  1.00  0.00    -0.205 F 
ATOM     71  C   UNL A   1      41.560  25.994  25.774  1.00  0.00     0.022 A 
BRANCH  69  72
ATOM     72  S   UNL A   1      40.662  23.612  26.768  1.00  0.00     0.127 S 
ATOM     73  O   UNL A   1      39.245  23.618  26.411  1.00  0.00    -0.237 OA
ATOM     74  O   UNL A   1      41.561  23.205  25.688  1.00  0.00    -0.237 OA
ATOM     75  O   UNL A   1      40.975  23.037  28.070  1.00  0.00    -0.744 OA
ENDBRANCH  69  72
ENDBRANCH  51  65
BRANCH  52  76
ATOM     76  C   UNL A   1      39.544  32.561  36.558  1.00  0.00     0.023 A 
ATOM     77  C   UNL A   1      40.270  33.730  36.855  1.00  0.00     0.012 A 
ATOM     78  C   UNL A   1      38.569  32.109  37.468  1.00  0.00     0.148 A 
ATOM     79  C   UNL A   1      40.058  34.415  38.053  1.00  0.00     0.002 A 
ATOM     80  C   UNL A   1      38.320  32.829  38.631  1.00  0.00     0.091 A 
ATOM     81  F   UNL A   1      37.893  30.990  37.172  1.00  0.00    -0.205 F 
ATOM     82  C   UNL A   1      39.078  33.971  38.935  1.00  0.00     0.022 A 
BRANCH  80  83
ATOM     83  S   UNL A   1      36.986  32.412  39.760  1.00  0.00     0.127 S 
ATOM     84  O   UNL A   1      37.401  31.099  40.243  1.00  0.00    -0.237 OA
ATOM     85  O   UNL A   1      37.075  33.491  40.744  1.00  0.00    -0.237 OA
ATOM     86  O   UNL A   1      35.768  32.436  38.956  1.00  0.00    -0.744 OA
ENDBRANCH  80  83
ENDBRANCH  52  76
BRANCH  64  87
ATOM     87  C   UNL A   1      44.405  27.962  34.556  1.00  0.00     0.023 A 
ATOM     88  C   UNL A   1      45.657  28.604  34.485  1.00  0.00     0.012 A 
ATOM     89  C   UNL A   1      44.268  26.800  35.343  1.00  0.00     0.148 A 
ATOM     90  C   UNL A   1      46.761  28.080  35.156  1.00  0.00     0.002 A 
ATOM     91  C   UNL A   1      45.359  26.315  36.053  1.00  0.00     0.091 A 
ATOM     92  F   UNL A   1      43.073  26.193  35.384  1.00  0.00    -0.205 F 
ATOM     93  C   UNL A   1      46.610  26.944  35.949  1.00  0.00     0.022 A 
BRANCH  91  94
ATOM     94  S   UNL A   1      45.235  24.919  37.176  1.00  0.00     0.127 S 
ATOM     95  O   UNL A   1      44.956  23.819  36.255  1.00  0.00    -0.237 OA
ATOM     96  O   UNL A   1      46.567  24.887  37.780  1.00  0.00    -0.237 OA
ATOM     97  O   UNL A   1      44.159  25.243  38.104  1.00  0.00    -0.744 OA
ENDBRANCH  91  94
ENDBRANCH  64  87
ENDBRANCH  38  39
ENDBRANCH  30  33
ENDBRANCH  28  29
ENDBRANCH  27  28
ENDBRANCH  26  27
ENDBRANCH  25  26
ENDBRANCH   1  25
TORSDOF 21
ENDMDL
