MODEL 1
REMARK VINA RESULT:     -11.5      0.000      0.000
REMARK SMILES C[C@@H]1CCC[C@](CCSc2ccccc2)(C(=O)NCCCCCCNC(=O)c2ccc(-c3c4nc(c(-c5cccc(S(=O)(=O)[O-])c5F)c5ccc([nH]5)c(-c5cccc(S(=O)(=O)[O-])c5F)c5nc(c(-c6cccc(S(=O)(=O)[O-])c6F)c6ccc3[nH]6)C=C5)C=C4)cc2)C1
REMARK SMILES IDX 21 1 20 2 19 3 18 4 16 5 17 6 6 8 1 9 2 10 3 11 91 12 4 13
REMARK SMILES IDX 5 14 7 15 8 16 9 17 10 18 11 19 15 20 12 21 14 22 13 23
REMARK SMILES IDX 22 24 23 25 24 26 25 27 26 28 27 30 28 31 29 32 90 33 30 34
REMARK SMILES IDX 89 35 31 36 32 37 33 38 83 39 34 40 88 41 82 42 84 43 35 44
REMARK SMILES IDX 87 45 81 46 80 47 36 49 68 50 48 51 67 52 49 53 52 54 66 55
REMARK SMILES IDX 85 56 50 57 51 58 65 60 86 61 53 62 37 63 38 64 46 65 39 66
REMARK SMILES IDX 41 67 47 68 40 69 42 70 43 71 44 72 45 73 69 74 70 75 78 76
REMARK SMILES IDX 71 77 73 78 79 79 72 80 74 81 75 82 76 83 77 84 54 85 55 86
REMARK SMILES IDX 63 87 56 88 58 89 64 90 57 91 59 92 60 93 61 94 62 95
REMARK H PARENT 18 7 25 29 84 48 52 59
REMARK Flexibility Score: inf
ROOT
ATOM      1  C   UNL A   1      32.541  29.980  26.857  1.00  0.00     0.002 C 
ENDROOT
BRANCH   1   2
ATOM      2  C   UNL A   1      32.034  28.690  27.503  1.00  0.00     0.021 C 
BRANCH   2   3
ATOM      3  C   UNL A   1      32.384  27.438  26.702  1.00  0.00     0.116 C 
BRANCH   3   4
ATOM      4  N   UNL A   1      31.300  26.496  26.753  1.00  0.00    -0.356 N 
ATOM      5  C   UNL A   1      30.547  25.895  25.811  1.00  0.00     0.226 C 
ATOM      6  O   UNL A   1      29.540  25.340  26.274  1.00  0.00    -0.274 OA
ATOM      7  H   UNL A   1      31.055  26.235  27.670  1.00  0.00     0.163 HD
BRANCH   5   8
ATOM      8  C   UNL A   1      30.798  25.931  24.272  1.00  0.00     0.050 C 
ATOM      9  C   UNL A   1      33.841  28.235  23.806  1.00  0.00     0.007 C 
ATOM     10  C   UNL A   1      32.543  27.677  23.193  1.00  0.00    -0.013 C 
ATOM     11  C   UNL A   1      31.423  28.720  23.111  1.00  0.00     0.003 C 
ATOM     12  C   UNL A   1      32.214  26.295  23.784  1.00  0.00     0.020 C 
ATOM     13  C   UNL A   1      30.052  28.334  23.658  1.00  0.00     0.001 C 
ATOM     14  C   UNL A   1      29.740  26.846  23.613  1.00  0.00     0.017 C 
BRANCH   8  15
ATOM     15  C   UNL A   1      30.495  24.445  23.790  1.00  0.00     0.028 C 
BRANCH  15  16
ATOM     16  C   UNL A   1      31.384  23.282  24.299  1.00  0.00     0.076 C 
BRANCH  16  17
ATOM     17  S   UNL A   1      32.233  22.201  23.088  1.00  0.00    -0.126 SA
BRANCH  17  18
ATOM     18  C   UNL A   1      33.932  22.223  23.636  1.00  0.00     0.007 A 
ATOM     19  C   UNL A   1      34.337  21.272  24.580  1.00  0.00     0.015 A 
ATOM     20  C   UNL A   1      34.878  23.130  23.148  1.00  0.00     0.015 A 
ATOM     21  C   UNL A   1      35.638  21.280  25.091  1.00  0.00     0.001 A 
ATOM     22  C   UNL A   1      36.179  23.144  23.664  1.00  0.00     0.001 A 
ATOM     23  C   UNL A   1      36.554  22.228  24.645  1.00  0.00     0.000 A 
ENDBRANCH  17  18
ENDBRANCH  16  17
ENDBRANCH  15  16
ENDBRANCH   8  15
ENDBRANCH   5   8
ENDBRANCH   3   4
ENDBRANCH   2   3
ENDBRANCH   1   2
BRANCH   1  24
ATOM     24  C   UNL A   1      31.462  30.808  26.148  1.00  0.00     0.002 C 
BRANCH  24  25
ATOM     25  C   UNL A   1      31.394  32.286  26.550  1.00  0.00     0.021 C 
BRANCH  25  26
ATOM     26  C   UNL A   1      32.646  32.836  27.230  1.00  0.00     0.116 C 
BRANCH  26  27
ATOM     27  N   UNL A   1      32.482  34.215  27.654  1.00  0.00    -0.352 N 
ATOM     28  C   UNL A   1      33.118  34.906  28.651  1.00  0.00     0.251 C 
ATOM     29  H   UNL A   1      31.812  34.730  27.150  1.00  0.00     0.163 HD
ATOM     30  O   UNL A   1      32.720  36.029  28.956  1.00  0.00    -0.269 OA
BRANCH  28  31
ATOM     31  C   UNL A   1      34.263  34.307  29.369  1.00  0.00     0.039 A 
ATOM     32  C   UNL A   1      34.000  33.508  30.483  1.00  0.00     0.014 A 
ATOM     33  C   UNL A   1      35.584  34.556  28.980  1.00  0.00     0.014 A 
ATOM     34  C   UNL A   1      35.056  32.931  31.187  1.00  0.00     0.010 A 
ATOM     35  C   UNL A   1      36.636  33.927  29.646  1.00  0.00     0.010 A 
ATOM     36  C   UNL A   1      36.383  33.119  30.763  1.00  0.00    -0.014 A 
BRANCH  36  37
ATOM     37  C   UNL A   1      37.499  32.458  31.484  1.00  0.00     0.031 A 
ATOM     38  C   UNL A   1      38.233  31.298  30.868  1.00  0.00     0.074 A 
ATOM     39  C   UNL A   1      37.831  32.893  32.717  1.00  0.00     0.049 A 
ATOM     40  N   UNL A   1      39.261  30.636  31.332  1.00  0.00    -0.248 NA
ATOM     41  C   UNL A   1      37.739  30.802  29.572  1.00  0.00     0.031 C 
ATOM     42  C   UNL A   1      37.136  33.950  33.455  1.00  0.00     0.029 A 
ATOM     43  N   UNL A   1      38.829  32.495  33.569  1.00  0.00    -0.354 N 
ATOM     44  C   UNL A   1      39.529  29.642  30.400  1.00  0.00     0.074 A 
ATOM     45  C   UNL A   1      38.528  29.757  29.361  1.00  0.00     0.031 C 
ATOM     46  C   UNL A   1      37.736  34.127  34.643  1.00  0.00     0.029 A 
ATOM     47  C   UNL A   1      38.849  33.190  34.756  1.00  0.00     0.049 A 
ATOM     48  H   UNL A   1      39.470  31.780  33.352  1.00  0.00     0.167 HD
ATOM     49  C   UNL A   1      40.539  28.740  30.387  1.00  0.00     0.034 A 
ATOM     50  C   UNL A   1      39.680  33.091  35.812  1.00  0.00     0.034 A 
ATOM     51  C   UNL A   1      41.554  28.653  31.403  1.00  0.00     0.049 A 
ATOM     52  C   UNL A   1      40.828  32.119  35.742  1.00  0.00     0.074 A 
ATOM     53  C   UNL A   1      42.655  27.816  31.452  1.00  0.00     0.029 A 
ATOM     54  N   UNL A   1      41.595  29.435  32.547  1.00  0.00    -0.354 N 
ATOM     55  N   UNL A   1      41.159  31.301  34.772  1.00  0.00    -0.248 NA
ATOM     56  C   UNL A   1      41.743  32.092  36.891  1.00  0.00     0.031 C 
ATOM     57  C   UNL A   1      43.359  28.087  32.632  1.00  0.00     0.029 A 
ATOM     58  C   UNL A   1      42.703  29.103  33.309  1.00  0.00     0.049 A 
ATOM     59  H   UNL A   1      40.935  30.125  32.784  1.00  0.00     0.167 HD
ATOM     60  C   UNL A   1      42.335  30.684  35.181  1.00  0.00     0.074 A 
ATOM     61  C   UNL A   1      42.678  31.251  36.470  1.00  0.00     0.031 C 
ATOM     62  C   UNL A   1      43.056  29.716  34.562  1.00  0.00     0.034 A 
BRANCH  49  63
ATOM     63  C   UNL A   1      40.647  27.820  29.198  1.00  0.00     0.023 A 
ATOM     64  C   UNL A   1      39.781  26.711  29.108  1.00  0.00     0.012 A 
ATOM     65  C   UNL A   1      41.537  28.089  28.139  1.00  0.00     0.148 A 
ATOM     66  C   UNL A   1      39.812  25.870  27.997  1.00  0.00     0.002 A 
ATOM     67  C   UNL A   1      41.535  27.269  27.015  1.00  0.00     0.091 A 
ATOM     68  F   UNL A   1      42.364  29.138  28.250  1.00  0.00    -0.205 F 
ATOM     69  C   UNL A   1      40.680  26.156  26.948  1.00  0.00     0.022 A 
BRANCH  67  70
ATOM     70  S   UNL A   1      42.562  27.589  25.577  1.00  0.00     0.127 S 
ATOM     71  O   UNL A   1      43.897  27.659  26.179  1.00  0.00    -0.237 OA
ATOM     72  O   UNL A   1      42.328  26.393  24.763  1.00  0.00    -0.237 OA
ATOM     73  O   UNL A   1      42.076  28.827  24.998  1.00  0.00    -0.744 OA
ENDBRANCH  67  70
ENDBRANCH  49  63
BRANCH  50  74
ATOM     74  C   UNL A   1      39.512  33.991  36.988  1.00  0.00     0.023 A 
ATOM     75  C   UNL A   1      39.863  35.351  36.876  1.00  0.00     0.012 A 
ATOM     76  C   UNL A   1      39.000  33.515  38.209  1.00  0.00     0.148 A 
ATOM     77  C   UNL A   1      39.748  36.209  37.971  1.00  0.00     0.002 A 
ATOM     78  C   UNL A   1      38.833  34.388  39.278  1.00  0.00     0.091 A 
ATOM     79  F   UNL A   1      38.685  32.215  38.307  1.00  0.00    -0.205 F 
ATOM     80  C   UNL A   1      39.224  35.730  39.168  1.00  0.00     0.022 A 
BRANCH  78  81
ATOM     81  S   UNL A   1      38.034  33.873  40.803  1.00  0.00     0.127 S 
ATOM     82  O   UNL A   1      39.043  32.995  41.390  1.00  0.00    -0.237 OA
ATOM     83  O   UNL A   1      37.844  35.145  41.500  1.00  0.00    -0.237 OA
ATOM     84  O   UNL A   1      36.792  33.234  40.385  1.00  0.00    -0.744 OA
ENDBRANCH  78  81
ENDBRANCH  50  74
BRANCH  62  85
ATOM     85  C   UNL A   1      44.295  29.225  35.264  1.00  0.00     0.023 A 
ATOM     86  C   UNL A   1      45.537  29.831  34.988  1.00  0.00     0.012 A 
ATOM     87  C   UNL A   1      44.224  28.195  36.222  1.00  0.00     0.148 A 
ATOM     88  C   UNL A   1      46.697  29.391  35.624  1.00  0.00     0.002 A 
ATOM     89  C   UNL A   1      45.378  27.793  36.886  1.00  0.00     0.091 A 
ATOM     90  F   UNL A   1      43.038  27.614  36.456  1.00  0.00    -0.205 F 
ATOM     91  C   UNL A   1      46.616  28.380  36.578  1.00  0.00     0.022 A 
BRANCH  89  92
ATOM     92  S   UNL A   1      45.346  26.563  38.194  1.00  0.00     0.127 S 
ATOM     93  O   UNL A   1      44.309  27.093  39.077  1.00  0.00    -0.237 OA
ATOM     94  O   UNL A   1      44.971  25.346  37.473  1.00  0.00    -0.237 OA
ATOM     95  O   UNL A   1      46.694  26.540  38.746  1.00  0.00    -0.744 OA
ENDBRANCH  89  92
ENDBRANCH  62  85
ENDBRANCH  36  37
ENDBRANCH  28  31
ENDBRANCH  26  27
ENDBRANCH  25  26
ENDBRANCH  24  25
ENDBRANCH   1  24
TORSDOF 20
ENDMDL
MODEL 2
REMARK VINA RESULT:     -11.3      6.265     11.684
REMARK SMILES C[C@@H]1CCC[C@](CCSc2ccccc2)(C(=O)NCCCCCCNC(=O)c2ccc(-c3c4nc(c(-c5cccc(S(=O)(=O)[O-])c5F)c5ccc([nH]5)c(-c5cccc(S(=O)(=O)[O-])c5F)c5nc(c(-c6cccc(S(=O)(=O)[O-])c6F)c6ccc3[nH]6)C=C5)C=C4)cc2)C1
REMARK SMILES IDX 21 1 20 2 19 3 18 4 16 5 17 6 6 8 1 9 2 10 3 11 91 12 4 13
REMARK SMILES IDX 5 14 7 15 8 16 9 17 10 18 11 19 15 20 12 21 14 22 13 23
REMARK SMILES IDX 22 24 23 25 24 26 25 27 26 28 27 30 28 31 29 32 90 33 30 34
REMARK SMILES IDX 89 35 31 36 32 37 33 38 83 39 34 40 88 41 82 42 84 43 35 44
REMARK SMILES IDX 87 45 81 46 80 47 36 49 68 50 48 51 67 52 49 53 52 54 66 55
REMARK SMILES IDX 85 56 50 57 51 58 65 60 86 61 53 62 37 63 38 64 46 65 39 66
REMARK SMILES IDX 41 67 47 68 40 69 42 70 43 71 44 72 45 73 69 74 70 75 78 76
REMARK SMILES IDX 71 77 73 78 79 79 72 80 74 81 75 82 76 83 77 84 54 85 55 86
REMARK SMILES IDX 63 87 56 88 58 89 64 90 57 91 59 92 60 93 61 94 62 95
REMARK H PARENT 18 7 25 29 84 48 52 59
REMARK Flexibility Score: inf
ROOT
ATOM      1  C   UNL A   1      35.668  21.085  25.036  1.00  0.00     0.002 C 
ENDROOT
BRANCH   1   2
ATOM      2  C   UNL A   1      34.559  21.270  26.073  1.00  0.00     0.021 C 
BRANCH   2   3
ATOM      3  C   UNL A   1      33.188  21.520  25.450  1.00  0.00     0.116 C 
BRANCH   3   4
ATOM      4  N   UNL A   1      32.328  22.185  26.391  1.00  0.00    -0.356 N 
ATOM      5  C   UNL A   1      31.915  23.461  26.531  1.00  0.00     0.226 C 
ATOM      6  O   UNL A   1      31.377  23.680  27.626  1.00  0.00    -0.274 OA
ATOM      7  H   UNL A   1      31.965  21.582  27.079  1.00  0.00     0.163 HD
BRANCH   5   8
ATOM      8  C   UNL A   1      32.140  24.617  25.509  1.00  0.00     0.050 C 
ATOM      9  C   UNL A   1      33.432  22.902  22.320  1.00  0.00     0.007 C 
ATOM     10  C   UNL A   1      33.419  24.180  23.179  1.00  0.00    -0.013 C 
ATOM     11  C   UNL A   1      34.755  24.442  23.884  1.00  0.00     0.003 C 
ATOM     12  C   UNL A   1      32.126  24.264  24.009  1.00  0.00     0.020 C 
ATOM     13  C   UNL A   1      34.723  24.733  25.381  1.00  0.00     0.001 C 
ATOM     14  C   UNL A   1      33.438  25.371  25.882  1.00  0.00     0.017 C 
BRANCH   8  15
ATOM     15  C   UNL A   1      30.929  25.615  25.774  1.00  0.00     0.028 C 
BRANCH  15  16
ATOM     16  C   UNL A   1      30.928  27.010  25.100  1.00  0.00     0.076 C 
BRANCH  16  17
ATOM     17  S   UNL A   1      30.469  27.156  23.332  1.00  0.00    -0.126 SA
BRANCH  17  18
ATOM     18  C   UNL A   1      29.390  28.578  23.303  1.00  0.00     0.007 A 
ATOM     19  C   UNL A   1      29.955  29.844  23.502  1.00  0.00     0.015 A 
ATOM     20  C   UNL A   1      28.014  28.486  23.067  1.00  0.00     0.015 A 
ATOM     21  C   UNL A   1      29.151  30.986  23.550  1.00  0.00     0.001 A 
ATOM     22  C   UNL A   1      27.208  29.628  23.122  1.00  0.00     0.001 A 
ATOM     23  C   UNL A   1      27.775  30.876  23.378  1.00  0.00     0.000 A 
ENDBRANCH  17  18
ENDBRANCH  16  17
ENDBRANCH  15  16
ENDBRANCH   8  15
ENDBRANCH   5   8
ENDBRANCH   3   4
ENDBRANCH   2   3
ENDBRANCH   1   2
BRANCH   1  24
ATOM     24  C   UNL A   1      36.282  19.681  25.001  1.00  0.00     0.002 C 
BRANCH  24  25
ATOM     25  C   UNL A   1      37.775  19.622  24.659  1.00  0.00     0.021 C 
BRANCH  25  26
ATOM     26  C   UNL A   1      38.716  20.131  25.750  1.00  0.00     0.116 C 
BRANCH  26  27
ATOM     27  N   UNL A   1      39.801  19.205  26.018  1.00  0.00    -0.352 N 
ATOM     28  C   UNL A   1      41.120  19.457  26.292  1.00  0.00     0.251 C 
ATOM     29  H   UNL A   1      39.553  18.253  25.999  1.00  0.00     0.163 HD
ATOM     30  O   UNL A   1      41.916  18.521  26.333  1.00  0.00    -0.269 OA
BRANCH  28  31
ATOM     31  C   UNL A   1      41.589  20.840  26.521  1.00  0.00     0.039 A 
ATOM     32  C   UNL A   1      41.560  21.733  25.448  1.00  0.00     0.014 A 
ATOM     33  C   UNL A   1      42.091  21.248  27.761  1.00  0.00     0.014 A 
ATOM     34  C   UNL A   1      42.000  23.044  25.627  1.00  0.00     0.010 A 
ATOM     35  C   UNL A   1      42.471  22.576  27.955  1.00  0.00     0.010 A 
ATOM     36  C   UNL A   1      42.441  23.484  26.887  1.00  0.00    -0.014 A 
BRANCH  36  37
ATOM     37  C   UNL A   1      42.857  24.895  27.084  1.00  0.00     0.031 A 
ATOM     38  C   UNL A   1      41.943  25.878  27.762  1.00  0.00     0.074 A 
ATOM     39  C   UNL A   1      44.059  25.293  26.620  1.00  0.00     0.049 A 
ATOM     40  N   UNL A   1      42.163  27.132  28.062  1.00  0.00    -0.248 NA
ATOM     41  C   UNL A   1      40.600  25.401  28.136  1.00  0.00     0.031 C 
ATOM     42  C   UNL A   1      44.995  24.454  25.868  1.00  0.00     0.029 A 
ATOM     43  N   UNL A   1      44.694  26.506  26.703  1.00  0.00    -0.354 N 
ATOM     44  C   UNL A   1      40.990  27.598  28.644  1.00  0.00     0.074 A 
ATOM     45  C   UNL A   1      40.043  26.505  28.617  1.00  0.00     0.031 C 
ATOM     46  C   UNL A   1      46.090  25.172  25.571  1.00  0.00     0.029 A 
ATOM     47  C   UNL A   1      45.931  26.523  26.100  1.00  0.00     0.049 A 
ATOM     48  H   UNL A   1      44.303  27.290  27.153  1.00  0.00     0.167 HD
ATOM     49  C   UNL A   1      40.736  28.812  29.187  1.00  0.00     0.034 A 
ATOM     50  C   UNL A   1      46.838  27.513  25.996  1.00  0.00     0.034 A 
ATOM     51  C   UNL A   1      41.694  29.885  29.246  1.00  0.00     0.049 A 
ATOM     52  C   UNL A   1      46.550  28.832  26.661  1.00  0.00     0.074 A 
ATOM     53  C   UNL A   1      41.557  31.132  29.829  1.00  0.00     0.029 A 
ATOM     54  N   UNL A   1      42.969  29.835  28.704  1.00  0.00    -0.354 N 
ATOM     55  N   UNL A   1      45.496  29.197  27.352  1.00  0.00    -0.248 NA
ATOM     56  C   UNL A   1      47.597  29.860  26.573  1.00  0.00     0.031 C 
ATOM     57  C   UNL A   1      42.749  31.841  29.634  1.00  0.00     0.029 A 
ATOM     58  C   UNL A   1      43.632  31.028  28.941  1.00  0.00     0.049 A 
ATOM     59  H   UNL A   1      43.348  29.066  28.222  1.00  0.00     0.167 HD
ATOM     60  C   UNL A   1      45.765  30.482  27.805  1.00  0.00     0.074 A 
ATOM     61  C   UNL A   1      47.097  30.819  27.341  1.00  0.00     0.031 C 
ATOM     62  C   UNL A   1      44.975  31.323  28.518  1.00  0.00     0.034 A 
BRANCH  49  63
ATOM     63  C   UNL A   1      39.393  29.026  29.836  1.00  0.00     0.023 A 
ATOM     64  C   UNL A   1      39.163  28.502  31.125  1.00  0.00     0.012 A 
ATOM     65  C   UNL A   1      38.394  29.805  29.219  1.00  0.00     0.148 A 
ATOM     66  C   UNL A   1      37.954  28.728  31.781  1.00  0.00     0.002 A 
ATOM     67  C   UNL A   1      37.205  30.058  29.895  1.00  0.00     0.091 A 
ATOM     68  F   UNL A   1      38.624  30.280  27.987  1.00  0.00    -0.205 F 
ATOM     69  C   UNL A   1      36.981  29.514  31.171  1.00  0.00     0.022 A 
BRANCH  67  70
ATOM     70  S   UNL A   1      35.915  31.118  29.231  1.00  0.00     0.127 S 
ATOM     71  O   UNL A   1      35.172  30.180  28.384  1.00  0.00    -0.237 OA
ATOM     72  O   UNL A   1      35.206  31.532  30.444  1.00  0.00    -0.237 OA
ATOM     73  O   UNL A   1      36.593  32.188  28.524  1.00  0.00    -0.744 OA
ENDBRANCH  67  70
ENDBRANCH  49  63
BRANCH  50  74
ATOM     74  C   UNL A   1      48.138  27.272  25.308  1.00  0.00     0.023 A 
ATOM     75  C   UNL A   1      49.248  26.838  26.057  1.00  0.00     0.012 A 
ATOM     76  C   UNL A   1      48.279  27.460  23.920  1.00  0.00     0.148 A 
ATOM     77  C   UNL A   1      50.487  26.637  25.445  1.00  0.00     0.002 A 
ATOM     78  C   UNL A   1      49.499  27.201  23.306  1.00  0.00     0.091 A 
ATOM     79  F   UNL A   1      47.217  27.888  23.221  1.00  0.00    -0.205 F 
ATOM     80  C   UNL A   1      50.610  26.809  24.068  1.00  0.00     0.022 A 
BRANCH  78  81
ATOM     81  S   UNL A   1      49.692  27.266  21.521  1.00  0.00     0.127 S 
ATOM     82  O   UNL A   1      48.652  26.346  21.071  1.00  0.00    -0.237 OA
ATOM     83  O   UNL A   1      49.435  28.677  21.231  1.00  0.00    -0.237 OA
ATOM     84  O   UNL A   1      51.068  26.852  21.273  1.00  0.00    -0.744 OA
ENDBRANCH  78  81
ENDBRANCH  50  74
BRANCH  62  85
ATOM     85  C   UNL A   1      45.539  32.679  28.854  1.00  0.00     0.023 A 
ATOM     86  C   UNL A   1      46.241  32.860  30.062  1.00  0.00     0.012 A 
ATOM     87  C   UNL A   1      45.410  33.759  27.959  1.00  0.00     0.148 A 
ATOM     88  C   UNL A   1      46.769  34.106  30.395  1.00  0.00     0.002 A 
ATOM     89  C   UNL A   1      45.979  34.987  28.277  1.00  0.00     0.091 A 
ATOM     90  F   UNL A   1      44.720  33.575  26.824  1.00  0.00    -0.205 F 
ATOM     91  C   UNL A   1      46.647  35.166  29.500  1.00  0.00     0.022 A 
BRANCH  89  92
ATOM     92  S   UNL A   1      45.947  36.376  27.139  1.00  0.00     0.127 S 
ATOM     93  O   UNL A   1      46.450  35.767  25.910  1.00  0.00    -0.237 OA
ATOM     94  O   UNL A   1      44.527  36.727  27.110  1.00  0.00    -0.237 OA
ATOM     95  O   UNL A   1      46.803  37.394  27.736  1.00  0.00    -0.744 OA
ENDBRANCH  89  92
ENDBRANCH  62  85
ENDBRANCH  36  37
ENDBRANCH  28  31
ENDBRANCH  26  27
ENDBRANCH  25  26
ENDBRANCH  24  25
ENDBRANCH   1  24
TORSDOF 20
ENDMDL
MODEL 3
REMARK VINA RESULT:     -11.3      1.908      7.849
REMARK SMILES C[C@@H]1CCC[C@](CCSc2ccccc2)(C(=O)NCCCCCCNC(=O)c2ccc(-c3c4nc(c(-c5cccc(S(=O)(=O)[O-])c5F)c5ccc([nH]5)c(-c5cccc(S(=O)(=O)[O-])c5F)c5nc(c(-c6cccc(S(=O)(=O)[O-])c6F)c6ccc3[nH]6)C=C5)C=C4)cc2)C1
REMARK SMILES IDX 21 1 20 2 19 3 18 4 16 5 17 6 6 8 1 9 2 10 3 11 91 12 4 13
REMARK SMILES IDX 5 14 7 15 8 16 9 17 10 18 11 19 15 20 12 21 14 22 13 23
REMARK SMILES IDX 22 24 23 25 24 26 25 27 26 28 27 30 28 31 29 32 90 33 30 34
REMARK SMILES IDX 89 35 31 36 32 37 33 38 83 39 34 40 88 41 82 42 84 43 35 44
REMARK SMILES IDX 87 45 81 46 80 47 36 49 68 50 48 51 67 52 49 53 52 54 66 55
REMARK SMILES IDX 85 56 50 57 51 58 65 60 86 61 53 62 37 63 38 64 46 65 39 66
REMARK SMILES IDX 41 67 47 68 40 69 42 70 43 71 44 72 45 73 69 74 70 75 78 76
REMARK SMILES IDX 71 77 73 78 79 79 72 80 74 81 75 82 76 83 77 84 54 85 55 86
REMARK SMILES IDX 63 87 56 88 58 89 64 90 57 91 59 92 60 93 61 94 62 95
REMARK H PARENT 18 7 25 29 84 48 52 59
REMARK Flexibility Score: inf
ROOT
ATOM      1  C   UNL A   1      32.804  29.947  27.202  1.00  0.00     0.002 C 
ENDROOT
BRANCH   1   2
ATOM      2  C   UNL A   1      32.646  28.451  27.476  1.00  0.00     0.021 C 
BRANCH   2   3
ATOM      3  C   UNL A   1      31.746  27.745  26.465  1.00  0.00     0.116 C 
BRANCH   3   4
ATOM      4  N   UNL A   1      31.409  26.429  26.934  1.00  0.00    -0.356 N 
ATOM      5  C   UNL A   1      31.682  25.186  26.489  1.00  0.00     0.226 C 
ATOM      6  O   UNL A   1      30.992  24.312  27.034  1.00  0.00    -0.274 OA
ATOM      7  H   UNL A   1      30.862  26.437  27.753  1.00  0.00     0.163 HD
BRANCH   5   8
ATOM      8  C   UNL A   1      32.677  24.816  25.347  1.00  0.00     0.050 C 
ATOM      9  C   UNL A   1      33.868  28.185  23.924  1.00  0.00     0.007 C 
ATOM     10  C   UNL A   1      33.596  26.694  23.648  1.00  0.00    -0.013 C 
ATOM     11  C   UNL A   1      32.370  26.463  22.757  1.00  0.00     0.003 C 
ATOM     12  C   UNL A   1      33.727  25.869  24.940  1.00  0.00     0.020 C 
ATOM     13  C   UNL A   1      31.330  25.452  23.229  1.00  0.00     0.001 C 
ATOM     14  C   UNL A   1      31.872  24.342  24.115  1.00  0.00     0.017 C 
BRANCH   8  15
ATOM     15  C   UNL A   1      33.463  23.551  25.907  1.00  0.00     0.028 C 
BRANCH  15  16
ATOM     16  C   UNL A   1      33.661  22.312  24.997  1.00  0.00     0.076 C 
BRANCH  16  17
ATOM     17  S   UNL A   1      34.471  20.815  25.675  1.00  0.00    -0.126 SA
BRANCH  17  18
ATOM     18  C   UNL A   1      33.869  19.507  24.619  1.00  0.00     0.007 A 
ATOM     19  C   UNL A   1      34.622  18.330  24.527  1.00  0.00     0.015 A 
ATOM     20  C   UNL A   1      32.672  19.597  23.901  1.00  0.00     0.015 A 
ATOM     21  C   UNL A   1      34.232  17.297  23.670  1.00  0.00     0.001 A 
ATOM     22  C   UNL A   1      32.284  18.567  23.038  1.00  0.00     0.001 A 
ATOM     23  C   UNL A   1      33.072  17.423  22.912  1.00  0.00     0.000 A 
ENDBRANCH  17  18
ENDBRANCH  16  17
ENDBRANCH  15  16
ENDBRANCH   8  15
ENDBRANCH   5   8
ENDBRANCH   3   4
ENDBRANCH   2   3
ENDBRANCH   1   2
BRANCH   1  24
ATOM     24  C   UNL A   1      31.595  30.604  26.526  1.00  0.00     0.002 C 
BRANCH  24  25
ATOM     25  C   UNL A   1      31.460  32.116  26.740  1.00  0.00     0.021 C 
BRANCH  25  26
ATOM     26  C   UNL A   1      32.773  32.863  26.965  1.00  0.00     0.116 C 
BRANCH  26  27
ATOM     27  N   UNL A   1      32.589  34.084  27.729  1.00  0.00    -0.352 N 
ATOM     28  C   UNL A   1      33.243  34.525  28.849  1.00  0.00     0.251 C 
ATOM     29  H   UNL A   1      31.886  34.686  27.392  1.00  0.00     0.163 HD
ATOM     30  O   UNL A   1      32.826  35.519  29.439  1.00  0.00    -0.269 OA
BRANCH  28  31
ATOM     31  C   UNL A   1      34.430  33.805  29.358  1.00  0.00     0.039 A 
ATOM     32  C   UNL A   1      35.689  34.203  28.903  1.00  0.00     0.014 A 
ATOM     33  C   UNL A   1      34.311  32.725  30.240  1.00  0.00     0.014 A 
ATOM     34  C   UNL A   1      36.830  33.542  29.359  1.00  0.00     0.010 A 
ATOM     35  C   UNL A   1      35.456  32.107  30.742  1.00  0.00     0.010 A 
ATOM     36  C   UNL A   1      36.725  32.502  30.297  1.00  0.00    -0.014 A 
BRANCH  36  37
ATOM     37  C   UNL A   1      37.947  31.839  30.819  1.00  0.00     0.031 A 
ATOM     38  C   UNL A   1      38.528  32.235  32.149  1.00  0.00     0.074 A 
ATOM     39  C   UNL A   1      38.548  30.892  30.070  1.00  0.00     0.049 A 
ATOM     40  N   UNL A   1      39.556  31.729  32.779  1.00  0.00    -0.248 NA
ATOM     41  C   UNL A   1      37.887  33.356  32.856  1.00  0.00     0.031 C 
ATOM     42  C   UNL A   1      38.130  30.486  28.726  1.00  0.00     0.029 A 
ATOM     43  N   UNL A   1      39.644  30.109  30.327  1.00  0.00    -0.354 N 
ATOM     44  C   UNL A   1      39.695  32.473  33.944  1.00  0.00     0.074 A 
ATOM     45  C   UNL A   1      38.673  33.496  33.915  1.00  0.00     0.031 C 
ATOM     46  C   UNL A   1      38.949  29.520  28.282  1.00  0.00     0.029 A 
ATOM     47  C   UNL A   1      39.956  29.245  29.302  1.00  0.00     0.049 A 
ATOM     48  H   UNL A   1      40.159  30.159  31.164  1.00  0.00     0.167 HD
ATOM     49  C   UNL A   1      40.569  32.298  34.964  1.00  0.00     0.034 A 
ATOM     50  C   UNL A   1      40.937  28.328  29.202  1.00  0.00     0.034 A 
ATOM     51  C   UNL A   1      41.560  31.256  35.006  1.00  0.00     0.049 A 
ATOM     52  C   UNL A   1      41.855  28.117  30.376  1.00  0.00     0.074 A 
ATOM     53  C   UNL A   1      42.452  30.954  36.020  1.00  0.00     0.029 A 
ATOM     54  N   UNL A   1      41.788  30.341  33.989  1.00  0.00    -0.354 N 
ATOM     55  N   UNL A   1      41.862  28.724  31.539  1.00  0.00    -0.248 NA
ATOM     56  C   UNL A   1      42.869  27.062  30.243  1.00  0.00     0.031 C 
ATOM     57  C   UNL A   1      43.225  29.860  35.613  1.00  0.00     0.029 A 
ATOM     58  C   UNL A   1      42.804  29.473  34.351  1.00  0.00     0.049 A 
ATOM     59  H   UNL A   1      41.300  30.313  33.135  1.00  0.00     0.167 HD
ATOM     60  C   UNL A   1      42.858  28.106  32.284  1.00  0.00     0.074 A 
ATOM     61  C   UNL A   1      43.407  27.052  31.455  1.00  0.00     0.031 C 
ATOM     62  C   UNL A   1      43.300  28.397  33.533  1.00  0.00     0.034 A 
BRANCH  49  63
ATOM     63  C   UNL A   1      40.444  33.205  36.161  1.00  0.00     0.023 A 
ATOM     64  C   UNL A   1      41.058  34.474  36.126  1.00  0.00     0.012 A 
ATOM     65  C   UNL A   1      39.664  32.845  37.278  1.00  0.00     0.148 A 
ATOM     66  C   UNL A   1      40.917  35.363  37.191  1.00  0.00     0.002 A 
ATOM     67  C   UNL A   1      39.496  33.752  38.319  1.00  0.00     0.091 A 
ATOM     68  F   UNL A   1      39.103  31.628  37.301  1.00  0.00    -0.205 F 
ATOM     69  C   UNL A   1      40.129  35.006  38.280  1.00  0.00     0.022 A 
BRANCH  67  70
ATOM     70  S   UNL A   1      38.442  33.421  39.736  1.00  0.00     0.127 S 
ATOM     71  O   UNL A   1      38.506  34.698  40.454  1.00  0.00    -0.237 OA
ATOM     72  O   UNL A   1      37.151  33.148  39.099  1.00  0.00    -0.237 OA
ATOM     73  O   UNL A   1      39.034  32.291  40.427  1.00  0.00    -0.744 OA
ENDBRANCH  67  70
ENDBRANCH  49  63
BRANCH  50  74
ATOM     74  C   UNL A   1      41.052  27.480  27.981  1.00  0.00     0.023 A 
ATOM     75  C   UNL A   1      41.680  28.001  26.833  1.00  0.00     0.012 A 
ATOM     76  C   UNL A   1      40.555  26.163  27.953  1.00  0.00     0.148 A 
ATOM     77  C   UNL A   1      41.771  27.242  25.665  1.00  0.00     0.002 A 
ATOM     78  C   UNL A   1      40.702  25.392  26.806  1.00  0.00     0.091 A 
ATOM     79  F   UNL A   1      39.946  25.686  29.048  1.00  0.00    -0.205 F 
ATOM     80  C   UNL A   1      41.291  25.934  25.654  1.00  0.00     0.022 A 
BRANCH  78  81
ATOM     81  S   UNL A   1      40.235  23.658  26.766  1.00  0.00     0.127 S 
ATOM     82  O   UNL A   1      38.840  23.730  26.343  1.00  0.00    -0.237 OA
ATOM     83  O   UNL A   1      41.155  23.110  25.769  1.00  0.00    -0.237 OA
ATOM     84  O   UNL A   1      40.471  23.170  28.120  1.00  0.00    -0.744 OA
ENDBRANCH  78  81
ENDBRANCH  50  74
BRANCH  62  85
ATOM     85  C   UNL A   1      44.419  27.553  34.082  1.00  0.00     0.023 A 
ATOM     86  C   UNL A   1      45.751  27.998  33.959  1.00  0.00     0.012 A 
ATOM     87  C   UNL A   1      44.153  26.343  34.753  1.00  0.00     0.148 A 
ATOM     88  C   UNL A   1      46.803  27.232  34.457  1.00  0.00     0.002 A 
ATOM     89  C   UNL A   1      45.204  25.607  35.287  1.00  0.00     0.091 A 
ATOM     90  F   UNL A   1      42.882  25.923  34.841  1.00  0.00    -0.205 F 
ATOM     91  C   UNL A   1      46.530  26.043  35.129  1.00  0.00     0.022 A 
BRANCH  89  92
ATOM     92  S   UNL A   1      44.932  24.113  36.246  1.00  0.00     0.127 S 
ATOM     93  O   UNL A   1      46.261  23.505  36.236  1.00  0.00    -0.237 OA
ATOM     94  O   UNL A   1      44.513  24.644  37.544  1.00  0.00    -0.237 OA
ATOM     95  O   UNL A   1      43.894  23.375  35.539  1.00  0.00    -0.744 OA
ENDBRANCH  89  92
ENDBRANCH  62  85
ENDBRANCH  36  37
ENDBRANCH  28  31
ENDBRANCH  26  27
ENDBRANCH  25  26
ENDBRANCH  24  25
ENDBRANCH   1  24
TORSDOF 20
ENDMDL
