MODEL 1
REMARK VINA RESULT:     -11.8      0.000      0.000
REMARK SMILES O=C(NCCCCCCNC(=O)c1ccccc1C(=O)OC[C@@H]1C[C@H]2CC[C@@H]1C2)c1ccc(-c2c3nc(c(-c4cccc(S(=O)(=O)[O-])c4F)c4ccc([nH]4)c(-c4cccc(S(=O)(=O)[O-])c4F)c4nc(c(-c5cccc(S(=O)(=O)[O-])c5F)c5ccc2[nH]5)C=C4)C=C3)cc1
REMARK SMILES IDX 7 1 6 2 5 3 4 4 3 5 1 6 2 7 30 9 31 10 92 11 32 12 91 13
REMARK SMILES IDX 33 14 34 15 35 16 85 17 36 18 90 19 84 20 86 21 37 22 89 23
REMARK SMILES IDX 83 24 82 25 38 27 70 28 50 29 69 30 51 31 54 32 68 33 87 34
REMARK SMILES IDX 52 35 53 36 67 38 88 39 55 40 39 41 40 42 48 43 41 44 43 45
REMARK SMILES IDX 49 46 42 47 44 48 45 49 46 50 47 51 71 52 72 53 80 54 73 55
REMARK SMILES IDX 75 56 81 57 74 58 76 59 77 60 78 61 79 62 56 63 57 64 65 65
REMARK SMILES IDX 58 66 60 67 66 68 59 69 61 70 62 71 63 72 64 73 8 74 9 75
REMARK SMILES IDX 10 76 11 77 12 79 13 80 14 81 18 82 15 83 17 84 16 85 19 86
REMARK SMILES IDX 20 87 21 88 22 89 23 90 24 91 28 92 25 93 27 94 29 95 26 96
REMARK H PARENT 3 8 86 26 54 37 10 78
REMARK Flexibility Score: inf
ROOT
ATOM      1  C   UNL A   1      33.564  27.823  22.129  1.00  0.00     0.002 C 
ENDROOT
BRANCH   1   2
ATOM      2  C   UNL A   1      33.489  27.995  23.648  1.00  0.00     0.002 C 
BRANCH   2   3
ATOM      3  C   UNL A   1      32.932  29.320  24.163  1.00  0.00     0.021 C 
BRANCH   3   4
ATOM      4  C   UNL A   1      32.738  29.418  25.670  1.00  0.00     0.116 C 
BRANCH   4   5
ATOM      5  N   UNL A   1      32.336  30.739  26.122  1.00  0.00    -0.352 N 
ATOM      6  O   UNL A   1      32.432  32.629  27.346  1.00  0.00    -0.269 OA
ATOM      7  C   UNL A   1      32.968  31.575  27.016  1.00  0.00     0.251 C 
ATOM      8  H   UNL A   1      31.498  31.083  25.737  1.00  0.00     0.163 HD
BRANCH   7   9
ATOM      9  C   UNL A   1      34.265  31.174  27.608  1.00  0.00     0.039 A 
ATOM     10  C   UNL A   1      34.496  29.857  28.010  1.00  0.00     0.014 A 
ATOM     11  C   UNL A   1      35.259  32.142  27.787  1.00  0.00     0.014 A 
ATOM     12  C   UNL A   1      35.638  29.547  28.740  1.00  0.00     0.010 A 
ATOM     13  C   UNL A   1      36.449  31.804  28.440  1.00  0.00     0.010 A 
ATOM     14  C   UNL A   1      36.631  30.516  28.963  1.00  0.00    -0.014 A 
BRANCH  14  15
ATOM     15  C   UNL A   1      37.861  30.136  29.708  1.00  0.00     0.031 A 
ATOM     16  C   UNL A   1      38.100  30.602  31.120  1.00  0.00     0.074 A 
ATOM     17  C   UNL A   1      38.765  29.343  29.100  1.00  0.00     0.049 A 
ATOM     18  N   UNL A   1      39.089  30.305  31.926  1.00  0.00    -0.248 NA
ATOM     19  C   UNL A   1      37.115  31.526  31.703  1.00  0.00     0.031 C 
ATOM     20  C   UNL A   1      38.669  28.866  27.718  1.00  0.00     0.029 A 
ATOM     21  N   UNL A   1      39.930  28.786  29.562  1.00  0.00    -0.354 N 
ATOM     22  C   UNL A   1      38.873  31.038  33.087  1.00  0.00     0.074 A 
ATOM     23  C   UNL A   1      37.660  31.799  32.881  1.00  0.00     0.031 C 
ATOM     24  C   UNL A   1      39.705  28.056  27.458  1.00  0.00     0.029 A 
ATOM     25  C   UNL A   1      40.563  27.991  28.635  1.00  0.00     0.049 A 
ATOM     26  H   UNL A   1      40.280  28.940  30.468  1.00  0.00     0.167 HD
ATOM     27  C   UNL A   1      39.609  31.063  34.225  1.00  0.00     0.034 A 
ATOM     28  C   UNL A   1      41.710  27.288  28.718  1.00  0.00     0.034 A 
ATOM     29  C   UNL A   1      40.786  30.262  34.445  1.00  0.00     0.049 A 
ATOM     30  C   UNL A   1      42.475  27.296  30.009  1.00  0.00     0.074 A 
ATOM     31  C   UNL A   1      41.551  30.156  35.594  1.00  0.00     0.029 A 
ATOM     32  N   UNL A   1      41.371  29.435  33.499  1.00  0.00    -0.354 N 
ATOM     33  N   UNL A   1      42.176  27.884  31.142  1.00  0.00    -0.248 NA
ATOM     34  C   UNL A   1      43.722  26.520  30.044  1.00  0.00     0.031 C 
ATOM     35  C   UNL A   1      42.609  29.277  35.335  1.00  0.00     0.029 A 
ATOM     36  C   UNL A   1      42.492  28.821  34.032  1.00  0.00     0.049 A 
ATOM     37  H   UNL A   1      41.037  29.303  32.581  1.00  0.00     0.167 HD
ATOM     38  C   UNL A   1      43.181  27.529  32.032  1.00  0.00     0.074 A 
ATOM     39  C   UNL A   1      44.083  26.651  31.314  1.00  0.00     0.031 C 
ATOM     40  C   UNL A   1      43.352  27.911  33.321  1.00  0.00     0.034 A 
BRANCH  27  41
ATOM     41  C   UNL A   1      39.144  31.956  35.347  1.00  0.00     0.023 A 
ATOM     42  C   UNL A   1      38.223  31.464  36.294  1.00  0.00     0.012 A 
ATOM     43  C   UNL A   1      39.670  33.254  35.506  1.00  0.00     0.148 A 
ATOM     44  C   UNL A   1      37.812  32.259  37.365  1.00  0.00     0.002 A 
ATOM     45  C   UNL A   1      39.286  34.026  36.597  1.00  0.00     0.091 A 
ATOM     46  F   UNL A   1      40.528  33.714  34.584  1.00  0.00    -0.205 F 
ATOM     47  C   UNL A   1      38.351  33.534  37.522  1.00  0.00     0.022 A 
BRANCH  45  48
ATOM     48  S   UNL A   1      39.983  35.649  36.923  1.00  0.00     0.127 S 
ATOM     49  O   UNL A   1      39.325  36.007  38.179  1.00  0.00    -0.237 OA
ATOM     50  O   UNL A   1      41.411  35.356  37.047  1.00  0.00    -0.237 OA
ATOM     51  O   UNL A   1      39.634  36.470  35.771  1.00  0.00    -0.744 OA
ENDBRANCH  45  48
ENDBRANCH  27  41
BRANCH  28  52
ATOM     52  C   UNL A   1      42.153  26.462  27.560  1.00  0.00     0.023 A 
ATOM     53  C   UNL A   1      42.982  27.038  26.580  1.00  0.00     0.012 A 
ATOM     54  C   UNL A   1      41.808  25.101  27.455  1.00  0.00     0.148 A 
ATOM     55  C   UNL A   1      43.442  26.281  25.503  1.00  0.00     0.002 A 
ATOM     56  C   UNL A   1      42.317  24.337  26.413  1.00  0.00     0.091 A 
ATOM     57  F   UNL A   1      41.002  24.575  28.389  1.00  0.00    -0.205 F 
ATOM     58  C   UNL A   1      43.120  24.927  25.427  1.00  0.00     0.022 A 
BRANCH  56  59
ATOM     59  S   UNL A   1      42.072  22.559  26.323  1.00  0.00     0.127 S 
ATOM     60  O   UNL A   1      42.756  22.224  25.078  1.00  0.00    -0.237 OA
ATOM     61  O   UNL A   1      42.742  22.097  27.540  1.00  0.00    -0.237 OA
ATOM     62  O   UNL A   1      40.627  22.367  26.329  1.00  0.00    -0.744 OA
ENDBRANCH  56  59
ENDBRANCH  28  52
BRANCH  40  63
ATOM     63  C   UNL A   1      44.550  27.360  34.051  1.00  0.00     0.023 A 
ATOM     64  C   UNL A   1      45.774  28.055  34.002  1.00  0.00     0.012 A 
ATOM     65  C   UNL A   1      44.447  26.190  34.828  1.00  0.00     0.148 A 
ATOM     66  C   UNL A   1      46.889  27.573  34.687  1.00  0.00     0.002 A 
ATOM     67  C   UNL A   1      45.550  25.742  35.544  1.00  0.00     0.091 A 
ATOM     68  F   UNL A   1      43.280  25.530  34.843  1.00  0.00    -0.205 F 
ATOM     69  C   UNL A   1      46.774  26.425  35.467  1.00  0.00     0.022 A 
BRANCH  67  70
ATOM     70  S   UNL A   1      45.459  24.323  36.643  1.00  0.00     0.127 S 
ATOM     71  O   UNL A   1      44.515  24.790  37.657  1.00  0.00    -0.237 OA
ATOM     72  O   UNL A   1      44.939  23.275  35.764  1.00  0.00    -0.237 OA
ATOM     73  O   UNL A   1      46.821  24.096  37.107  1.00  0.00    -0.744 OA
ENDBRANCH  67  70
ENDBRANCH  40  63
ENDBRANCH  14  15
ENDBRANCH   7   9
ENDBRANCH   4   5
ENDBRANCH   3   4
ENDBRANCH   2   3
ENDBRANCH   1   2
BRANCH   1  74
ATOM     74  C   UNL A   1      32.972  26.536  21.535  1.00  0.00     0.021 C 
BRANCH  74  75
ATOM     75  C   UNL A   1      32.096  25.701  22.465  1.00  0.00     0.116 C 
BRANCH  75  76
ATOM     76  N   UNL A   1      32.028  24.303  22.086  1.00  0.00    -0.352 N 
ATOM     77  C   UNL A   1      32.536  23.199  22.723  1.00  0.00     0.252 C 
ATOM     78  H   UNL A   1      31.547  24.118  21.248  1.00  0.00     0.163 HD
ATOM     79  O   UNL A   1      32.382  22.085  22.226  1.00  0.00    -0.269 OA
BRANCH  77  80
ATOM     80  C   UNL A   1      33.343  23.322  23.953  1.00  0.00     0.054 A 
ATOM     81  C   UNL A   1      34.601  23.933  23.799  1.00  0.00     0.015 A 
ATOM     82  C   UNL A   1      32.961  22.844  25.212  1.00  0.00     0.072 A 
ATOM     83  C   UNL A   1      35.451  24.101  24.893  1.00  0.00     0.001 A 
ATOM     84  C   UNL A   1      33.819  23.030  26.311  1.00  0.00     0.016 A 
ATOM     85  C   UNL A   1      35.058  23.654  26.151  1.00  0.00     0.001 A 
BRANCH  82  86
ATOM     86  C   UNL A   1      31.675  22.179  25.495  1.00  0.00     0.338 C 
ATOM     87  O   UNL A   1      30.675  22.809  25.799  1.00  0.00    -0.246 OA
BRANCH  86  88
ATOM     88  O   UNL A   1      31.781  20.835  25.389  1.00  0.00    -0.462 OA
BRANCH  88  89
ATOM     89  C   UNL A   1      33.049  20.273  25.756  1.00  0.00     0.237 C 
BRANCH  89  90
ATOM     90  C   UNL A   1      33.611  19.322  24.697  1.00  0.00     0.030 C 
ATOM     91  C   UNL A   1      32.662  19.054  23.509  1.00  0.00     0.011 C 
ATOM     92  C   UNL A   1      33.884  17.893  25.228  1.00  0.00    -0.004 C 
ATOM     93  C   UNL A   1      32.582  17.517  23.466  1.00  0.00    -0.010 C 
ATOM     94  C   UNL A   1      34.837  17.195  24.236  1.00  0.00     0.004 C 
ATOM     95  C   UNL A   1      32.576  17.154  24.949  1.00  0.00     0.007 C 
ATOM     96  C   UNL A   1      33.939  16.958  23.011  1.00  0.00     0.004 C 
ENDBRANCH  89  90
ENDBRANCH  88  89
ENDBRANCH  86  88
ENDBRANCH  82  86
ENDBRANCH  77  80
ENDBRANCH  75  76
ENDBRANCH  74  75
ENDBRANCH   1  74
TORSDOF 20
ENDMDL
MODEL 2
REMARK VINA RESULT:     -11.7      5.086     10.435
REMARK SMILES O=C(NCCCCCCNC(=O)c1ccccc1C(=O)OC[C@@H]1C[C@H]2CC[C@@H]1C2)c1ccc(-c2c3nc(c(-c4cccc(S(=O)(=O)[O-])c4F)c4ccc([nH]4)c(-c4cccc(S(=O)(=O)[O-])c4F)c4nc(c(-c5cccc(S(=O)(=O)[O-])c5F)c5ccc2[nH]5)C=C4)C=C3)cc1
REMARK SMILES IDX 7 1 6 2 5 3 4 4 3 5 1 6 2 7 30 9 31 10 92 11 32 12 91 13
REMARK SMILES IDX 33 14 34 15 35 16 85 17 36 18 90 19 84 20 86 21 37 22 89 23
REMARK SMILES IDX 83 24 82 25 38 27 70 28 50 29 69 30 51 31 54 32 68 33 87 34
REMARK SMILES IDX 52 35 53 36 67 38 88 39 55 40 39 41 40 42 48 43 41 44 43 45
REMARK SMILES IDX 49 46 42 47 44 48 45 49 46 50 47 51 71 52 72 53 80 54 73 55
REMARK SMILES IDX 75 56 81 57 74 58 76 59 77 60 78 61 79 62 56 63 57 64 65 65
REMARK SMILES IDX 58 66 60 67 66 68 59 69 61 70 62 71 63 72 64 73 8 74 9 75
REMARK SMILES IDX 10 76 11 77 12 79 13 80 14 81 18 82 15 83 17 84 16 85 19 86
REMARK SMILES IDX 20 87 21 88 22 89 23 90 24 91 28 92 25 93 27 94 29 95 26 96
REMARK H PARENT 3 8 86 26 54 37 10 78
REMARK Flexibility Score: inf
ROOT
ATOM      1  C   UNL A   1      33.417  21.867  25.141  1.00  0.00     0.002 C 
ENDROOT
BRANCH   1   2
ATOM      2  C   UNL A   1      34.811  22.497  25.196  1.00  0.00     0.002 C 
BRANCH   2   3
ATOM      3  C   UNL A   1      35.901  21.827  24.361  1.00  0.00     0.021 C 
BRANCH   3   4
ATOM      4  C   UNL A   1      37.334  22.187  24.729  1.00  0.00     0.116 C 
BRANCH   4   5
ATOM      5  N   UNL A   1      38.093  21.075  25.275  1.00  0.00    -0.352 N 
ATOM      6  O   UNL A   1      39.750  20.055  26.413  1.00  0.00    -0.269 OA
ATOM      7  C   UNL A   1      39.178  21.102  26.122  1.00  0.00     0.251 C 
ATOM      8  H   UNL A   1      37.789  20.178  25.001  1.00  0.00     0.163 HD
BRANCH   7   9
ATOM      9  C   UNL A   1      39.677  22.398  26.637  1.00  0.00     0.039 A 
ATOM     10  C   UNL A   1      39.168  23.606  26.156  1.00  0.00     0.014 A 
ATOM     11  C   UNL A   1      40.691  22.403  27.600  1.00  0.00     0.014 A 
ATOM     12  C   UNL A   1      39.784  24.803  26.505  1.00  0.00     0.010 A 
ATOM     13  C   UNL A   1      41.246  23.616  28.020  1.00  0.00     0.010 A 
ATOM     14  C   UNL A   1      40.830  24.825  27.442  1.00  0.00    -0.014 A 
BRANCH  14  15
ATOM     15  C   UNL A   1      41.434  26.129  27.827  1.00  0.00     0.031 A 
ATOM     16  C   UNL A   1      42.827  26.506  27.398  1.00  0.00     0.074 A 
ATOM     17  C   UNL A   1      40.700  26.989  28.560  1.00  0.00     0.049 A 
ATOM     18  N   UNL A   1      43.470  27.630  27.595  1.00  0.00    -0.248 NA
ATOM     19  C   UNL A   1      43.605  25.497  26.662  1.00  0.00     0.031 C 
ATOM     20  C   UNL A   1      39.356  26.718  29.078  1.00  0.00     0.029 A 
ATOM     21  N   UNL A   1      40.968  28.265  28.988  1.00  0.00    -0.354 N 
ATOM     22  C   UNL A   1      44.738  27.448  27.056  1.00  0.00     0.074 A 
ATOM     23  C   UNL A   1      44.777  26.102  26.524  1.00  0.00     0.031 C 
ATOM     24  C   UNL A   1      38.900  27.806  29.713  1.00  0.00     0.029 A 
ATOM     25  C   UNL A   1      39.933  28.835  29.692  1.00  0.00     0.049 A 
ATOM     26  H   UNL A   1      41.817  28.727  28.808  1.00  0.00     0.167 HD
ATOM     27  C   UNL A   1      45.769  28.326  26.994  1.00  0.00     0.034 A 
ATOM     28  C   UNL A   1      39.825  30.052  30.261  1.00  0.00     0.034 A 
ATOM     29  C   UNL A   1      45.708  29.681  27.476  1.00  0.00     0.049 A 
ATOM     30  C   UNL A   1      40.965  31.019  30.132  1.00  0.00     0.074 A 
ATOM     31  C   UNL A   1      46.671  30.671  27.385  1.00  0.00     0.029 A 
ATOM     32  N   UNL A   1      44.627  30.237  28.143  1.00  0.00    -0.354 N 
ATOM     33  N   UNL A   1      42.101  30.874  29.493  1.00  0.00    -0.248 NA
ATOM     34  C   UNL A   1      40.800  32.328  30.778  1.00  0.00     0.031 C 
ATOM     35  C   UNL A   1      46.178  31.821  28.012  1.00  0.00     0.029 A 
ATOM     36  C   UNL A   1      44.901  31.553  28.478  1.00  0.00     0.049 A 
ATOM     37  H   UNL A   1      43.786  29.766  28.349  1.00  0.00     0.167 HD
ATOM     38  C   UNL A   1      42.774  32.081  29.636  1.00  0.00     0.074 A 
ATOM     39  C   UNL A   1      41.906  32.955  30.399  1.00  0.00     0.031 C 
ATOM     40  C   UNL A   1      44.007  32.427  29.193  1.00  0.00     0.034 A 
BRANCH  27  41
ATOM     41  C   UNL A   1      47.050  27.866  26.345  1.00  0.00     0.023 A 
ATOM     42  C   UNL A   1      48.054  27.264  27.132  1.00  0.00     0.012 A 
ATOM     43  C   UNL A   1      47.232  27.963  24.951  1.00  0.00     0.148 A 
ATOM     44  C   UNL A   1      49.229  26.793  26.546  1.00  0.00     0.002 A 
ATOM     45  C   UNL A   1      48.389  27.455  24.369  1.00  0.00     0.091 A 
ATOM     46  F   UNL A   1      46.278  28.557  24.221  1.00  0.00    -0.205 F 
ATOM     47  C   UNL A   1      49.392  26.879  25.165  1.00  0.00     0.022 A 
BRANCH  45  48
ATOM     48  S   UNL A   1      48.653  27.453  22.592  1.00  0.00     0.127 S 
ATOM     49  O   UNL A   1      47.516  28.245  22.123  1.00  0.00    -0.237 OA
ATOM     50  O   UNL A   1      49.950  28.118  22.468  1.00  0.00    -0.237 OA
ATOM     51  O   UNL A   1      48.654  26.052  22.192  1.00  0.00    -0.744 OA
ENDBRANCH  45  48
ENDBRANCH  27  41
BRANCH  28  52
ATOM     52  C   UNL A   1      38.555  30.439  30.937  1.00  0.00     0.023 A 
ATOM     53  C   UNL A   1      38.381  30.137  32.301  1.00  0.00     0.012 A 
ATOM     54  C   UNL A   1      37.549  31.150  30.257  1.00  0.00     0.148 A 
ATOM     55  C   UNL A   1      37.218  30.516  32.970  1.00  0.00     0.002 A 
ATOM     56  C   UNL A   1      36.419  31.577  30.943  1.00  0.00     0.091 A 
ATOM     57  F   UNL A   1      37.724  31.413  28.954  1.00  0.00    -0.205 F 
ATOM     58  C   UNL A   1      36.244  31.248  32.295  1.00  0.00     0.022 A 
BRANCH  56  59
ATOM     59  S   UNL A   1      35.190  32.647  30.188  1.00  0.00     0.127 S 
ATOM     60  O   UNL A   1      34.285  32.901  31.305  1.00  0.00    -0.237 OA
ATOM     61  O   UNL A   1      35.998  33.796  29.774  1.00  0.00    -0.237 OA
ATOM     62  O   UNL A   1      34.636  31.880  29.080  1.00  0.00    -0.744 OA
ENDBRANCH  56  59
ENDBRANCH  28  52
BRANCH  40  63
ATOM     63  C   UNL A   1      44.485  33.823  29.500  1.00  0.00     0.023 A 
ATOM     64  C   UNL A   1      45.337  34.041  30.600  1.00  0.00     0.012 A 
ATOM     65  C   UNL A   1      44.136  34.905  28.668  1.00  0.00     0.148 A 
ATOM     66  C   UNL A   1      45.806  35.321  30.889  1.00  0.00     0.002 A 
ATOM     67  C   UNL A   1      44.644  36.170  28.936  1.00  0.00     0.091 A 
ATOM     68  F   UNL A   1      43.304  34.682  27.639  1.00  0.00    -0.205 F 
ATOM     69  C   UNL A   1      45.470  36.383  30.051  1.00  0.00     0.022 A 
BRANCH  67  70
ATOM     70  S   UNL A   1      44.333  37.570  27.854  1.00  0.00     0.127 S 
ATOM     71  O   UNL A   1      43.020  38.019  28.316  1.00  0.00    -0.237 OA
ATOM     72  O   UNL A   1      45.436  38.474  28.182  1.00  0.00    -0.237 OA
ATOM     73  O   UNL A   1      44.377  37.038  26.499  1.00  0.00    -0.744 OA
ENDBRANCH  67  70
ENDBRANCH  40  63
ENDBRANCH  14  15
ENDBRANCH   7   9
ENDBRANCH   4   5
ENDBRANCH   3   4
ENDBRANCH   2   3
ENDBRANCH   1   2
BRANCH   1  74
ATOM     74  C   UNL A   1      32.833  21.567  23.752  1.00  0.00     0.021 C 
BRANCH  74  75
ATOM     75  C   UNL A   1      32.744  22.745  22.786  1.00  0.00     0.116 C 
BRANCH  75  76
ATOM     76  N   UNL A   1      31.435  23.368  22.759  1.00  0.00    -0.352 N 
ATOM     77  C   UNL A   1      31.003  24.522  23.360  1.00  0.00     0.252 C 
ATOM     78  H   UNL A   1      30.755  22.892  22.230  1.00  0.00     0.163 HD
ATOM     79  O   UNL A   1      29.834  24.877  23.226  1.00  0.00    -0.269 OA
BRANCH  77  80
ATOM     80  C   UNL A   1      31.887  25.308  24.244  1.00  0.00     0.054 A 
ATOM     81  C   UNL A   1      31.946  24.881  25.583  1.00  0.00     0.015 A 
ATOM     82  C   UNL A   1      32.610  26.439  23.850  1.00  0.00     0.072 A 
ATOM     83  C   UNL A   1      32.748  25.551  26.509  1.00  0.00     0.001 A 
ATOM     84  C   UNL A   1      33.426  27.099  24.787  1.00  0.00     0.016 A 
ATOM     85  C   UNL A   1      33.493  26.657  26.111  1.00  0.00     0.001 A 
BRANCH  82  86
ATOM     86  C   UNL A   1      32.621  26.986  22.480  1.00  0.00     0.338 C 
ATOM     87  O   UNL A   1      33.265  26.469  21.582  1.00  0.00    -0.246 OA
BRANCH  86  88
ATOM     88  O   UNL A   1      31.860  28.100  22.388  1.00  0.00    -0.462 OA
BRANCH  88  89
ATOM     89  C   UNL A   1      30.445  27.889  22.273  1.00  0.00     0.237 C 
BRANCH  89  90
ATOM     90  C   UNL A   1      29.620  28.949  23.006  1.00  0.00     0.030 C 
ATOM     91  C   UNL A   1      28.117  28.619  23.126  1.00  0.00     0.011 C 
ATOM     92  C   UNL A   1      29.599  30.322  22.290  1.00  0.00    -0.004 C 
ATOM     93  C   UNL A   1      27.436  29.871  22.543  1.00  0.00    -0.010 C 
ATOM     94  C   UNL A   1      29.142  31.380  23.315  1.00  0.00     0.004 C 
ATOM     95  C   UNL A   1      28.368  30.235  21.389  1.00  0.00     0.007 C 
ATOM     96  C   UNL A   1      27.652  31.051  23.504  1.00  0.00     0.004 C 
ENDBRANCH  89  90
ENDBRANCH  88  89
ENDBRANCH  86  88
ENDBRANCH  82  86
ENDBRANCH  77  80
ENDBRANCH  75  76
ENDBRANCH  74  75
ENDBRANCH   1  74
TORSDOF 20
ENDMDL
MODEL 3
REMARK VINA RESULT:     -11.6      3.437      8.880
REMARK SMILES O=C(NCCCCCCNC(=O)c1ccccc1C(=O)OC[C@@H]1C[C@H]2CC[C@@H]1C2)c1ccc(-c2c3nc(c(-c4cccc(S(=O)(=O)[O-])c4F)c4ccc([nH]4)c(-c4cccc(S(=O)(=O)[O-])c4F)c4nc(c(-c5cccc(S(=O)(=O)[O-])c5F)c5ccc2[nH]5)C=C4)C=C3)cc1
REMARK SMILES IDX 7 1 6 2 5 3 4 4 3 5 1 6 2 7 30 9 31 10 92 11 32 12 91 13
REMARK SMILES IDX 33 14 34 15 35 16 85 17 36 18 90 19 84 20 86 21 37 22 89 23
REMARK SMILES IDX 83 24 82 25 38 27 70 28 50 29 69 30 51 31 54 32 68 33 87 34
REMARK SMILES IDX 52 35 53 36 67 38 88 39 55 40 39 41 40 42 48 43 41 44 43 45
REMARK SMILES IDX 49 46 42 47 44 48 45 49 46 50 47 51 71 52 72 53 80 54 73 55
REMARK SMILES IDX 75 56 81 57 74 58 76 59 77 60 78 61 79 62 56 63 57 64 65 65
REMARK SMILES IDX 58 66 60 67 66 68 59 69 61 70 62 71 63 72 64 73 8 74 9 75
REMARK SMILES IDX 10 76 11 77 12 79 13 80 14 81 18 82 15 83 17 84 16 85 19 86
REMARK SMILES IDX 20 87 21 88 22 89 23 90 24 91 28 92 25 93 27 94 29 95 26 96
REMARK H PARENT 3 8 86 26 54 37 10 78
REMARK Flexibility Score: inf
ROOT
ATOM      1  C   UNL A   1      31.976  29.548  25.921  1.00  0.00     0.002 C 
ENDROOT
BRANCH   1   2
ATOM      2  C   UNL A   1      31.796  30.460  27.137  1.00  0.00     0.002 C 
BRANCH   2   3
ATOM      3  C   UNL A   1      31.532  31.937  26.857  1.00  0.00     0.021 C 
BRANCH   3   4
ATOM      4  C   UNL A   1      32.751  32.848  26.895  1.00  0.00     0.116 C 
BRANCH   4   5
ATOM      5  N   UNL A   1      32.526  34.094  27.609  1.00  0.00    -0.352 N 
ATOM      6  O   UNL A   1      32.799  35.630  29.235  1.00  0.00    -0.269 OA
ATOM      7  C   UNL A   1      33.186  34.591  28.710  1.00  0.00     0.251 C 
ATOM      8  H   UNL A   1      31.801  34.660  27.256  1.00  0.00     0.163 HD
BRANCH   7   9
ATOM      9  C   UNL A   1      34.330  33.841  29.282  1.00  0.00     0.039 A 
ATOM     10  C   UNL A   1      34.125  32.691  30.047  1.00  0.00     0.014 A 
ATOM     11  C   UNL A   1      35.628  34.315  29.069  1.00  0.00     0.014 A 
ATOM     12  C   UNL A   1      35.190  32.120  30.735  1.00  0.00     0.010 A 
ATOM     13  C   UNL A   1      36.710  33.681  29.688  1.00  0.00     0.010 A 
ATOM     14  C   UNL A   1      36.497  32.606  30.564  1.00  0.00    -0.014 A 
BRANCH  14  15
ATOM     15  C   UNL A   1      37.619  31.941  31.280  1.00  0.00     0.031 A 
ATOM     16  C   UNL A   1      38.440  30.862  30.625  1.00  0.00     0.074 A 
ATOM     17  C   UNL A   1      37.907  32.336  32.535  1.00  0.00     0.049 A 
ATOM     18  N   UNL A   1      39.489  30.233  31.090  1.00  0.00    -0.248 NA
ATOM     19  C   UNL A   1      38.031  30.423  29.281  1.00  0.00     0.031 C 
ATOM     20  C   UNL A   1      37.154  33.337  33.296  1.00  0.00     0.029 A 
ATOM     21  N   UNL A   1      38.911  31.959  33.390  1.00  0.00    -0.354 N 
ATOM     22  C   UNL A   1      39.835  29.295  30.125  1.00  0.00     0.074 A 
ATOM     23  C   UNL A   1      38.881  29.434  29.046  1.00  0.00     0.031 C 
ATOM     24  C   UNL A   1      37.746  33.527  34.483  1.00  0.00     0.029 A 
ATOM     25  C   UNL A   1      38.891  32.630  34.591  1.00  0.00     0.049 A 
ATOM     26  H   UNL A   1      39.582  31.275  33.167  1.00  0.00     0.167 HD
ATOM     27  C   UNL A   1      40.863  28.411  30.130  1.00  0.00     0.034 A 
ATOM     28  C   UNL A   1      39.700  32.534  35.663  1.00  0.00     0.034 A 
ATOM     29  C   UNL A   1      41.842  28.313  31.181  1.00  0.00     0.049 A 
ATOM     30  C   UNL A   1      40.859  31.582  35.618  1.00  0.00     0.074 A 
ATOM     31  C   UNL A   1      42.966  27.507  31.238  1.00  0.00     0.029 A 
ATOM     32  N   UNL A   1      41.814  29.041  32.361  1.00  0.00    -0.354 N 
ATOM     33  N   UNL A   1      41.250  30.806  34.636  1.00  0.00    -0.248 NA
ATOM     34  C   UNL A   1      41.705  31.510  36.816  1.00  0.00     0.031 C 
ATOM     35  C   UNL A   1      43.607  27.736  32.461  1.00  0.00     0.029 A 
ATOM     36  C   UNL A   1      42.893  28.698  33.158  1.00  0.00     0.049 A 
ATOM     37  H   UNL A   1      41.126  29.706  32.598  1.00  0.00     0.167 HD
ATOM     38  C   UNL A   1      42.403  30.175  35.087  1.00  0.00     0.074 A 
ATOM     39  C   UNL A   1      42.661  30.680  36.420  1.00  0.00     0.031 C 
ATOM     40  C   UNL A   1      43.167  29.246  34.461  1.00  0.00     0.034 A 
BRANCH  27  41
ATOM     41  C   UNL A   1      41.013  27.496  28.940  1.00  0.00     0.023 A 
ATOM     42  C   UNL A   1      40.150  26.391  28.796  1.00  0.00     0.012 A 
ATOM     43  C   UNL A   1      41.958  27.768  27.931  1.00  0.00     0.148 A 
ATOM     44  C   UNL A   1      40.243  25.557  27.683  1.00  0.00     0.002 A 
ATOM     45  C   UNL A   1      42.019  26.955  26.804  1.00  0.00     0.091 A 
ATOM     46  F   UNL A   1      42.787  28.810  28.094  1.00  0.00    -0.205 F 
ATOM     47  C   UNL A   1      41.169  25.844  26.683  1.00  0.00     0.022 A 
BRANCH  45  48
ATOM     48  S   UNL A   1      43.128  27.292  25.431  1.00  0.00     0.127 S 
ATOM     49  O   UNL A   1      42.342  28.239  24.642  1.00  0.00    -0.237 OA
ATOM     50  O   UNL A   1      44.289  27.875  26.103  1.00  0.00    -0.237 OA
ATOM     51  O   UNL A   1      43.381  26.003  24.800  1.00  0.00    -0.744 OA
ENDBRANCH  45  48
ENDBRANCH  27  41
BRANCH  28  52
ATOM     52  C   UNL A   1      39.477  33.425  36.837  1.00  0.00     0.023 A 
ATOM     53  C   UNL A   1      39.879  34.772  36.766  1.00  0.00     0.012 A 
ATOM     54  C   UNL A   1      38.822  32.963  37.994  1.00  0.00     0.148 A 
ATOM     55  C   UNL A   1      39.654  35.638  37.835  1.00  0.00     0.002 A 
ATOM     56  C   UNL A   1      38.547  33.845  39.032  1.00  0.00     0.091 A 
ATOM     57  F   UNL A   1      38.462  31.673  38.051  1.00  0.00    -0.205 F 
ATOM     58  C   UNL A   1      38.975  35.179  38.962  1.00  0.00     0.022 A 
BRANCH  56  59
ATOM     59  S   UNL A   1      37.551  33.371  40.450  1.00  0.00     0.127 S 
ATOM     60  O   UNL A   1      37.600  34.579  41.268  1.00  0.00    -0.237 OA
ATOM     61  O   UNL A   1      36.252  33.095  39.833  1.00  0.00    -0.237 OA
ATOM     62  O   UNL A   1      38.207  32.196  41.008  1.00  0.00    -0.744 OA
ENDBRANCH  56  59
ENDBRANCH  28  52
BRANCH  40  63
ATOM     63  C   UNL A   1      44.373  28.732  35.201  1.00  0.00     0.023 A 
ATOM     64  C   UNL A   1      45.635  29.309  34.962  1.00  0.00     0.012 A 
ATOM     65  C   UNL A   1      44.247  27.719  36.172  1.00  0.00     0.148 A 
ATOM     66  C   UNL A   1      46.761  28.861  35.652  1.00  0.00     0.002 A 
ATOM     67  C   UNL A   1      45.365  27.310  36.888  1.00  0.00     0.091 A 
ATOM     68  F   UNL A   1      43.041  27.165  36.369  1.00  0.00    -0.205 F 
ATOM     69  C   UNL A   1      46.625  27.871  36.623  1.00  0.00     0.022 A 
BRANCH  67  70
ATOM     70  S   UNL A   1      45.257  26.106  38.217  1.00  0.00     0.127 S 
ATOM     71  O   UNL A   1      44.306  26.746  39.124  1.00  0.00    -0.237 OA
ATOM     72  O   UNL A   1      44.740  24.921  37.529  1.00  0.00    -0.237 OA
ATOM     73  O   UNL A   1      46.614  25.958  38.727  1.00  0.00    -0.744 OA
ENDBRANCH  67  70
ENDBRANCH  40  63
ENDBRANCH  14  15
ENDBRANCH   7   9
ENDBRANCH   4   5
ENDBRANCH   3   4
ENDBRANCH   2   3
ENDBRANCH   1   2
BRANCH   1  74
ATOM     74  C   UNL A   1      33.413  29.268  25.456  1.00  0.00     0.021 C 
BRANCH  74  75
ATOM     75  C   UNL A   1      33.584  28.847  23.999  1.00  0.00     0.116 C 
BRANCH  75  76
ATOM     76  N   UNL A   1      34.213  27.550  23.847  1.00  0.00    -0.352 N 
ATOM     77  C   UNL A   1      33.685  26.296  24.021  1.00  0.00     0.252 C 
ATOM     78  H   UNL A   1      35.160  27.572  23.579  1.00  0.00     0.163 HD
ATOM     79  O   UNL A   1      34.397  25.308  23.855  1.00  0.00    -0.269 OA
BRANCH  77  80
ATOM     80  C   UNL A   1      32.299  26.102  24.491  1.00  0.00     0.054 A 
ATOM     81  C   UNL A   1      32.162  25.676  25.825  1.00  0.00     0.015 A 
ATOM     82  C   UNL A   1      31.156  26.269  23.701  1.00  0.00     0.072 A 
ATOM     83  C   UNL A   1      30.898  25.458  26.376  1.00  0.00     0.001 A 
ATOM     84  C   UNL A   1      29.886  26.060  24.270  1.00  0.00     0.016 A 
ATOM     85  C   UNL A   1      29.759  25.655  25.601  1.00  0.00     0.001 A 
BRANCH  82  86
ATOM     86  C   UNL A   1      31.173  26.702  22.291  1.00  0.00     0.338 C 
ATOM     87  O   UNL A   1      31.952  26.229  21.480  1.00  0.00    -0.246 OA
BRANCH  86  88
ATOM     88  O   UNL A   1      30.254  27.665  22.059  1.00  0.00    -0.462 OA
BRANCH  88  89
ATOM     89  C   UNL A   1      30.712  29.019  22.192  1.00  0.00     0.237 C 
BRANCH  89  90
ATOM     90  C   UNL A   1      29.757  29.898  23.002  1.00  0.00     0.030 C 
ATOM     91  C   UNL A   1      28.423  29.217  23.377  1.00  0.00     0.011 C 
ATOM     92  C   UNL A   1      29.278  31.159  22.240  1.00  0.00    -0.004 C 
ATOM     93  C   UNL A   1      27.366  30.208  22.858  1.00  0.00    -0.010 C 
ATOM     94  C   UNL A   1      28.718  32.152  23.279  1.00  0.00     0.004 C 
ATOM     95  C   UNL A   1      27.994  30.695  21.555  1.00  0.00     0.007 C 
ATOM     96  C   UNL A   1      27.407  31.480  23.720  1.00  0.00     0.004 C 
ENDBRANCH  89  90
ENDBRANCH  88  89
ENDBRANCH  86  88
ENDBRANCH  82  86
ENDBRANCH  77  80
ENDBRANCH  75  76
ENDBRANCH  74  75
ENDBRANCH   1  74
TORSDOF 20
ENDMDL
