MODEL 1
REMARK VINA RESULT:     -11.0      0.000      0.000
REMARK SMILES N#C/C(=C/c1cccc(OCC(=O)NCCCCCCNC(=O)c2ccc(-c3c4nc(c(-c5cccc(S(=O)(=O)[O-])c5F)c5ccc([nH]5)c(-c5cccc(S(=O)(=O)[O-])c5F)c5nc(c(-c6cccc(S(=O)(=O)[O-])c6F)c6ccc3[nH]6)C=C5)C=C4)cc2)c1)c1nc2ccccc2[nH]1
REMARK SMILES IDX 17 1 16 2 15 3 14 4 12 5 13 6 11 8 10 9 9 10 5 11 6 12 87 13
REMARK SMILES IDX 7 14 8 15 4 16 3 17 2 18 1 19 88 20 89 21 96 22 90 23 95 24
REMARK SMILES IDX 91 26 94 27 92 28 93 29 18 30 19 31 20 32 21 33 22 34 23 36
REMARK SMILES IDX 24 37 25 38 86 39 26 40 85 41 27 42 28 43 29 44 79 45 30 46
REMARK SMILES IDX 84 47 78 48 80 49 31 50 83 51 77 52 76 53 32 55 64 56 44 57
REMARK SMILES IDX 63 58 45 59 48 60 62 61 81 62 46 63 47 64 61 66 82 67 49 68
REMARK SMILES IDX 33 69 34 70 42 71 35 72 37 73 43 74 36 75 38 76 39 77 40 78
REMARK SMILES IDX 41 79 65 80 66 81 74 82 67 83 69 84 75 85 68 86 70 87 71 88
REMARK SMILES IDX 72 89 73 90 50 91 51 92 59 93 52 94 54 95 60 96 53 97 55 98
REMARK SMILES IDX 56 99 57 100 58 101
REMARK H PARENT 14 7 96 25 21 35 80 54 48 65
REMARK Flexibility Score: inf
ROOT
ATOM      1  C   UNL A   1      33.988  28.436  25.419  1.00  0.00     0.002 C 
ENDROOT
BRANCH   1   2
ATOM      2  C   UNL A   1      33.079  29.305  24.543  1.00  0.00     0.021 C 
BRANCH   2   3
ATOM      3  C   UNL A   1      33.065  28.976  23.050  1.00  0.00     0.116 C 
BRANCH   3   4
ATOM      4  N   UNL A   1      31.837  29.353  22.371  1.00  0.00    -0.353 N 
ATOM      5  C   UNL A   1      30.674  28.640  22.287  1.00  0.00     0.257 C 
ATOM      6  O   UNL A   1      29.645  29.179  21.868  1.00  0.00    -0.271 OA
ATOM      7  H   UNL A   1      31.843  30.228  21.918  1.00  0.00     0.163 HD
BRANCH   5   8
ATOM      8  C   UNL A   1      30.648  27.179  22.749  1.00  0.00     0.329 C 
BRANCH   8   9
ATOM      9  O   UNL A   1      30.104  26.931  24.035  1.00  0.00    -0.484 OA
BRANCH   9  10
ATOM     10  C   UNL A   1      30.745  26.038  24.849  1.00  0.00     0.120 A 
ATOM     11  C   UNL A   1      32.654  24.914  25.852  1.00  0.00    -0.021 A 
ATOM     12  C   UNL A   1      31.788  24.167  26.658  1.00  0.00     0.008 A 
ATOM     13  C   UNL A   1      32.123  25.829  24.930  1.00  0.00     0.054 A 
ATOM     14  C   UNL A   1      30.410  24.354  26.562  1.00  0.00     0.004 A 
ATOM     15  C   UNL A   1      29.893  25.288  25.664  1.00  0.00     0.046 A 
BRANCH  11  16
ATOM     16  C   UNL A   1      34.107  24.709  25.969  1.00  0.00     0.031 C 
ATOM     17  C   UNL A   1      34.772  23.575  25.678  1.00  0.00     0.095 C 
BRANCH  17  18
ATOM     18  C   UNL A   1      36.280  23.509  25.855  1.00  0.00     0.103 C 
ATOM     19  N   UNL A   1      37.531  23.454  26.002  1.00  0.00    -0.192 NA
ENDBRANCH  17  18
BRANCH  17  20
ATOM     20  C   UNL A   1      34.139  22.424  25.136  1.00  0.00     0.149 A 
ATOM     21  N   UNL A   1      33.570  22.224  23.962  1.00  0.00    -0.228 NA
ATOM     22  N   UNL A   1      34.105  21.271  25.890  1.00  0.00    -0.337 N 
ATOM     23  C   UNL A   1      33.136  20.921  23.974  1.00  0.00     0.089 A 
ATOM     24  C   UNL A   1      33.456  20.301  25.173  1.00  0.00     0.066 A 
ATOM     25  H   UNL A   1      34.484  21.164  26.793  1.00  0.00     0.168 HD
ATOM     26  C   UNL A   1      32.445  20.192  22.997  1.00  0.00     0.030 A 
ATOM     27  C   UNL A   1      33.102  18.984  25.480  1.00  0.00     0.028 A 
ATOM     28  C   UNL A   1      32.057  18.876  23.285  1.00  0.00     0.002 A 
ATOM     29  C   UNL A   1      32.376  18.287  24.510  1.00  0.00     0.002 A 
ENDBRANCH  17  20
ENDBRANCH  11  16
ENDBRANCH   9  10
ENDBRANCH   8   9
ENDBRANCH   5   8
ENDBRANCH   3   4
ENDBRANCH   2   3
ENDBRANCH   1   2
BRANCH   1  30
ATOM     30  C   UNL A   1      33.999  28.739  26.919  1.00  0.00     0.002 C 
BRANCH  30  31
ATOM     31  C   UNL A   1      33.329  30.050  27.327  1.00  0.00     0.021 C 
BRANCH  31  32
ATOM     32  C   UNL A   1      34.263  31.252  27.408  1.00  0.00     0.116 C 
BRANCH  32  33
ATOM     33  N   UNL A   1      34.031  32.101  28.572  1.00  0.00    -0.352 N 
ATOM     34  C   UNL A   1      34.808  32.218  29.702  1.00  0.00     0.251 C 
ATOM     35  H   UNL A   1      33.220  32.659  28.546  1.00  0.00     0.163 HD
ATOM     36  O   UNL A   1      34.451  32.916  30.646  1.00  0.00    -0.269 OA
BRANCH  34  37
ATOM     37  C   UNL A   1      36.065  31.446  29.773  1.00  0.00     0.039 A 
ATOM     38  C   UNL A   1      37.235  31.996  29.244  1.00  0.00     0.014 A 
ATOM     39  C   UNL A   1      36.096  30.230  30.458  1.00  0.00     0.014 A 
ATOM     40  C   UNL A   1      38.456  31.363  29.478  1.00  0.00     0.010 A 
ATOM     41  C   UNL A   1      37.320  29.646  30.758  1.00  0.00     0.010 A 
ATOM     42  C   UNL A   1      38.512  30.207  30.276  1.00  0.00    -0.014 A 
BRANCH  42  43
ATOM     43  C   UNL A   1      39.806  29.572  30.637  1.00  0.00     0.031 A 
ATOM     44  C   UNL A   1      40.622  30.129  31.771  1.00  0.00     0.074 A 
ATOM     45  C   UNL A   1      40.297  28.577  29.872  1.00  0.00     0.049 A 
ATOM     46  N   UNL A   1      41.811  29.773  32.182  1.00  0.00    -0.248 NA
ATOM     47  C   UNL A   1      40.044  31.260  32.515  1.00  0.00     0.031 C 
ATOM     48  C   UNL A   1      39.645  28.018  28.683  1.00  0.00     0.029 A 
ATOM     49  N   UNL A   1      41.473  27.875  29.963  1.00  0.00    -0.354 N 
ATOM     50  C   UNL A   1      42.141  30.662  33.197  1.00  0.00     0.074 A 
ATOM     51  C   UNL A   1      41.045  31.599  33.314  1.00  0.00     0.031 C 
ATOM     52  C   UNL A   1      40.426  27.057  28.163  1.00  0.00     0.029 A 
ATOM     53  C   UNL A   1      41.642  26.944  28.963  1.00  0.00     0.049 A 
ATOM     54  H   UNL A   1      42.135  28.024  30.676  1.00  0.00     0.167 HD
ATOM     55  C   UNL A   1      43.240  30.678  33.986  1.00  0.00     0.034 A 
ATOM     56  C   UNL A   1      42.659  26.094  28.722  1.00  0.00     0.034 A 
ATOM     57  C   UNL A   1      44.292  29.701  33.914  1.00  0.00     0.049 A 
ATOM     58  C   UNL A   1      43.830  26.074  29.668  1.00  0.00     0.074 A 
ATOM     59  C   UNL A   1      45.392  29.558  34.740  1.00  0.00     0.029 A 
ATOM     60  N   UNL A   1      44.370  28.695  32.964  1.00  0.00    -0.354 N 
ATOM     61  N   UNL A   1      44.042  26.811  30.731  1.00  0.00    -0.248 NA
ATOM     62  C   UNL A   1      44.882  25.081  29.407  1.00  0.00     0.031 C 
ATOM     63  C   UNL A   1      46.141  28.469  34.282  1.00  0.00     0.029 A 
ATOM     64  C   UNL A   1      45.499  27.926  33.180  1.00  0.00     0.049 A 
ATOM     65  H   UNL A   1      43.717  28.549  32.242  1.00  0.00     0.167 HD
ATOM     66  C   UNL A   1      45.230  26.348  31.286  1.00  0.00     0.074 A 
ATOM     67  C   UNL A   1      45.681  25.252  30.452  1.00  0.00     0.031 C 
ATOM     68  C   UNL A   1      45.898  26.800  32.376  1.00  0.00     0.034 A 
BRANCH  55  69
ATOM     69  C   UNL A   1      43.324  31.745  35.046  1.00  0.00     0.023 A 
ATOM     70  C   UNL A   1      44.081  32.908  34.797  1.00  0.00     0.012 A 
ATOM     71  C   UNL A   1      42.626  31.622  36.262  1.00  0.00     0.148 A 
ATOM     72  C   UNL A   1      44.175  33.915  35.757  1.00  0.00     0.002 A 
ATOM     73  C   UNL A   1      42.688  32.650  37.197  1.00  0.00     0.091 A 
ATOM     74  F   UNL A   1      41.931  30.499  36.491  1.00  0.00    -0.205 F 
ATOM     75  C   UNL A   1      43.471  33.790  36.951  1.00  0.00     0.022 A 
BRANCH  73  76
ATOM     76  S   UNL A   1      41.757  32.618  38.733  1.00  0.00     0.127 S 
ATOM     77  O   UNL A   1      42.466  31.585  39.486  1.00  0.00    -0.237 OA
ATOM     78  O   UNL A   1      41.947  33.978  39.238  1.00  0.00    -0.237 OA
ATOM     79  O   UNL A   1      40.386  32.296  38.363  1.00  0.00    -0.744 OA
ENDBRANCH  73  76
ENDBRANCH  55  69
BRANCH  56  80
ATOM     80  C   UNL A   1      42.571  25.126  27.591  1.00  0.00     0.023 A 
ATOM     81  C   UNL A   1      43.046  25.512  26.321  1.00  0.00     0.012 A 
ATOM     82  C   UNL A   1      42.056  23.827  27.765  1.00  0.00     0.148 A 
ATOM     83  C   UNL A   1      42.981  24.634  25.239  1.00  0.00     0.002 A 
ATOM     84  C   UNL A   1      42.042  22.939  26.694  1.00  0.00     0.091 A 
ATOM     85  F   UNL A   1      41.597  23.482  28.976  1.00  0.00    -0.205 F 
ATOM     86  C   UNL A   1      42.489  23.345  25.427  1.00  0.00     0.022 A 
BRANCH  84  87
ATOM     87  S   UNL A   1      41.547  21.221  26.878  1.00  0.00     0.127 S 
ATOM     88  O   UNL A   1      42.406  20.777  27.972  1.00  0.00    -0.237 OA
ATOM     89  O   UNL A   1      40.129  21.346  27.219  1.00  0.00    -0.237 OA
ATOM     90  O   UNL A   1      41.796  20.604  25.582  1.00  0.00    -0.744 OA
ENDBRANCH  84  87
ENDBRANCH  56  80
BRANCH  68  91
ATOM     91  C   UNL A   1      47.172  26.095  32.758  1.00  0.00     0.023 A 
ATOM     92  C   UNL A   1      48.405  26.578  32.279  1.00  0.00     0.012 A 
ATOM     93  C   UNL A   1      47.153  25.014  33.662  1.00  0.00     0.148 A 
ATOM     94  C   UNL A   1      49.600  25.979  32.672  1.00  0.00     0.002 A 
ATOM     95  C   UNL A   1      48.352  24.452  34.085  1.00  0.00     0.091 A 
ATOM     96  F   UNL A   1      45.968  24.557  34.091  1.00  0.00    -0.205 F 
ATOM     97  C   UNL A   1      49.575  24.926  33.584  1.00  0.00     0.022 A 
BRANCH  95  98
ATOM     98  S   UNL A   1      48.415  23.159  35.331  1.00  0.00     0.127 S 
ATOM     99  O   UNL A   1      47.742  22.055  34.649  1.00  0.00    -0.237 OA
ATOM    100  O   UNL A   1      49.855  22.974  35.517  1.00  0.00    -0.237 OA
ATOM    101  O   UNL A   1      47.722  23.695  36.496  1.00  0.00    -0.744 OA
ENDBRANCH  95  98
ENDBRANCH  68  91
ENDBRANCH  42  43
ENDBRANCH  34  37
ENDBRANCH  32  33
ENDBRANCH  31  32
ENDBRANCH  30  31
ENDBRANCH   1  30
TORSDOF 21
ENDMDL
MODEL 2
REMARK VINA RESULT:     -10.8      4.690     10.011
REMARK SMILES N#C/C(=C/c1cccc(OCC(=O)NCCCCCCNC(=O)c2ccc(-c3c4nc(c(-c5cccc(S(=O)(=O)[O-])c5F)c5ccc([nH]5)c(-c5cccc(S(=O)(=O)[O-])c5F)c5nc(c(-c6cccc(S(=O)(=O)[O-])c6F)c6ccc3[nH]6)C=C5)C=C4)cc2)c1)c1nc2ccccc2[nH]1
REMARK SMILES IDX 17 1 16 2 15 3 14 4 12 5 13 6 11 8 10 9 9 10 5 11 6 12 87 13
REMARK SMILES IDX 7 14 8 15 4 16 3 17 2 18 1 19 88 20 89 21 96 22 90 23 95 24
REMARK SMILES IDX 91 26 94 27 92 28 93 29 18 30 19 31 20 32 21 33 22 34 23 36
REMARK SMILES IDX 24 37 25 38 86 39 26 40 85 41 27 42 28 43 29 44 79 45 30 46
REMARK SMILES IDX 84 47 78 48 80 49 31 50 83 51 77 52 76 53 32 55 64 56 44 57
REMARK SMILES IDX 63 58 45 59 48 60 62 61 81 62 46 63 47 64 61 66 82 67 49 68
REMARK SMILES IDX 33 69 34 70 42 71 35 72 37 73 43 74 36 75 38 76 39 77 40 78
REMARK SMILES IDX 41 79 65 80 66 81 74 82 67 83 69 84 75 85 68 86 70 87 71 88
REMARK SMILES IDX 72 89 73 90 50 91 51 92 59 93 52 94 54 95 60 96 53 97 55 98
REMARK SMILES IDX 56 99 57 100 58 101
REMARK H PARENT 14 7 96 25 21 35 80 54 48 65
REMARK Flexibility Score: inf
ROOT
ATOM      1  C   UNL A   1      34.628  23.693  26.105  1.00  0.00     0.002 C 
ENDROOT
BRANCH   1   2
ATOM      2  C   UNL A   1      33.365  23.214  26.826  1.00  0.00     0.021 C 
BRANCH   2   3
ATOM      3  C   UNL A   1      32.365  22.422  25.983  1.00  0.00     0.116 C 
BRANCH   3   4
ATOM      4  N   UNL A   1      31.122  22.114  26.669  1.00  0.00    -0.353 N 
ATOM      5  C   UNL A   1      30.035  22.926  26.837  1.00  0.00     0.257 C 
ATOM      6  O   UNL A   1      28.969  22.458  27.247  1.00  0.00    -0.271 OA
ATOM      7  H   UNL A   1      31.053  21.212  27.060  1.00  0.00     0.163 HD
BRANCH   5   8
ATOM      8  C   UNL A   1      30.140  24.413  26.479  1.00  0.00     0.329 C 
BRANCH   8   9
ATOM      9  O   UNL A   1      30.549  24.718  25.155  1.00  0.00    -0.484 OA
BRANCH   9  10
ATOM     10  C   UNL A   1      31.442  25.738  24.972  1.00  0.00     0.120 A 
ATOM     11  C   UNL A   1      32.479  27.893  25.411  1.00  0.00    -0.021 A 
ATOM     12  C   UNL A   1      33.433  27.633  24.422  1.00  0.00     0.008 A 
ATOM     13  C   UNL A   1      31.470  26.951  25.662  1.00  0.00     0.054 A 
ATOM     14  C   UNL A   1      33.394  26.434  23.712  1.00  0.00     0.004 A 
ATOM     15  C   UNL A   1      32.404  25.491  23.990  1.00  0.00     0.046 A 
BRANCH  11  16
ATOM     16  C   UNL A   1      32.537  29.161  26.156  1.00  0.00     0.031 C 
ATOM     17  C   UNL A   1      31.858  30.285  25.859  1.00  0.00     0.095 C 
BRANCH  17  18
ATOM     18  C   UNL A   1      32.025  31.527  26.720  1.00  0.00     0.103 C 
ATOM     19  N   UNL A   1      32.163  32.557  27.434  1.00  0.00    -0.192 NA
ENDBRANCH  17  18
BRANCH  17  20
ATOM     20  C   UNL A   1      30.916  30.362  24.798  1.00  0.00     0.149 A 
ATOM     21  N   UNL A   1      30.662  29.530  23.806  1.00  0.00    -0.228 NA
ATOM     22  N   UNL A   1      30.064  31.444  24.748  1.00  0.00    -0.337 N 
ATOM     23  C   UNL A   1      29.642  30.104  23.087  1.00  0.00     0.089 A 
ATOM     24  C   UNL A   1      29.250  31.307  23.654  1.00  0.00     0.066 A 
ATOM     25  H   UNL A   1      30.043  32.190  25.391  1.00  0.00     0.168 HD
ATOM     26  C   UNL A   1      29.001  29.661  21.923  1.00  0.00     0.030 A 
ATOM     27  C   UNL A   1      28.258  32.129  23.113  1.00  0.00     0.028 A 
ATOM     28  C   UNL A   1      28.017  30.476  21.344  1.00  0.00     0.002 A 
ATOM     29  C   UNL A   1      27.659  31.692  21.927  1.00  0.00     0.002 A 
ENDBRANCH  17  20
ENDBRANCH  11  16
ENDBRANCH   9  10
ENDBRANCH   8   9
ENDBRANCH   5   8
ENDBRANCH   3   4
ENDBRANCH   2   3
ENDBRANCH   1   2
BRANCH   1  30
ATOM     30  C   UNL A   1      35.939  22.988  26.463  1.00  0.00     0.002 C 
BRANCH  30  31
ATOM     31  C   UNL A   1      36.205  21.681  25.718  1.00  0.00     0.021 C 
BRANCH  31  32
ATOM     32  C   UNL A   1      37.508  21.645  24.927  1.00  0.00     0.116 C 
BRANCH  32  33
ATOM     33  N   UNL A   1      38.428  20.596  25.356  1.00  0.00    -0.352 N 
ATOM     34  C   UNL A   1      39.560  20.728  26.128  1.00  0.00     0.251 C 
ATOM     35  H   UNL A   1      38.213  19.683  25.057  1.00  0.00     0.163 HD
ATOM     36  O   UNL A   1      40.290  19.767  26.349  1.00  0.00    -0.269 OA
BRANCH  34  37
ATOM     37  C   UNL A   1      39.901  22.067  26.651  1.00  0.00     0.039 A 
ATOM     38  C   UNL A   1      40.807  22.176  27.708  1.00  0.00     0.014 A 
ATOM     39  C   UNL A   1      39.403  23.207  26.017  1.00  0.00     0.014 A 
ATOM     40  C   UNL A   1      41.280  23.437  28.076  1.00  0.00     0.010 A 
ATOM     41  C   UNL A   1      39.936  24.451  26.331  1.00  0.00     0.010 A 
ATOM     42  C   UNL A   1      40.882  24.579  27.360  1.00  0.00    -0.014 A 
BRANCH  42  43
ATOM     43  C   UNL A   1      41.452  25.919  27.653  1.00  0.00     0.031 A 
ATOM     44  C   UNL A   1      42.869  26.233  27.260  1.00  0.00     0.074 A 
ATOM     45  C   UNL A   1      40.735  26.805  28.373  1.00  0.00     0.049 A 
ATOM     46  N   UNL A   1      43.573  27.307  27.504  1.00  0.00    -0.248 NA
ATOM     47  C   UNL A   1      43.606  25.185  26.534  1.00  0.00     0.031 C 
ATOM     48  C   UNL A   1      39.385  26.580  28.899  1.00  0.00     0.029 A 
ATOM     49  N   UNL A   1      41.053  28.066  28.813  1.00  0.00    -0.354 N 
ATOM     50  C   UNL A   1      44.843  27.047  27.005  1.00  0.00     0.074 A 
ATOM     51  C   UNL A   1      44.825  25.700  26.479  1.00  0.00     0.031 C 
ATOM     52  C   UNL A   1      38.991  27.666  29.582  1.00  0.00     0.029 A 
ATOM     53  C   UNL A   1      40.062  28.657  29.564  1.00  0.00     0.049 A 
ATOM     54  H   UNL A   1      41.910  28.506  28.612  1.00  0.00     0.167 HD
ATOM     55  C   UNL A   1      45.918  27.868  26.954  1.00  0.00     0.034 A 
ATOM     56  C   UNL A   1      40.021  29.863  30.164  1.00  0.00     0.034 A 
ATOM     57  C   UNL A   1      45.908  29.230  27.412  1.00  0.00     0.049 A 
ATOM     58  C   UNL A   1      41.199  30.789  30.018  1.00  0.00     0.074 A 
ATOM     59  C   UNL A   1      46.906  30.181  27.305  1.00  0.00     0.029 A 
ATOM     60  N   UNL A   1      44.843  29.836  28.059  1.00  0.00    -0.354 N 
ATOM     61  N   UNL A   1      42.331  30.588  29.387  1.00  0.00    -0.248 NA
ATOM     62  C   UNL A   1      41.081  32.121  30.628  1.00  0.00     0.031 C 
ATOM     63  C   UNL A   1      46.446  31.363  27.896  1.00  0.00     0.029 A 
ATOM     64  C   UNL A   1      45.157  31.150  28.358  1.00  0.00     0.049 A 
ATOM     65  H   UNL A   1      43.989  29.397  28.273  1.00  0.00     0.167 HD
ATOM     66  C   UNL A   1      43.044  31.777  29.494  1.00  0.00     0.074 A 
ATOM     67  C   UNL A   1      42.206  32.701  30.232  1.00  0.00     0.031 C 
ATOM     68  C   UNL A   1      44.286  32.072  29.039  1.00  0.00     0.034 A 
BRANCH  55  69
ATOM     69  C   UNL A   1      47.174  27.334  26.315  1.00  0.00     0.023 A 
ATOM     70  C   UNL A   1      47.418  27.594  24.950  1.00  0.00     0.012 A 
ATOM     71  C   UNL A   1      48.127  26.619  27.063  1.00  0.00     0.148 A 
ATOM     72  C   UNL A   1      48.572  27.116  24.331  1.00  0.00     0.002 A 
ATOM     73  C   UNL A   1      49.297  26.184  26.450  1.00  0.00     0.091 A 
ATOM     74  F   UNL A   1      47.866  26.361  28.353  1.00  0.00    -0.205 F 
ATOM     75  C   UNL A   1      49.514  26.421  25.083  1.00  0.00     0.022 A 
BRANCH  73  76
ATOM     76  S   UNL A   1      50.607  25.346  27.350  1.00  0.00     0.127 S 
ATOM     77  O   UNL A   1      50.971  26.353  28.345  1.00  0.00    -0.237 OA
ATOM     78  O   UNL A   1      49.911  24.178  27.891  1.00  0.00    -0.237 OA
ATOM     79  O   UNL A   1      51.633  25.036  26.365  1.00  0.00    -0.744 OA
ENDBRANCH  73  76
ENDBRANCH  55  69
BRANCH  56  80
ATOM     80  C   UNL A   1      38.786  30.301  30.877  1.00  0.00     0.023 A 
ATOM     81  C   UNL A   1      38.664  30.041  32.256  1.00  0.00     0.012 A 
ATOM     82  C   UNL A   1      37.754  30.993  30.215  1.00  0.00     0.148 A 
ATOM     83  C   UNL A   1      37.524  30.436  32.958  1.00  0.00     0.002 A 
ATOM     84  C   UNL A   1      36.644  31.430  30.930  1.00  0.00     0.091 A 
ATOM     85  F   UNL A   1      37.881  31.220  28.900  1.00  0.00    -0.205 F 
ATOM     86  C   UNL A   1      36.519  31.139  32.298  1.00  0.00     0.022 A 
BRANCH  84  87
ATOM     87  S   UNL A   1      35.366  32.453  30.190  1.00  0.00     0.127 S 
ATOM     88  O   UNL A   1      36.100  33.678  29.888  1.00  0.00    -0.237 OA
ATOM     89  O   UNL A   1      34.979  31.661  29.021  1.00  0.00    -0.237 OA
ATOM     90  O   UNL A   1      34.324  32.567  31.202  1.00  0.00    -0.744 OA
ENDBRANCH  84  87
ENDBRANCH  56  80
BRANCH  68  91
ATOM     91  C   UNL A   1      44.812  33.460  29.292  1.00  0.00     0.023 A 
ATOM     92  C   UNL A   1      45.525  33.729  30.476  1.00  0.00     0.012 A 
ATOM     93  C   UNL A   1      44.679  34.469  28.318  1.00  0.00     0.148 A 
ATOM     94  C   UNL A   1      46.076  34.989  30.700  1.00  0.00     0.002 A 
ATOM     95  C   UNL A   1      45.269  35.710  28.527  1.00  0.00     0.091 A 
ATOM     96  F   UNL A   1      43.979  34.199  27.206  1.00  0.00    -0.205 F 
ATOM     97  C   UNL A   1      45.959  35.975  29.721  1.00  0.00     0.022 A 
BRANCH  95  98
ATOM     98  S   UNL A   1      45.252  37.002  27.279  1.00  0.00     0.127 S 
ATOM     99  O   UNL A   1      45.867  38.117  27.998  1.00  0.00    -0.237 OA
ATOM    100  O   UNL A   1      46.083  36.426  26.221  1.00  0.00    -0.237 OA
ATOM    101  O   UNL A   1      43.854  37.184  26.914  1.00  0.00    -0.744 OA
ENDBRANCH  95  98
ENDBRANCH  68  91
ENDBRANCH  42  43
ENDBRANCH  34  37
ENDBRANCH  32  33
ENDBRANCH  31  32
ENDBRANCH  30  31
ENDBRANCH   1  30
TORSDOF 21
ENDMDL
MODEL 3
REMARK VINA RESULT:     -10.8      4.703      9.980
REMARK SMILES N#C/C(=C/c1cccc(OCC(=O)NCCCCCCNC(=O)c2ccc(-c3c4nc(c(-c5cccc(S(=O)(=O)[O-])c5F)c5ccc([nH]5)c(-c5cccc(S(=O)(=O)[O-])c5F)c5nc(c(-c6cccc(S(=O)(=O)[O-])c6F)c6ccc3[nH]6)C=C5)C=C4)cc2)c1)c1nc2ccccc2[nH]1
REMARK SMILES IDX 17 1 16 2 15 3 14 4 12 5 13 6 11 8 10 9 9 10 5 11 6 12 87 13
REMARK SMILES IDX 7 14 8 15 4 16 3 17 2 18 1 19 88 20 89 21 96 22 90 23 95 24
REMARK SMILES IDX 91 26 94 27 92 28 93 29 18 30 19 31 20 32 21 33 22 34 23 36
REMARK SMILES IDX 24 37 25 38 86 39 26 40 85 41 27 42 28 43 29 44 79 45 30 46
REMARK SMILES IDX 84 47 78 48 80 49 31 50 83 51 77 52 76 53 32 55 64 56 44 57
REMARK SMILES IDX 63 58 45 59 48 60 62 61 81 62 46 63 47 64 61 66 82 67 49 68
REMARK SMILES IDX 33 69 34 70 42 71 35 72 37 73 43 74 36 75 38 76 39 77 40 78
REMARK SMILES IDX 41 79 65 80 66 81 74 82 67 83 69 84 75 85 68 86 70 87 71 88
REMARK SMILES IDX 72 89 73 90 50 91 51 92 59 93 52 94 54 95 60 96 53 97 55 98
REMARK SMILES IDX 56 99 57 100 58 101
REMARK H PARENT 14 7 96 25 21 35 80 54 48 65
REMARK Flexibility Score: inf
ROOT
ATOM      1  C   UNL A   1      34.316  24.413  25.731  1.00  0.00     0.002 C 
ENDROOT
BRANCH   1   2
ATOM      2  C   UNL A   1      33.440  23.833  26.845  1.00  0.00     0.021 C 
BRANCH   2   3
ATOM      3  C   UNL A   1      32.685  22.546  26.509  1.00  0.00     0.116 C 
BRANCH   3   4
ATOM      4  N   UNL A   1      31.451  22.371  27.256  1.00  0.00    -0.353 N 
ATOM      5  C   UNL A   1      30.248  22.986  27.044  1.00  0.00     0.257 C 
ATOM      6  O   UNL A   1      29.233  22.576  27.614  1.00  0.00    -0.271 OA
ATOM      7  H   UNL A   1      31.484  21.731  28.004  1.00  0.00     0.163 HD
BRANCH   5   8
ATOM      8  C   UNL A   1      30.164  24.163  26.067  1.00  0.00     0.329 C 
BRANCH   8   9
ATOM      9  O   UNL A   1      30.408  23.870  24.700  1.00  0.00    -0.484 OA
BRANCH   9  10
ATOM     10  C   UNL A   1      30.651  24.912  23.847  1.00  0.00     0.120 A 
ATOM     11  C   UNL A   1      30.397  27.157  22.948  1.00  0.00    -0.021 A 
ATOM     12  C   UNL A   1      31.397  26.891  22.007  1.00  0.00     0.008 A 
ATOM     13  C   UNL A   1      30.011  26.152  23.849  1.00  0.00     0.054 A 
ATOM     14  C   UNL A   1      32.021  25.644  21.985  1.00  0.00     0.004 A 
ATOM     15  C   UNL A   1      31.651  24.662  22.904  1.00  0.00     0.046 A 
BRANCH  11  16
ATOM     16  C   UNL A   1      29.752  28.479  22.962  1.00  0.00     0.031 C 
ATOM     17  C   UNL A   1      30.114  29.528  23.725  1.00  0.00     0.095 C 
BRANCH  17  18
ATOM     18  C   UNL A   1      29.346  30.837  23.637  1.00  0.00     0.103 C 
ATOM     19  N   UNL A   1      28.709  31.923  23.565  1.00  0.00    -0.192 NA
ENDBRANCH  17  18
BRANCH  17  20
ATOM     20  C   UNL A   1      31.246  29.506  24.584  1.00  0.00     0.149 A 
ATOM     21  N   UNL A   1      32.211  28.616  24.718  1.00  0.00    -0.228 NA
ATOM     22  N   UNL A   1      31.460  30.577  25.424  1.00  0.00    -0.337 N 
ATOM     23  C   UNL A   1      33.048  29.114  25.687  1.00  0.00     0.089 A 
ATOM     24  C   UNL A   1      32.599  30.342  26.149  1.00  0.00     0.066 A 
ATOM     25  H   UNL A   1      30.890  31.377  25.492  1.00  0.00     0.168 HD
ATOM     26  C   UNL A   1      34.214  28.568  26.237  1.00  0.00     0.030 A 
ATOM     27  C   UNL A   1      33.232  31.065  27.164  1.00  0.00     0.028 A 
ATOM     28  C   UNL A   1      34.860  29.259  27.273  1.00  0.00     0.002 A 
ATOM     29  C   UNL A   1      34.371  30.483  27.731  1.00  0.00     0.002 A 
ENDBRANCH  17  20
ENDBRANCH  11  16
ENDBRANCH   9  10
ENDBRANCH   8   9
ENDBRANCH   5   8
ENDBRANCH   3   4
ENDBRANCH   2   3
ENDBRANCH   1   2
BRANCH   1  30
ATOM     30  C   UNL A   1      35.785  23.982  25.709  1.00  0.00     0.002 C 
BRANCH  30  31
ATOM     31  C   UNL A   1      36.048  22.582  25.157  1.00  0.00     0.021 C 
BRANCH  31  32
ATOM     32  C   UNL A   1      37.455  22.359  24.614  1.00  0.00     0.116 C 
BRANCH  32  33
ATOM     33  N   UNL A   1      38.150  21.231  25.226  1.00  0.00    -0.352 N 
ATOM     34  C   UNL A   1      39.150  21.265  26.172  1.00  0.00     0.251 C 
ATOM     35  H   UNL A   1      37.870  20.335  24.926  1.00  0.00     0.163 HD
ATOM     36  O   UNL A   1      39.704  20.236  26.544  1.00  0.00    -0.269 OA
BRANCH  34  37
ATOM     37  C   UNL A   1      39.572  22.579  26.699  1.00  0.00     0.039 A 
ATOM     38  C   UNL A   1      40.564  22.634  27.680  1.00  0.00     0.014 A 
ATOM     39  C   UNL A   1      39.058  23.750  26.138  1.00  0.00     0.014 A 
ATOM     40  C   UNL A   1      41.103  23.870  28.041  1.00  0.00     0.010 A 
ATOM     41  C   UNL A   1      39.652  24.969  26.439  1.00  0.00     0.010 A 
ATOM     42  C   UNL A   1      40.682  25.042  27.389  1.00  0.00    -0.014 A 
BRANCH  42  43
ATOM     43  C   UNL A   1      41.313  26.357  27.669  1.00  0.00     0.031 A 
ATOM     44  C   UNL A   1      42.727  26.618  27.227  1.00  0.00     0.074 A 
ATOM     45  C   UNL A   1      40.658  27.266  28.419  1.00  0.00     0.049 A 
ATOM     46  N   UNL A   1      43.480  27.663  27.451  1.00  0.00    -0.248 NA
ATOM     47  C   UNL A   1      43.396  25.548  26.469  1.00  0.00     0.031 C 
ATOM     48  C   UNL A   1      39.320  27.089  28.992  1.00  0.00     0.029 A 
ATOM     49  N   UNL A   1      41.040  28.511  28.854  1.00  0.00    -0.354 N 
ATOM     50  C   UNL A   1      44.721  27.358  26.905  1.00  0.00     0.074 A 
ATOM     51  C   UNL A   1      44.632  26.016  26.373  1.00  0.00     0.031 C 
ATOM     52  C   UNL A   1      38.993  28.185  29.694  1.00  0.00     0.029 A 
ATOM     53  C   UNL A   1      40.100  29.134  29.643  1.00  0.00     0.049 A 
ATOM     54  H   UNL A   1      41.906  28.919  28.624  1.00  0.00     0.167 HD
ATOM     55  C   UNL A   1      45.825  28.137  26.820  1.00  0.00     0.034 A 
ATOM     56  C   UNL A   1      40.127  30.337  30.251  1.00  0.00     0.034 A 
ATOM     57  C   UNL A   1      45.884  29.495  27.286  1.00  0.00     0.049 A 
ATOM     58  C   UNL A   1      41.334  31.217  30.067  1.00  0.00     0.074 A 
ATOM     59  C   UNL A   1      46.913  30.408  27.148  1.00  0.00     0.029 A 
ATOM     60  N   UNL A   1      44.867  30.138  27.974  1.00  0.00    -0.354 N 
ATOM     61  N   UNL A   1      42.435  30.977  29.395  1.00  0.00    -0.248 NA
ATOM     62  C   UNL A   1      41.290  32.549  30.688  1.00  0.00     0.031 C 
ATOM     63  C   UNL A   1      46.521  31.602  27.761  1.00  0.00     0.029 A 
ATOM     64  C   UNL A   1      45.242  31.436  28.269  1.00  0.00     0.049 A 
ATOM     65  H   UNL A   1      44.004  29.730  28.216  1.00  0.00     0.167 HD
ATOM     66  C   UNL A   1      43.196  32.137  29.482  1.00  0.00     0.074 A 
ATOM     67  C   UNL A   1      42.422  33.087  30.255  1.00  0.00     0.031 C 
ATOM     68  C   UNL A   1      44.432  32.387  28.985  1.00  0.00     0.034 A 
BRANCH  55  69
ATOM     69  C   UNL A   1      47.035  27.560  26.134  1.00  0.00     0.023 A 
ATOM     70  C   UNL A   1      47.203  27.760  24.748  1.00  0.00     0.012 A 
ATOM     71  C   UNL A   1      48.020  26.861  26.856  1.00  0.00     0.148 A 
ATOM     72  C   UNL A   1      48.314  27.241  24.085  1.00  0.00     0.002 A 
ATOM     73  C   UNL A   1      49.148  26.385  26.196  1.00  0.00     0.091 A 
ATOM     74  F   UNL A   1      47.831  26.660  28.168  1.00  0.00    -0.205 F 
ATOM     75  C   UNL A   1      49.290  26.563  24.810  1.00  0.00     0.022 A 
BRANCH  73  76
ATOM     76  S   UNL A   1      50.497  25.566  27.054  1.00  0.00     0.127 S 
ATOM     77  O   UNL A   1      49.833  24.372  27.574  1.00  0.00    -0.237 OA
ATOM     78  O   UNL A   1      51.445  25.312  25.968  1.00  0.00    -0.237 OA
ATOM     79  O   UNL A   1      50.965  26.511  28.057  1.00  0.00    -0.744 OA
ENDBRANCH  73  76
ENDBRANCH  55  69
BRANCH  56  80
ATOM     80  C   UNL A   1      38.937  30.817  31.009  1.00  0.00     0.023 A 
ATOM     81  C   UNL A   1      38.819  30.493  32.375  1.00  0.00     0.012 A 
ATOM     82  C   UNL A   1      37.943  31.611  30.405  1.00  0.00     0.148 A 
ATOM     83  C   UNL A   1      37.720  30.924  33.119  1.00  0.00     0.002 A 
ATOM     84  C   UNL A   1      36.877  32.081  31.164  1.00  0.00     0.091 A 
ATOM     85  F   UNL A   1      38.064  31.899  29.101  1.00  0.00    -0.205 F 
ATOM     86  C   UNL A   1      36.754  31.727  32.517  1.00  0.00     0.022 A 
BRANCH  84  87
ATOM     87  S   UNL A   1      35.659  33.226  30.503  1.00  0.00     0.127 S 
ATOM     88  O   UNL A   1      34.434  32.435  30.576  1.00  0.00    -0.237 OA
ATOM     89  O   UNL A   1      35.734  34.336  31.454  1.00  0.00    -0.237 OA
ATOM     90  O   UNL A   1      36.125  33.558  29.163  1.00  0.00    -0.744 OA
ENDBRANCH  84  87
ENDBRANCH  56  80
BRANCH  68  91
ATOM     91  C   UNL A   1      45.020  33.752  29.226  1.00  0.00     0.023 A 
ATOM     92  C   UNL A   1      45.978  33.927  30.244  1.00  0.00     0.012 A 
ATOM     93  C   UNL A   1      44.692  34.836  28.388  1.00  0.00     0.148 A 
ATOM     94  C   UNL A   1      46.582  35.167  30.441  1.00  0.00     0.002 A 
ATOM     95  C   UNL A   1      45.332  36.057  28.561  1.00  0.00     0.091 A 
ATOM     96  F   UNL A   1      43.763  34.653  27.438  1.00  0.00    -0.205 F 
ATOM     97  C   UNL A   1      46.269  36.228  29.593  1.00  0.00     0.022 A 
BRANCH  95  98
ATOM     98  S   UNL A   1      45.061  37.446  27.453  1.00  0.00     0.127 S 
ATOM     99  O   UNL A   1      46.149  37.274  26.491  1.00  0.00    -0.237 OA
ATOM    100  O   UNL A   1      43.727  37.167  26.922  1.00  0.00    -0.237 OA
ATOM    101  O   UNL A   1      45.141  38.639  28.285  1.00  0.00    -0.744 OA
ENDBRANCH  95  98
ENDBRANCH  68  91
ENDBRANCH  42  43
ENDBRANCH  34  37
ENDBRANCH  32  33
ENDBRANCH  31  32
ENDBRANCH  30  31
ENDBRANCH   1  30
TORSDOF 21
ENDMDL
