MODEL 1
REMARK VINA RESULT:     -11.9      0.000      0.000
REMARK SMILES CCc1cccc(C)c1Nc1ccccc1CC(=O)NCCCCCCNC(=O)c1ccc(-c2c3nc(c(-c4cccc(S(=O)(=O)[O-])c4F)c4ccc([nH]4)c(-c4cccc(S(=O)(=O)[O-])c4F)c4nc(c(-c5cccc(S(=O)(=O)[O-])c5F)c5ccc2[nH]5)C=C4)C=C3)cc1
REMARK SMILES IDX 23 1 22 2 21 3 20 4 18 5 19 6 17 8 16 9 11 10 12 11 13 12
REMARK SMILES IDX 15 13 14 14 10 15 9 17 3 18 4 19 5 20 7 21 6 22 8 23 2 24
REMARK SMILES IDX 1 25 24 26 25 27 26 28 27 29 28 30 29 32 30 33 31 34 92 35
REMARK SMILES IDX 32 36 91 37 33 38 34 39 35 40 85 41 36 42 90 43 84 44 86 45
REMARK SMILES IDX 37 46 89 47 83 48 82 49 38 51 70 52 50 53 69 54 51 55 54 56
REMARK SMILES IDX 68 57 87 58 52 59 53 60 67 62 88 63 55 64 39 65 40 66 48 67
REMARK SMILES IDX 41 68 43 69 49 70 42 71 44 72 45 73 46 74 47 75 71 76 72 77
REMARK SMILES IDX 80 78 73 79 75 80 81 81 74 82 76 83 77 84 78 85 79 86 56 87
REMARK SMILES IDX 57 88 65 89 58 90 60 91 66 92 59 93 61 94 62 95 63 96 64 97
REMARK H PARENT 20 7 10 16 27 31 86 50 54 61
REMARK Flexibility Score: inf
ROOT
ATOM      1  C   UNL A   1      31.832  27.920  25.511  1.00  0.00     0.002 C 
ENDROOT
BRANCH   1   2
ATOM      2  C   UNL A   1      32.204  28.367  24.091  1.00  0.00     0.021 C 
BRANCH   2   3
ATOM      3  C   UNL A   1      33.558  27.876  23.576  1.00  0.00     0.116 C 
BRANCH   3   4
ATOM      4  N   UNL A   1      33.485  27.123  22.339  1.00  0.00    -0.356 N 
ATOM      5  C   UNL A   1      33.547  25.785  22.089  1.00  0.00     0.224 C 
ATOM      6  O   UNL A   1      33.134  25.407  20.986  1.00  0.00    -0.275 OA
ATOM      7  H   UNL A   1      33.370  27.679  21.535  1.00  0.00     0.163 HD
BRANCH   5   8
ATOM      8  C   UNL A   1      33.933  24.778  23.150  1.00  0.00     0.137 C 
BRANCH   8   9
ATOM      9  C   UNL A   1      32.984  24.561  24.309  1.00  0.00    -0.015 A 
ATOM     10  C   UNL A   1      33.389  24.141  25.594  1.00  0.00     0.042 A 
ATOM     11  C   UNL A   1      32.403  23.877  26.565  1.00  0.00     0.026 A 
ATOM     12  C   UNL A   1      31.048  24.064  26.300  1.00  0.00     0.002 A 
ATOM     13  C   UNL A   1      31.601  24.702  24.050  1.00  0.00     0.006 A 
ATOM     14  C   UNL A   1      30.646  24.475  25.039  1.00  0.00     0.000 A 
BRANCH  10  15
ATOM     15  N   UNL A   1      34.727  23.884  25.961  1.00  0.00    -0.355 N 
ATOM     16  H   UNL A   1      35.166  24.636  26.419  1.00  0.00     0.167 HD
BRANCH  15  17
ATOM     17  C   UNL A   1      35.554  22.750  25.794  1.00  0.00     0.045 A 
ATOM     18  C   UNL A   1      34.999  21.462  25.587  1.00  0.00    -0.024 A 
ATOM     19  C   UNL A   1      35.819  20.449  25.028  1.00  0.00     0.006 A 
ATOM     20  C   UNL A   1      37.163  20.656  24.752  1.00  0.00     0.001 A 
ATOM     21  C   UNL A   1      36.965  22.873  25.701  1.00  0.00    -0.027 A 
ATOM     22  C   UNL A   1      37.744  21.850  25.135  1.00  0.00     0.005 A 
ATOM     23  C   UNL A   1      37.701  24.037  26.307  1.00  0.00     0.046 C 
BRANCH  18  24
ATOM     24  C   UNL A   1      33.625  20.953  25.989  1.00  0.00     0.034 C 
ATOM     25  C   UNL A   1      32.916  19.829  25.253  1.00  0.00     0.009 C 
ENDBRANCH  18  24
ENDBRANCH  15  17
ENDBRANCH  10  15
ENDBRANCH   8   9
ENDBRANCH   5   8
ENDBRANCH   3   4
ENDBRANCH   2   3
ENDBRANCH   1   2
BRANCH   1  26
ATOM     26  C   UNL A   1      32.943  27.970  26.567  1.00  0.00     0.002 C 
BRANCH  26  27
ATOM     27  C   UNL A   1      32.970  29.203  27.469  1.00  0.00     0.021 C 
BRANCH  27  28
ATOM     28  C   UNL A   1      33.831  30.345  26.940  1.00  0.00     0.116 C 
BRANCH  28  29
ATOM     29  N   UNL A   1      34.202  31.332  27.942  1.00  0.00    -0.352 N 
ATOM     30  C   UNL A   1      35.214  31.271  28.883  1.00  0.00     0.251 C 
ATOM     31  H   UNL A   1      33.660  32.154  27.950  1.00  0.00     0.163 HD
ATOM     32  O   UNL A   1      35.287  32.148  29.743  1.00  0.00    -0.269 OA
BRANCH  30  33
ATOM     33  C   UNL A   1      36.254  30.220  28.771  1.00  0.00     0.039 A 
ATOM     34  C   UNL A   1      36.596  29.505  29.926  1.00  0.00     0.014 A 
ATOM     35  C   UNL A   1      37.027  30.095  27.619  1.00  0.00     0.014 A 
ATOM     36  C   UNL A   1      37.837  28.877  30.005  1.00  0.00     0.010 A 
ATOM     37  C   UNL A   1      38.288  29.549  27.719  1.00  0.00     0.010 A 
ATOM     38  C   UNL A   1      38.714  29.005  28.933  1.00  0.00    -0.014 A 
BRANCH  38  39
ATOM     39  C   UNL A   1      40.114  28.622  28.968  1.00  0.00     0.031 A 
ATOM     40  C   UNL A   1      40.495  27.209  28.830  1.00  0.00     0.074 A 
ATOM     41  C   UNL A   1      41.048  29.597  28.961  1.00  0.00     0.049 A 
ATOM     42  N   UNL A   1      41.648  26.734  29.148  1.00  0.00    -0.248 NA
ATOM     43  C   UNL A   1      39.558  26.207  28.346  1.00  0.00     0.031 C 
ATOM     44  C   UNL A   1      42.457  29.480  28.612  1.00  0.00     0.029 A 
ATOM     45  N   UNL A   1      40.931  30.884  29.494  1.00  0.00    -0.354 N 
ATOM     46  C   UNL A   1      41.712  25.448  28.650  1.00  0.00     0.074 A 
ATOM     47  C   UNL A   1      40.355  25.138  28.266  1.00  0.00     0.031 C 
ATOM     48  C   UNL A   1      43.123  30.501  29.174  1.00  0.00     0.029 A 
ATOM     49  C   UNL A   1      42.187  31.189  30.046  1.00  0.00     0.049 A 
ATOM     50  H   UNL A   1      40.131  31.460  29.485  1.00  0.00     0.167 HD
ATOM     51  C   UNL A   1      42.936  24.874  28.476  1.00  0.00     0.034 A 
ATOM     52  C   UNL A   1      42.383  31.453  31.372  1.00  0.00     0.034 A 
ATOM     53  C   UNL A   1      43.996  25.742  29.018  1.00  0.00     0.049 A 
ATOM     54  C   UNL A   1      43.382  30.513  32.024  1.00  0.00     0.074 A 
ATOM     55  C   UNL A   1      44.864  26.650  28.431  1.00  0.00     0.029 A 
ATOM     56  N   UNL A   1      44.074  25.958  30.389  1.00  0.00    -0.354 N 
ATOM     57  N   UNL A   1      43.882  29.455  31.447  1.00  0.00    -0.248 NA
ATOM     58  C   UNL A   1      43.871  30.673  33.390  1.00  0.00     0.031 C 
ATOM     59  C   UNL A   1      45.400  27.473  29.458  1.00  0.00     0.029 A 
ATOM     60  C   UNL A   1      44.890  27.043  30.671  1.00  0.00     0.049 A 
ATOM     61  H   UNL A   1      43.612  25.413  31.067  1.00  0.00     0.167 HD
ATOM     62  C   UNL A   1      44.623  28.732  32.347  1.00  0.00     0.074 A 
ATOM     63  C   UNL A   1      44.655  29.587  33.524  1.00  0.00     0.031 C 
ATOM     64  C   UNL A   1      45.084  27.473  32.056  1.00  0.00     0.034 A 
BRANCH  51  65
ATOM     65  C   UNL A   1      43.236  23.700  27.549  1.00  0.00     0.023 A 
ATOM     66  C   UNL A   1      44.149  23.930  26.493  1.00  0.00     0.012 A 
ATOM     67  C   UNL A   1      42.643  22.415  27.569  1.00  0.00     0.148 A 
ATOM     68  C   UNL A   1      44.375  23.001  25.469  1.00  0.00     0.002 A 
ATOM     69  C   UNL A   1      42.820  21.508  26.519  1.00  0.00     0.091 A 
ATOM     70  F   UNL A   1      41.965  22.009  28.642  1.00  0.00    -0.205 F 
ATOM     71  C   UNL A   1      43.682  21.801  25.462  1.00  0.00     0.022 A 
BRANCH  69  72
ATOM     72  S   UNL A   1      41.912  19.952  26.418  1.00  0.00     0.127 S 
ATOM     73  O   UNL A   1      42.338  19.268  27.641  1.00  0.00    -0.237 OA
ATOM     74  O   UNL A   1      40.521  20.398  26.427  1.00  0.00    -0.237 OA
ATOM     75  O   UNL A   1      42.351  19.301  25.190  1.00  0.00    -0.744 OA
ENDBRANCH  69  72
ENDBRANCH  51  65
BRANCH  52  76
ATOM     76  C   UNL A   1      41.188  32.053  32.039  1.00  0.00     0.023 A 
ATOM     77  C   UNL A   1      40.758  33.315  31.558  1.00  0.00     0.012 A 
ATOM     78  C   UNL A   1      40.285  31.265  32.772  1.00  0.00     0.148 A 
ATOM     79  C   UNL A   1      39.421  33.702  31.657  1.00  0.00     0.002 A 
ATOM     80  C   UNL A   1      38.953  31.666  32.878  1.00  0.00     0.091 A 
ATOM     81  F   UNL A   1      40.712  30.103  33.282  1.00  0.00    -0.205 F 
ATOM     82  C   UNL A   1      38.510  32.858  32.281  1.00  0.00     0.022 A 
BRANCH  80  83
ATOM     83  S   UNL A   1      37.727  30.611  33.663  1.00  0.00     0.127 S 
ATOM     84  O   UNL A   1      37.574  31.257  34.962  1.00  0.00    -0.237 OA
ATOM     85  O   UNL A   1      36.575  30.741  32.772  1.00  0.00    -0.237 OA
ATOM     86  O   UNL A   1      38.333  29.286  33.663  1.00  0.00    -0.744 OA
ENDBRANCH  80  83
ENDBRANCH  52  76
BRANCH  64  87
ATOM     87  C   UNL A   1      45.741  26.502  33.031  1.00  0.00     0.023 A 
ATOM     88  C   UNL A   1      47.116  26.528  33.328  1.00  0.00     0.012 A 
ATOM     89  C   UNL A   1      44.952  25.601  33.799  1.00  0.00     0.148 A 
ATOM     90  C   UNL A   1      47.689  25.684  34.289  1.00  0.00     0.002 A 
ATOM     91  C   UNL A   1      45.506  24.851  34.834  1.00  0.00     0.091 A 
ATOM     92  F   UNL A   1      43.651  25.438  33.517  1.00  0.00    -0.205 F 
ATOM     93  C   UNL A   1      46.880  24.865  35.063  1.00  0.00     0.022 A 
BRANCH  91  94
ATOM     94  S   UNL A   1      44.460  23.975  36.008  1.00  0.00     0.127 S 
ATOM     95  O   UNL A   1      43.840  22.957  35.164  1.00  0.00    -0.237 OA
ATOM     96  O   UNL A   1      45.434  23.455  36.971  1.00  0.00    -0.237 OA
ATOM     97  O   UNL A   1      43.569  24.991  36.553  1.00  0.00    -0.744 OA
ENDBRANCH  91  94
ENDBRANCH  64  87
ENDBRANCH  38  39
ENDBRANCH  30  33
ENDBRANCH  28  29
ENDBRANCH  27  28
ENDBRANCH  26  27
ENDBRANCH   1  26
TORSDOF 20
ENDMDL
MODEL 2
REMARK VINA RESULT:     -11.4      3.545      5.148
REMARK SMILES CCc1cccc(C)c1Nc1ccccc1CC(=O)NCCCCCCNC(=O)c1ccc(-c2c3nc(c(-c4cccc(S(=O)(=O)[O-])c4F)c4ccc([nH]4)c(-c4cccc(S(=O)(=O)[O-])c4F)c4nc(c(-c5cccc(S(=O)(=O)[O-])c5F)c5ccc2[nH]5)C=C4)C=C3)cc1
REMARK SMILES IDX 23 1 22 2 21 3 20 4 18 5 19 6 17 8 16 9 11 10 12 11 13 12
REMARK SMILES IDX 15 13 14 14 10 15 9 17 3 18 4 19 5 20 7 21 6 22 8 23 2 24
REMARK SMILES IDX 1 25 24 26 25 27 26 28 27 29 28 30 29 32 30 33 31 34 92 35
REMARK SMILES IDX 32 36 91 37 33 38 34 39 35 40 85 41 36 42 90 43 84 44 86 45
REMARK SMILES IDX 37 46 89 47 83 48 82 49 38 51 70 52 50 53 69 54 51 55 54 56
REMARK SMILES IDX 68 57 87 58 52 59 53 60 67 62 88 63 55 64 39 65 40 66 48 67
REMARK SMILES IDX 41 68 43 69 49 70 42 71 44 72 45 73 46 74 47 75 71 76 72 77
REMARK SMILES IDX 80 78 73 79 75 80 81 81 74 82 76 83 77 84 78 85 79 86 56 87
REMARK SMILES IDX 57 88 65 89 58 90 60 91 66 92 59 93 61 94 62 95 63 96 64 97
REMARK H PARENT 20 7 10 16 27 31 86 50 54 61
REMARK Flexibility Score: inf
ROOT
ATOM      1  C   UNL A   1      33.946  33.658  28.582  1.00  0.00     0.002 C 
ENDROOT
BRANCH   1   2
ATOM      2  C   UNL A   1      33.116  32.709  27.708  1.00  0.00     0.021 C 
BRANCH   2   3
ATOM      3  C   UNL A   1      33.729  31.329  27.463  1.00  0.00     0.116 C 
BRANCH   3   4
ATOM      4  N   UNL A   1      32.772  30.240  27.499  1.00  0.00    -0.356 N 
ATOM      5  C   UNL A   1      32.877  28.931  27.135  1.00  0.00     0.224 C 
ATOM      6  O   UNL A   1      32.014  28.162  27.575  1.00  0.00    -0.275 OA
ATOM      7  H   UNL A   1      31.887  30.492  27.849  1.00  0.00     0.163 HD
BRANCH   5   8
ATOM      8  C   UNL A   1      34.071  28.392  26.379  1.00  0.00     0.137 C 
BRANCH   8   9
ATOM      9  C   UNL A   1      33.825  27.684  25.064  1.00  0.00    -0.015 A 
ATOM     10  C   UNL A   1      33.704  26.284  24.930  1.00  0.00     0.042 A 
ATOM     11  C   UNL A   1      33.575  25.734  23.640  1.00  0.00     0.026 A 
ATOM     12  C   UNL A   1      33.521  26.539  22.503  1.00  0.00     0.002 A 
ATOM     13  C   UNL A   1      33.812  28.478  23.893  1.00  0.00     0.006 A 
ATOM     14  C   UNL A   1      33.641  27.914  22.631  1.00  0.00     0.000 A 
BRANCH  10  15
ATOM     15  N   UNL A   1      33.783  25.374  26.005  1.00  0.00    -0.355 N 
ATOM     16  H   UNL A   1      33.905  25.803  26.883  1.00  0.00     0.167 HD
BRANCH  15  17
ATOM     17  C   UNL A   1      33.719  23.963  26.059  1.00  0.00     0.045 A 
ATOM     18  C   UNL A   1      34.880  23.170  25.875  1.00  0.00    -0.024 A 
ATOM     19  C   UNL A   1      34.866  21.827  26.331  1.00  0.00     0.006 A 
ATOM     20  C   UNL A   1      33.732  21.245  26.877  1.00  0.00     0.001 A 
ATOM     21  C   UNL A   1      32.523  23.291  26.422  1.00  0.00    -0.027 A 
ATOM     22  C   UNL A   1      32.550  21.962  26.876  1.00  0.00     0.005 A 
ATOM     23  C   UNL A   1      31.170  23.921  26.227  1.00  0.00     0.046 C 
BRANCH  18  24
ATOM     24  C   UNL A   1      36.158  23.529  25.136  1.00  0.00     0.034 C 
ATOM     25  C   UNL A   1      37.541  23.216  25.683  1.00  0.00     0.009 C 
ENDBRANCH  18  24
ENDBRANCH  15  17
ENDBRANCH  10  15
ENDBRANCH   8   9
ENDBRANCH   5   8
ENDBRANCH   3   4
ENDBRANCH   2   3
ENDBRANCH   1   2
BRANCH   1  26
ATOM     26  C   UNL A   1      34.028  35.122  28.131  1.00  0.00     0.002 C 
BRANCH  26  27
ATOM     27  C   UNL A   1      33.433  36.161  29.081  1.00  0.00     0.021 C 
BRANCH  27  28
ATOM     28  C   UNL A   1      32.960  35.592  30.413  1.00  0.00     0.116 C 
BRANCH  28  29
ATOM     29  N   UNL A   1      33.565  36.214  31.581  1.00  0.00    -0.352 N 
ATOM     30  C   UNL A   1      34.506  35.690  32.449  1.00  0.00     0.251 C 
ATOM     31  H   UNL A   1      33.264  37.130  31.779  1.00  0.00     0.163 HD
ATOM     32  O   UNL A   1      34.797  36.317  33.468  1.00  0.00    -0.269 OA
BRANCH  30  33
ATOM     33  C   UNL A   1      35.227  34.446  32.084  1.00  0.00     0.039 A 
ATOM     34  C   UNL A   1      35.320  33.431  33.043  1.00  0.00     0.014 A 
ATOM     35  C   UNL A   1      35.980  34.372  30.914  1.00  0.00     0.014 A 
ATOM     36  C   UNL A   1      36.341  32.488  32.952  1.00  0.00     0.010 A 
ATOM     37  C   UNL A   1      37.042  33.496  30.861  1.00  0.00     0.010 A 
ATOM     38  C   UNL A   1      37.260  32.604  31.914  1.00  0.00    -0.014 A 
BRANCH  38  39
ATOM     39  C   UNL A   1      38.502  31.857  31.831  1.00  0.00     0.031 A 
ATOM     40  C   UNL A   1      38.537  30.563  31.135  1.00  0.00     0.074 A 
ATOM     41  C   UNL A   1      39.639  32.450  32.254  1.00  0.00     0.049 A 
ATOM     42  N   UNL A   1      39.480  29.695  31.263  1.00  0.00    -0.248 NA
ATOM     43  C   UNL A   1      37.461  30.137  30.254  1.00  0.00     0.031 C 
ATOM     44  C   UNL A   1      41.010  32.082  31.929  1.00  0.00     0.029 A 
ATOM     45  N   UNL A   1      39.768  33.406  33.265  1.00  0.00    -0.354 N 
ATOM     46  C   UNL A   1      39.294  28.742  30.283  1.00  0.00     0.074 A 
ATOM     47  C   UNL A   1      37.972  29.004  29.764  1.00  0.00     0.031 C 
ATOM     48  C   UNL A   1      41.820  32.571  32.881  1.00  0.00     0.029 A 
ATOM     49  C   UNL A   1      40.968  33.103  33.931  1.00  0.00     0.049 A 
ATOM     50  H   UNL A   1      39.145  34.141  33.470  1.00  0.00     0.167 HD
ATOM     51  C   UNL A   1      40.351  27.958  29.924  1.00  0.00     0.034 A 
ATOM     52  C   UNL A   1      41.031  32.766  35.253  1.00  0.00     0.034 A 
ATOM     53  C   UNL A   1      41.504  28.209  30.807  1.00  0.00     0.049 A 
ATOM     54  C   UNL A   1      41.663  31.405  35.490  1.00  0.00     0.074 A 
ATOM     55  C   UNL A   1      42.643  28.987  30.672  1.00  0.00     0.029 A 
ATOM     56  N   UNL A   1      41.435  27.846  32.147  1.00  0.00    -0.354 N 
ATOM     57  N   UNL A   1      41.964  30.558  34.544  1.00  0.00    -0.248 NA
ATOM     58  C   UNL A   1      41.976  30.878  36.815  1.00  0.00     0.031 C 
ATOM     59  C   UNL A   1      43.214  29.158  31.963  1.00  0.00     0.029 A 
ATOM     60  C   UNL A   1      42.445  28.457  32.876  1.00  0.00     0.049 A 
ATOM     61  H   UNL A   1      40.761  27.237  32.526  1.00  0.00     0.167 HD
ATOM     62  C   UNL A   1      42.367  29.366  35.089  1.00  0.00     0.074 A 
ATOM     63  C   UNL A   1      42.440  29.651  36.513  1.00  0.00     0.031 C 
ATOM     64  C   UNL A   1      42.539  28.243  34.319  1.00  0.00     0.034 A 
BRANCH  51  65
ATOM     65  C   UNL A   1      40.481  27.201  28.606  1.00  0.00     0.023 A 
ATOM     66  C   UNL A   1      39.631  26.086  28.417  1.00  0.00     0.012 A 
ATOM     67  C   UNL A   1      41.415  27.434  27.569  1.00  0.00     0.148 A 
ATOM     68  C   UNL A   1      39.769  25.200  27.341  1.00  0.00     0.002 A 
ATOM     69  C   UNL A   1      41.596  26.522  26.524  1.00  0.00     0.091 A 
ATOM     70  F   UNL A   1      42.090  28.583  27.524  1.00  0.00    -0.205 F 
ATOM     71  C   UNL A   1      40.777  25.398  26.410  1.00  0.00     0.022 A 
BRANCH  69  72
ATOM     72  S   UNL A   1      42.919  26.688  25.310  1.00  0.00     0.127 S 
ATOM     73  O   UNL A   1      42.491  27.864  24.547  1.00  0.00    -0.237 OA
ATOM     74  O   UNL A   1      44.094  26.906  26.151  1.00  0.00    -0.237 OA
ATOM     75  O   UNL A   1      42.925  25.451  24.538  1.00  0.00    -0.744 OA
ENDBRANCH  69  72
ENDBRANCH  51  65
BRANCH  52  76
ATOM     76  C   UNL A   1      39.939  33.373  36.072  1.00  0.00     0.023 A 
ATOM     77  C   UNL A   1      38.816  32.553  36.341  1.00  0.00     0.012 A 
ATOM     78  C   UNL A   1      40.171  34.492  36.890  1.00  0.00     0.148 A 
ATOM     79  C   UNL A   1      38.048  32.743  37.491  1.00  0.00     0.002 A 
ATOM     80  C   UNL A   1      39.391  34.682  38.031  1.00  0.00     0.091 A 
ATOM     81  F   UNL A   1      41.195  35.303  36.596  1.00  0.00    -0.205 F 
ATOM     82  C   UNL A   1      38.362  33.783  38.358  1.00  0.00     0.022 A 
BRANCH  80  83
ATOM     83  S   UNL A   1      39.758  36.003  39.195  1.00  0.00     0.127 S 
ATOM     84  O   UNL A   1      38.839  35.695  40.286  1.00  0.00    -0.237 OA
ATOM     85  O   UNL A   1      41.170  35.778  39.499  1.00  0.00    -0.237 OA
ATOM     86  O   UNL A   1      39.497  37.226  38.451  1.00  0.00    -0.744 OA
ENDBRANCH  80  83
ENDBRANCH  52  76
BRANCH  64  87
ATOM     87  C   UNL A   1      42.789  26.828  34.827  1.00  0.00     0.023 A 
ATOM     88  C   UNL A   1      41.785  26.037  35.417  1.00  0.00     0.012 A 
ATOM     89  C   UNL A   1      44.038  26.184  34.598  1.00  0.00     0.148 A 
ATOM     90  C   UNL A   1      42.010  24.708  35.802  1.00  0.00     0.002 A 
ATOM     91  C   UNL A   1      44.219  24.830  34.873  1.00  0.00     0.091 A 
ATOM     92  F   UNL A   1      45.081  26.887  34.132  1.00  0.00    -0.205 F 
ATOM     93  C   UNL A   1      43.218  24.095  35.504  1.00  0.00     0.022 A 
BRANCH  91  94
ATOM     94  S   UNL A   1      45.672  23.949  34.279  1.00  0.00     0.127 S 
ATOM     95  O   UNL A   1      45.112  22.653  33.907  1.00  0.00    -0.237 OA
ATOM     96  O   UNL A   1      46.099  24.775  33.147  1.00  0.00    -0.237 OA
ATOM     97  O   UNL A   1      46.601  23.953  35.401  1.00  0.00    -0.744 OA
ENDBRANCH  91  94
ENDBRANCH  64  87
ENDBRANCH  38  39
ENDBRANCH  30  33
ENDBRANCH  28  29
ENDBRANCH  27  28
ENDBRANCH  26  27
ENDBRANCH   1  26
TORSDOF 20
ENDMDL
MODEL 3
REMARK VINA RESULT:     -11.3      2.284      2.911
REMARK SMILES CCc1cccc(C)c1Nc1ccccc1CC(=O)NCCCCCCNC(=O)c1ccc(-c2c3nc(c(-c4cccc(S(=O)(=O)[O-])c4F)c4ccc([nH]4)c(-c4cccc(S(=O)(=O)[O-])c4F)c4nc(c(-c5cccc(S(=O)(=O)[O-])c5F)c5ccc2[nH]5)C=C4)C=C3)cc1
REMARK SMILES IDX 23 1 22 2 21 3 20 4 18 5 19 6 17 8 16 9 11 10 12 11 13 12
REMARK SMILES IDX 15 13 14 14 10 15 9 17 3 18 4 19 5 20 7 21 6 22 8 23 2 24
REMARK SMILES IDX 1 25 24 26 25 27 26 28 27 29 28 30 29 32 30 33 31 34 92 35
REMARK SMILES IDX 32 36 91 37 33 38 34 39 35 40 85 41 36 42 90 43 84 44 86 45
REMARK SMILES IDX 37 46 89 47 83 48 82 49 38 51 70 52 50 53 69 54 51 55 54 56
REMARK SMILES IDX 68 57 87 58 52 59 53 60 67 62 88 63 55 64 39 65 40 66 48 67
REMARK SMILES IDX 41 68 43 69 49 70 42 71 44 72 45 73 46 74 47 75 71 76 72 77
REMARK SMILES IDX 80 78 73 79 75 80 81 81 74 82 76 83 77 84 78 85 79 86 56 87
REMARK SMILES IDX 57 88 65 89 58 90 60 91 66 92 59 93 61 94 62 95 63 96 64 97
REMARK H PARENT 20 7 10 16 27 31 86 50 54 61
REMARK Flexibility Score: inf
ROOT
ATOM      1  C   UNL A   1      32.067  28.865  25.442  1.00  0.00     0.002 C 
ENDROOT
BRANCH   1   2
ATOM      2  C   UNL A   1      31.969  27.334  25.426  1.00  0.00     0.021 C 
BRANCH   2   3
ATOM      3  C   UNL A   1      30.897  26.730  26.335  1.00  0.00     0.116 C 
BRANCH   3   4
ATOM      4  N   UNL A   1      31.343  25.577  27.093  1.00  0.00    -0.356 N 
ATOM      5  C   UNL A   1      31.569  24.285  26.725  1.00  0.00     0.224 C 
ATOM      6  O   UNL A   1      32.250  23.599  27.497  1.00  0.00    -0.275 OA
ATOM      7  H   UNL A   1      31.512  25.761  28.045  1.00  0.00     0.163 HD
BRANCH   5   8
ATOM      8  C   UNL A   1      31.169  23.744  25.370  1.00  0.00     0.137 C 
BRANCH   8   9
ATOM      9  C   UNL A   1      32.016  24.117  24.172  1.00  0.00    -0.015 A 
ATOM     10  C   UNL A   1      33.423  24.009  24.136  1.00  0.00     0.042 A 
ATOM     11  C   UNL A   1      34.110  24.481  23.000  1.00  0.00     0.026 A 
ATOM     12  C   UNL A   1      33.433  25.007  21.901  1.00  0.00     0.002 A 
ATOM     13  C   UNL A   1      31.354  24.695  23.064  1.00  0.00     0.006 A 
ATOM     14  C   UNL A   1      32.052  25.116  21.935  1.00  0.00     0.000 A 
BRANCH  10  15
ATOM     15  N   UNL A   1      34.211  23.529  25.203  1.00  0.00    -0.355 N 
ATOM     16  H   UNL A   1      34.124  24.055  26.031  1.00  0.00     0.167 HD
BRANCH  15  17
ATOM     17  C   UNL A   1      35.100  22.436  25.307  1.00  0.00     0.045 A 
ATOM     18  C   UNL A   1      34.642  21.103  25.154  1.00  0.00    -0.024 A 
ATOM     19  C   UNL A   1      35.589  20.088  24.859  1.00  0.00     0.006 A 
ATOM     20  C   UNL A   1      36.950  20.344  24.796  1.00  0.00     0.001 A 
ATOM     21  C   UNL A   1      36.498  22.632  25.445  1.00  0.00    -0.027 A 
ATOM     22  C   UNL A   1      37.406  21.604  25.138  1.00  0.00     0.005 A 
ATOM     23  C   UNL A   1      37.068  23.894  26.034  1.00  0.00     0.046 C 
BRANCH  18  24
ATOM     24  C   UNL A   1      33.240  20.557  25.368  1.00  0.00     0.034 C 
ATOM     25  C   UNL A   1      32.578  19.587  24.405  1.00  0.00     0.009 C 
ENDBRANCH  18  24
ENDBRANCH  15  17
ENDBRANCH  10  15
ENDBRANCH   8   9
ENDBRANCH   5   8
ENDBRANCH   3   4
ENDBRANCH   2   3
ENDBRANCH   1   2
BRANCH   1  26
ATOM     26  C   UNL A   1      31.917  29.556  26.803  1.00  0.00     0.002 C 
BRANCH  26  27
ATOM     27  C   UNL A   1      32.756  30.814  27.025  1.00  0.00     0.021 C 
BRANCH  27  28
ATOM     28  C   UNL A   1      34.239  30.544  27.250  1.00  0.00     0.116 C 
BRANCH  28  29
ATOM     29  N   UNL A   1      34.935  31.588  27.986  1.00  0.00    -0.352 N 
ATOM     30  C   UNL A   1      36.098  31.494  28.728  1.00  0.00     0.251 C 
ATOM     31  H   UNL A   1      34.523  32.482  27.949  1.00  0.00     0.163 HD
ATOM     32  O   UNL A   1      36.462  32.460  29.399  1.00  0.00    -0.269 OA
BRANCH  30  33
ATOM     33  C   UNL A   1      36.942  30.279  28.616  1.00  0.00     0.039 A 
ATOM     34  C   UNL A   1      37.041  29.439  29.731  1.00  0.00     0.014 A 
ATOM     35  C   UNL A   1      37.786  30.091  27.524  1.00  0.00     0.014 A 
ATOM     36  C   UNL A   1      38.138  28.590  29.858  1.00  0.00     0.010 A 
ATOM     37  C   UNL A   1      38.915  29.318  27.680  1.00  0.00     0.010 A 
ATOM     38  C   UNL A   1      39.122  28.626  28.875  1.00  0.00    -0.014 A 
BRANCH  38  39
ATOM     39  C   UNL A   1      40.422  27.991  28.992  1.00  0.00     0.031 A 
ATOM     40  C   UNL A   1      40.563  26.550  28.741  1.00  0.00     0.074 A 
ATOM     41  C   UNL A   1      41.507  28.774  29.169  1.00  0.00     0.049 A 
ATOM     42  N   UNL A   1      41.577  25.845  29.107  1.00  0.00    -0.248 NA
ATOM     43  C   UNL A   1      39.522  25.783  28.075  1.00  0.00     0.031 C 
ATOM     44  C   UNL A   1      42.902  28.432  28.934  1.00  0.00     0.029 A 
ATOM     45  N   UNL A   1      41.561  30.010  29.821  1.00  0.00    -0.354 N 
ATOM     46  C   UNL A   1      41.467  24.618  28.485  1.00  0.00     0.074 A 
ATOM     47  C   UNL A   1      40.124  24.596  27.953  1.00  0.00     0.031 C 
ATOM     48  C   UNL A   1      43.674  29.260  29.655  1.00  0.00     0.029 A 
ATOM     49  C   UNL A   1      42.786  30.030  30.510  1.00  0.00     0.049 A 
ATOM     50  H   UNL A   1      40.879  30.721  29.803  1.00  0.00     0.167 HD
ATOM     51  C   UNL A   1      42.584  23.846  28.359  1.00  0.00     0.034 A 
ATOM     52  C   UNL A   1      42.885  30.137  31.867  1.00  0.00     0.034 A 
ATOM     53  C   UNL A   1      43.717  24.455  29.079  1.00  0.00     0.049 A 
ATOM     54  C   UNL A   1      43.632  28.976  32.502  1.00  0.00     0.074 A 
ATOM     55  C   UNL A   1      44.785  25.236  28.667  1.00  0.00     0.029 A 
ATOM     56  N   UNL A   1      43.687  24.532  30.466  1.00  0.00    -0.354 N 
ATOM     57  N   UNL A   1      43.997  27.899  31.864  1.00  0.00    -0.248 NA
ATOM     58  C   UNL A   1      43.996  28.923  33.915  1.00  0.00     0.031 C 
ATOM     59  C   UNL A   1      45.347  25.853  29.819  1.00  0.00     0.029 A 
ATOM     60  C   UNL A   1      44.645  25.420  30.931  1.00  0.00     0.049 A 
ATOM     61  H   UNL A   1      43.069  24.024  31.041  1.00  0.00     0.167 HD
ATOM     62  C   UNL A   1      44.503  26.976  32.744  1.00  0.00     0.074 A 
ATOM     63  C   UNL A   1      44.560  27.705  34.002  1.00  0.00     0.031 C 
ATOM     64  C   UNL A   1      44.766  25.685  32.364  1.00  0.00     0.034 A 
BRANCH  51  65
ATOM     65  C   UNL A   1      42.770  22.722  27.344  1.00  0.00     0.023 A 
ATOM     66  C   UNL A   1      42.068  21.517  27.582  1.00  0.00     0.012 A 
ATOM     67  C   UNL A   1      43.633  22.710  26.223  1.00  0.00     0.148 A 
ATOM     68  C   UNL A   1      42.286  20.351  26.836  1.00  0.00     0.002 A 
ATOM     69  C   UNL A   1      43.898  21.534  25.512  1.00  0.00     0.091 A 
ATOM     70  F   UNL A   1      44.150  23.850  25.766  1.00  0.00    -0.205 F 
ATOM     71  C   UNL A   1      43.230  20.349  25.821  1.00  0.00     0.022 A 
BRANCH  69  72
ATOM     72  S   UNL A   1      45.150  21.446  24.216  1.00  0.00     0.127 S 
ATOM     73  O   UNL A   1      46.381  21.263  24.988  1.00  0.00    -0.237 OA
ATOM     74  O   UNL A   1      44.732  20.272  23.454  1.00  0.00    -0.237 OA
ATOM     75  O   UNL A   1      45.084  22.714  23.497  1.00  0.00    -0.744 OA
ENDBRANCH  69  72
ENDBRANCH  51  65
BRANCH  52  76
ATOM     76  C   UNL A   1      41.750  30.885  32.487  1.00  0.00     0.023 A 
ATOM     77  C   UNL A   1      40.585  30.138  32.788  1.00  0.00     0.012 A 
ATOM     78  C   UNL A   1      41.950  32.115  33.136  1.00  0.00     0.148 A 
ATOM     79  C   UNL A   1      39.734  30.521  33.826  1.00  0.00     0.002 A 
ATOM     80  C   UNL A   1      41.088  32.498  34.164  1.00  0.00     0.091 A 
ATOM     81  F   UNL A   1      43.018  32.852  32.804  1.00  0.00    -0.205 F 
ATOM     82  C   UNL A   1      40.010  31.681  34.541  1.00  0.00     0.022 A 
BRANCH  80  83
ATOM     83  S   UNL A   1      41.401  33.981  35.132  1.00  0.00     0.127 S 
ATOM     84  O   UNL A   1      40.558  33.750  36.301  1.00  0.00    -0.237 OA
ATOM     85  O   UNL A   1      42.838  33.900  35.386  1.00  0.00    -0.237 OA
ATOM     86  O   UNL A   1      41.012  35.076  34.255  1.00  0.00    -0.744 OA
ENDBRANCH  80  83
ENDBRANCH  52  76
BRANCH  64  87
ATOM     87  C   UNL A   1      45.138  24.528  33.286  1.00  0.00     0.023 A 
ATOM     88  C   UNL A   1      44.280  23.441  33.534  1.00  0.00     0.012 A 
ATOM     89  C   UNL A   1      46.446  24.431  33.836  1.00  0.00     0.148 A 
ATOM     90  C   UNL A   1      44.670  22.345  34.317  1.00  0.00     0.002 A 
ATOM     91  C   UNL A   1      46.868  23.288  34.512  1.00  0.00     0.091 A 
ATOM     92  F   UNL A   1      47.297  25.464  33.734  1.00  0.00    -0.205 F 
ATOM     93  C   UNL A   1      45.973  22.255  34.782  1.00  0.00     0.022 A 
BRANCH  91  94
ATOM     94  S   UNL A   1      48.604  23.033  34.911  1.00  0.00     0.127 S 
ATOM     95  O   UNL A   1      48.793  23.936  36.043  1.00  0.00    -0.237 OA
ATOM     96  O   UNL A   1      48.642  21.609  35.254  1.00  0.00    -0.237 OA
ATOM     97  O   UNL A   1      49.326  23.369  33.690  1.00  0.00    -0.744 OA
ENDBRANCH  91  94
ENDBRANCH  64  87
ENDBRANCH  38  39
ENDBRANCH  30  33
ENDBRANCH  28  29
ENDBRANCH  27  28
ENDBRANCH  26  27
ENDBRANCH   1  26
TORSDOF 20
ENDMDL
