MODEL 1
REMARK VINA RESULT:     -12.4      0.000      0.000
REMARK SMILES C[C@@H]1CCc2nc(NC(=O)[C@H]3CC=CC[C@@H]3C(=O)NCCCCCCNC(=O)c3ccc(-c4c5nc(c(-c6cccc(S(=O)(=O)[O-])c6F)c6ccc([nH]6)c(-c6cccc(S(=O)(=O)[O-])c6F)c6nc(c(-c7cccc(S(=O)(=O)[O-])c7F)c7ccc4[nH]7)C=C6)C=C5)cc3)sc2C1
REMARK SMILES IDX 23 1 22 2 21 3 20 4 19 5 17 6 18 7 16 9 11 10 12 11 13 12
REMARK SMILES IDX 15 13 14 14 9 15 8 16 10 18 7 19 1 20 2 21 3 22 94 23 4 24
REMARK SMILES IDX 93 25 5 26 92 27 6 28 24 29 25 30 26 31 27 32 28 34 29 35
REMARK SMILES IDX 30 36 91 37 31 38 90 39 32 40 33 41 34 42 84 43 35 44 89 45
REMARK SMILES IDX 83 46 85 47 36 48 88 49 82 50 81 51 37 53 69 54 49 55 68 56
REMARK SMILES IDX 50 57 53 58 67 59 86 60 51 61 52 62 66 64 87 65 54 66 38 67
REMARK SMILES IDX 39 68 47 69 40 70 42 71 48 72 41 73 43 74 44 75 45 76 46 77
REMARK SMILES IDX 70 78 71 79 79 80 72 81 74 82 80 83 73 84 75 85 76 86 77 87
REMARK SMILES IDX 78 88 55 89 56 90 64 91 57 92 59 93 65 94 58 95 60 96 61 97
REMARK SMILES IDX 62 98 63 99
REMARK H PARENT 19 8 8 17 26 33 85 52 53 63
REMARK Flexibility Score: inf
ROOT
ATOM      1  C   UNL A   1      37.614  21.498  25.107  1.00  0.00     0.002 C 
ENDROOT
BRANCH   1   2
ATOM      2  C   UNL A   1      36.689  21.878  23.942  1.00  0.00     0.002 C 
BRANCH   2   3
ATOM      3  C   UNL A   1      36.101  23.292  23.941  1.00  0.00     0.021 C 
BRANCH   3   4
ATOM      4  C   UNL A   1      34.822  23.486  23.137  1.00  0.00     0.116 C 
BRANCH   4   5
ATOM      5  N   UNL A   1      34.406  24.868  23.040  1.00  0.00    -0.356 N 
ATOM      6  C   UNL A   1      33.781  25.661  23.949  1.00  0.00     0.224 C 
ATOM      7  O   UNL A   1      33.547  26.819  23.585  1.00  0.00    -0.275 OA
ATOM      8  H   UNL A   1      34.609  25.303  22.181  1.00  0.00     0.163 HD
BRANCH   6   9
ATOM      9  C   UNL A   1      33.315  25.131  25.316  1.00  0.00     0.095 C 
ATOM     10  C   UNL A   1      32.063  24.207  25.104  1.00  0.00     0.095 C 
ATOM     11  C   UNL A   1      30.859  25.093  24.680  1.00  0.00     0.041 C 
ATOM     12  C   UNL A   1      30.769  26.459  25.277  1.00  0.00    -0.030 C 
ATOM     13  C   UNL A   1      32.970  26.204  26.375  1.00  0.00     0.041 C 
ATOM     14  C   UNL A   1      31.710  26.953  26.085  1.00  0.00    -0.030 C 
BRANCH  10  15
ATOM     15  C   UNL A   1      31.863  23.304  26.337  1.00  0.00     0.230 C 
ATOM     16  N   UNL A   1      32.144  21.979  26.401  1.00  0.00    -0.302 N 
ATOM     17  H   UNL A   1      31.902  21.565  27.263  1.00  0.00     0.172 HD
ATOM     18  O   UNL A   1      31.415  23.784  27.389  1.00  0.00    -0.274 OA
BRANCH  16  19
ATOM     19  C   UNL A   1      32.692  21.105  25.514  1.00  0.00     0.189 A 
ATOM     20  C   UNL A   1      32.961  16.064  24.647  1.00  0.00     0.008 C 
ATOM     21  C   UNL A   1      33.519  16.927  23.505  1.00  0.00    -0.009 C 
ATOM     22  C   UNL A   1      34.950  17.422  23.837  1.00  0.00     0.010 C 
ATOM     23  C   UNL A   1      32.578  18.112  23.154  1.00  0.00     0.052 C 
ATOM     24  C   UNL A   1      34.989  18.385  25.039  1.00  0.00     0.058 C 
ATOM     25  C   UNL A   1      32.878  19.296  24.008  1.00  0.00     0.030 A 
ATOM     26  C   UNL A   1      33.921  19.412  24.903  1.00  0.00     0.057 A 
ATOM     27  S   UNL A   1      31.992  20.752  23.994  1.00  0.00    -0.101 S 
ATOM     28  N   UNL A   1      33.831  20.491  25.755  1.00  0.00    -0.225 NA
ENDBRANCH  16  19
ENDBRANCH  10  15
ENDBRANCH   6   9
ENDBRANCH   4   5
ENDBRANCH   3   4
ENDBRANCH   2   3
ENDBRANCH   1   2
BRANCH   1  29
ATOM     29  C   UNL A   1      38.438  20.212  24.969  1.00  0.00     0.021 C 
BRANCH  29  30
ATOM     30  C   UNL A   1      39.262  19.840  26.193  1.00  0.00     0.116 C 
BRANCH  30  31
ATOM     31  N   UNL A   1      40.460  19.064  25.872  1.00  0.00    -0.352 N 
ATOM     32  C   UNL A   1      41.759  19.526  25.725  1.00  0.00     0.251 C 
ATOM     33  H   UNL A   1      40.328  18.097  25.745  1.00  0.00     0.163 HD
ATOM     34  O   UNL A   1      42.591  18.886  25.108  1.00  0.00    -0.269 OA
BRANCH  32  35
ATOM     35  C   UNL A   1      42.113  20.816  26.351  1.00  0.00     0.039 A 
ATOM     36  C   UNL A   1      42.532  21.918  25.598  1.00  0.00     0.014 A 
ATOM     37  C   UNL A   1      41.977  20.909  27.731  1.00  0.00     0.014 A 
ATOM     38  C   UNL A   1      42.727  23.138  26.246  1.00  0.00     0.010 A 
ATOM     39  C   UNL A   1      41.986  22.138  28.330  1.00  0.00     0.010 A 
ATOM     40  C   UNL A   1      42.432  23.242  27.614  1.00  0.00    -0.014 A 
BRANCH  40  41
ATOM     41  C   UNL A   1      42.466  24.518  28.319  1.00  0.00     0.031 A 
ATOM     42  C   UNL A   1      41.261  25.362  28.106  1.00  0.00     0.074 A 
ATOM     43  C   UNL A   1      43.386  24.780  29.276  1.00  0.00     0.049 A 
ATOM     44  N   UNL A   1      41.177  26.456  27.425  1.00  0.00    -0.248 NA
ATOM     45  C   UNL A   1      39.958  24.844  28.553  1.00  0.00     0.031 C 
ATOM     46  C   UNL A   1      44.429  23.871  29.787  1.00  0.00     0.029 A 
ATOM     47  N   UNL A   1      43.502  25.853  30.106  1.00  0.00    -0.354 N 
ATOM     48  C   UNL A   1      39.867  26.904  27.601  1.00  0.00     0.074 A 
ATOM     49  C   UNL A   1      39.123  25.769  28.073  1.00  0.00     0.031 C 
ATOM     50  C   UNL A   1      44.880  24.319  30.978  1.00  0.00     0.029 A 
ATOM     51  C   UNL A   1      44.314  25.631  31.217  1.00  0.00     0.049 A 
ATOM     52  H   UNL A   1      43.050  26.711  29.936  1.00  0.00     0.167 HD
ATOM     53  C   UNL A   1      39.590  28.238  27.651  1.00  0.00     0.034 A 
ATOM     54  C   UNL A   1      44.507  26.468  32.263  1.00  0.00     0.034 A 
ATOM     55  C   UNL A   1      40.751  29.002  27.264  1.00  0.00     0.049 A 
ATOM     56  C   UNL A   1      44.146  27.820  31.798  1.00  0.00     0.074 A 
ATOM     57  C   UNL A   1      41.452  29.258  26.107  1.00  0.00     0.029 A 
ATOM     58  N   UNL A   1      41.565  29.323  28.321  1.00  0.00    -0.354 N 
ATOM     59  N   UNL A   1      44.824  28.460  30.886  1.00  0.00    -0.248 NA
ATOM     60  C   UNL A   1      42.821  28.349  32.085  1.00  0.00     0.031 C 
ATOM     61  C   UNL A   1      42.794  29.510  26.517  1.00  0.00     0.029 A 
ATOM     62  C   UNL A   1      42.861  29.448  27.909  1.00  0.00     0.049 A 
ATOM     63  H   UNL A   1      41.257  29.445  29.248  1.00  0.00     0.167 HD
ATOM     64  C   UNL A   1      43.854  29.143  30.175  1.00  0.00     0.074 A 
ATOM     65  C   UNL A   1      42.699  29.203  31.064  1.00  0.00     0.031 C 
ATOM     66  C   UNL A   1      43.970  29.299  28.826  1.00  0.00     0.034 A 
BRANCH  53  67
ATOM     67  C   UNL A   1      38.506  28.913  28.480  1.00  0.00     0.023 A 
ATOM     68  C   UNL A   1      37.691  29.856  27.806  1.00  0.00     0.012 A 
ATOM     69  C   UNL A   1      38.437  28.918  29.891  1.00  0.00     0.148 A 
ATOM     70  C   UNL A   1      36.914  30.796  28.493  1.00  0.00     0.002 A 
ATOM     71  C   UNL A   1      37.613  29.813  30.571  1.00  0.00     0.091 A 
ATOM     72  F   UNL A   1      39.254  28.148  30.608  1.00  0.00    -0.205 F 
ATOM     73  C   UNL A   1      36.876  30.775  29.879  1.00  0.00     0.022 A 
BRANCH  71  74
ATOM     74  S   UNL A   1      37.501  29.817  32.367  1.00  0.00     0.127 S 
ATOM     75  O   UNL A   1      38.759  30.459  32.736  1.00  0.00    -0.237 OA
ATOM     76  O   UNL A   1      36.303  30.627  32.588  1.00  0.00    -0.237 OA
ATOM     77  O   UNL A   1      37.359  28.420  32.756  1.00  0.00    -0.744 OA
ENDBRANCH  71  74
ENDBRANCH  53  67
BRANCH  54  78
ATOM     78  C   UNL A   1      44.868  26.224  33.674  1.00  0.00     0.023 A 
ATOM     79  C   UNL A   1      46.198  26.421  34.097  1.00  0.00     0.012 A 
ATOM     80  C   UNL A   1      43.858  26.122  34.654  1.00  0.00     0.148 A 
ATOM     81  C   UNL A   1      46.507  26.575  35.452  1.00  0.00     0.002 A 
ATOM     82  C   UNL A   1      44.170  26.288  36.001  1.00  0.00     0.091 A 
ATOM     83  F   UNL A   1      42.590  25.961  34.251  1.00  0.00    -0.205 F 
ATOM     84  C   UNL A   1      45.492  26.529  36.402  1.00  0.00     0.022 A 
BRANCH  82  85
ATOM     85  S   UNL A   1      42.914  26.309  37.288  1.00  0.00     0.127 S 
ATOM     86  O   UNL A   1      43.728  26.389  38.501  1.00  0.00    -0.237 OA
ATOM     87  O   UNL A   1      42.175  27.527  36.964  1.00  0.00    -0.237 OA
ATOM     88  O   UNL A   1      42.172  25.064  37.139  1.00  0.00    -0.744 OA
ENDBRANCH  82  85
ENDBRANCH  54  78
BRANCH  66  89
ATOM     89  C   UNL A   1      45.336  29.118  28.229  1.00  0.00     0.023 A 
ATOM     90  C   UNL A   1      46.360  30.080  28.341  1.00  0.00     0.012 A 
ATOM     91  C   UNL A   1      45.621  27.881  27.633  1.00  0.00     0.148 A 
ATOM     92  C   UNL A   1      47.641  29.816  27.847  1.00  0.00     0.002 A 
ATOM     93  C   UNL A   1      46.905  27.603  27.188  1.00  0.00     0.091 A 
ATOM     94  F   UNL A   1      44.629  26.984  27.531  1.00  0.00    -0.205 F 
ATOM     95  C   UNL A   1      47.917  28.572  27.283  1.00  0.00     0.022 A 
BRANCH  93  96
ATOM     96  S   UNL A   1      47.343  25.979  26.569  1.00  0.00     0.127 S 
ATOM     97  O   UNL A   1      48.777  26.121  26.328  1.00  0.00    -0.237 OA
ATOM     98  O   UNL A   1      46.992  25.111  27.694  1.00  0.00    -0.237 OA
ATOM     99  O   UNL A   1      46.524  25.770  25.381  1.00  0.00    -0.744 OA
ENDBRANCH  93  96
ENDBRANCH  66  89
ENDBRANCH  40  41
ENDBRANCH  32  35
ENDBRANCH  30  31
ENDBRANCH  29  30
ENDBRANCH   1  29
TORSDOF 18
ENDMDL
MODEL 2
REMARK VINA RESULT:     -12.2      3.073      7.632
REMARK SMILES C[C@@H]1CCc2nc(NC(=O)[C@H]3CC=CC[C@@H]3C(=O)NCCCCCCNC(=O)c3ccc(-c4c5nc(c(-c6cccc(S(=O)(=O)[O-])c6F)c6ccc([nH]6)c(-c6cccc(S(=O)(=O)[O-])c6F)c6nc(c(-c7cccc(S(=O)(=O)[O-])c7F)c7ccc4[nH]7)C=C6)C=C5)cc3)sc2C1
REMARK SMILES IDX 23 1 22 2 21 3 20 4 19 5 17 6 18 7 16 9 11 10 12 11 13 12
REMARK SMILES IDX 15 13 14 14 9 15 8 16 10 18 7 19 1 20 2 21 3 22 94 23 4 24
REMARK SMILES IDX 93 25 5 26 92 27 6 28 24 29 25 30 26 31 27 32 28 34 29 35
REMARK SMILES IDX 30 36 91 37 31 38 90 39 32 40 33 41 34 42 84 43 35 44 89 45
REMARK SMILES IDX 83 46 85 47 36 48 88 49 82 50 81 51 37 53 69 54 49 55 68 56
REMARK SMILES IDX 50 57 53 58 67 59 86 60 51 61 52 62 66 64 87 65 54 66 38 67
REMARK SMILES IDX 39 68 47 69 40 70 42 71 48 72 41 73 43 74 44 75 45 76 46 77
REMARK SMILES IDX 70 78 71 79 79 80 72 81 74 82 80 83 73 84 75 85 76 86 77 87
REMARK SMILES IDX 78 88 55 89 56 90 64 91 57 92 59 93 65 94 58 95 60 96 61 97
REMARK SMILES IDX 62 98 63 99
REMARK H PARENT 19 8 8 17 26 33 85 52 53 63
REMARK Flexibility Score: inf
ROOT
ATOM      1  C   UNL A   1      34.620  28.971  26.909  1.00  0.00     0.002 C 
ENDROOT
BRANCH   1   2
ATOM      2  C   UNL A   1      33.658  27.856  26.474  1.00  0.00     0.002 C 
BRANCH   2   3
ATOM      3  C   UNL A   1      34.276  26.543  25.987  1.00  0.00     0.021 C 
BRANCH   3   4
ATOM      4  C   UNL A   1      33.299  25.418  25.669  1.00  0.00     0.116 C 
BRANCH   4   5
ATOM      5  N   UNL A   1      31.987  25.614  26.245  1.00  0.00    -0.356 N 
ATOM      6  C   UNL A   1      30.761  25.592  25.662  1.00  0.00     0.224 C 
ATOM      7  O   UNL A   1      29.801  25.796  26.415  1.00  0.00    -0.275 OA
ATOM      8  H   UNL A   1      31.982  25.791  27.214  1.00  0.00     0.163 HD
BRANCH   6   9
ATOM      9  C   UNL A   1      30.577  25.411  24.145  1.00  0.00     0.095 C 
ATOM     10  C   UNL A   1      31.690  26.228  23.396  1.00  0.00     0.095 C 
ATOM     11  C   UNL A   1      31.397  27.743  23.573  1.00  0.00     0.041 C 
ATOM     12  C   UNL A   1      29.964  28.164  23.607  1.00  0.00    -0.030 C 
ATOM     13  C   UNL A   1      29.196  25.814  23.579  1.00  0.00     0.041 C 
ATOM     14  C   UNL A   1      28.957  27.289  23.567  1.00  0.00    -0.030 C 
BRANCH  10  15
ATOM     15  C   UNL A   1      31.837  25.710  21.952  1.00  0.00     0.230 C 
ATOM     16  N   UNL A   1      32.482  24.576  21.580  1.00  0.00    -0.302 N 
ATOM     17  H   UNL A   1      32.509  24.440  20.604  1.00  0.00     0.172 HD
ATOM     18  O   UNL A   1      31.337  26.346  21.013  1.00  0.00    -0.274 OA
BRANCH  16  19
ATOM     19  C   UNL A   1      33.098  23.588  22.284  1.00  0.00     0.189 A 
ATOM     20  C   UNL A   1      34.527  22.511  27.084  1.00  0.00     0.008 C 
ATOM     21  C   UNL A   1      34.665  21.332  26.108  1.00  0.00    -0.009 C 
ATOM     22  C   UNL A   1      35.953  21.468  25.256  1.00  0.00     0.010 C 
ATOM     23  C   UNL A   1      33.408  21.165  25.211  1.00  0.00     0.052 C 
ATOM     24  C   UNL A   1      35.921  22.686  24.312  1.00  0.00     0.058 C 
ATOM     25  C   UNL A   1      33.516  22.007  23.988  1.00  0.00     0.030 A 
ATOM     26  C   UNL A   1      34.616  22.744  23.600  1.00  0.00     0.057 A 
ATOM     27  S   UNL A   1      32.293  22.174  22.813  1.00  0.00    -0.101 S 
ATOM     28  N   UNL A   1      34.379  23.637  22.578  1.00  0.00    -0.225 NA
ENDBRANCH  16  19
ENDBRANCH  10  15
ENDBRANCH   6   9
ENDBRANCH   4   5
ENDBRANCH   3   4
ENDBRANCH   2   3
ENDBRANCH   1   2
BRANCH   1  29
ATOM     29  C   UNL A   1      34.015  30.340  27.242  1.00  0.00     0.021 C 
BRANCH  29  30
ATOM     30  C   UNL A   1      35.027  31.432  27.556  1.00  0.00     0.116 C 
BRANCH  30  31
ATOM     31  N   UNL A   1      34.680  32.224  28.737  1.00  0.00    -0.352 N 
ATOM     32  C   UNL A   1      35.111  32.039  30.042  1.00  0.00     0.251 C 
ATOM     33  H   UNL A   1      34.066  32.978  28.586  1.00  0.00     0.163 HD
ATOM     34  O   UNL A   1      34.492  32.501  30.983  1.00  0.00    -0.269 OA
BRANCH  32  35
ATOM     35  C   UNL A   1      36.356  31.275  30.261  1.00  0.00     0.039 A 
ATOM     36  C   UNL A   1      36.368  29.878  30.328  1.00  0.00     0.014 A 
ATOM     37  C   UNL A   1      37.536  32.002  30.362  1.00  0.00     0.014 A 
ATOM     38  C   UNL A   1      37.597  29.222  30.411  1.00  0.00     0.010 A 
ATOM     39  C   UNL A   1      38.738  31.359  30.255  1.00  0.00     0.010 A 
ATOM     40  C   UNL A   1      38.781  29.974  30.354  1.00  0.00    -0.014 A 
BRANCH  40  41
ATOM     41  C   UNL A   1      40.095  29.345  30.281  1.00  0.00     0.031 A 
ATOM     42  C   UNL A   1      40.734  29.119  31.604  1.00  0.00     0.074 A 
ATOM     43  C   UNL A   1      40.556  28.790  29.137  1.00  0.00     0.049 A 
ATOM     44  N   UNL A   1      41.753  29.737  32.101  1.00  0.00    -0.248 NA
ATOM     45  C   UNL A   1      40.062  28.225  32.560  1.00  0.00     0.031 C 
ATOM     46  C   UNL A   1      39.850  28.679  27.848  1.00  0.00     0.029 A 
ATOM     47  N   UNL A   1      41.691  28.071  28.912  1.00  0.00    -0.354 N 
ATOM     48  C   UNL A   1      42.014  29.105  33.318  1.00  0.00     0.074 A 
ATOM     49  C   UNL A   1      40.818  28.382  33.651  1.00  0.00     0.031 C 
ATOM     50  C   UNL A   1      40.443  27.737  27.082  1.00  0.00     0.029 A 
ATOM     51  C   UNL A   1      41.670  27.326  27.734  1.00  0.00     0.049 A 
ATOM     52  H   UNL A   1      42.458  28.077  29.528  1.00  0.00     0.167 HD
ATOM     53  C   UNL A   1      43.293  28.976  33.773  1.00  0.00     0.034 A 
ATOM     54  C   UNL A   1      42.598  26.432  27.321  1.00  0.00     0.034 A 
ATOM     55  C   UNL A   1      44.190  29.766  32.966  1.00  0.00     0.049 A 
ATOM     56  C   UNL A   1      43.846  26.752  28.039  1.00  0.00     0.074 A 
ATOM     57  C   UNL A   1      44.464  31.101  32.774  1.00  0.00     0.029 A 
ATOM     58  N   UNL A   1      44.701  29.079  31.895  1.00  0.00    -0.354 N 
ATOM     59  N   UNL A   1      44.513  27.854  27.844  1.00  0.00    -0.248 NA
ATOM     60  C   UNL A   1      44.192  26.011  29.244  1.00  0.00     0.031 C 
ATOM     61  C   UNL A   1      44.941  31.207  31.434  1.00  0.00     0.029 A 
ATOM     62  C   UNL A   1      44.988  29.932  30.868  1.00  0.00     0.049 A 
ATOM     63  H   UNL A   1      44.842  28.104  31.869  1.00  0.00     0.167 HD
ATOM     64  C   UNL A   1      44.993  28.175  29.100  1.00  0.00     0.074 A 
ATOM     65  C   UNL A   1      44.944  26.930  29.858  1.00  0.00     0.031 C 
ATOM     66  C   UNL A   1      45.069  29.477  29.498  1.00  0.00     0.034 A 
BRANCH  53  67
ATOM     67  C   UNL A   1      43.857  27.819  34.587  1.00  0.00     0.023 A 
ATOM     68  C   UNL A   1      44.733  28.162  35.647  1.00  0.00     0.012 A 
ATOM     69  C   UNL A   1      43.836  26.459  34.204  1.00  0.00     0.148 A 
ATOM     70  C   UNL A   1      45.590  27.226  36.237  1.00  0.00     0.002 A 
ATOM     71  C   UNL A   1      44.645  25.517  34.837  1.00  0.00     0.091 A 
ATOM     72  F   UNL A   1      43.131  26.070  33.142  1.00  0.00    -0.205 F 
ATOM     73  C   UNL A   1      45.547  25.901  35.831  1.00  0.00     0.022 A 
BRANCH  71  74
ATOM     74  S   UNL A   1      44.614  23.780  34.371  1.00  0.00     0.127 S 
ATOM     75  O   UNL A   1      45.551  23.204  35.330  1.00  0.00    -0.237 OA
ATOM     76  O   UNL A   1      43.209  23.438  34.594  1.00  0.00    -0.237 OA
ATOM     77  O   UNL A   1      45.024  23.740  32.973  1.00  0.00    -0.744 OA
ENDBRANCH  71  74
ENDBRANCH  53  67
BRANCH  54  78
ATOM     78  C   UNL A   1      42.511  25.243  26.449  1.00  0.00     0.023 A 
ATOM     79  C   UNL A   1      43.365  25.134  25.333  1.00  0.00     0.012 A 
ATOM     80  C   UNL A   1      41.834  24.089  26.894  1.00  0.00     0.148 A 
ATOM     81  C   UNL A   1      43.589  23.900  24.716  1.00  0.00     0.002 A 
ATOM     82  C   UNL A   1      42.069  22.860  26.282  1.00  0.00     0.091 A 
ATOM     83  F   UNL A   1      41.041  24.187  27.970  1.00  0.00    -0.205 F 
ATOM     84  C   UNL A   1      42.957  22.759  25.202  1.00  0.00     0.022 A 
BRANCH  82  85
ATOM     85  S   UNL A   1      41.347  21.327  26.885  1.00  0.00     0.127 S 
ATOM     86  O   UNL A   1      41.561  20.427  25.752  1.00  0.00    -0.237 OA
ATOM     87  O   UNL A   1      42.177  21.046  28.055  1.00  0.00    -0.237 OA
ATOM     88  O   UNL A   1      39.949  21.628  27.164  1.00  0.00    -0.744 OA
ENDBRANCH  82  85
ENDBRANCH  54  78
BRANCH  66  89
ATOM     89  C   UNL A   1      45.051  30.525  28.423  1.00  0.00     0.023 A 
ATOM     90  C   UNL A   1      43.862  31.024  27.853  1.00  0.00     0.012 A 
ATOM     91  C   UNL A   1      46.277  31.101  28.062  1.00  0.00     0.148 A 
ATOM     92  C   UNL A   1      43.902  32.069  26.925  1.00  0.00     0.002 A 
ATOM     93  C   UNL A   1      46.310  32.170  27.177  1.00  0.00     0.091 A 
ATOM     94  F   UNL A   1      47.395  30.605  28.611  1.00  0.00    -0.205 F 
ATOM     95  C   UNL A   1      45.125  32.651  26.597  1.00  0.00     0.022 A 
BRANCH  93  96
ATOM     96  S   UNL A   1      47.839  33.032  26.818  1.00  0.00     0.127 S 
ATOM     97  O   UNL A   1      47.432  33.944  25.752  1.00  0.00    -0.237 OA
ATOM     98  O   UNL A   1      48.142  33.677  28.096  1.00  0.00    -0.237 OA
ATOM     99  O   UNL A   1      48.798  32.003  26.432  1.00  0.00    -0.744 OA
ENDBRANCH  93  96
ENDBRANCH  66  89
ENDBRANCH  40  41
ENDBRANCH  32  35
ENDBRANCH  30  31
ENDBRANCH  29  30
ENDBRANCH   1  29
TORSDOF 18
ENDMDL
MODEL 3
REMARK VINA RESULT:     -12.2      3.273      8.470
REMARK SMILES C[C@@H]1CCc2nc(NC(=O)[C@H]3CC=CC[C@@H]3C(=O)NCCCCCCNC(=O)c3ccc(-c4c5nc(c(-c6cccc(S(=O)(=O)[O-])c6F)c6ccc([nH]6)c(-c6cccc(S(=O)(=O)[O-])c6F)c6nc(c(-c7cccc(S(=O)(=O)[O-])c7F)c7ccc4[nH]7)C=C6)C=C5)cc3)sc2C1
REMARK SMILES IDX 23 1 22 2 21 3 20 4 19 5 17 6 18 7 16 9 11 10 12 11 13 12
REMARK SMILES IDX 15 13 14 14 9 15 8 16 10 18 7 19 1 20 2 21 3 22 94 23 4 24
REMARK SMILES IDX 93 25 5 26 92 27 6 28 24 29 25 30 26 31 27 32 28 34 29 35
REMARK SMILES IDX 30 36 91 37 31 38 90 39 32 40 33 41 34 42 84 43 35 44 89 45
REMARK SMILES IDX 83 46 85 47 36 48 88 49 82 50 81 51 37 53 69 54 49 55 68 56
REMARK SMILES IDX 50 57 53 58 67 59 86 60 51 61 52 62 66 64 87 65 54 66 38 67
REMARK SMILES IDX 39 68 47 69 40 70 42 71 48 72 41 73 43 74 44 75 45 76 46 77
REMARK SMILES IDX 70 78 71 79 79 80 72 81 74 82 80 83 73 84 75 85 76 86 77 87
REMARK SMILES IDX 78 88 55 89 56 90 64 91 57 92 59 93 65 94 58 95 60 96 61 97
REMARK SMILES IDX 62 98 63 99
REMARK H PARENT 19 8 8 17 26 33 85 52 53 63
REMARK Flexibility Score: inf
ROOT
ATOM      1  C   UNL A   1      32.783  29.946  26.133  1.00  0.00     0.002 C 
ENDROOT
BRANCH   1   2
ATOM      2  C   UNL A   1      32.902  28.472  26.544  1.00  0.00     0.002 C 
BRANCH   2   3
ATOM      3  C   UNL A   1      31.681  27.821  27.200  1.00  0.00     0.021 C 
BRANCH   3   4
ATOM      4  C   UNL A   1      31.053  26.657  26.444  1.00  0.00     0.116 C 
BRANCH   4   5
ATOM      5  N   UNL A   1      31.660  25.380  26.747  1.00  0.00    -0.356 N 
ATOM      6  C   UNL A   1      32.686  24.730  26.139  1.00  0.00     0.224 C 
ATOM      7  O   UNL A   1      32.995  23.635  26.623  1.00  0.00    -0.275 OA
ATOM      8  H   UNL A   1      31.268  24.906  27.516  1.00  0.00     0.163 HD
BRANCH   6   9
ATOM      9  C   UNL A   1      33.368  25.278  24.873  1.00  0.00     0.095 C 
ATOM     10  C   UNL A   1      32.485  24.923  23.624  1.00  0.00     0.095 C 
ATOM     11  C   UNL A   1      32.558  23.390  23.385  1.00  0.00     0.041 C 
ATOM     12  C   UNL A   1      33.855  22.711  23.684  1.00  0.00    -0.030 C 
ATOM     13  C   UNL A   1      34.813  24.789  24.619  1.00  0.00     0.041 C 
ATOM     14  C   UNL A   1      34.900  23.356  24.207  1.00  0.00    -0.030 C 
BRANCH  10  15
ATOM     15  C   UNL A   1      32.865  25.832  22.438  1.00  0.00     0.230 C 
ATOM     16  N   UNL A   1      32.259  27.001  22.113  1.00  0.00    -0.302 N 
ATOM     17  H   UNL A   1      32.614  27.413  21.291  1.00  0.00     0.172 HD
ATOM     18  O   UNL A   1      33.801  25.515  21.691  1.00  0.00    -0.274 OA
BRANCH  16  19
ATOM     19  C   UNL A   1      31.260  27.719  22.693  1.00  0.00     0.189 A 
ATOM     20  C   UNL A   1      27.744  31.234  21.459  1.00  0.00     0.008 C 
ATOM     21  C   UNL A   1      27.576  30.647  22.869  1.00  0.00    -0.009 C 
ATOM     22  C   UNL A   1      28.567  31.305  23.862  1.00  0.00     0.010 C 
ATOM     23  C   UNL A   1      27.710  29.099  22.878  1.00  0.00     0.052 C 
ATOM     24  C   UNL A   1      30.040  30.990  23.538  1.00  0.00     0.058 C 
ATOM     25  C   UNL A   1      29.135  28.694  23.031  1.00  0.00     0.030 A 
ATOM     26  C   UNL A   1      30.202  29.536  23.268  1.00  0.00     0.057 A 
ATOM     27  S   UNL A   1      29.697  27.085  22.981  1.00  0.00    -0.101 S 
ATOM     28  N   UNL A   1      31.441  28.954  23.109  1.00  0.00    -0.225 NA
ENDBRANCH  16  19
ENDBRANCH  10  15
ENDBRANCH   6   9
ENDBRANCH   4   5
ENDBRANCH   3   4
ENDBRANCH   2   3
ENDBRANCH   1   2
BRANCH   1  29
ATOM     29  C   UNL A   1      32.825  30.999  27.247  1.00  0.00     0.021 C 
BRANCH  29  30
ATOM     30  C   UNL A   1      34.214  31.318  27.780  1.00  0.00     0.116 C 
BRANCH  30  31
ATOM     31  N   UNL A   1      34.195  32.054  29.045  1.00  0.00    -0.352 N 
ATOM     32  C   UNL A   1      35.053  31.911  30.126  1.00  0.00     0.251 C 
ATOM     33  H   UNL A   1      33.489  32.733  29.140  1.00  0.00     0.163 HD
ATOM     34  O   UNL A   1      34.736  32.290  31.238  1.00  0.00    -0.269 OA
BRANCH  32  35
ATOM     35  C   UNL A   1      36.375  31.295  29.888  1.00  0.00     0.039 A 
ATOM     36  C   UNL A   1      37.525  32.062  29.682  1.00  0.00     0.014 A 
ATOM     37  C   UNL A   1      36.440  29.907  29.913  1.00  0.00     0.014 A 
ATOM     38  C   UNL A   1      38.757  31.412  29.589  1.00  0.00     0.010 A 
ATOM     39  C   UNL A   1      37.657  29.289  30.009  1.00  0.00     0.010 A 
ATOM     40  C   UNL A   1      38.813  30.022  29.774  1.00  0.00    -0.014 A 
BRANCH  40  41
ATOM     41  C   UNL A   1      40.079  29.300  29.843  1.00  0.00     0.031 A 
ATOM     42  C   UNL A   1      40.581  29.086  31.225  1.00  0.00     0.074 A 
ATOM     43  C   UNL A   1      40.597  28.666  28.766  1.00  0.00     0.049 A 
ATOM     44  N   UNL A   1      41.595  29.652  31.790  1.00  0.00    -0.248 NA
ATOM     45  C   UNL A   1      39.764  28.282  32.148  1.00  0.00     0.031 C 
ATOM     46  C   UNL A   1      40.001  28.550  27.423  1.00  0.00     0.029 A 
ATOM     47  N   UNL A   1      41.691  27.862  28.670  1.00  0.00    -0.354 N 
ATOM     48  C   UNL A   1      41.701  29.055  33.048  1.00  0.00     0.074 A 
ATOM     49  C   UNL A   1      40.430  28.432  33.296  1.00  0.00     0.031 C 
ATOM     50  C   UNL A   1      40.587  27.538  26.748  1.00  0.00     0.029 A 
ATOM     51  C   UNL A   1      41.720  27.071  27.522  1.00  0.00     0.049 A 
ATOM     52  H   UNL A   1      42.400  27.840  29.353  1.00  0.00     0.167 HD
ATOM     53  C   UNL A   1      42.922  28.856  33.621  1.00  0.00     0.034 A 
ATOM     54  C   UNL A   1      42.612  26.097  27.228  1.00  0.00     0.034 A 
ATOM     55  C   UNL A   1      43.942  29.547  32.871  1.00  0.00     0.049 A 
ATOM     56  C   UNL A   1      43.813  26.359  28.044  1.00  0.00     0.074 A 
ATOM     57  C   UNL A   1      44.329  30.850  32.657  1.00  0.00     0.029 A 
ATOM     58  N   UNL A   1      44.494  28.782  31.876  1.00  0.00    -0.354 N 
ATOM     59  N   UNL A   1      44.573  27.403  27.870  1.00  0.00    -0.248 NA
ATOM     60  C   UNL A   1      43.997  25.648  29.301  1.00  0.00     0.031 C 
ATOM     61  C   UNL A   1      44.928  30.867  31.362  1.00  0.00     0.029 A 
ATOM     62  C   UNL A   1      44.931  29.569  30.850  1.00  0.00     0.049 A 
ATOM     63  H   UNL A   1      44.564  27.799  31.898  1.00  0.00     0.167 HD
ATOM     64  C   UNL A   1      44.963  27.743  29.153  1.00  0.00     0.074 A 
ATOM     65  C   UNL A   1      44.757  26.537  29.947  1.00  0.00     0.031 C 
ATOM     66  C   UNL A   1      45.099  29.051  29.509  1.00  0.00     0.034 A 
BRANCH  53  67
ATOM     67  C   UNL A   1      43.327  27.698  34.524  1.00  0.00     0.023 A 
ATOM     68  C   UNL A   1      43.826  28.041  35.805  1.00  0.00     0.012 A 
ATOM     69  C   UNL A   1      43.536  26.365  34.104  1.00  0.00     0.148 A 
ATOM     70  C   UNL A   1      44.555  27.138  36.587  1.00  0.00     0.002 A 
ATOM     71  C   UNL A   1      44.207  25.450  34.913  1.00  0.00     0.091 A 
ATOM     72  F   UNL A   1      43.204  25.989  32.870  1.00  0.00    -0.205 F 
ATOM     73  C   UNL A   1      44.747  25.840  36.139  1.00  0.00     0.022 A 
BRANCH  71  74
ATOM     74  S   UNL A   1      44.463  23.745  34.398  1.00  0.00     0.127 S 
ATOM     75  O   UNL A   1      45.221  23.212  35.525  1.00  0.00    -0.237 OA
ATOM     76  O   UNL A   1      43.088  23.259  34.287  1.00  0.00    -0.237 OA
ATOM     77  O   UNL A   1      45.174  23.820  33.127  1.00  0.00    -0.744 OA
ENDBRANCH  71  74
ENDBRANCH  53  67
BRANCH  54  78
ATOM     78  C   UNL A   1      42.515  24.882  26.394  1.00  0.00     0.023 A 
ATOM     79  C   UNL A   1      43.559  24.564  25.502  1.00  0.00     0.012 A 
ATOM     80  C   UNL A   1      41.572  23.882  26.711  1.00  0.00     0.148 A 
ATOM     81  C   UNL A   1      43.698  23.271  24.988  1.00  0.00     0.002 A 
ATOM     82  C   UNL A   1      41.722  22.593  26.205  1.00  0.00     0.091 A 
ATOM     83  F   UNL A   1      40.594  24.177  27.578  1.00  0.00    -0.205 F 
ATOM     84  C   UNL A   1      42.792  22.281  25.355  1.00  0.00     0.022 A 
BRANCH  82  85
ATOM     85  S   UNL A   1      40.637  21.238  26.676  1.00  0.00     0.127 S 
ATOM     86  O   UNL A   1      41.282  20.097  26.027  1.00  0.00    -0.237 OA
ATOM     87  O   UNL A   1      40.750  21.259  28.133  1.00  0.00    -0.237 OA
ATOM     88  O   UNL A   1      39.324  21.576  26.143  1.00  0.00    -0.744 OA
ENDBRANCH  82  85
ENDBRANCH  54  78
BRANCH  66  89
ATOM     89  C   UNL A   1      45.251  30.053  28.400  1.00  0.00     0.023 A 
ATOM     90  C   UNL A   1      44.157  30.614  27.713  1.00  0.00     0.012 A 
ATOM     91  C   UNL A   1      46.545  30.520  28.126  1.00  0.00     0.148 A 
ATOM     92  C   UNL A   1      44.355  31.613  26.754  1.00  0.00     0.002 A 
ATOM     93  C   UNL A   1      46.734  31.545  27.210  1.00  0.00     0.091 A 
ATOM     94  F   UNL A   1      47.571  29.966  28.787  1.00  0.00    -0.205 F 
ATOM     95  C   UNL A   1      45.643  32.088  26.513  1.00  0.00     0.022 A 
BRANCH  93  96
ATOM     96  S   UNL A   1      48.351  32.276  26.954  1.00  0.00     0.127 S 
ATOM     97  O   UNL A   1      48.670  32.783  28.286  1.00  0.00    -0.237 OA
ATOM     98  O   UNL A   1      49.149  31.126  26.527  1.00  0.00    -0.237 OA
ATOM     99  O   UNL A   1      48.172  33.290  25.922  1.00  0.00    -0.744 OA
ENDBRANCH  93  96
ENDBRANCH  66  89
ENDBRANCH  40  41
ENDBRANCH  32  35
ENDBRANCH  30  31
ENDBRANCH  29  30
ENDBRANCH   1  29
TORSDOF 18
ENDMDL
