MODEL 1
REMARK VINA RESULT:     -10.4      0.000      0.000
REMARK SMILES C[C@H](CNc1cccc(F)c1C(=O)NCCCCCCNC(=O)c1ccc(-c2c3nc(c(-c4cccc(S(=O)(=O)[O-])c4F)c4ccc([nH]4)c(-c4cccc(S(=O)(=O)[O-])c4F)c4nc(c(-c5cccc(S(=O)(=O)[O-])c5F)c5ccc2[nH]5)C=C4)C=C3)cc1)C[NH+]1CCCC1
REMARK SMILES IDX 16 1 15 2 14 3 12 4 13 5 11 7 5 8 6 9 7 10 9 11 8 12 10 13
REMARK SMILES IDX 4 14 3 16 2 17 1 18 87 19 88 20 89 21 92 22 90 24 91 25
REMARK SMILES IDX 17 26 18 27 19 28 20 29 21 30 22 31 23 33 24 34 25 35 86 36
REMARK SMILES IDX 26 37 85 38 27 39 28 40 29 41 79 42 30 43 84 44 78 45 80 46
REMARK SMILES IDX 31 47 83 48 77 49 76 50 32 52 64 53 44 54 63 55 45 56 48 57
REMARK SMILES IDX 62 58 81 59 46 60 47 61 61 63 82 64 49 65 33 66 34 67 42 68
REMARK SMILES IDX 35 69 37 70 43 71 36 72 38 73 39 74 40 75 41 76 65 77 66 78
REMARK SMILES IDX 74 79 67 80 69 81 75 82 68 83 70 84 71 85 72 86 73 87 50 88
REMARK SMILES IDX 51 89 59 90 52 91 54 92 60 93 53 94 55 95 56 96 57 97 58 98
REMARK H PARENT 14 6 4 15 88 23 21 32 80 51 48 62
REMARK Flexibility Score: inf
ROOT
ATOM      1  C   UNL A   1      37.462  22.941  25.689  1.00  0.00     0.021 C 
ENDROOT
BRANCH   1   2
ATOM      2  C   UNL A   1      36.541  24.088  25.283  1.00  0.00     0.116 C 
BRANCH   2   3
ATOM      3  N   UNL A   1      35.251  24.024  25.937  1.00  0.00    -0.352 N 
ATOM      4  C   UNL A   1      34.015  24.506  25.590  1.00  0.00     0.256 C 
ATOM      5  O   UNL A   1      33.144  24.386  26.456  1.00  0.00    -0.269 OA
ATOM      6  H   UNL A   1      35.263  23.541  26.796  1.00  0.00     0.163 HD
BRANCH   4   7
ATOM      7  C   UNL A   1      33.712  25.204  24.300  1.00  0.00     0.098 A 
ATOM      8  C   UNL A   1      33.605  24.450  23.100  1.00  0.00     0.050 A 
ATOM      9  C   UNL A   1      33.216  25.106  21.916  1.00  0.00     0.027 A 
ATOM     10  C   UNL A   1      32.993  26.480  21.882  1.00  0.00     0.005 A 
ATOM     11  C   UNL A   1      33.597  26.595  24.211  1.00  0.00     0.138 A 
ATOM     12  C   UNL A   1      33.217  27.229  23.027  1.00  0.00     0.040 A 
ATOM     13  F   UNL A   1      33.906  27.390  25.246  1.00  0.00    -0.206 F 
BRANCH   8  14
ATOM     14  N   UNL A   1      33.933  23.094  23.049  1.00  0.00    -0.384 N 
ATOM     15  H   UNL A   1      34.863  22.828  22.870  1.00  0.00     0.160 HD
BRANCH  14  16
ATOM     16  C   UNL A   1      32.919  22.063  23.259  1.00  0.00     0.122 C 
BRANCH  16  17
ATOM     17  C   UNL A   1      33.017  21.389  24.648  1.00  0.00     0.060 C 
ATOM     18  C   UNL A   1      31.670  21.381  25.382  1.00  0.00     0.015 C 
BRANCH  17  19
ATOM     19  C   UNL A   1      33.613  19.965  24.609  1.00  0.00     0.267 C 
BRANCH  19  20
ATOM     20  N   UNL A   1      32.574  18.927  24.489  1.00  0.00    -0.335 N 
ATOM     21  C   UNL A   1      32.837  17.792  25.385  1.00  0.00     0.262 C 
ATOM     22  C   UNL A   1      32.515  18.353  23.135  1.00  0.00     0.262 C 
ATOM     23  H   UNL A   1      31.702  19.400  24.724  1.00  0.00     0.348 HD
ATOM     24  C   UNL A   1      33.758  16.882  24.600  1.00  0.00     0.067 C 
ATOM     25  C   UNL A   1      33.244  17.013  23.178  1.00  0.00     0.067 C 
ENDBRANCH  19  20
ENDBRANCH  17  19
ENDBRANCH  16  17
ENDBRANCH  14  16
ENDBRANCH   8  14
ENDBRANCH   4   7
ENDBRANCH   2   3
ENDBRANCH   1   2
BRANCH   1  26
ATOM     26  C   UNL A   1      36.843  21.540  25.712  1.00  0.00     0.002 C 
BRANCH  26  27
ATOM     27  C   UNL A   1      37.273  20.577  24.604  1.00  0.00     0.002 C 
BRANCH  27  28
ATOM     28  C   UNL A   1      38.294  19.505  24.987  1.00  0.00     0.021 C 
BRANCH  28  29
ATOM     29  C   UNL A   1      39.278  19.873  26.093  1.00  0.00     0.116 C 
BRANCH  29  30
ATOM     30  N   UNL A   1      40.554  19.191  25.973  1.00  0.00    -0.352 N 
ATOM     31  C   UNL A   1      41.829  19.687  26.093  1.00  0.00     0.251 C 
ATOM     32  H   UNL A   1      40.496  18.229  25.775  1.00  0.00     0.163 HD
ATOM     33  O   UNL A   1      42.783  18.956  25.838  1.00  0.00    -0.269 OA
BRANCH  31  34
ATOM     34  C   UNL A   1      42.067  21.093  26.498  1.00  0.00     0.039 A 
ATOM     35  C   UNL A   1      42.258  21.366  27.856  1.00  0.00     0.014 A 
ATOM     36  C   UNL A   1      42.075  22.141  25.574  1.00  0.00     0.014 A 
ATOM     37  C   UNL A   1      42.502  22.676  28.278  1.00  0.00     0.010 A 
ATOM     38  C   UNL A   1      42.390  23.438  25.986  1.00  0.00     0.010 A 
ATOM     39  C   UNL A   1      42.598  23.721  27.344  1.00  0.00    -0.014 A 
BRANCH  39  40
ATOM     40  C   UNL A   1      42.937  25.099  27.788  1.00  0.00     0.031 A 
ATOM     41  C   UNL A   1      44.351  25.607  27.722  1.00  0.00     0.074 A 
ATOM     42  C   UNL A   1      41.963  25.891  28.280  1.00  0.00     0.049 A 
ATOM     43  N   UNL A   1      44.810  26.797  28.012  1.00  0.00    -0.248 NA
ATOM     44  C   UNL A   1      45.391  24.655  27.296  1.00  0.00     0.031 C 
ATOM     45  C   UNL A   1      40.568  25.488  28.467  1.00  0.00     0.029 A 
ATOM     46  N   UNL A   1      41.993  27.193  28.714  1.00  0.00    -0.354 N 
ATOM     47  C   UNL A   1      46.185  26.735  27.818  1.00  0.00     0.074 A 
ATOM     48  C   UNL A   1      46.494  25.377  27.428  1.00  0.00     0.031 C 
ATOM     49  C   UNL A   1      39.869  26.529  28.943  1.00  0.00     0.029 A 
ATOM     50  C   UNL A   1      40.766  27.668  29.118  1.00  0.00     0.049 A 
ATOM     51  H   UNL A   1      42.813  27.735  28.735  1.00  0.00     0.167 HD
ATOM     52  C   UNL A   1      47.101  27.727  27.916  1.00  0.00     0.034 A 
ATOM     53  C   UNL A   1      40.397  28.888  29.561  1.00  0.00     0.034 A 
ATOM     54  C   UNL A   1      46.781  29.086  28.264  1.00  0.00     0.049 A 
ATOM     55  C   UNL A   1      41.425  29.984  29.624  1.00  0.00     0.074 A 
ATOM     56  C   UNL A   1      47.629  30.177  28.324  1.00  0.00     0.029 A 
ATOM     57  N   UNL A   1      45.518  29.540  28.611  1.00  0.00    -0.354 N 
ATOM     58  N   UNL A   1      42.694  29.942  29.296  1.00  0.00    -0.248 NA
ATOM     59  C   UNL A   1      40.968  31.305  30.082  1.00  0.00     0.031 C 
ATOM     60  C   UNL A   1      46.882  31.289  28.723  1.00  0.00     0.029 A 
ATOM     61  C   UNL A   1      45.563  30.894  28.889  1.00  0.00     0.049 A 
ATOM     62  H   UNL A   1      44.709  28.981  28.654  1.00  0.00     0.167 HD
ATOM     63  C   UNL A   1      43.178  31.232  29.472  1.00  0.00     0.074 A 
ATOM     64  C   UNL A   1      42.064  32.040  29.926  1.00  0.00     0.031 C 
ATOM     65  C   UNL A   1      44.436  31.701  29.282  1.00  0.00     0.034 A 
BRANCH  52  66
ATOM     66  C   UNL A   1      48.532  27.407  27.566  1.00  0.00     0.023 A 
ATOM     67  C   UNL A   1      49.335  26.737  28.512  1.00  0.00     0.012 A 
ATOM     68  C   UNL A   1      49.052  27.676  26.285  1.00  0.00     0.148 A 
ATOM     69  C   UNL A   1      50.641  26.364  28.198  1.00  0.00     0.002 A 
ATOM     70  C   UNL A   1      50.340  27.261  25.965  1.00  0.00     0.091 A 
ATOM     71  F   UNL A   1      48.280  28.329  25.405  1.00  0.00    -0.205 F 
ATOM     72  C   UNL A   1      51.138  26.614  26.923  1.00  0.00     0.022 A 
BRANCH  70  73
ATOM     73  S   UNL A   1      51.044  27.460  24.323  1.00  0.00     0.127 S 
ATOM     74  O   UNL A   1      52.293  26.711  24.446  1.00  0.00    -0.237 OA
ATOM     75  O   UNL A   1      50.034  26.825  23.475  1.00  0.00    -0.237 OA
ATOM     76  O   UNL A   1      51.192  28.894  24.122  1.00  0.00    -0.744 OA
ENDBRANCH  70  73
ENDBRANCH  52  66
BRANCH  53  77
ATOM     77  C   UNL A   1      38.962  29.151  29.864  1.00  0.00     0.023 A 
ATOM     78  C   UNL A   1      38.503  29.007  31.188  1.00  0.00     0.012 A 
ATOM     79  C   UNL A   1      38.075  29.625  28.878  1.00  0.00     0.148 A 
ATOM     80  C   UNL A   1      37.185  29.318  31.523  1.00  0.00     0.002 A 
ATOM     81  C   UNL A   1      36.778  29.985  29.228  1.00  0.00     0.091 A 
ATOM     82  F   UNL A   1      38.529  29.744  27.622  1.00  0.00    -0.205 F 
ATOM     83  C   UNL A   1      36.327  29.819  30.547  1.00  0.00     0.022 A 
BRANCH  81  84
ATOM     84  S   UNL A   1      35.648  30.773  28.075  1.00  0.00     0.127 S 
ATOM     85  O   UNL A   1      34.462  30.967  28.903  1.00  0.00    -0.237 OA
ATOM     86  O   UNL A   1      36.372  31.998  27.734  1.00  0.00    -0.237 OA
ATOM     87  O   UNL A   1      35.499  29.836  26.967  1.00  0.00    -0.744 OA
ENDBRANCH  81  84
ENDBRANCH  53  77
BRANCH  65  88
ATOM     88  C   UNL A   1      44.702  33.161  29.532  1.00  0.00     0.023 A 
ATOM     89  C   UNL A   1      45.243  33.569  30.767  1.00  0.00     0.012 A 
ATOM     90  C   UNL A   1      44.560  34.102  28.491  1.00  0.00     0.148 A 
ATOM     91  C   UNL A   1      45.633  34.892  30.964  1.00  0.00     0.002 A 
ATOM     92  C   UNL A   1      44.994  35.408  28.681  1.00  0.00     0.091 A 
ATOM     93  F   UNL A   1      44.031  33.692  27.329  1.00  0.00    -0.205 F 
ATOM     94  C   UNL A   1      45.524  35.807  29.919  1.00  0.00     0.022 A 
BRANCH  92  95
ATOM     95  S   UNL A   1      44.992  36.630  27.363  1.00  0.00     0.127 S 
ATOM     96  O   UNL A   1      45.843  35.989  26.362  1.00  0.00    -0.237 OA
ATOM     97  O   UNL A   1      43.575  36.698  27.007  1.00  0.00    -0.237 OA
ATOM     98  O   UNL A   1      45.533  37.852  27.944  1.00  0.00    -0.744 OA
ENDBRANCH  92  95
ENDBRANCH  65  88
ENDBRANCH  39  40
ENDBRANCH  31  34
ENDBRANCH  29  30
ENDBRANCH  28  29
ENDBRANCH  27  28
ENDBRANCH  26  27
ENDBRANCH   1  26
TORSDOF 21
ENDMDL
MODEL 2
REMARK VINA RESULT:     -10.2      1.942      7.694
REMARK SMILES C[C@H](CNc1cccc(F)c1C(=O)NCCCCCCNC(=O)c1ccc(-c2c3nc(c(-c4cccc(S(=O)(=O)[O-])c4F)c4ccc([nH]4)c(-c4cccc(S(=O)(=O)[O-])c4F)c4nc(c(-c5cccc(S(=O)(=O)[O-])c5F)c5ccc2[nH]5)C=C4)C=C3)cc1)C[NH+]1CCCC1
REMARK SMILES IDX 16 1 15 2 14 3 12 4 13 5 11 7 5 8 6 9 7 10 9 11 8 12 10 13
REMARK SMILES IDX 4 14 3 16 2 17 1 18 87 19 88 20 89 21 92 22 90 24 91 25
REMARK SMILES IDX 17 26 18 27 19 28 20 29 21 30 22 31 23 33 24 34 25 35 86 36
REMARK SMILES IDX 26 37 85 38 27 39 28 40 29 41 79 42 30 43 84 44 78 45 80 46
REMARK SMILES IDX 31 47 83 48 77 49 76 50 32 52 64 53 44 54 63 55 45 56 48 57
REMARK SMILES IDX 62 58 81 59 46 60 47 61 61 63 82 64 49 65 33 66 34 67 42 68
REMARK SMILES IDX 35 69 37 70 43 71 36 72 38 73 39 74 40 75 41 76 65 77 66 78
REMARK SMILES IDX 74 79 67 80 69 81 75 82 68 83 70 84 71 85 72 86 73 87 50 88
REMARK SMILES IDX 51 89 59 90 52 91 54 92 60 93 53 94 55 95 56 96 57 97 58 98
REMARK H PARENT 14 6 4 15 88 23 21 32 80 51 48 62
REMARK Flexibility Score: inf
ROOT
ATOM      1  C   UNL A   1      37.004  22.879  24.415  1.00  0.00     0.021 C 
ENDROOT
BRANCH   1   2
ATOM      2  C   UNL A   1      35.981  23.830  25.030  1.00  0.00     0.116 C 
BRANCH   2   3
ATOM      3  N   UNL A   1      35.220  23.214  26.095  1.00  0.00    -0.352 N 
ATOM      4  C   UNL A   1      33.891  23.271  26.431  1.00  0.00     0.256 C 
ATOM      5  O   UNL A   1      33.596  22.720  27.496  1.00  0.00    -0.269 OA
ATOM      6  H   UNL A   1      35.757  22.644  26.693  1.00  0.00     0.163 HD
BRANCH   4   7
ATOM      7  C   UNL A   1      32.849  24.000  25.640  1.00  0.00     0.098 A 
ATOM      8  C   UNL A   1      32.132  23.315  24.621  1.00  0.00     0.050 A 
ATOM      9  C   UNL A   1      31.084  23.984  23.960  1.00  0.00     0.027 A 
ATOM     10  C   UNL A   1      30.776  25.313  24.238  1.00  0.00     0.005 A 
ATOM     11  C   UNL A   1      32.595  25.364  25.816  1.00  0.00     0.138 A 
ATOM     12  C   UNL A   1      31.556  26.012  25.146  1.00  0.00     0.040 A 
ATOM     13  F   UNL A   1      33.378  26.127  26.591  1.00  0.00    -0.206 F 
BRANCH   8  14
ATOM     14  N   UNL A   1      32.477  22.024  24.217  1.00  0.00    -0.384 N 
ATOM     15  H   UNL A   1      32.999  21.898  23.393  1.00  0.00     0.160 HD
BRANCH  14  16
ATOM     16  C   UNL A   1      32.077  20.856  24.999  1.00  0.00     0.122 C 
BRANCH  16  17
ATOM     17  C   UNL A   1      32.935  19.604  24.702  1.00  0.00     0.060 C 
ATOM     18  C   UNL A   1      34.424  19.844  24.979  1.00  0.00     0.015 C 
BRANCH  17  19
ATOM     19  C   UNL A   1      32.455  18.331  25.433  1.00  0.00     0.267 C 
BRANCH  19  20
ATOM     20  N   UNL A   1      32.299  17.186  24.518  1.00  0.00    -0.335 N 
ATOM     21  C   UNL A   1      33.021  16.002  25.004  1.00  0.00     0.262 C 
ATOM     22  C   UNL A   1      32.850  17.461  23.181  1.00  0.00     0.262 C 
ATOM     23  H   UNL A   1      31.293  17.023  24.471  1.00  0.00     0.348 HD
ATOM     24  C   UNL A   1      34.430  16.162  24.473  1.00  0.00     0.067 C 
ATOM     25  C   UNL A   1      34.217  16.785  23.106  1.00  0.00     0.067 C 
ENDBRANCH  19  20
ENDBRANCH  17  19
ENDBRANCH  16  17
ENDBRANCH  14  16
ENDBRANCH   8  14
ENDBRANCH   4   7
ENDBRANCH   2   3
ENDBRANCH   1   2
BRANCH   1  26
ATOM     26  C   UNL A   1      37.437  21.688  25.276  1.00  0.00     0.002 C 
BRANCH  26  27
ATOM     27  C   UNL A   1      37.642  20.354  24.557  1.00  0.00     0.002 C 
BRANCH  27  28
ATOM     28  C   UNL A   1      38.541  19.331  25.254  1.00  0.00     0.021 C 
BRANCH  28  29
ATOM     29  C   UNL A   1      39.680  19.896  26.097  1.00  0.00     0.116 C 
BRANCH  29  30
ATOM     30  N   UNL A   1      40.878  19.077  26.059  1.00  0.00    -0.352 N 
ATOM     31  C   UNL A   1      42.198  19.451  26.107  1.00  0.00     0.251 C 
ATOM     32  H   UNL A   1      40.720  18.108  25.988  1.00  0.00     0.163 HD
ATOM     33  O   UNL A   1      43.069  18.600  25.944  1.00  0.00    -0.269 OA
BRANCH  31  34
ATOM     34  C   UNL A   1      42.585  20.866  26.325  1.00  0.00     0.039 A 
ATOM     35  C   UNL A   1      42.730  21.316  27.641  1.00  0.00     0.014 A 
ATOM     36  C   UNL A   1      42.775  21.756  25.264  1.00  0.00     0.014 A 
ATOM     37  C   UNL A   1      43.109  22.638  27.889  1.00  0.00     0.010 A 
ATOM     38  C   UNL A   1      43.223  23.056  25.511  1.00  0.00     0.010 A 
ATOM     39  C   UNL A   1      43.387  23.514  26.825  1.00  0.00    -0.014 A 
BRANCH  39  40
ATOM     40  C   UNL A   1      43.867  24.895  27.093  1.00  0.00     0.031 A 
ATOM     41  C   UNL A   1      42.933  25.950  27.619  1.00  0.00     0.074 A 
ATOM     42  C   UNL A   1      45.153  25.207  26.834  1.00  0.00     0.049 A 
ATOM     43  N   UNL A   1      43.199  27.184  27.961  1.00  0.00    -0.248 NA
ATOM     44  C   UNL A   1      41.514  25.585  27.762  1.00  0.00     0.031 C 
ATOM     45  C   UNL A   1      46.137  24.294  26.249  1.00  0.00     0.029 A 
ATOM     46  N   UNL A   1      45.853  26.372  27.023  1.00  0.00    -0.354 N 
ATOM     47  C   UNL A   1      41.986  27.745  28.346  1.00  0.00     0.074 A 
ATOM     48  C   UNL A   1      40.974  26.730  28.152  1.00  0.00     0.031 C 
ATOM     49  C   UNL A   1      47.320  24.921  26.160  1.00  0.00     0.029 A 
ATOM     50  C   UNL A   1      47.178  26.285  26.659  1.00  0.00     0.049 A 
ATOM     51  H   UNL A   1      45.447  27.193  27.384  1.00  0.00     0.167 HD
ATOM     52  C   UNL A   1      41.743  28.977  28.852  1.00  0.00     0.034 A 
ATOM     53  C   UNL A   1      48.172  27.193  26.735  1.00  0.00     0.034 A 
ATOM     54  C   UNL A   1      42.761  29.967  29.080  1.00  0.00     0.049 A 
ATOM     55  C   UNL A   1      47.887  28.542  27.336  1.00  0.00     0.074 A 
ATOM     56  C   UNL A   1      42.625  31.220  29.651  1.00  0.00     0.029 A 
ATOM     57  N   UNL A   1      44.100  29.820  28.752  1.00  0.00    -0.354 N 
ATOM     58  N   UNL A   1      46.762  29.002  27.829  1.00  0.00    -0.248 NA
ATOM     59  C   UNL A   1      49.011  29.486  27.429  1.00  0.00     0.031 C 
ATOM     60  C   UNL A   1      43.878  31.838  29.653  1.00  0.00     0.029 A 
ATOM     61  C   UNL A   1      44.801  30.959  29.105  1.00  0.00     0.049 A 
ATOM     62  H   UNL A   1      44.494  29.023  28.329  1.00  0.00     0.167 HD
ATOM     63  C   UNL A   1      47.048  30.269  28.321  1.00  0.00     0.074 A 
ATOM     64  C   UNL A   1      48.457  30.504  28.077  1.00  0.00     0.031 C 
ATOM     65  C   UNL A   1      46.215  31.160  28.912  1.00  0.00     0.034 A 
BRANCH  52  66
ATOM     66  C   UNL A   1      40.333  29.306  29.271  1.00  0.00     0.023 A 
ATOM     67  C   UNL A   1      39.400  29.699  28.289  1.00  0.00     0.012 A 
ATOM     68  C   UNL A   1      39.905  29.135  30.602  1.00  0.00     0.148 A 
ATOM     69  C   UNL A   1      38.071  29.944  28.629  1.00  0.00     0.002 A 
ATOM     70  C   UNL A   1      38.567  29.338  30.925  1.00  0.00     0.091 A 
ATOM     71  F   UNL A   1      40.809  28.778  31.524  1.00  0.00    -0.205 F 
ATOM     72  C   UNL A   1      37.652  29.751  29.942  1.00  0.00     0.022 A 
BRANCH  70  73
ATOM     73  S   UNL A   1      37.910  29.035  32.570  1.00  0.00     0.127 S 
ATOM     74  O   UNL A   1      38.724  29.938  33.383  1.00  0.00    -0.237 OA
ATOM     75  O   UNL A   1      36.511  29.442  32.423  1.00  0.00    -0.237 OA
ATOM     76  O   UNL A   1      38.106  27.616  32.825  1.00  0.00    -0.744 OA
ENDBRANCH  70  73
ENDBRANCH  52  66
BRANCH  53  77
ATOM     77  C   UNL A   1      49.552  26.799  26.332  1.00  0.00     0.023 A 
ATOM     78  C   UNL A   1      50.278  25.911  27.149  1.00  0.00     0.012 A 
ATOM     79  C   UNL A   1      50.112  27.223  25.111  1.00  0.00     0.148 A 
ATOM     80  C   UNL A   1      51.541  25.460  26.765  1.00  0.00     0.002 A 
ATOM     81  C   UNL A   1      51.348  26.727  24.707  1.00  0.00     0.091 A 
ATOM     82  F   UNL A   1      49.410  28.076  24.353  1.00  0.00    -0.205 F 
ATOM     83  C   UNL A   1      52.070  25.857  25.539  1.00  0.00     0.022 A 
BRANCH  81  84
ATOM     84  S   UNL A   1      52.043  27.067  23.086  1.00  0.00     0.127 S 
ATOM     85  O   UNL A   1      53.128  26.093  23.015  1.00  0.00    -0.237 OA
ATOM     86  O   UNL A   1      50.906  26.793  22.208  1.00  0.00    -0.237 OA
ATOM     87  O   UNL A   1      52.453  28.467  23.119  1.00  0.00    -0.744 OA
ENDBRANCH  81  84
ENDBRANCH  53  77
BRANCH  65  88
ATOM     88  C   UNL A   1      46.782  32.475  29.374  1.00  0.00     0.023 A 
ATOM     89  C   UNL A   1      47.277  32.596  30.687  1.00  0.00     0.012 A 
ATOM     90  C   UNL A   1      46.961  33.536  28.463  1.00  0.00     0.148 A 
ATOM     91  C   UNL A   1      47.938  33.755  31.089  1.00  0.00     0.002 A 
ATOM     92  C   UNL A   1      47.661  34.669  28.858  1.00  0.00     0.091 A 
ATOM     93  F   UNL A   1      46.470  33.402  27.223  1.00  0.00    -0.205 F 
ATOM     94  C   UNL A   1      48.144  34.784  30.171  1.00  0.00     0.022 A 
BRANCH  92  95
ATOM     95  S   UNL A   1      48.069  36.000  27.720  1.00  0.00     0.127 S 
ATOM     96  O   UNL A   1      46.763  36.627  27.516  1.00  0.00    -0.237 OA
ATOM     97  O   UNL A   1      49.012  36.797  28.504  1.00  0.00    -0.237 OA
ATOM     98  O   UNL A   1      48.642  35.365  26.542  1.00  0.00    -0.744 OA
ENDBRANCH  92  95
ENDBRANCH  65  88
ENDBRANCH  39  40
ENDBRANCH  31  34
ENDBRANCH  29  30
ENDBRANCH  28  29
ENDBRANCH  27  28
ENDBRANCH  26  27
ENDBRANCH   1  26
TORSDOF 21
ENDMDL
MODEL 3
REMARK VINA RESULT:     -10.1      6.179     12.410
REMARK SMILES C[C@H](CNc1cccc(F)c1C(=O)NCCCCCCNC(=O)c1ccc(-c2c3nc(c(-c4cccc(S(=O)(=O)[O-])c4F)c4ccc([nH]4)c(-c4cccc(S(=O)(=O)[O-])c4F)c4nc(c(-c5cccc(S(=O)(=O)[O-])c5F)c5ccc2[nH]5)C=C4)C=C3)cc1)C[NH+]1CCCC1
REMARK SMILES IDX 16 1 15 2 14 3 12 4 13 5 11 7 5 8 6 9 7 10 9 11 8 12 10 13
REMARK SMILES IDX 4 14 3 16 2 17 1 18 87 19 88 20 89 21 92 22 90 24 91 25
REMARK SMILES IDX 17 26 18 27 19 28 20 29 21 30 22 31 23 33 24 34 25 35 86 36
REMARK SMILES IDX 26 37 85 38 27 39 28 40 29 41 79 42 30 43 84 44 78 45 80 46
REMARK SMILES IDX 31 47 83 48 77 49 76 50 32 52 64 53 44 54 63 55 45 56 48 57
REMARK SMILES IDX 62 58 81 59 46 60 47 61 61 63 82 64 49 65 33 66 34 67 42 68
REMARK SMILES IDX 35 69 37 70 43 71 36 72 38 73 39 74 40 75 41 76 65 77 66 78
REMARK SMILES IDX 74 79 67 80 69 81 75 82 68 83 70 84 71 85 72 86 73 87 50 88
REMARK SMILES IDX 51 89 59 90 52 91 54 92 60 93 53 94 55 95 56 96 57 97 58 98
REMARK H PARENT 14 6 4 15 88 23 21 32 80 51 48 62
REMARK Flexibility Score: inf
ROOT
ATOM      1  C   UNL A   1      35.213  35.030  32.515  1.00  0.00     0.021 C 
ENDROOT
BRANCH   1   2
ATOM      2  C   UNL A   1      35.218  34.468  33.934  1.00  0.00     0.116 C 
BRANCH   2   3
ATOM      3  N   UNL A   1      35.874  33.181  34.020  1.00  0.00    -0.352 N 
ATOM      4  C   UNL A   1      37.135  32.812  34.415  1.00  0.00     0.256 C 
ATOM      5  O   UNL A   1      37.413  31.623  34.235  1.00  0.00    -0.269 OA
ATOM      6  H   UNL A   1      35.307  32.425  33.742  1.00  0.00     0.163 HD
BRANCH   4   7
ATOM      7  C   UNL A   1      38.162  33.758  34.957  1.00  0.00     0.098 A 
ATOM      8  C   UNL A   1      39.182  34.256  34.100  1.00  0.00     0.050 A 
ATOM      9  C   UNL A   1      40.075  35.225  34.597  1.00  0.00     0.027 A 
ATOM     10  C   UNL A   1      40.020  35.659  35.919  1.00  0.00     0.005 A 
ATOM     11  C   UNL A   1      38.204  34.125  36.306  1.00  0.00     0.138 A 
ATOM     12  C   UNL A   1      39.101  35.081  36.782  1.00  0.00     0.040 A 
ATOM     13  F   UNL A   1      37.423  33.528  37.217  1.00  0.00    -0.206 F 
BRANCH   8  14
ATOM     14  N   UNL A   1      39.359  33.769  32.804  1.00  0.00    -0.384 N 
ATOM     15  H   UNL A   1      39.935  32.983  32.657  1.00  0.00     0.160 HD
BRANCH  14  16
ATOM     16  C   UNL A   1      38.705  34.402  31.662  1.00  0.00     0.122 C 
BRANCH  16  17
ATOM     17  C   UNL A   1      39.293  33.959  30.302  1.00  0.00     0.060 C 
ATOM     18  C   UNL A   1      38.199  33.649  29.272  1.00  0.00     0.015 C 
BRANCH  17  19
ATOM     19  C   UNL A   1      40.316  34.953  29.711  1.00  0.00     0.267 C 
BRANCH  19  20
ATOM     20  N   UNL A   1      41.597  34.305  29.377  1.00  0.00    -0.335 N 
ATOM     21  C   UNL A   1      42.094  33.483  30.490  1.00  0.00     0.262 C 
ATOM     22  C   UNL A   1      42.663  35.283  29.105  1.00  0.00     0.262 C 
ATOM     23  H   UNL A   1      41.398  33.741  28.551  1.00  0.00     0.348 HD
ATOM     24  C   UNL A   1      42.872  34.444  31.364  1.00  0.00     0.067 C 
ATOM     25  C   UNL A   1      43.527  35.374  30.360  1.00  0.00     0.067 C 
ENDBRANCH  19  20
ENDBRANCH  17  19
ENDBRANCH  16  17
ENDBRANCH  14  16
ENDBRANCH   8  14
ENDBRANCH   4   7
ENDBRANCH   2   3
ENDBRANCH   1   2
BRANCH   1  26
ATOM     26  C   UNL A   1      33.845  35.166  31.838  1.00  0.00     0.002 C 
BRANCH  26  27
ATOM     27  C   UNL A   1      33.742  34.687  30.388  1.00  0.00     0.002 C 
BRANCH  27  28
ATOM     28  C   UNL A   1      34.594  33.475  30.006  1.00  0.00     0.021 C 
BRANCH  28  29
ATOM     29  C   UNL A   1      34.937  33.330  28.527  1.00  0.00     0.116 C 
BRANCH  29  30
ATOM     30  N   UNL A   1      34.143  32.319  27.853  1.00  0.00    -0.352 N 
ATOM     31  C   UNL A   1      34.434  31.001  27.596  1.00  0.00     0.251 C 
ATOM     32  H   UNL A   1      33.265  32.624  27.530  1.00  0.00     0.163 HD
ATOM     33  O   UNL A   1      33.663  30.341  26.904  1.00  0.00    -0.269 OA
BRANCH  31  34
ATOM     34  C   UNL A   1      35.672  30.376  28.119  1.00  0.00     0.039 A 
ATOM     35  C   UNL A   1      36.824  30.425  27.328  1.00  0.00     0.014 A 
ATOM     36  C   UNL A   1      35.708  29.720  29.354  1.00  0.00     0.014 A 
ATOM     37  C   UNL A   1      38.015  29.862  27.792  1.00  0.00     0.010 A 
ATOM     38  C   UNL A   1      36.915  29.220  29.847  1.00  0.00     0.010 A 
ATOM     39  C   UNL A   1      38.080  29.278  29.069  1.00  0.00    -0.014 A 
BRANCH  39  40
ATOM     40  C   UNL A   1      39.368  28.751  29.592  1.00  0.00     0.031 A 
ATOM     41  C   UNL A   1      40.000  29.336  30.825  1.00  0.00     0.074 A 
ATOM     42  C   UNL A   1      39.988  27.752  28.931  1.00  0.00     0.049 A 
ATOM     43  N   UNL A   1      41.086  28.959  31.448  1.00  0.00    -0.248 NA
ATOM     44  C   UNL A   1      39.342  30.507  31.429  1.00  0.00     0.031 C 
ATOM     45  C   UNL A   1      39.517  27.154  27.681  1.00  0.00     0.029 A 
ATOM     46  N   UNL A   1      41.143  27.066  29.212  1.00  0.00    -0.354 N 
ATOM     47  C   UNL A   1      41.250  29.848  32.504  1.00  0.00     0.074 A 
ATOM     48  C   UNL A   1      40.176  30.813  32.412  1.00  0.00     0.031 C 
ATOM     49  C   UNL A   1      40.354  26.168  27.322  1.00  0.00     0.029 A 
ATOM     50  C   UNL A   1      41.433  26.076  28.300  1.00  0.00     0.049 A 
ATOM     51  H   UNL A   1      41.710  27.263  29.991  1.00  0.00     0.167 HD
ATOM     52  C   UNL A   1      42.185  29.839  33.483  1.00  0.00     0.034 A 
ATOM     53  C   UNL A   1      42.442  25.182  28.264  1.00  0.00     0.034 A 
ATOM     54  C   UNL A   1      43.226  28.853  33.592  1.00  0.00     0.049 A 
ATOM     55  C   UNL A   1      43.447  25.167  29.384  1.00  0.00     0.074 A 
ATOM     56  C   UNL A   1      44.180  28.720  34.585  1.00  0.00     0.029 A 
ATOM     57  N   UNL A   1      43.452  27.833  32.680  1.00  0.00    -0.354 N 
ATOM     58  N   UNL A   1      43.499  25.926  30.451  1.00  0.00    -0.248 NA
ATOM     59  C   UNL A   1      44.509  24.152  29.317  1.00  0.00     0.031 C 
ATOM     60  C   UNL A   1      44.994  27.629  34.266  1.00  0.00     0.029 A 
ATOM     61  C   UNL A   1      44.531  27.068  33.086  1.00  0.00     0.049 A 
ATOM     62  H   UNL A   1      42.923  27.677  31.865  1.00  0.00     0.167 HD
ATOM     63  C   UNL A   1      44.573  25.460  31.200  1.00  0.00     0.074 A 
ATOM     64  C   UNL A   1      45.140  24.344  30.470  1.00  0.00     0.031 C 
ATOM     65  C   UNL A   1      45.050  25.923  32.382  1.00  0.00     0.034 A 
BRANCH  52  66
ATOM     66  C   UNL A   1      42.085  30.881  34.567  1.00  0.00     0.023 A 
ATOM     67  C   UNL A   1      41.194  30.671  35.641  1.00  0.00     0.012 A 
ATOM     68  C   UNL A   1      42.930  32.009  34.582  1.00  0.00     0.148 A 
ATOM     69  C   UNL A   1      41.126  31.579  36.696  1.00  0.00     0.002 A 
ATOM     70  C   UNL A   1      42.887  32.887  35.660  1.00  0.00     0.091 A 
ATOM     71  F   UNL A   1      43.757  32.201  33.545  1.00  0.00    -0.205 F 
ATOM     72  C   UNL A   1      41.979  32.678  36.712  1.00  0.00     0.022 A 
BRANCH  70  73
ATOM     73  S   UNL A   1      44.003  34.286  35.817  1.00  0.00     0.127 S 
ATOM     74  O   UNL A   1      43.592  35.118  34.687  1.00  0.00    -0.237 OA
ATOM     75  O   UNL A   1      43.645  34.822  37.131  1.00  0.00    -0.237 OA
ATOM     76  O   UNL A   1      45.349  33.736  35.731  1.00  0.00    -0.744 OA
ENDBRANCH  70  73
ENDBRANCH  52  66
BRANCH  53  77
ATOM     77  C   UNL A   1      42.471  24.158  27.182  1.00  0.00     0.023 A 
ATOM     78  C   UNL A   1      43.229  24.408  26.021  1.00  0.00     0.012 A 
ATOM     79  C   UNL A   1      41.832  22.912  27.329  1.00  0.00     0.148 A 
ATOM     80  C   UNL A   1      43.341  23.442  25.022  1.00  0.00     0.002 A 
ATOM     81  C   UNL A   1      41.992  21.932  26.354  1.00  0.00     0.091 A 
ATOM     82  F   UNL A   1      41.106  22.698  28.435  1.00  0.00    -0.205 F 
ATOM     83  C   UNL A   1      42.734  22.200  25.193  1.00  0.00     0.022 A 
BRANCH  81  84
ATOM     84  S   UNL A   1      41.369  20.259  26.553  1.00  0.00     0.127 S 
ATOM     85  O   UNL A   1      39.925  20.471  26.524  1.00  0.00    -0.237 OA
ATOM     86  O   UNL A   1      41.920  19.591  25.374  1.00  0.00    -0.237 OA
ATOM     87  O   UNL A   1      41.913  19.785  27.821  1.00  0.00    -0.744 OA
ENDBRANCH  81  84
ENDBRANCH  53  77
BRANCH  65  88
ATOM     88  C   UNL A   1      46.231  25.226  33.001  1.00  0.00     0.023 A 
ATOM     89  C   UNL A   1      47.532  25.700  32.745  1.00  0.00     0.012 A 
ATOM     90  C   UNL A   1      46.040  24.202  33.951  1.00  0.00     0.148 A 
ATOM     91  C   UNL A   1      48.626  25.164  33.422  1.00  0.00     0.002 A 
ATOM     92  C   UNL A   1      47.129  23.704  34.655  1.00  0.00     0.091 A 
ATOM     93  F   UNL A   1      44.793  23.758  34.168  1.00  0.00    -0.205 F 
ATOM     94  C   UNL A   1      48.424  24.178  34.387  1.00  0.00     0.022 A 
BRANCH  92  95
ATOM     95  S   UNL A   1      46.959  22.511  35.989  1.00  0.00     0.127 S 
ATOM     96  O   UNL A   1      46.476  23.355  37.081  1.00  0.00    -0.237 OA
ATOM     97  O   UNL A   1      45.965  21.585  35.448  1.00  0.00    -0.237 OA
ATOM     98  O   UNL A   1      48.282  21.936  36.189  1.00  0.00    -0.744 OA
ENDBRANCH  92  95
ENDBRANCH  65  88
ENDBRANCH  39  40
ENDBRANCH  31  34
ENDBRANCH  29  30
ENDBRANCH  28  29
ENDBRANCH  27  28
ENDBRANCH  26  27
ENDBRANCH   1  26
TORSDOF 21
ENDMDL
