MODEL 1
REMARK VINA RESULT:     -10.7      0.000      0.000
REMARK SMILES COc1cc(N)ccc1SCc1ccc(C(=O)NCCCCCCNC(=O)c2ccc(-c3c4nc(c(-c5cccc(S(=O)(=O)[O-])c5F)c5ccc([nH]5)c(-c5cccc(S(=O)(=O)[O-])c5F)c5nc(c(-c6cccc(S(=O)(=O)[O-])c6F)c6ccc3[nH]6)C=C5)C=C4)cc2)s1
REMARK SMILES IDX 21 1 20 2 19 3 18 4 16 5 17 6 15 8 12 9 13 10 91 11 14 12
REMARK SMILES IDX 11 13 10 14 9 15 3 16 4 17 5 18 8 19 7 20 2 21 1 22 6 23
REMARK SMILES IDX 22 26 23 27 24 28 25 29 26 30 27 32 28 33 29 34 90 35 30 36
REMARK SMILES IDX 89 37 31 38 32 39 33 40 83 41 34 42 88 43 82 44 84 45 35 46
REMARK SMILES IDX 87 47 81 48 80 49 36 51 68 52 48 53 67 54 49 55 52 56 66 57
REMARK SMILES IDX 85 58 50 59 51 60 65 62 86 63 53 64 37 65 38 66 46 67 39 68
REMARK SMILES IDX 41 69 47 70 40 71 42 72 43 73 44 74 45 75 69 76 70 77 78 78
REMARK SMILES IDX 71 79 73 80 79 81 72 82 74 83 75 84 76 85 77 86 54 87 55 88
REMARK SMILES IDX 63 89 56 90 58 91 64 92 57 93 59 94 60 95 61 96 62 97
REMARK H PARENT 18 7 6 24 6 25 25 31 84 50 52 61
REMARK Flexibility Score: inf
ROOT
ATOM      1  C   UNL A   1      32.058  29.448  26.989  1.00  0.00     0.002 C 
ENDROOT
BRANCH   1   2
ATOM      2  C   UNL A   1      33.592  29.445  26.994  1.00  0.00     0.021 C 
BRANCH   2   3
ATOM      3  C   UNL A   1      34.170  28.317  26.140  1.00  0.00     0.116 C 
BRANCH   3   4
ATOM      4  N   UNL A   1      34.215  28.716  24.749  1.00  0.00    -0.351 N 
ATOM      5  C   UNL A   1      33.484  28.328  23.652  1.00  0.00     0.261 C 
ATOM      6  O   UNL A   1      33.801  28.886  22.596  1.00  0.00    -0.268 OA
ATOM      7  H   UNL A   1      34.900  29.394  24.551  1.00  0.00     0.163 HD
BRANCH   5   8
ATOM      8  C   UNL A   1      32.403  27.357  23.758  1.00  0.00     0.092 A 
ATOM      9  C   UNL A   1      31.154  25.191  23.696  1.00  0.00     0.016 A 
ATOM     10  C   UNL A   1      30.337  26.277  23.922  1.00  0.00     0.017 A 
ATOM     11  S   UNL A   1      32.764  25.709  23.397  1.00  0.00    -0.134 S 
ATOM     12  C   UNL A   1      31.082  27.466  24.142  1.00  0.00     0.026 A 
BRANCH   9  13
ATOM     13  C   UNL A   1      30.872  23.718  23.744  1.00  0.00     0.121 C 
BRANCH  13  14
ATOM     14  S   UNL A   1      31.011  22.879  25.359  1.00  0.00    -0.117 SA
BRANCH  14  15
ATOM     15  C   UNL A   1      32.740  22.408  25.549  1.00  0.00     0.050 A 
ATOM     16  C   UNL A   1      33.376  21.243  25.080  1.00  0.00     0.134 A 
ATOM     17  C   UNL A   1      34.765  21.096  25.244  1.00  0.00     0.073 A 
ATOM     18  C   UNL A   1      35.533  22.069  25.892  1.00  0.00     0.035 A 
ATOM     19  C   UNL A   1      33.513  23.354  26.245  1.00  0.00     0.021 A 
ATOM     20  C   UNL A   1      34.887  23.177  26.427  1.00  0.00     0.027 A 
BRANCH  16  21
ATOM     21  O   UNL A   1      32.616  20.327  24.405  1.00  0.00    -0.496 OA
ATOM     22  C   UNL A   1      32.649  18.985  24.867  1.00  0.00     0.278 C 
ENDBRANCH  16  21
BRANCH  18  23
ATOM     23  N   UNL A   1      36.888  21.875  26.112  1.00  0.00    -0.399 N 
ATOM     24  H   UNL A   1      37.538  22.102  25.408  1.00  0.00     0.156 HD
ATOM     25  H   UNL A   1      37.200  21.510  26.971  1.00  0.00     0.156 HD
ENDBRANCH  18  23
ENDBRANCH  14  15
ENDBRANCH  13  14
ENDBRANCH   9  13
ENDBRANCH   5   8
ENDBRANCH   3   4
ENDBRANCH   2   3
ENDBRANCH   1   2
BRANCH   1  26
ATOM     26  C   UNL A   1      31.432  30.497  26.060  1.00  0.00     0.002 C 
BRANCH  26  27
ATOM     27  C   UNL A   1      31.311  31.897  26.668  1.00  0.00     0.021 C 
BRANCH  27  28
ATOM     28  C   UNL A   1      32.633  32.650  26.740  1.00  0.00     0.116 C 
BRANCH  28  29
ATOM     29  N   UNL A   1      32.454  33.976  27.314  1.00  0.00    -0.352 N 
ATOM     30  C   UNL A   1      33.040  34.519  28.429  1.00  0.00     0.251 C 
ATOM     31  H   UNL A   1      31.824  34.563  26.837  1.00  0.00     0.163 HD
ATOM     32  O   UNL A   1      32.591  35.547  28.925  1.00  0.00    -0.269 OA
BRANCH  30  33
ATOM     33  C   UNL A   1      34.216  33.852  29.024  1.00  0.00     0.039 A 
ATOM     34  C   UNL A   1      35.490  34.361  28.770  1.00  0.00     0.014 A 
ATOM     35  C   UNL A   1      34.050  32.720  29.828  1.00  0.00     0.014 A 
ATOM     36  C   UNL A   1      36.601  33.757  29.362  1.00  0.00     0.010 A 
ATOM     37  C   UNL A   1      35.148  32.172  30.479  1.00  0.00     0.010 A 
ATOM     38  C   UNL A   1      36.436  32.673  30.240  1.00  0.00    -0.014 A 
BRANCH  38  39
ATOM     39  C   UNL A   1      37.595  32.036  30.912  1.00  0.00     0.031 A 
ATOM     40  C   UNL A   1      38.406  30.998  30.183  1.00  0.00     0.074 A 
ATOM     41  C   UNL A   1      37.861  32.323  32.200  1.00  0.00     0.049 A 
ATOM     42  N   UNL A   1      39.399  30.270  30.623  1.00  0.00    -0.248 NA
ATOM     43  C   UNL A   1      38.031  30.719  28.786  1.00  0.00     0.031 C 
ATOM     44  C   UNL A   1      37.104  33.259  33.033  1.00  0.00     0.029 A 
ATOM     45  N   UNL A   1      38.826  31.833  33.045  1.00  0.00    -0.354 N 
ATOM     46  C   UNL A   1      39.741  29.422  29.575  1.00  0.00     0.074 A 
ATOM     47  C   UNL A   1      38.825  29.700  28.491  1.00  0.00     0.031 C 
ATOM     48  C   UNL A   1      37.633  33.278  34.267  1.00  0.00     0.029 A 
ATOM     49  C   UNL A   1      38.742  32.330  34.324  1.00  0.00     0.049 A 
ATOM     50  H   UNL A   1      39.512  31.186  32.761  1.00  0.00     0.167 HD
ATOM     51  C   UNL A   1      40.743  28.515  29.510  1.00  0.00     0.034 A 
ATOM     52  C   UNL A   1      39.469  32.046  35.422  1.00  0.00     0.034 A 
ATOM     53  C   UNL A   1      41.676  28.272  30.577  1.00  0.00     0.049 A 
ATOM     54  C   UNL A   1      40.595  31.055  35.315  1.00  0.00     0.074 A 
ATOM     55  C   UNL A   1      42.777  27.436  30.581  1.00  0.00     0.029 A 
ATOM     56  N   UNL A   1      41.609  28.856  31.832  1.00  0.00    -0.354 N 
ATOM     57  N   UNL A   1      40.996  30.369  34.272  1.00  0.00    -0.248 NA
ATOM     58  C   UNL A   1      41.394  30.822  36.529  1.00  0.00     0.031 C 
ATOM     59  C   UNL A   1      43.359  27.490  31.852  1.00  0.00     0.029 A 
ATOM     60  C   UNL A   1      42.644  28.389  32.626  1.00  0.00     0.049 A 
ATOM     61  H   UNL A   1      40.927  29.506  32.118  1.00  0.00     0.167 HD
ATOM     62  C   UNL A   1      42.116  29.658  34.689  1.00  0.00     0.074 A 
ATOM     63  C   UNL A   1      42.338  30.009  36.077  1.00  0.00     0.031 C 
ATOM     64  C   UNL A   1      42.884  28.787  33.990  1.00  0.00     0.034 A 
BRANCH  51  65
ATOM     65  C   UNL A   1      40.909  27.747  28.224  1.00  0.00     0.023 A 
ATOM     66  C   UNL A   1      41.534  28.359  27.118  1.00  0.00     0.012 A 
ATOM     67  C   UNL A   1      40.492  26.404  28.126  1.00  0.00     0.148 A 
ATOM     68  C   UNL A   1      41.702  27.663  25.921  1.00  0.00     0.002 A 
ATOM     69  C   UNL A   1      40.710  25.702  26.946  1.00  0.00     0.091 A 
ATOM     70  F   UNL A   1      39.882  25.845  29.180  1.00  0.00    -0.205 F 
ATOM     71  C   UNL A   1      41.301  26.333  25.840  1.00  0.00     0.022 A 
BRANCH  69  72
ATOM     72  S   UNL A   1      40.303  23.962  26.766  1.00  0.00     0.127 S 
ATOM     73  O   UNL A   1      38.907  24.028  26.336  1.00  0.00    -0.237 OA
ATOM     74  O   UNL A   1      41.242  23.533  25.729  1.00  0.00    -0.237 OA
ATOM     75  O   UNL A   1      40.524  23.360  28.073  1.00  0.00    -0.744 OA
ENDBRANCH  69  72
ENDBRANCH  51  65
BRANCH  52  76
ATOM     76  C   UNL A   1      39.189  32.752  36.705  1.00  0.00     0.023 A 
ATOM     77  C   UNL A   1      39.815  33.986  36.967  1.00  0.00     0.012 A 
ATOM     78  C   UNL A   1      38.293  32.221  37.652  1.00  0.00     0.148 A 
ATOM     79  C   UNL A   1      39.580  34.662  38.164  1.00  0.00     0.002 A 
ATOM     80  C   UNL A   1      38.021  32.926  38.817  1.00  0.00     0.091 A 
ATOM     81  F   UNL A   1      37.714  31.041  37.386  1.00  0.00    -0.205 F 
ATOM     82  C   UNL A   1      38.677  34.138  39.085  1.00  0.00     0.022 A 
BRANCH  80  83
ATOM     83  S   UNL A   1      36.778  32.393  39.999  1.00  0.00     0.127 S 
ATOM     84  O   UNL A   1      37.311  31.105  40.434  1.00  0.00    -0.237 OA
ATOM     85  O   UNL A   1      36.842  33.458  41.002  1.00  0.00    -0.237 OA
ATOM     86  O   UNL A   1      35.525  32.341  39.258  1.00  0.00    -0.744 OA
ENDBRANCH  80  83
ENDBRANCH  52  76
BRANCH  64  87
ATOM     87  C   UNL A   1      44.073  28.183  34.691  1.00  0.00     0.023 A 
ATOM     88  C   UNL A   1      45.305  28.864  34.706  1.00  0.00     0.012 A 
ATOM     89  C   UNL A   1      43.940  26.973  35.401  1.00  0.00     0.148 A 
ATOM     90  C   UNL A   1      46.398  28.332  35.390  1.00  0.00     0.002 A 
ATOM     91  C   UNL A   1      45.018  26.477  36.125  1.00  0.00     0.091 A 
ATOM     92  F   UNL A   1      42.763  26.332  35.359  1.00  0.00    -0.205 F 
ATOM     93  C   UNL A   1      46.251  27.148  36.109  1.00  0.00     0.022 A 
BRANCH  91  94
ATOM     94  S   UNL A   1      44.892  25.016  37.161  1.00  0.00     0.127 S 
ATOM     95  O   UNL A   1      43.864  25.418  38.119  1.00  0.00    -0.237 OA
ATOM     96  O   UNL A   1      44.467  23.994  36.204  1.00  0.00    -0.237 OA
ATOM     97  O   UNL A   1      46.218  24.804  37.723  1.00  0.00    -0.744 OA
ENDBRANCH  91  94
ENDBRANCH  64  87
ENDBRANCH  38  39
ENDBRANCH  30  33
ENDBRANCH  28  29
ENDBRANCH  27  28
ENDBRANCH  26  27
ENDBRANCH   1  26
TORSDOF 21
ENDMDL
MODEL 2
REMARK VINA RESULT:     -10.3      3.304      8.354
REMARK SMILES COc1cc(N)ccc1SCc1ccc(C(=O)NCCCCCCNC(=O)c2ccc(-c3c4nc(c(-c5cccc(S(=O)(=O)[O-])c5F)c5ccc([nH]5)c(-c5cccc(S(=O)(=O)[O-])c5F)c5nc(c(-c6cccc(S(=O)(=O)[O-])c6F)c6ccc3[nH]6)C=C5)C=C4)cc2)s1
REMARK SMILES IDX 21 1 20 2 19 3 18 4 16 5 17 6 15 8 12 9 13 10 91 11 14 12
REMARK SMILES IDX 11 13 10 14 9 15 3 16 4 17 5 18 8 19 7 20 2 21 1 22 6 23
REMARK SMILES IDX 22 26 23 27 24 28 25 29 26 30 27 32 28 33 29 34 90 35 30 36
REMARK SMILES IDX 89 37 31 38 32 39 33 40 83 41 34 42 88 43 82 44 84 45 35 46
REMARK SMILES IDX 87 47 81 48 80 49 36 51 68 52 48 53 67 54 49 55 52 56 66 57
REMARK SMILES IDX 85 58 50 59 51 60 65 62 86 63 53 64 37 65 38 66 46 67 39 68
REMARK SMILES IDX 41 69 47 70 40 71 42 72 43 73 44 74 45 75 69 76 70 77 78 78
REMARK SMILES IDX 71 79 73 80 79 81 72 82 74 83 75 84 76 85 77 86 54 87 55 88
REMARK SMILES IDX 63 89 56 90 58 91 64 92 57 93 59 94 60 95 61 96 62 97
REMARK H PARENT 18 7 6 24 6 25 25 31 84 50 52 61
REMARK Flexibility Score: inf
ROOT
ATOM      1  C   UNL A   1      33.769  28.007  25.237  1.00  0.00     0.002 C 
ENDROOT
BRANCH   1   2
ATOM      2  C   UNL A   1      33.532  29.117  24.204  1.00  0.00     0.021 C 
BRANCH   2   3
ATOM      3  C   UNL A   1      33.380  28.562  22.787  1.00  0.00     0.116 C 
BRANCH   3   4
ATOM      4  N   UNL A   1      32.033  28.785  22.305  1.00  0.00    -0.351 N 
ATOM      5  C   UNL A   1      30.848  28.128  22.533  1.00  0.00     0.261 C 
ATOM      6  O   UNL A   1      29.872  28.601  21.941  1.00  0.00    -0.268 OA
ATOM      7  H   UNL A   1      31.951  29.554  21.695  1.00  0.00     0.163 HD
BRANCH   5   8
ATOM      8  C   UNL A   1      30.769  26.987  23.435  1.00  0.00     0.092 A 
ATOM      9  C   UNL A   1      30.996  24.666  24.339  1.00  0.00     0.016 A 
ATOM     10  C   UNL A   1      30.253  25.491  25.155  1.00  0.00     0.017 A 
ATOM     11  S   UNL A   1      31.414  25.483  22.888  1.00  0.00    -0.134 S 
ATOM     12  C   UNL A   1      30.295  26.843  24.724  1.00  0.00     0.026 A 
BRANCH   9  13
ATOM     13  C   UNL A   1      31.518  23.276  24.555  1.00  0.00     0.121 C 
BRANCH  13  14
ATOM     14  S   UNL A   1      32.218  22.877  26.194  1.00  0.00    -0.117 SA
BRANCH  14  15
ATOM     15  C   UNL A   1      33.983  22.603  25.948  1.00  0.00     0.050 A 
ATOM     16  C   UNL A   1      34.646  21.380  25.730  1.00  0.00     0.134 A 
ATOM     17  C   UNL A   1      36.027  21.377  25.462  1.00  0.00     0.073 A 
ATOM     18  C   UNL A   1      36.771  22.562  25.436  1.00  0.00     0.035 A 
ATOM     19  C   UNL A   1      34.750  23.781  25.972  1.00  0.00     0.021 A 
ATOM     20  C   UNL A   1      36.126  23.756  25.736  1.00  0.00     0.027 A 
BRANCH  16  21
ATOM     21  O   UNL A   1      33.893  20.238  25.709  1.00  0.00    -0.496 OA
ATOM     22  C   UNL A   1      34.117  19.328  24.643  1.00  0.00     0.278 C 
ENDBRANCH  16  21
BRANCH  18  23
ATOM     23  N   UNL A   1      38.143  22.536  25.246  1.00  0.00    -0.399 N 
ATOM     24  H   UNL A   1      38.743  22.895  25.939  1.00  0.00     0.156 HD
ATOM     25  H   UNL A   1      38.518  22.158  24.418  1.00  0.00     0.156 HD
ENDBRANCH  18  23
ENDBRANCH  14  15
ENDBRANCH  13  14
ENDBRANCH   9  13
ENDBRANCH   5   8
ENDBRANCH   3   4
ENDBRANCH   2   3
ENDBRANCH   1   2
BRANCH   1  26
ATOM     26  C   UNL A   1      33.185  28.302  26.626  1.00  0.00     0.002 C 
BRANCH  26  27
ATOM     27  C   UNL A   1      33.057  29.791  26.960  1.00  0.00     0.021 C 
BRANCH  27  28
ATOM     28  C   UNL A   1      34.367  30.435  27.396  1.00  0.00     0.116 C 
BRANCH  28  29
ATOM     29  N   UNL A   1      34.133  31.515  28.344  1.00  0.00    -0.352 N 
ATOM     30  C   UNL A   1      34.808  31.805  29.503  1.00  0.00     0.251 C 
ATOM     31  H   UNL A   1      33.387  32.118  28.125  1.00  0.00     0.163 HD
ATOM     32  O   UNL A   1      34.328  32.585  30.319  1.00  0.00    -0.269 OA
BRANCH  30  33
ATOM     33  C   UNL A   1      36.116  31.167  29.756  1.00  0.00     0.039 A 
ATOM     34  C   UNL A   1      37.266  31.721  29.191  1.00  0.00     0.014 A 
ATOM     35  C   UNL A   1      36.197  30.018  30.548  1.00  0.00     0.014 A 
ATOM     36  C   UNL A   1      38.509  31.146  29.458  1.00  0.00     0.010 A 
ATOM     37  C   UNL A   1      37.441  29.496  30.877  1.00  0.00     0.010 A 
ATOM     38  C   UNL A   1      38.609  30.043  30.324  1.00  0.00    -0.014 A 
BRANCH  38  39
ATOM     39  C   UNL A   1      39.920  29.433  30.655  1.00  0.00     0.031 A 
ATOM     40  C   UNL A   1      40.761  30.016  31.759  1.00  0.00     0.074 A 
ATOM     41  C   UNL A   1      40.391  28.418  29.907  1.00  0.00     0.049 A 
ATOM     42  N   UNL A   1      41.964  29.681  32.143  1.00  0.00    -0.248 NA
ATOM     43  C   UNL A   1      40.185  31.147  32.509  1.00  0.00     0.031 C 
ATOM     44  C   UNL A   1      39.700  27.813  28.767  1.00  0.00     0.029 A 
ATOM     45  N   UNL A   1      41.579  27.732  29.976  1.00  0.00    -0.354 N 
ATOM     46  C   UNL A   1      42.306  30.579  33.148  1.00  0.00     0.074 A 
ATOM     47  C   UNL A   1      41.198  31.497  33.288  1.00  0.00     0.031 C 
ATOM     48  C   UNL A   1      40.473  26.846  28.246  1.00  0.00     0.029 A 
ATOM     49  C   UNL A   1      41.727  26.787  28.990  1.00  0.00     0.049 A 
ATOM     50  H   UNL A   1      42.260  27.903  30.667  1.00  0.00     0.167 HD
ATOM     51  C   UNL A   1      43.427  30.618  33.905  1.00  0.00     0.034 A 
ATOM     52  C   UNL A   1      42.762  25.971  28.708  1.00  0.00     0.034 A 
ATOM     53  C   UNL A   1      44.508  29.678  33.787  1.00  0.00     0.049 A 
ATOM     54  C   UNL A   1      43.986  26.017  29.582  1.00  0.00     0.074 A 
ATOM     55  C   UNL A   1      45.650  29.580  34.562  1.00  0.00     0.029 A 
ATOM     56  N   UNL A   1      44.587  28.680  32.828  1.00  0.00    -0.354 N 
ATOM     57  N   UNL A   1      44.230  26.777  30.622  1.00  0.00    -0.248 NA
ATOM     58  C   UNL A   1      45.064  25.068  29.266  1.00  0.00     0.031 C 
ATOM     59  C   UNL A   1      46.435  28.542  34.050  1.00  0.00     0.029 A 
ATOM     60  C   UNL A   1      45.764  27.968  32.982  1.00  0.00     0.049 A 
ATOM     61  H   UNL A   1      43.906  28.504  32.138  1.00  0.00     0.167 HD
ATOM     62  C   UNL A   1      45.467  26.371  31.110  1.00  0.00     0.074 A 
ATOM     63  C   UNL A   1      45.914  25.287  30.260  1.00  0.00     0.031 C 
ATOM     64  C   UNL A   1      46.172  26.857  32.160  1.00  0.00     0.034 A 
BRANCH  51  65
ATOM     65  C   UNL A   1      43.523  31.693  34.958  1.00  0.00     0.023 A 
ATOM     66  C   UNL A   1      44.247  32.873  34.691  1.00  0.00     0.012 A 
ATOM     67  C   UNL A   1      42.856  31.556  36.191  1.00  0.00     0.148 A 
ATOM     68  C   UNL A   1      44.341  33.881  35.649  1.00  0.00     0.002 A 
ATOM     69  C   UNL A   1      42.913  32.588  37.121  1.00  0.00     0.091 A 
ATOM     70  F   UNL A   1      42.189  30.419  36.436  1.00  0.00    -0.205 F 
ATOM     71  C   UNL A   1      43.667  33.743  36.858  1.00  0.00     0.022 A 
BRANCH  69  72
ATOM     72  S   UNL A   1      42.013  32.542  38.675  1.00  0.00     0.127 S 
ATOM     73  O   UNL A   1      42.707  31.472  39.387  1.00  0.00    -0.237 OA
ATOM     74  O   UNL A   1      42.250  33.885  39.206  1.00  0.00    -0.237 OA
ATOM     75  O   UNL A   1      40.626  32.263  38.328  1.00  0.00    -0.744 OA
ENDBRANCH  69  72
ENDBRANCH  51  65
BRANCH  52  76
ATOM     76  C   UNL A   1      42.663  25.003  27.578  1.00  0.00     0.023 A 
ATOM     77  C   UNL A   1      43.141  25.373  26.306  1.00  0.00     0.012 A 
ATOM     78  C   UNL A   1      42.122  23.716  27.763  1.00  0.00     0.148 A 
ATOM     79  C   UNL A   1      43.050  24.491  25.229  1.00  0.00     0.002 A 
ATOM     80  C   UNL A   1      42.086  22.824  26.699  1.00  0.00     0.091 A 
ATOM     81  F   UNL A   1      41.666  23.388  28.980  1.00  0.00    -0.205 F 
ATOM     82  C   UNL A   1      42.532  23.214  25.427  1.00  0.00     0.022 A 
BRANCH  80  83
ATOM     83  S   UNL A   1      41.555  21.118  26.889  1.00  0.00     0.127 S 
ATOM     84  O   UNL A   1      40.141  21.279  27.215  1.00  0.00    -0.237 OA
ATOM     85  O   UNL A   1      41.825  20.570  25.559  1.00  0.00    -0.237 OA
ATOM     86  O   UNL A   1      42.387  20.561  27.947  1.00  0.00    -0.744 OA
ENDBRANCH  80  83
ENDBRANCH  52  76
BRANCH  64  87
ATOM     87  C   UNL A   1      47.484  26.194  32.490  1.00  0.00     0.023 A 
ATOM     88  C   UNL A   1      47.535  25.171  33.458  1.00  0.00     0.012 A 
ATOM     89  C   UNL A   1      48.653  26.535  31.779  1.00  0.00     0.148 A 
ATOM     90  C   UNL A   1      48.738  24.522  33.737  1.00  0.00     0.002 A 
ATOM     91  C   UNL A   1      49.834  25.846  32.025  1.00  0.00     0.091 A 
ATOM     92  F   UNL A   1      48.585  27.522  30.875  1.00  0.00    -0.205 F 
ATOM     93  C   UNL A   1      49.882  24.850  33.012  1.00  0.00     0.022 A 
BRANCH  91  94
ATOM     94  S   UNL A   1      51.329  26.129  31.071  1.00  0.00     0.127 S 
ATOM     95  O   UNL A   1      50.885  25.803  29.718  1.00  0.00    -0.237 OA
ATOM     96  O   UNL A   1      51.580  27.551  31.305  1.00  0.00    -0.237 OA
ATOM     97  O   UNL A   1      52.337  25.238  31.628  1.00  0.00    -0.744 OA
ENDBRANCH  91  94
ENDBRANCH  64  87
ENDBRANCH  38  39
ENDBRANCH  30  33
ENDBRANCH  28  29
ENDBRANCH  27  28
ENDBRANCH  26  27
ENDBRANCH   1  26
TORSDOF 21
ENDMDL
MODEL 3
REMARK VINA RESULT:     -10.2      5.537     10.827
REMARK SMILES COc1cc(N)ccc1SCc1ccc(C(=O)NCCCCCCNC(=O)c2ccc(-c3c4nc(c(-c5cccc(S(=O)(=O)[O-])c5F)c5ccc([nH]5)c(-c5cccc(S(=O)(=O)[O-])c5F)c5nc(c(-c6cccc(S(=O)(=O)[O-])c6F)c6ccc3[nH]6)C=C5)C=C4)cc2)s1
REMARK SMILES IDX 21 1 20 2 19 3 18 4 16 5 17 6 15 8 12 9 13 10 91 11 14 12
REMARK SMILES IDX 11 13 10 14 9 15 3 16 4 17 5 18 8 19 7 20 2 21 1 22 6 23
REMARK SMILES IDX 22 26 23 27 24 28 25 29 26 30 27 32 28 33 29 34 90 35 30 36
REMARK SMILES IDX 89 37 31 38 32 39 33 40 83 41 34 42 88 43 82 44 84 45 35 46
REMARK SMILES IDX 87 47 81 48 80 49 36 51 68 52 48 53 67 54 49 55 52 56 66 57
REMARK SMILES IDX 85 58 50 59 51 60 65 62 86 63 53 64 37 65 38 66 46 67 39 68
REMARK SMILES IDX 41 69 47 70 40 71 42 72 43 73 44 74 45 75 69 76 70 77 78 78
REMARK SMILES IDX 71 79 73 80 79 81 72 82 74 83 75 84 76 85 77 86 54 87 55 88
REMARK SMILES IDX 63 89 56 90 58 91 64 92 57 93 59 94 60 95 61 96 62 97
REMARK H PARENT 18 7 6 24 6 25 25 31 84 50 52 61
REMARK Flexibility Score: inf
ROOT
ATOM      1  C   UNL A   1      33.034  21.142  25.408  1.00  0.00     0.002 C 
ENDROOT
BRANCH   1   2
ATOM      2  C   UNL A   1      31.922  21.211  24.352  1.00  0.00     0.021 C 
BRANCH   2   3
ATOM      3  C   UNL A   1      31.823  22.594  23.709  1.00  0.00     0.116 C 
BRANCH   3   4
ATOM      4  N   UNL A   1      32.504  22.601  22.432  1.00  0.00    -0.351 N 
ATOM      5  C   UNL A   1      33.173  23.587  21.746  1.00  0.00     0.261 C 
ATOM      6  O   UNL A   1      33.639  23.234  20.657  1.00  0.00    -0.268 OA
ATOM      7  H   UNL A   1      32.483  21.735  21.964  1.00  0.00     0.163 HD
BRANCH   5   8
ATOM      8  C   UNL A   1      33.336  24.925  22.297  1.00  0.00     0.092 A 
ATOM      9  C   UNL A   1      33.175  27.406  22.573  1.00  0.00     0.016 A 
ATOM     10  C   UNL A   1      34.021  26.817  23.487  1.00  0.00     0.017 A 
ATOM     11  S   UNL A   1      32.607  26.239  21.448  1.00  0.00    -0.134 S 
ATOM     12  C   UNL A   1      33.952  25.399  23.438  1.00  0.00     0.026 A 
BRANCH   9  13
ATOM     13  C   UNL A   1      32.657  28.810  22.471  1.00  0.00     0.121 C 
BRANCH  13  14
ATOM     14  S   UNL A   1      31.145  29.227  23.406  1.00  0.00    -0.117 SA
BRANCH  14  15
ATOM     15  C   UNL A   1      30.803  27.824  24.484  1.00  0.00     0.050 A 
ATOM     16  C   UNL A   1      31.332  27.565  25.763  1.00  0.00     0.134 A 
ATOM     17  C   UNL A   1      30.868  26.458  26.496  1.00  0.00     0.073 A 
ATOM     18  C   UNL A   1      29.911  25.583  25.973  1.00  0.00     0.035 A 
ATOM     19  C   UNL A   1      29.881  26.908  23.948  1.00  0.00     0.021 A 
ATOM     20  C   UNL A   1      29.455  25.795  24.677  1.00  0.00     0.027 A 
BRANCH  16  21
ATOM     21  O   UNL A   1      32.230  28.461  26.277  1.00  0.00    -0.496 OA
ATOM     22  C   UNL A   1      32.637  28.276  27.625  1.00  0.00     0.278 C 
ENDBRANCH  16  21
BRANCH  18  23
ATOM     23  N   UNL A   1      29.519  24.455  26.677  1.00  0.00    -0.399 N 
ATOM     24  H   UNL A   1      29.439  23.590  26.214  1.00  0.00     0.156 HD
ATOM     25  H   UNL A   1      29.321  24.518  27.638  1.00  0.00     0.156 HD
ENDBRANCH  18  23
ENDBRANCH  14  15
ENDBRANCH  13  14
ENDBRANCH   9  13
ENDBRANCH   5   8
ENDBRANCH   3   4
ENDBRANCH   2   3
ENDBRANCH   1   2
BRANCH   1  26
ATOM     26  C   UNL A   1      34.419  20.793  24.844  1.00  0.00     0.002 C 
BRANCH  26  27
ATOM     27  C   UNL A   1      35.339  21.996  24.623  1.00  0.00     0.021 C 
BRANCH  27  28
ATOM     28  C   UNL A   1      36.371  22.189  25.727  1.00  0.00     0.116 C 
BRANCH  28  29
ATOM     29  N   UNL A   1      37.275  21.050  25.808  1.00  0.00    -0.352 N 
ATOM     30  C   UNL A   1      38.637  21.042  25.970  1.00  0.00     0.251 C 
ATOM     31  H   UNL A   1      36.851  20.166  25.736  1.00  0.00     0.163 HD
ATOM     32  O   UNL A   1      39.278  20.018  25.759  1.00  0.00    -0.269 OA
BRANCH  30  33
ATOM     33  C   UNL A   1      39.321  22.278  26.400  1.00  0.00     0.039 A 
ATOM     34  C   UNL A   1      40.406  22.190  27.273  1.00  0.00     0.014 A 
ATOM     35  C   UNL A   1      38.879  23.522  25.940  1.00  0.00     0.014 A 
ATOM     36  C   UNL A   1      41.080  23.352  27.652  1.00  0.00     0.010 A 
ATOM     37  C   UNL A   1      39.600  24.667  26.254  1.00  0.00     0.010 A 
ATOM     38  C   UNL A   1      40.697  24.598  27.126  1.00  0.00    -0.014 A 
BRANCH  38  39
ATOM     39  C   UNL A   1      41.418  25.844  27.482  1.00  0.00     0.031 A 
ATOM     40  C   UNL A   1      40.713  26.921  28.262  1.00  0.00     0.074 A 
ATOM     41  C   UNL A   1      42.669  26.045  27.027  1.00  0.00     0.049 A 
ATOM     42  N   UNL A   1      41.140  28.110  28.598  1.00  0.00    -0.248 NA
ATOM     43  C   UNL A   1      39.334  26.636  28.695  1.00  0.00     0.031 C 
ATOM     44  C   UNL A   1      43.432  25.106  26.203  1.00  0.00     0.029 A 
ATOM     45  N   UNL A   1      43.512  27.120  27.171  1.00  0.00    -0.354 N 
ATOM     46  C   UNL A   1      40.075  28.728  29.244  1.00  0.00     0.074 A 
ATOM     47  C   UNL A   1      38.969  27.797  29.220  1.00  0.00     0.031 C 
ATOM     48  C   UNL A   1      44.629  25.643  25.916  1.00  0.00     0.029 A 
ATOM     49  C   UNL A   1      44.705  26.977  26.505  1.00  0.00     0.049 A 
ATOM     50  H   UNL A   1      43.281  27.917  27.702  1.00  0.00     0.167 HD
ATOM     51  C   UNL A   1      40.030  29.948  29.829  1.00  0.00     0.034 A 
ATOM     52  C   UNL A   1      45.740  27.829  26.371  1.00  0.00     0.034 A 
ATOM     53  C   UNL A   1      41.146  30.853  29.884  1.00  0.00     0.049 A 
ATOM     54  C   UNL A   1      45.675  29.168  27.055  1.00  0.00     0.074 A 
ATOM     55  C   UNL A   1      41.229  32.075  30.525  1.00  0.00     0.029 A 
ATOM     56  N   UNL A   1      42.368  30.639  29.266  1.00  0.00    -0.354 N 
ATOM     57  N   UNL A   1      44.713  29.677  27.785  1.00  0.00    -0.248 NA
ATOM     58  C   UNL A   1      46.854  30.038  26.925  1.00  0.00     0.031 C 
ATOM     59  C   UNL A   1      42.493  32.617  30.267  1.00  0.00     0.029 A 
ATOM     60  C   UNL A   1      43.210  31.713  29.500  1.00  0.00     0.049 A 
ATOM     61  H   UNL A   1      42.603  29.841  28.739  1.00  0.00     0.167 HD
ATOM     62  C   UNL A   1      45.184  30.904  28.237  1.00  0.00     0.074 A 
ATOM     63  C   UNL A   1      46.525  31.055  27.709  1.00  0.00     0.031 C 
ATOM     64  C   UNL A   1      44.561  31.827  29.011  1.00  0.00     0.034 A 
BRANCH  51  65
ATOM     65  C   UNL A   1      38.741  30.357  30.494  1.00  0.00     0.023 A 
ATOM     66  C   UNL A   1      38.541  30.082  31.862  1.00  0.00     0.012 A 
ATOM     67  C   UNL A   1      37.749  31.057  29.778  1.00  0.00     0.148 A 
ATOM     68  C   UNL A   1      37.358  30.459  32.498  1.00  0.00     0.002 A 
ATOM     69  C   UNL A   1      36.595  31.473  30.431  1.00  0.00     0.091 A 
ATOM     70  F   UNL A   1      37.948  31.292  28.474  1.00  0.00    -0.205 F 
ATOM     71  C   UNL A   1      36.392  31.163  31.786  1.00  0.00     0.022 A 
BRANCH  69  72
ATOM     72  S   UNL A   1      35.326  32.456  29.624  1.00  0.00     0.127 S 
ATOM     73  O   UNL A   1      34.395  32.695  30.724  1.00  0.00    -0.237 OA
ATOM     74  O   UNL A   1      36.080  33.634  29.193  1.00  0.00    -0.237 OA
ATOM     75  O   UNL A   1      34.811  31.634  28.538  1.00  0.00    -0.744 OA
ENDBRANCH  69  72
ENDBRANCH  51  65
BRANCH  52  76
ATOM     76  C   UNL A   1      46.950  27.420  25.603  1.00  0.00     0.023 A 
ATOM     77  C   UNL A   1      47.926  26.617  26.224  1.00  0.00     0.012 A 
ATOM     78  C   UNL A   1      47.126  27.799  24.258  1.00  0.00     0.148 A 
ATOM     79  C   UNL A   1      49.073  26.229  25.533  1.00  0.00     0.002 A 
ATOM     80  C   UNL A   1      48.243  27.363  23.558  1.00  0.00     0.091 A 
ATOM     81  F   UNL A   1      46.188  28.569  23.688  1.00  0.00    -0.205 F 
ATOM     82  C   UNL A   1      49.228  26.594  24.198  1.00  0.00     0.022 A 
BRANCH  80  83
ATOM     83  S   UNL A   1      48.464  27.674  21.803  1.00  0.00     0.127 S 
ATOM     84  O   UNL A   1      48.748  26.335  21.294  1.00  0.00    -0.237 OA
ATOM     85  O   UNL A   1      47.157  28.214  21.427  1.00  0.00    -0.237 OA
ATOM     86  O   UNL A   1      49.559  28.631  21.707  1.00  0.00    -0.744 OA
ENDBRANCH  80  83
ENDBRANCH  52  76
BRANCH  64  87
ATOM     87  C   UNL A   1      45.332  33.066  29.382  1.00  0.00     0.023 A 
ATOM     88  C   UNL A   1      46.159  33.069  30.522  1.00  0.00     0.012 A 
ATOM     89  C   UNL A   1      45.295  34.203  28.550  1.00  0.00     0.148 A 
ATOM     90  C   UNL A   1      46.910  34.199  30.848  1.00  0.00     0.002 A 
ATOM     91  C   UNL A   1      46.087  35.304  28.851  1.00  0.00     0.091 A 
ATOM     92  F   UNL A   1      44.488  34.185  27.478  1.00  0.00    -0.205 F 
ATOM     93  C   UNL A   1      46.885  35.309  30.006  1.00  0.00     0.022 A 
BRANCH  91  94
ATOM     94  S   UNL A   1      46.197  36.735  27.772  1.00  0.00     0.127 S 
ATOM     95  O   UNL A   1      45.011  37.495  28.164  1.00  0.00    -0.237 OA
ATOM     96  O   UNL A   1      47.468  37.334  28.182  1.00  0.00    -0.237 OA
ATOM     97  O   UNL A   1      46.184  36.217  26.411  1.00  0.00    -0.744 OA
ENDBRANCH  91  94
ENDBRANCH  64  87
ENDBRANCH  38  39
ENDBRANCH  30  33
ENDBRANCH  28  29
ENDBRANCH  27  28
ENDBRANCH  26  27
ENDBRANCH   1  26
TORSDOF 21
ENDMDL
