MODEL 1
REMARK VINA RESULT:     -11.7      0.000      0.000
REMARK SMILES C[C@H](C(=O)NCCCCCCNC(=O)c1ccc(-c2c3nc(c(-c4cccc(S(=O)(=O)[O-])c4F)c4ccc([nH]4)c(-c4cccc(S(=O)(=O)[O-])c4F)c4nc(c(-c5cccc(S(=O)(=O)[O-])c5F)c5ccc2[nH]5)C=C4)C=C3)cc1)c1cccc(C(=O)c2ccccc2)c1
REMARK SMILES IDX 8 1 7 2 6 3 5 4 3 5 4 6 2 8 1 9 78 10 79 11 91 12 80 13
REMARK SMILES IDX 82 14 81 15 83 16 84 17 85 18 86 19 90 20 87 21 89 22 88 23
REMARK SMILES IDX 9 24 10 25 11 26 12 27 13 28 14 30 15 31 16 32 77 33 17 34
REMARK SMILES IDX 76 35 18 36 19 37 20 38 70 39 21 40 75 41 69 42 71 43 22 44
REMARK SMILES IDX 74 45 68 46 67 47 23 49 55 50 35 51 54 52 36 53 39 54 53 55
REMARK SMILES IDX 72 56 37 57 38 58 52 60 73 61 40 62 24 63 25 64 33 65 26 66
REMARK SMILES IDX 28 67 34 68 27 69 29 70 30 71 31 72 32 73 56 74 57 75 65 76
REMARK SMILES IDX 58 77 60 78 66 79 59 80 61 81 62 82 63 83 64 84 41 85 42 86
REMARK SMILES IDX 50 87 43 88 45 89 51 90 44 91 46 92 47 93 48 94 49 95
REMARK H PARENT 5 7 12 29 71 48 39 59
REMARK Flexibility Score: inf
ROOT
ATOM      1  C   UNL A   1      32.678  27.202  25.677  1.00  0.00     0.002 C 
ENDROOT
BRANCH   1   2
ATOM      2  C   UNL A   1      31.385  26.910  26.449  1.00  0.00     0.021 C 
BRANCH   2   3
ATOM      3  C   UNL A   1      30.440  25.967  25.699  1.00  0.00     0.116 C 
BRANCH   3   4
ATOM      4  N   UNL A   1      29.999  24.894  26.570  1.00  0.00    -0.356 N 
ATOM      5  C   UNL A   1      30.609  23.710  26.879  1.00  0.00     0.227 C 
ATOM      6  O   UNL A   1      29.935  22.874  27.488  1.00  0.00    -0.274 OA
ATOM      7  H   UNL A   1      29.128  25.041  27.006  1.00  0.00     0.163 HD
BRANCH   5   8
ATOM      8  C   UNL A   1      32.097  23.494  26.549  1.00  0.00     0.105 C 
ATOM      9  C   UNL A   1      32.763  22.496  27.514  1.00  0.00     0.023 C 
BRANCH   8  10
ATOM     10  C   UNL A   1      32.355  23.100  25.100  1.00  0.00    -0.035 A 
ATOM     11  C   UNL A   1      32.218  21.777  24.660  1.00  0.00     0.004 A 
ATOM     12  C   UNL A   1      32.679  24.097  24.159  1.00  0.00     0.016 A 
ATOM     13  C   UNL A   1      32.382  21.464  23.311  1.00  0.00     0.001 A 
ATOM     14  C   UNL A   1      32.797  23.803  22.796  1.00  0.00     0.023 A 
ATOM     15  C   UNL A   1      32.657  22.472  22.383  1.00  0.00     0.012 A 
BRANCH  14  16
ATOM     16  C   UNL A   1      32.945  24.859  21.747  1.00  0.00     0.193 C 
ATOM     17  O   UNL A   1      33.277  24.531  20.610  1.00  0.00    -0.289 OA
BRANCH  16  18
ATOM     18  C   UNL A   1      32.607  26.281  22.001  1.00  0.00     0.022 A 
ATOM     19  C   UNL A   1      33.652  27.208  22.087  1.00  0.00     0.012 A 
ATOM     20  C   UNL A   1      31.283  26.700  22.177  1.00  0.00     0.012 A 
ATOM     21  C   UNL A   1      33.367  28.558  22.303  1.00  0.00     0.001 A 
ATOM     22  C   UNL A   1      31.003  28.054  22.375  1.00  0.00     0.001 A 
ATOM     23  C   UNL A   1      32.044  28.980  22.433  1.00  0.00     0.000 A 
ENDBRANCH  16  18
ENDBRANCH  14  16
ENDBRANCH   8  10
ENDBRANCH   5   8
ENDBRANCH   3   4
ENDBRANCH   2   3
ENDBRANCH   1   2
BRANCH   1  24
ATOM     24  C   UNL A   1      33.295  28.575  25.963  1.00  0.00     0.002 C 
BRANCH  24  25
ATOM     25  C   UNL A   1      32.320  29.752  25.855  1.00  0.00     0.021 C 
BRANCH  25  26
ATOM     26  C   UNL A   1      32.016  30.437  27.184  1.00  0.00     0.116 C 
BRANCH  26  27
ATOM     27  N   UNL A   1      32.096  31.889  27.071  1.00  0.00    -0.352 N 
ATOM     28  C   UNL A   1      33.074  32.742  27.514  1.00  0.00     0.251 C 
ATOM     29  H   UNL A   1      31.339  32.319  26.612  1.00  0.00     0.163 HD
ATOM     30  O   UNL A   1      32.869  33.954  27.543  1.00  0.00    -0.269 OA
BRANCH  28  31
ATOM     31  C   UNL A   1      34.370  32.198  27.973  1.00  0.00     0.039 A 
ATOM     32  C   UNL A   1      35.486  33.037  28.003  1.00  0.00     0.014 A 
ATOM     33  C   UNL A   1      34.474  30.868  28.389  1.00  0.00     0.014 A 
ATOM     34  C   UNL A   1      36.690  32.563  28.529  1.00  0.00     0.010 A 
ATOM     35  C   UNL A   1      35.656  30.419  28.973  1.00  0.00     0.010 A 
ATOM     36  C   UNL A   1      36.770  31.266  29.063  1.00  0.00    -0.014 A 
BRANCH  36  37
ATOM     37  C   UNL A   1      37.983  30.806  29.789  1.00  0.00     0.031 A 
ATOM     38  C   UNL A   1      38.911  29.796  29.172  1.00  0.00     0.074 A 
ATOM     39  C   UNL A   1      38.180  31.218  31.059  1.00  0.00     0.049 A 
ATOM     40  N   UNL A   1      39.966  29.227  29.693  1.00  0.00    -0.248 NA
ATOM     41  C   UNL A   1      38.607  29.352  27.801  1.00  0.00     0.031 C 
ATOM     42  C   UNL A   1      37.302  32.130  31.796  1.00  0.00     0.029 A 
ATOM     43  N   UNL A   1      39.154  30.891  31.970  1.00  0.00    -0.354 N 
ATOM     44  C   UNL A   1      40.427  28.329  28.737  1.00  0.00     0.074 A 
ATOM     45  C   UNL A   1      39.533  28.422  27.605  1.00  0.00     0.031 C 
ATOM     46  C   UNL A   1      37.767  32.277  33.046  1.00  0.00     0.029 A 
ATOM     47  C   UNL A   1      38.950  31.439  33.216  1.00  0.00     0.049 A 
ATOM     48  H   UNL A   1      39.925  30.318  31.753  1.00  0.00     0.167 HD
ATOM     49  C   UNL A   1      41.504  27.511  28.797  1.00  0.00     0.034 A 
ATOM     50  C   UNL A   1      39.616  31.265  34.375  1.00  0.00     0.034 A 
ATOM     51  C   UNL A   1      42.414  27.453  29.909  1.00  0.00     0.049 A 
ATOM     52  C   UNL A   1      40.825  30.367  34.396  1.00  0.00     0.074 A 
ATOM     53  C   UNL A   1      43.604  26.753  30.006  1.00  0.00     0.029 A 
ATOM     54  N   UNL A   1      42.223  28.087  31.125  1.00  0.00    -0.354 N 
ATOM     55  N   UNL A   1      41.365  29.690  33.412  1.00  0.00    -0.248 NA
ATOM     56  C   UNL A   1      41.533  30.231  35.677  1.00  0.00     0.031 C 
ATOM     57  C   UNL A   1      44.109  26.925  31.297  1.00  0.00     0.029 A 
ATOM     58  C   UNL A   1      43.254  27.765  31.992  1.00  0.00     0.049 A 
ATOM     59  H   UNL A   1      41.468  28.680  31.342  1.00  0.00     0.167 HD
ATOM     60  C   UNL A   1      42.485  29.067  33.949  1.00  0.00     0.074 A 
ATOM     61  C   UNL A   1      42.568  29.476  35.335  1.00  0.00     0.031 C 
ATOM     62  C   UNL A   1      43.353  28.212  33.355  1.00  0.00     0.034 A 
BRANCH  49  63
ATOM     63  C   UNL A   1      41.799  26.626  27.616  1.00  0.00     0.023 A 
ATOM     64  C   UNL A   1      42.581  27.116  26.552  1.00  0.00     0.012 A 
ATOM     65  C   UNL A   1      41.409  25.272  27.625  1.00  0.00     0.148 A 
ATOM     66  C   UNL A   1      42.960  26.275  25.506  1.00  0.00     0.002 A 
ATOM     67  C   UNL A   1      41.827  24.429  26.602  1.00  0.00     0.091 A 
ATOM     68  F   UNL A   1      40.652  24.833  28.640  1.00  0.00    -0.205 F 
ATOM     69  C   UNL A   1      42.595  24.932  25.539  1.00  0.00     0.022 A 
BRANCH  67  70
ATOM     70  S   UNL A   1      41.484  22.667  26.593  1.00  0.00     0.127 S 
ATOM     71  O   UNL A   1      42.117  22.238  27.839  1.00  0.00    -0.237 OA
ATOM     72  O   UNL A   1      40.022  22.640  26.612  1.00  0.00    -0.237 OA
ATOM     73  O   UNL A   1      42.090  22.141  25.378  1.00  0.00    -0.744 OA
ENDBRANCH  67  70
ENDBRANCH  49  63
BRANCH  50  74
ATOM     74  C   UNL A   1      39.163  31.958  35.615  1.00  0.00     0.023 A 
ATOM     75  C   UNL A   1      38.262  31.316  36.486  1.00  0.00     0.012 A 
ATOM     76  C   UNL A   1      39.615  33.255  35.932  1.00  0.00     0.148 A 
ATOM     77  C   UNL A   1      37.783  31.969  37.623  1.00  0.00     0.002 A 
ATOM     78  C   UNL A   1      39.184  33.875  37.099  1.00  0.00     0.091 A 
ATOM     79  F   UNL A   1      40.462  33.861  35.088  1.00  0.00    -0.205 F 
ATOM     80  C   UNL A   1      38.249  33.243  37.934  1.00  0.00     0.022 A 
BRANCH  78  81
ATOM     81  S   UNL A   1      39.852  35.451  37.644  1.00  0.00     0.127 S 
ATOM     82  O   UNL A   1      39.072  35.710  38.851  1.00  0.00    -0.237 OA
ATOM     83  O   UNL A   1      41.260  35.125  37.879  1.00  0.00    -0.237 OA
ATOM     84  O   UNL A   1      39.638  36.373  36.536  1.00  0.00    -0.744 OA
ENDBRANCH  78  81
ENDBRANCH  50  74
BRANCH  62  85
ATOM     85  C   UNL A   1      44.483  27.667  34.189  1.00  0.00     0.023 A 
ATOM     86  C   UNL A   1      45.691  28.387  34.281  1.00  0.00     0.012 A 
ATOM     87  C   UNL A   1      44.320  26.489  34.944  1.00  0.00     0.148 A 
ATOM     88  C   UNL A   1      46.730  27.927  35.091  1.00  0.00     0.002 A 
ATOM     89  C   UNL A   1      45.339  26.066  35.789  1.00  0.00     0.091 A 
ATOM     90  F   UNL A   1      43.167  25.813  34.833  1.00  0.00    -0.205 F 
ATOM     91  C   UNL A   1      46.550  26.776  35.853  1.00  0.00     0.022 A 
BRANCH  89  92
ATOM     92  S   UNL A   1      45.168  24.649  36.879  1.00  0.00     0.127 S 
ATOM     93  O   UNL A   1      44.698  23.617  35.956  1.00  0.00    -0.237 OA
ATOM     94  O   UNL A   1      46.537  24.462  37.359  1.00  0.00    -0.237 OA
ATOM     95  O   UNL A   1      44.212  25.041  37.907  1.00  0.00    -0.744 OA
ENDBRANCH  89  92
ENDBRANCH  62  85
ENDBRANCH  36  37
ENDBRANCH  28  31
ENDBRANCH  26  27
ENDBRANCH  25  26
ENDBRANCH  24  25
ENDBRANCH   1  24
TORSDOF 19
ENDMDL
MODEL 2
REMARK VINA RESULT:     -11.4      5.666     10.739
REMARK SMILES C[C@H](C(=O)NCCCCCCNC(=O)c1ccc(-c2c3nc(c(-c4cccc(S(=O)(=O)[O-])c4F)c4ccc([nH]4)c(-c4cccc(S(=O)(=O)[O-])c4F)c4nc(c(-c5cccc(S(=O)(=O)[O-])c5F)c5ccc2[nH]5)C=C4)C=C3)cc1)c1cccc(C(=O)c2ccccc2)c1
REMARK SMILES IDX 8 1 7 2 6 3 5 4 3 5 4 6 2 8 1 9 78 10 79 11 91 12 80 13
REMARK SMILES IDX 82 14 81 15 83 16 84 17 85 18 86 19 90 20 87 21 89 22 88 23
REMARK SMILES IDX 9 24 10 25 11 26 12 27 13 28 14 30 15 31 16 32 77 33 17 34
REMARK SMILES IDX 76 35 18 36 19 37 20 38 70 39 21 40 75 41 69 42 71 43 22 44
REMARK SMILES IDX 74 45 68 46 67 47 23 49 55 50 35 51 54 52 36 53 39 54 53 55
REMARK SMILES IDX 72 56 37 57 38 58 52 60 73 61 40 62 24 63 25 64 33 65 26 66
REMARK SMILES IDX 28 67 34 68 27 69 29 70 30 71 31 72 32 73 56 74 57 75 65 76
REMARK SMILES IDX 58 77 60 78 66 79 59 80 61 81 62 82 63 83 64 84 41 85 42 86
REMARK SMILES IDX 50 87 43 88 45 89 51 90 44 91 46 92 47 93 48 94 49 95
REMARK H PARENT 5 7 12 29 71 48 39 59
REMARK Flexibility Score: inf
ROOT
ATOM      1  C   UNL A   1      36.944  22.614  24.635  1.00  0.00     0.002 C 
ENDROOT
BRANCH   1   2
ATOM      2  C   UNL A   1      36.596  23.033  23.202  1.00  0.00     0.021 C 
BRANCH   2   3
ATOM      3  C   UNL A   1      35.146  23.499  23.049  1.00  0.00     0.116 C 
BRANCH   3   4
ATOM      4  N   UNL A   1      34.950  24.772  23.717  1.00  0.00    -0.356 N 
ATOM      5  C   UNL A   1      33.818  25.308  24.266  1.00  0.00     0.227 C 
ATOM      6  O   UNL A   1      33.864  26.496  24.597  1.00  0.00    -0.274 OA
ATOM      7  H   UNL A   1      35.754  25.335  23.787  1.00  0.00     0.163 HD
BRANCH   5   8
ATOM      8  C   UNL A   1      32.588  24.420  24.531  1.00  0.00     0.105 C 
ATOM      9  C   UNL A   1      31.707  24.267  23.278  1.00  0.00     0.023 C 
BRANCH   8  10
ATOM     10  C   UNL A   1      32.929  23.058  25.122  1.00  0.00    -0.035 A 
ATOM     11  C   UNL A   1      33.306  22.911  26.463  1.00  0.00     0.004 A 
ATOM     12  C   UNL A   1      32.804  21.905  24.323  1.00  0.00     0.016 A 
ATOM     13  C   UNL A   1      33.534  21.641  26.995  1.00  0.00     0.001 A 
ATOM     14  C   UNL A   1      32.981  20.624  24.858  1.00  0.00     0.023 A 
ATOM     15  C   UNL A   1      33.360  20.505  26.200  1.00  0.00     0.012 A 
BRANCH  14  16
ATOM     16  C   UNL A   1      32.667  19.375  24.096  1.00  0.00     0.193 C 
ATOM     17  O   UNL A   1      32.064  19.460  23.029  1.00  0.00    -0.289 OA
BRANCH  16  18
ATOM     18  C   UNL A   1      33.147  18.040  24.531  1.00  0.00     0.022 A 
ATOM     19  C   UNL A   1      34.461  17.672  24.222  1.00  0.00     0.012 A 
ATOM     20  C   UNL A   1      32.311  17.147  25.212  1.00  0.00     0.012 A 
ATOM     21  C   UNL A   1      34.952  16.433  24.637  1.00  0.00     0.001 A 
ATOM     22  C   UNL A   1      32.812  15.915  25.640  1.00  0.00     0.001 A 
ATOM     23  C   UNL A   1      34.132  15.562  25.355  1.00  0.00     0.000 A 
ENDBRANCH  16  18
ENDBRANCH  14  16
ENDBRANCH   8  10
ENDBRANCH   5   8
ENDBRANCH   3   4
ENDBRANCH   2   3
ENDBRANCH   1   2
BRANCH   1  24
ATOM     24  C   UNL A   1      36.570  21.170  24.986  1.00  0.00     0.002 C 
BRANCH  24  25
ATOM     25  C   UNL A   1      37.735  20.177  24.946  1.00  0.00     0.021 C 
BRANCH  25  26
ATOM     26  C   UNL A   1      38.935  20.583  25.796  1.00  0.00     0.116 C 
BRANCH  26  27
ATOM     27  N   UNL A   1      39.899  19.497  25.920  1.00  0.00    -0.352 N 
ATOM     28  C   UNL A   1      41.259  19.556  26.089  1.00  0.00     0.251 C 
ATOM     29  H   UNL A   1      39.520  18.589  25.876  1.00  0.00     0.163 HD
ATOM     30  O   UNL A   1      41.945  18.546  25.939  1.00  0.00    -0.269 OA
BRANCH  28  31
ATOM     31  C   UNL A   1      41.900  20.843  26.435  1.00  0.00     0.039 A 
ATOM     32  C   UNL A   1      42.136  21.777  25.424  1.00  0.00     0.014 A 
ATOM     33  C   UNL A   1      42.248  21.130  27.758  1.00  0.00     0.014 A 
ATOM     34  C   UNL A   1      42.648  23.034  25.754  1.00  0.00     0.010 A 
ATOM     35  C   UNL A   1      42.694  22.405  28.092  1.00  0.00     0.010 A 
ATOM     36  C   UNL A   1      42.885  23.375  27.096  1.00  0.00    -0.014 A 
BRANCH  36  37
ATOM     37  C   UNL A   1      43.254  24.761  27.485  1.00  0.00     0.031 A 
ATOM     38  C   UNL A   1      42.224  25.702  28.046  1.00  0.00     0.074 A 
ATOM     39  C   UNL A   1      44.501  25.204  27.218  1.00  0.00     0.049 A 
ATOM     40  N   UNL A   1      42.352  26.964  28.362  1.00  0.00    -0.248 NA
ATOM     41  C   UNL A   1      40.869  25.165  28.263  1.00  0.00     0.031 C 
ATOM     42  C   UNL A   1      45.564  24.410  26.597  1.00  0.00     0.029 A 
ATOM     43  N   UNL A   1      45.073  26.440  27.394  1.00  0.00    -0.354 N 
ATOM     44  C   UNL A   1      41.093  27.386  28.773  1.00  0.00     0.074 A 
ATOM     45  C   UNL A   1      40.210  26.246  28.660  1.00  0.00     0.031 C 
ATOM     46  C   UNL A   1      46.650  25.180  26.429  1.00  0.00     0.029 A 
ATOM     47  C   UNL A   1      46.351  26.532  26.891  1.00  0.00     0.049 A 
ATOM     48  H   UNL A   1      44.613  27.189  27.838  1.00  0.00     0.167 HD
ATOM     49  C   UNL A   1      40.714  28.607  29.214  1.00  0.00     0.034 A 
ATOM     50  C   UNL A   1      47.180  27.589  26.781  1.00  0.00     0.034 A 
ATOM     51  C   UNL A   1      41.607  29.726  29.364  1.00  0.00     0.049 A 
ATOM     52  C   UNL A   1      46.733  28.927  27.307  1.00  0.00     0.074 A 
ATOM     53  C   UNL A   1      41.342  30.963  29.926  1.00  0.00     0.029 A 
ATOM     54  N   UNL A   1      42.919  29.759  28.922  1.00  0.00    -0.354 N 
ATOM     55  N   UNL A   1      45.603  29.247  27.888  1.00  0.00    -0.248 NA
ATOM     56  C   UNL A   1      47.683  30.043  27.189  1.00  0.00     0.031 C 
ATOM     57  C   UNL A   1      42.480  31.761  29.781  1.00  0.00     0.029 A 
ATOM     58  C   UNL A   1      43.466  31.007  29.165  1.00  0.00     0.049 A 
ATOM     59  H   UNL A   1      43.393  29.007  28.500  1.00  0.00     0.167 HD
ATOM     60  C   UNL A   1      45.715  30.592  28.223  1.00  0.00     0.074 A 
ATOM     61  C   UNL A   1      47.036  31.017  27.814  1.00  0.00     0.031 C 
ATOM     62  C   UNL A   1      44.797  31.409  28.795  1.00  0.00     0.034 A 
BRANCH  49  63
ATOM     63  C   UNL A   1      39.277  28.814  29.610  1.00  0.00     0.023 A 
ATOM     64  C   UNL A   1      38.868  28.539  30.929  1.00  0.00     0.012 A 
ATOM     65  C   UNL A   1      38.367  29.400  28.708  1.00  0.00     0.148 A 
ATOM     66  C   UNL A   1      37.568  28.832  31.343  1.00  0.00     0.002 A 
ATOM     67  C   UNL A   1      37.087  29.730  29.140  1.00  0.00     0.091 A 
ATOM     68  F   UNL A   1      38.775  29.638  27.454  1.00  0.00    -0.205 F 
ATOM     69  C   UNL A   1      36.685  29.439  30.454  1.00  0.00     0.022 A 
BRANCH  67  70
ATOM     70  S   UNL A   1      35.903  30.592  28.101  1.00  0.00     0.127 S 
ATOM     71  O   UNL A   1      36.600  31.851  27.842  1.00  0.00    -0.237 OA
ATOM     72  O   UNL A   1      35.806  29.701  26.945  1.00  0.00    -0.237 OA
ATOM     73  O   UNL A   1      34.684  30.710  28.888  1.00  0.00    -0.744 OA
ENDBRANCH  67  70
ENDBRANCH  49  63
BRANCH  50  74
ATOM     74  C   UNL A   1      48.524  27.430  26.153  1.00  0.00     0.023 A 
ATOM     75  C   UNL A   1      49.645  27.161  26.961  1.00  0.00     0.012 A 
ATOM     76  C   UNL A   1      48.697  27.552  24.760  1.00  0.00     0.148 A 
ATOM     77  C   UNL A   1      50.919  27.063  26.401  1.00  0.00     0.002 A 
ATOM     78  C   UNL A   1      49.959  27.390  24.200  1.00  0.00     0.091 A 
ATOM     79  F   UNL A   1      47.624  27.822  24.003  1.00  0.00    -0.205 F 
ATOM     80  C   UNL A   1      51.076  27.170  25.022  1.00  0.00     0.022 A 
BRANCH  78  81
ATOM     81  S   UNL A   1      50.218  27.365  22.422  1.00  0.00     0.127 S 
ATOM     82  O   UNL A   1      49.209  26.405  21.983  1.00  0.00    -0.237 OA
ATOM     83  O   UNL A   1      49.947  28.755  22.052  1.00  0.00    -0.237 OA
ATOM     84  O   UNL A   1      51.606  26.964  22.233  1.00  0.00    -0.744 OA
ENDBRANCH  78  81
ENDBRANCH  50  74
BRANCH  62  85
ATOM     85  C   UNL A   1      45.185  32.845  29.032  1.00  0.00     0.023 A 
ATOM     86  C   UNL A   1      45.888  33.193  30.204  1.00  0.00     0.012 A 
ATOM     87  C   UNL A   1      44.929  33.831  28.061  1.00  0.00     0.148 A 
ATOM     88  C   UNL A   1      46.304  34.507  30.416  1.00  0.00     0.002 A 
ATOM     89  C   UNL A   1      45.392  35.127  28.255  1.00  0.00     0.091 A 
ATOM     90  F   UNL A   1      44.248  33.482  26.959  1.00  0.00    -0.205 F 
ATOM     91  C   UNL A   1      46.067  35.469  29.439  1.00  0.00     0.022 A 
BRANCH  89  92
ATOM     92  S   UNL A   1      45.219  36.414  27.015  1.00  0.00     0.127 S 
ATOM     93  O   UNL A   1      45.734  37.585  27.726  1.00  0.00    -0.237 OA
ATOM     94  O   UNL A   1      46.083  35.925  25.940  1.00  0.00    -0.237 OA
ATOM     95  O   UNL A   1      43.802  36.468  26.680  1.00  0.00    -0.744 OA
ENDBRANCH  89  92
ENDBRANCH  62  85
ENDBRANCH  36  37
ENDBRANCH  28  31
ENDBRANCH  26  27
ENDBRANCH  25  26
ENDBRANCH  24  25
ENDBRANCH   1  24
TORSDOF 19
ENDMDL
MODEL 3
REMARK VINA RESULT:     -11.4      5.499     10.280
REMARK SMILES C[C@H](C(=O)NCCCCCCNC(=O)c1ccc(-c2c3nc(c(-c4cccc(S(=O)(=O)[O-])c4F)c4ccc([nH]4)c(-c4cccc(S(=O)(=O)[O-])c4F)c4nc(c(-c5cccc(S(=O)(=O)[O-])c5F)c5ccc2[nH]5)C=C4)C=C3)cc1)c1cccc(C(=O)c2ccccc2)c1
REMARK SMILES IDX 8 1 7 2 6 3 5 4 3 5 4 6 2 8 1 9 78 10 79 11 91 12 80 13
REMARK SMILES IDX 82 14 81 15 83 16 84 17 85 18 86 19 90 20 87 21 89 22 88 23
REMARK SMILES IDX 9 24 10 25 11 26 12 27 13 28 14 30 15 31 16 32 77 33 17 34
REMARK SMILES IDX 76 35 18 36 19 37 20 38 70 39 21 40 75 41 69 42 71 43 22 44
REMARK SMILES IDX 74 45 68 46 67 47 23 49 55 50 35 51 54 52 36 53 39 54 53 55
REMARK SMILES IDX 72 56 37 57 38 58 52 60 73 61 40 62 24 63 25 64 33 65 26 66
REMARK SMILES IDX 28 67 34 68 27 69 29 70 30 71 31 72 32 73 56 74 57 75 65 76
REMARK SMILES IDX 58 77 60 78 66 79 59 80 61 81 62 82 63 83 64 84 41 85 42 86
REMARK SMILES IDX 50 87 43 88 45 89 51 90 44 91 46 92 47 93 48 94 49 95
REMARK H PARENT 5 7 12 29 71 48 39 59
REMARK Flexibility Score: inf
ROOT
ATOM      1  C   UNL A   1      34.502  20.257  24.974  1.00  0.00     0.002 C 
ENDROOT
BRANCH   1   2
ATOM      2  C   UNL A   1      33.213  20.440  25.784  1.00  0.00     0.021 C 
BRANCH   2   3
ATOM      3  C   UNL A   1      32.155  21.267  25.049  1.00  0.00     0.116 C 
BRANCH   3   4
ATOM      4  N   UNL A   1      32.684  21.765  23.793  1.00  0.00    -0.356 N 
ATOM      5  C   UNL A   1      33.237  22.980  23.496  1.00  0.00     0.227 C 
ATOM      6  O   UNL A   1      33.427  23.233  22.303  1.00  0.00    -0.274 OA
ATOM      7  H   UNL A   1      32.639  21.132  23.041  1.00  0.00     0.163 HD
BRANCH   5   8
ATOM      8  C   UNL A   1      33.677  23.930  24.625  1.00  0.00     0.105 C 
ATOM      9  C   UNL A   1      35.114  24.443  24.421  1.00  0.00     0.023 C 
BRANCH   8  10
ATOM     10  C   UNL A   1      32.717  25.089  24.863  1.00  0.00    -0.035 A 
ATOM     11  C   UNL A   1      32.568  25.675  26.126  1.00  0.00     0.004 A 
ATOM     12  C   UNL A   1      32.004  25.630  23.776  1.00  0.00     0.016 A 
ATOM     13  C   UNL A   1      31.741  26.787  26.293  1.00  0.00     0.001 A 
ATOM     14  C   UNL A   1      31.211  26.775  23.921  1.00  0.00     0.023 A 
ATOM     15  C   UNL A   1      31.077  27.340  25.195  1.00  0.00     0.012 A 
BRANCH  14  16
ATOM     16  C   UNL A   1      30.597  27.491  22.760  1.00  0.00     0.193 C 
ATOM     17  O   UNL A   1      30.975  27.220  21.622  1.00  0.00    -0.289 OA
BRANCH  16  18
ATOM     18  C   UNL A   1      29.476  28.448  22.922  1.00  0.00     0.022 A 
ATOM     19  C   UNL A   1      29.756  29.818  22.859  1.00  0.00     0.012 A 
ATOM     20  C   UNL A   1      28.167  28.011  23.158  1.00  0.00     0.012 A 
ATOM     21  C   UNL A   1      28.720  30.746  22.985  1.00  0.00     0.001 A 
ATOM     22  C   UNL A   1      27.132  28.943  23.266  1.00  0.00     0.001 A 
ATOM     23  C   UNL A   1      27.410  30.308  23.175  1.00  0.00     0.000 A 
ENDBRANCH  16  18
ENDBRANCH  14  16
ENDBRANCH   8  10
ENDBRANCH   5   8
ENDBRANCH   3   4
ENDBRANCH   2   3
ENDBRANCH   1   2
BRANCH   1  24
ATOM     24  C   UNL A   1      35.694  21.079  25.476  1.00  0.00     0.002 C 
BRANCH  24  25
ATOM     25  C   UNL A   1      37.020  20.786  24.769  1.00  0.00     0.021 C 
BRANCH  25  26
ATOM     26  C   UNL A   1      38.258  21.142  25.586  1.00  0.00     0.116 C 
BRANCH  26  27
ATOM     27  N   UNL A   1      39.115  19.982  25.797  1.00  0.00    -0.352 N 
ATOM     28  C   UNL A   1      40.456  19.931  26.083  1.00  0.00     0.251 C 
ATOM     29  H   UNL A   1      38.667  19.108  25.723  1.00  0.00     0.163 HD
ATOM     30  O   UNL A   1      41.066  18.867  25.997  1.00  0.00    -0.269 OA
BRANCH  28  31
ATOM     31  C   UNL A   1      41.168  21.164  26.479  1.00  0.00     0.039 A 
ATOM     32  C   UNL A   1      41.699  21.990  25.486  1.00  0.00     0.014 A 
ATOM     33  C   UNL A   1      41.294  21.510  27.828  1.00  0.00     0.014 A 
ATOM     34  C   UNL A   1      42.285  23.207  25.842  1.00  0.00     0.010 A 
ATOM     35  C   UNL A   1      41.818  22.753  28.174  1.00  0.00     0.010 A 
ATOM     36  C   UNL A   1      42.305  23.619  27.185  1.00  0.00    -0.014 A 
BRANCH  36  37
ATOM     37  C   UNL A   1      42.757  24.983  27.564  1.00  0.00     0.031 A 
ATOM     38  C   UNL A   1      41.796  25.972  28.164  1.00  0.00     0.074 A 
ATOM     39  C   UNL A   1      44.014  25.365  27.255  1.00  0.00     0.049 A 
ATOM     40  N   UNL A   1      41.998  27.225  28.480  1.00  0.00    -0.248 NA
ATOM     41  C   UNL A   1      40.425  25.503  28.428  1.00  0.00     0.031 C 
ATOM     42  C   UNL A   1      45.013  24.522  26.594  1.00  0.00     0.029 A 
ATOM     43  N   UNL A   1      44.654  26.570  27.415  1.00  0.00    -0.354 N 
ATOM     44  C   UNL A   1      40.777  27.707  28.936  1.00  0.00     0.074 A 
ATOM     45  C   UNL A   1      39.834  26.613  28.851  1.00  0.00     0.031 C 
ATOM     46  C   UNL A   1      46.131  25.237  26.391  1.00  0.00     0.029 A 
ATOM     47  C   UNL A   1      45.916  26.600  26.867  1.00  0.00     0.049 A 
ATOM     48  H   UNL A   1      44.248  27.339  27.877  1.00  0.00     0.167 HD
ATOM     49  C   UNL A   1      40.476  28.944  29.395  1.00  0.00     0.034 A 
ATOM     50  C   UNL A   1      46.793  27.615  26.731  1.00  0.00     0.034 A 
ATOM     51  C   UNL A   1      41.428  30.015  29.516  1.00  0.00     0.049 A 
ATOM     52  C   UNL A   1      46.432  28.971  27.277  1.00  0.00     0.074 A 
ATOM     53  C   UNL A   1      41.246  31.261  30.091  1.00  0.00     0.029 A 
ATOM     54  N   UNL A   1      42.724  29.985  29.028  1.00  0.00    -0.354 N 
ATOM     55  N   UNL A   1      45.340  29.345  27.899  1.00  0.00    -0.248 NA
ATOM     56  C   UNL A   1      47.432  30.039  27.128  1.00  0.00     0.031 C 
ATOM     57  C   UNL A   1      42.416  32.002  29.908  1.00  0.00     0.029 A 
ATOM     58  C   UNL A   1      43.341  31.203  29.255  1.00  0.00     0.049 A 
ATOM     59  H   UNL A   1      43.144  29.212  28.588  1.00  0.00     0.167 HD
ATOM     60  C   UNL A   1      45.532  30.680  28.233  1.00  0.00     0.074 A 
ATOM     61  C   UNL A   1      46.858  31.040  27.779  1.00  0.00     0.031 C 
ATOM     62  C   UNL A   1      44.676  31.539  28.840  1.00  0.00     0.034 A 
BRANCH  49  63
ATOM     63  C   UNL A   1      39.065  29.220  29.841  1.00  0.00     0.023 A 
ATOM     64  C   UNL A   1      38.673  28.903  31.156  1.00  0.00     0.012 A 
ATOM     65  C   UNL A   1      38.172  29.909  28.997  1.00  0.00     0.148 A 
ATOM     66  C   UNL A   1      37.406  29.256  31.622  1.00  0.00     0.002 A 
ATOM     67  C   UNL A   1      36.928  30.297  29.482  1.00  0.00     0.091 A 
ATOM     68  F   UNL A   1      38.563  30.186  27.745  1.00  0.00    -0.205 F 
ATOM     69  C   UNL A   1      36.542  29.964  30.790  1.00  0.00     0.022 A 
BRANCH  67  70
ATOM     70  S   UNL A   1      35.776  31.285  28.523  1.00  0.00     0.127 S 
ATOM     71  O   UNL A   1      36.635  32.377  28.065  1.00  0.00    -0.237 OA
ATOM     72  O   UNL A   1      35.371  30.349  27.474  1.00  0.00    -0.237 OA
ATOM     73  O   UNL A   1      34.715  31.675  29.439  1.00  0.00    -0.744 OA
ENDBRANCH  67  70
ENDBRANCH  49  63
BRANCH  50  74
ATOM     74  C   UNL A   1      48.104  27.392  26.056  1.00  0.00     0.023 A 
ATOM     75  C   UNL A   1      49.227  27.016  26.817  1.00  0.00     0.012 A 
ATOM     76  C   UNL A   1      48.245  27.558  24.663  1.00  0.00     0.148 A 
ATOM     77  C   UNL A   1      50.475  26.856  26.213  1.00  0.00     0.002 A 
ATOM     78  C   UNL A   1      49.476  27.335  24.058  1.00  0.00     0.091 A 
ATOM     79  F   UNL A   1      47.172  27.929  23.952  1.00  0.00    -0.205 F 
ATOM     80  C   UNL A   1      50.599  27.008  24.835  1.00  0.00     0.022 A 
BRANCH  78  81
ATOM     81  S   UNL A   1      49.681  27.364  22.273  1.00  0.00     0.127 S 
ATOM     82  O   UNL A   1      48.769  26.306  21.846  1.00  0.00    -0.237 OA
ATOM     83  O   UNL A   1      49.249  28.722  21.936  1.00  0.00    -0.237 OA
ATOM     84  O   UNL A   1      51.098  27.120  22.037  1.00  0.00    -0.744 OA
ENDBRANCH  78  81
ENDBRANCH  50  74
BRANCH  62  85
ATOM     85  C   UNL A   1      45.144  32.953  29.068  1.00  0.00     0.023 A 
ATOM     86  C   UNL A   1      45.887  33.264  30.224  1.00  0.00     0.012 A 
ATOM     87  C   UNL A   1      44.921  33.952  28.100  1.00  0.00     0.148 A 
ATOM     88  C   UNL A   1      46.376  34.554  30.427  1.00  0.00     0.002 A 
ATOM     89  C   UNL A   1      45.456  35.221  28.283  1.00  0.00     0.091 A 
ATOM     90  F   UNL A   1      44.202  33.638  27.012  1.00  0.00    -0.205 F 
ATOM     91  C   UNL A   1      46.171  35.528  29.453  1.00  0.00     0.022 A 
BRANCH  89  92
ATOM     92  S   UNL A   1      45.328  36.515  27.045  1.00  0.00     0.127 S 
ATOM     93  O   UNL A   1      46.229  36.023  26.004  1.00  0.00    -0.237 OA
ATOM     94  O   UNL A   1      43.907  36.468  26.696  1.00  0.00    -0.237 OA
ATOM     95  O   UNL A   1      45.752  37.746  27.699  1.00  0.00    -0.744 OA
ENDBRANCH  89  92
ENDBRANCH  62  85
ENDBRANCH  36  37
ENDBRANCH  28  31
ENDBRANCH  26  27
ENDBRANCH  25  26
ENDBRANCH  24  25
ENDBRANCH   1  24
TORSDOF 19
ENDMDL
