MODEL 1
REMARK VINA RESULT:     -11.6      0.000      0.000
REMARK SMILES O=C(NCCCCCCNC(=O)[C@H]1CC[C@@H]2CCCC[C@H]2[NH2+]1)c1ccc(-c2c3nc(c(-c4cccc(S(=O)(=O)[O-])c4F)c4ccc([nH]4)c(-c4cccc(S(=O)(=O)[O-])c4F)c4nc(c(-c5cccc(S(=O)(=O)[O-])c5F)c5ccc2[nH]5)C=C4)C=C3)cc1
REMARK SMILES IDX 5 1 4 2 3 3 1 4 2 5 23 7 24 8 85 9 25 10 84 11 26 12 27 13
REMARK SMILES IDX 28 14 78 15 29 16 83 17 77 18 79 19 30 20 82 21 76 22 75 23
REMARK SMILES IDX 31 25 63 26 43 27 62 28 44 29 47 30 61 31 80 32 45 33 46 34
REMARK SMILES IDX 60 36 81 37 48 38 32 39 33 40 41 41 34 42 36 43 42 44 35 45
REMARK SMILES IDX 37 46 38 47 39 48 40 49 64 50 65 51 73 52 66 53 68 54 74 55
REMARK SMILES IDX 67 56 69 57 70 58 71 59 72 60 49 61 50 62 58 63 51 64 53 65
REMARK SMILES IDX 59 66 52 67 54 68 55 69 56 70 57 71 6 72 7 73 8 74 9 75
REMARK SMILES IDX 10 76 11 77 12 79 13 80 14 81 22 82 15 83 21 84 16 87 20 88
REMARK SMILES IDX 17 89 19 90 18 91
REMARK H PARENT 3 6 79 24 47 35 10 78 22 85 22 86
REMARK Flexibility Score: inf
ROOT
ATOM      1  C   UNL A   1      31.574  31.596  26.862  1.00  0.00     0.021 C 
ENDROOT
BRANCH   1   2
ATOM      2  C   UNL A   1      32.866  32.311  27.242  1.00  0.00     0.116 C 
BRANCH   2   3
ATOM      3  N   UNL A   1      32.648  33.699  27.609  1.00  0.00    -0.352 N 
ATOM      4  O   UNL A   1      32.834  35.566  28.854  1.00  0.00    -0.269 OA
ATOM      5  C   UNL A   1      33.273  34.454  28.572  1.00  0.00     0.251 C 
ATOM      6  H   UNL A   1      31.952  34.167  27.094  1.00  0.00     0.163 HD
BRANCH   5   7
ATOM      7  C   UNL A   1      34.452  33.914  29.285  1.00  0.00     0.039 A 
ATOM      8  C   UNL A   1      35.743  34.355  28.973  1.00  0.00     0.014 A 
ATOM      9  C   UNL A   1      34.261  32.960  30.286  1.00  0.00     0.014 A 
ATOM     10  C   UNL A   1      36.845  33.747  29.567  1.00  0.00     0.010 A 
ATOM     11  C   UNL A   1      35.367  32.404  30.934  1.00  0.00     0.010 A 
ATOM     12  C   UNL A   1      36.669  32.770  30.558  1.00  0.00    -0.014 A 
BRANCH  12  13
ATOM     13  C   UNL A   1      37.848  32.174  31.237  1.00  0.00     0.031 A 
ATOM     14  C   UNL A   1      38.621  31.051  30.602  1.00  0.00     0.074 A 
ATOM     15  C   UNL A   1      38.194  32.626  32.458  1.00  0.00     0.049 A 
ATOM     16  N   UNL A   1      39.636  30.379  31.078  1.00  0.00    -0.248 NA
ATOM     17  C   UNL A   1      38.192  30.621  29.262  1.00  0.00     0.031 C 
ATOM     18  C   UNL A   1      37.498  33.687  33.190  1.00  0.00     0.029 A 
ATOM     19  N   UNL A   1      39.198  32.238  33.308  1.00  0.00    -0.354 N 
ATOM     20  C   UNL A   1      39.941  29.417  30.122  1.00  0.00     0.074 A 
ATOM     21  C   UNL A   1      38.998  29.592  29.038  1.00  0.00     0.031 C 
ATOM     22  C   UNL A   1      38.093  33.862  34.378  1.00  0.00     0.029 A 
ATOM     23  C   UNL A   1      39.175  32.895  34.515  1.00  0.00     0.049 A 
ATOM     24  H   UNL A   1      39.870  31.556  33.077  1.00  0.00     0.167 HD
ATOM     25  C   UNL A   1      40.922  28.483  30.140  1.00  0.00     0.034 A 
ATOM     26  C   UNL A   1      39.921  32.721  35.623  1.00  0.00     0.034 A 
ATOM     27  C   UNL A   1      41.873  28.334  31.211  1.00  0.00     0.049 A 
ATOM     28  C   UNL A   1      41.008  31.685  35.616  1.00  0.00     0.074 A 
ATOM     29  C   UNL A   1      42.945  27.462  31.295  1.00  0.00     0.029 A 
ATOM     30  N   UNL A   1      41.857  29.062  32.393  1.00  0.00    -0.354 N 
ATOM     31  N   UNL A   1      41.360  30.870  34.653  1.00  0.00    -0.248 NA
ATOM     32  C   UNL A   1      41.821  31.566  36.835  1.00  0.00     0.031 C 
ATOM     33  C   UNL A   1      43.560  27.644  32.538  1.00  0.00     0.029 A 
ATOM     34  C   UNL A   1      42.894  28.653  33.216  1.00  0.00     0.049 A 
ATOM     35  H   UNL A   1      41.205  29.765  32.613  1.00  0.00     0.167 HD
ATOM     36  C   UNL A   1      42.457  30.165  35.133  1.00  0.00     0.074 A 
ATOM     37  C   UNL A   1      42.719  30.660  36.469  1.00  0.00     0.031 C 
ATOM     38  C   UNL A   1      43.176  29.191  34.523  1.00  0.00     0.034 A 
BRANCH  25  39
ATOM     39  C   UNL A   1      41.036  27.561  28.953  1.00  0.00     0.023 A 
ATOM     40  C   UNL A   1      40.203  26.428  28.864  1.00  0.00     0.012 A 
ATOM     41  C   UNL A   1      41.930  27.842  27.900  1.00  0.00     0.148 A 
ATOM     42  C   UNL A   1      40.284  25.568  27.768  1.00  0.00     0.002 A 
ATOM     43  C   UNL A   1      41.975  27.005  26.791  1.00  0.00     0.091 A 
ATOM     44  F   UNL A   1      42.730  28.913  28.008  1.00  0.00    -0.205 F 
ATOM     45  C   UNL A   1      41.163  25.861  26.729  1.00  0.00     0.022 A 
BRANCH  43  46
ATOM     46  S   UNL A   1      43.018  27.345  25.367  1.00  0.00     0.127 S 
ATOM     47  O   UNL A   1      42.995  26.060  24.672  1.00  0.00    -0.237 OA
ATOM     48  O   UNL A   1      42.280  28.416  24.692  1.00  0.00    -0.237 OA
ATOM     49  O   UNL A   1      44.309  27.749  25.906  1.00  0.00    -0.744 OA
ENDBRANCH  43  46
ENDBRANCH  25  39
BRANCH  26  50
ATOM     50  C   UNL A   1      39.676  33.585  36.812  1.00  0.00     0.023 A 
ATOM     51  C   UNL A   1      40.083  34.932  36.784  1.00  0.00     0.012 A 
ATOM     52  C   UNL A   1      38.981  33.096  37.936  1.00  0.00     0.148 A 
ATOM     53  C   UNL A   1      39.819  35.773  37.864  1.00  0.00     0.002 A 
ATOM     54  C   UNL A   1      38.672  33.954  38.983  1.00  0.00     0.091 A 
ATOM     55  F   UNL A   1      38.611  31.808  37.941  1.00  0.00    -0.205 F 
ATOM     56  C   UNL A   1      39.104  35.289  38.957  1.00  0.00     0.022 A 
BRANCH  54  57
ATOM     57  S   UNL A   1      37.637  33.458  40.366  1.00  0.00     0.127 S 
ATOM     58  O   UNL A   1      36.450  32.950  39.682  1.00  0.00    -0.237 OA
ATOM     59  O   UNL A   1      38.465  32.435  41.006  1.00  0.00    -0.237 OA
ATOM     60  O   UNL A   1      37.441  34.660  41.163  1.00  0.00    -0.744 OA
ENDBRANCH  54  57
ENDBRANCH  26  50
BRANCH  38  61
ATOM     61  C   UNL A   1      44.352  28.618  35.269  1.00  0.00     0.023 A 
ATOM     62  C   UNL A   1      45.641  29.148  35.068  1.00  0.00     0.012 A 
ATOM     63  C   UNL A   1      44.161  27.608  36.233  1.00  0.00     0.148 A 
ATOM     64  C   UNL A   1      46.727  28.665  35.798  1.00  0.00     0.002 A 
ATOM     65  C   UNL A   1      45.238  27.166  36.990  1.00  0.00     0.091 A 
ATOM     66  F   UNL A   1      42.930  27.102  36.392  1.00  0.00    -0.205 F 
ATOM     67  C   UNL A   1      46.523  27.685  36.767  1.00  0.00     0.022 A 
BRANCH  65  68
ATOM     68  S   UNL A   1      45.053  25.979  38.326  1.00  0.00     0.127 S 
ATOM     69  O   UNL A   1      46.435  25.807  38.766  1.00  0.00    -0.237 OA
ATOM     70  O   UNL A   1      44.198  26.702  39.267  1.00  0.00    -0.237 OA
ATOM     71  O   UNL A   1      44.435  24.800  37.734  1.00  0.00    -0.744 OA
ENDBRANCH  65  68
ENDBRANCH  38  61
ENDBRANCH  12  13
ENDBRANCH   5   7
ENDBRANCH   2   3
ENDBRANCH   1   2
BRANCH   1  72
ATOM     72  C   UNL A   1      31.727  30.469  25.839  1.00  0.00     0.002 C 
BRANCH  72  73
ATOM     73  C   UNL A   1      31.978  29.074  26.417  1.00  0.00     0.002 C 
BRANCH  73  74
ATOM     74  C   UNL A   1      33.087  28.258  25.747  1.00  0.00     0.021 C 
BRANCH  74  75
ATOM     75  C   UNL A   1      33.571  28.767  24.392  1.00  0.00     0.116 C 
BRANCH  75  76
ATOM     76  N   UNL A   1      33.934  27.694  23.484  1.00  0.00    -0.351 N 
ATOM     77  C   UNL A   1      33.194  27.048  22.540  1.00  0.00     0.278 C 
ATOM     78  H   UNL A   1      34.865  27.384  23.563  1.00  0.00     0.163 HD
ATOM     79  O   UNL A   1      33.782  26.217  21.835  1.00  0.00    -0.268 OA
BRANCH  77  80
ATOM     80  C   UNL A   1      31.671  27.244  22.387  1.00  0.00     0.272 C 
ATOM     81  C   UNL A   1      30.960  26.648  23.605  1.00  0.00     0.076 C 
ATOM     82  N   UNL A   1      31.309  28.653  22.146  1.00  0.00    -0.333 N 
ATOM     83  C   UNL A   1      29.449  26.818  23.487  1.00  0.00     0.016 C 
ATOM     84  C   UNL A   1      29.864  28.873  22.072  1.00  0.00     0.186 C 
ATOM     85  H   UNL A   1      31.727  28.949  21.263  1.00  0.00     0.347 HD
ATOM     86  H   UNL A   1      31.659  29.197  22.935  1.00  0.00     0.347 HD
ATOM     87  C   UNL A   1      29.121  28.300  23.296  1.00  0.00     0.048 C 
ATOM     88  C   UNL A   1      29.594  30.382  21.977  1.00  0.00     0.065 C 
ATOM     89  C   UNL A   1      27.613  28.531  23.149  1.00  0.00     0.010 C 
ATOM     90  C   UNL A   1      28.096  30.677  21.887  1.00  0.00     0.006 C 
ATOM     91  C   UNL A   1      27.304  30.022  23.018  1.00  0.00     0.001 C 
ENDBRANCH  77  80
ENDBRANCH  75  76
ENDBRANCH  74  75
ENDBRANCH  73  74
ENDBRANCH  72  73
ENDBRANCH   1  72
TORSDOF 16
ENDMDL
MODEL 2
REMARK VINA RESULT:     -11.6      7.067     12.027
REMARK SMILES O=C(NCCCCCCNC(=O)[C@H]1CC[C@@H]2CCCC[C@H]2[NH2+]1)c1ccc(-c2c3nc(c(-c4cccc(S(=O)(=O)[O-])c4F)c4ccc([nH]4)c(-c4cccc(S(=O)(=O)[O-])c4F)c4nc(c(-c5cccc(S(=O)(=O)[O-])c5F)c5ccc2[nH]5)C=C4)C=C3)cc1
REMARK SMILES IDX 5 1 4 2 3 3 1 4 2 5 23 7 24 8 85 9 25 10 84 11 26 12 27 13
REMARK SMILES IDX 28 14 78 15 29 16 83 17 77 18 79 19 30 20 82 21 76 22 75 23
REMARK SMILES IDX 31 25 63 26 43 27 62 28 44 29 47 30 61 31 80 32 45 33 46 34
REMARK SMILES IDX 60 36 81 37 48 38 32 39 33 40 41 41 34 42 36 43 42 44 35 45
REMARK SMILES IDX 37 46 38 47 39 48 40 49 64 50 65 51 73 52 66 53 68 54 74 55
REMARK SMILES IDX 67 56 69 57 70 58 71 59 72 60 49 61 50 62 58 63 51 64 53 65
REMARK SMILES IDX 59 66 52 67 54 68 55 69 56 70 57 71 6 72 7 73 8 74 9 75
REMARK SMILES IDX 10 76 11 77 12 79 13 80 14 81 22 82 15 83 21 84 16 87 20 88
REMARK SMILES IDX 17 89 19 90 18 91
REMARK H PARENT 3 6 79 24 47 35 10 78 22 85 22 86
REMARK Flexibility Score: inf
ROOT
ATOM      1  C   UNL A   1      37.601  19.509  24.968  1.00  0.00     0.021 C 
ENDROOT
BRANCH   1   2
ATOM      2  C   UNL A   1      38.733  20.147  25.767  1.00  0.00     0.116 C 
BRANCH   2   3
ATOM      3  N   UNL A   1      39.880  19.267  25.908  1.00  0.00    -0.352 N 
ATOM      4  O   UNL A   1      42.056  18.711  26.069  1.00  0.00    -0.269 OA
ATOM      5  C   UNL A   1      41.195  19.583  26.152  1.00  0.00     0.251 C 
ATOM      6  H   UNL A   1      39.689  18.306  25.817  1.00  0.00     0.163 HD
BRANCH   5   7
ATOM      7  C   UNL A   1      41.571  20.975  26.484  1.00  0.00     0.039 A 
ATOM      8  C   UNL A   1      41.456  21.995  25.534  1.00  0.00     0.014 A 
ATOM      9  C   UNL A   1      42.037  21.264  27.768  1.00  0.00     0.014 A 
ATOM     10  C   UNL A   1      41.931  23.271  25.826  1.00  0.00     0.010 A 
ATOM     11  C   UNL A   1      42.443  22.563  28.083  1.00  0.00     0.010 A 
ATOM     12  C   UNL A   1      42.423  23.571  27.105  1.00  0.00    -0.014 A 
BRANCH  12  13
ATOM     13  C   UNL A   1      42.864  24.950  27.431  1.00  0.00     0.031 A 
ATOM     14  C   UNL A   1      41.924  25.931  28.077  1.00  0.00     0.074 A 
ATOM     15  C   UNL A   1      44.113  25.331  27.100  1.00  0.00     0.049 A 
ATOM     16  N   UNL A   1      42.125  27.188  28.378  1.00  0.00    -0.248 NA
ATOM     17  C   UNL A   1      40.581  25.439  28.422  1.00  0.00     0.031 C 
ATOM     18  C   UNL A   1      45.103  24.478  26.438  1.00  0.00     0.029 A 
ATOM     19  N   UNL A   1      44.756  26.533  27.251  1.00  0.00    -0.354 N 
ATOM     20  C   UNL A   1      40.925  27.653  28.904  1.00  0.00     0.074 A 
ATOM     21  C   UNL A   1      39.999  26.540  28.877  1.00  0.00     0.031 C 
ATOM     22  C   UNL A   1      46.225  25.184  26.236  1.00  0.00     0.029 A 
ATOM     23  C   UNL A   1      46.018  26.549  26.706  1.00  0.00     0.049 A 
ATOM     24  H   UNL A   1      44.354  27.308  27.705  1.00  0.00     0.167 HD
ATOM     25  C   UNL A   1      40.627  28.887  29.376  1.00  0.00     0.034 A 
ATOM     26  C   UNL A   1      46.902  27.555  26.569  1.00  0.00     0.034 A 
ATOM     27  C   UNL A   1      41.563  29.980  29.423  1.00  0.00     0.049 A 
ATOM     28  C   UNL A   1      46.551  28.912  27.107  1.00  0.00     0.074 A 
ATOM     29  C   UNL A   1      41.379  31.249  29.942  1.00  0.00     0.029 A 
ATOM     30  N   UNL A   1      42.855  29.939  28.918  1.00  0.00    -0.354 N 
ATOM     31  N   UNL A   1      45.456  29.299  27.714  1.00  0.00    -0.248 NA
ATOM     32  C   UNL A   1      47.568  29.965  26.971  1.00  0.00     0.031 C 
ATOM     33  C   UNL A   1      42.549  31.985  29.726  1.00  0.00     0.029 A 
ATOM     34  C   UNL A   1      43.476  31.164  29.104  1.00  0.00     0.049 A 
ATOM     35  H   UNL A   1      43.270  29.155  28.490  1.00  0.00     0.167 HD
ATOM     36  C   UNL A   1      45.664  30.627  28.066  1.00  0.00     0.074 A 
ATOM     37  C   UNL A   1      46.996  30.974  27.614  1.00  0.00     0.031 C 
ATOM     38  C   UNL A   1      44.822  31.481  28.697  1.00  0.00     0.034 A 
BRANCH  25  39
ATOM     39  C   UNL A   1      39.234  29.119  29.904  1.00  0.00     0.023 A 
ATOM     40  C   UNL A   1      38.912  28.731  31.221  1.00  0.00     0.012 A 
ATOM     41  C   UNL A   1      38.259  29.765  29.119  1.00  0.00     0.148 A 
ATOM     42  C   UNL A   1      37.632  28.947  31.733  1.00  0.00     0.002 A 
ATOM     43  C   UNL A   1      36.999  30.016  29.651  1.00  0.00     0.091 A 
ATOM     44  F   UNL A   1      38.575  30.110  27.862  1.00  0.00    -0.205 F 
ATOM     45  C   UNL A   1      36.680  29.596  30.952  1.00  0.00     0.022 A 
BRANCH  43  46
ATOM     46  S   UNL A   1      35.733  30.918  28.749  1.00  0.00     0.127 S 
ATOM     47  O   UNL A   1      36.540  31.829  27.940  1.00  0.00    -0.237 OA
ATOM     48  O   UNL A   1      35.074  29.852  27.992  1.00  0.00    -0.237 OA
ATOM     49  O   UNL A   1      34.895  31.546  29.761  1.00  0.00    -0.744 OA
ENDBRANCH  43  46
ENDBRANCH  25  39
BRANCH  26  50
ATOM     50  C   UNL A   1      48.218  27.290  25.924  1.00  0.00     0.023 A 
ATOM     51  C   UNL A   1      49.272  26.761  26.693  1.00  0.00     0.012 A 
ATOM     52  C   UNL A   1      48.406  27.491  24.542  1.00  0.00     0.148 A 
ATOM     53  C   UNL A   1      50.496  26.456  26.101  1.00  0.00     0.002 A 
ATOM     54  C   UNL A   1      49.608  27.132  23.949  1.00  0.00     0.091 A 
ATOM     55  F   UNL A   1      47.389  28.002  23.833  1.00  0.00    -0.205 F 
ATOM     56  C   UNL A   1      50.662  26.629  24.729  1.00  0.00     0.022 A 
BRANCH  54  57
ATOM     57  S   UNL A   1      49.864  27.188  22.171  1.00  0.00     0.127 S 
ATOM     58  O   UNL A   1      48.798  26.315  21.689  1.00  0.00    -0.237 OA
ATOM     59  O   UNL A   1      49.673  28.611  21.887  1.00  0.00    -0.237 OA
ATOM     60  O   UNL A   1      51.221  26.708  21.953  1.00  0.00    -0.744 OA
ENDBRANCH  54  57
ENDBRANCH  26  50
BRANCH  38  61
ATOM     61  C   UNL A   1      45.324  32.871  28.989  1.00  0.00     0.023 A 
ATOM     62  C   UNL A   1      46.040  33.128  30.174  1.00  0.00     0.012 A 
ATOM     63  C   UNL A   1      45.157  33.901  28.043  1.00  0.00     0.148 A 
ATOM     64  C   UNL A   1      46.560  34.398  30.425  1.00  0.00     0.002 A 
ATOM     65  C   UNL A   1      45.721  35.150  28.277  1.00  0.00     0.091 A 
ATOM     66  F   UNL A   1      44.454  33.641  26.931  1.00  0.00    -0.205 F 
ATOM     67  C   UNL A   1      46.413  35.402  29.472  1.00  0.00     0.022 A 
BRANCH  65  68
ATOM     68  S   UNL A   1      45.665  36.474  27.064  1.00  0.00     0.127 S 
ATOM     69  O   UNL A   1      46.531  37.477  27.678  1.00  0.00    -0.237 OA
ATOM     70  O   UNL A   1      46.224  35.829  25.875  1.00  0.00    -0.237 OA
ATOM     71  O   UNL A   1      44.263  36.850  26.942  1.00  0.00    -0.744 OA
ENDBRANCH  65  68
ENDBRANCH  38  61
ENDBRANCH  12  13
ENDBRANCH   5   7
ENDBRANCH   2   3
ENDBRANCH   1   2
BRANCH   1  72
ATOM     72  C   UNL A   1      36.274  20.270  24.991  1.00  0.00     0.002 C 
BRANCH  72  73
ATOM     73  C   UNL A   1      36.336  21.729  24.534  1.00  0.00     0.002 C 
BRANCH  73  74
ATOM     74  C   UNL A   1      35.690  22.755  25.469  1.00  0.00     0.021 C 
BRANCH  74  75
ATOM     75  C   UNL A   1      34.835  22.189  26.600  1.00  0.00     0.116 C 
BRANCH  75  76
ATOM     76  N   UNL A   1      33.557  22.865  26.733  1.00  0.00    -0.351 N 
ATOM     77  C   UNL A   1      32.312  22.488  26.327  1.00  0.00     0.278 C 
ATOM     78  H   UNL A   1      33.596  23.736  27.190  1.00  0.00     0.163 HD
ATOM     79  O   UNL A   1      31.368  23.223  26.647  1.00  0.00    -0.268 OA
BRANCH  77  80
ATOM     80  C   UNL A   1      32.058  21.260  25.428  1.00  0.00     0.272 C 
ATOM     81  C   UNL A   1      32.580  21.549  24.018  1.00  0.00     0.076 C 
ATOM     82  N   UNL A   1      32.614  20.020  26.001  1.00  0.00    -0.333 N 
ATOM     83  C   UNL A   1      32.341  20.357  23.097  1.00  0.00     0.016 C 
ATOM     84  C   UNL A   1      32.450  18.857  25.130  1.00  0.00     0.186 C 
ATOM     85  H   UNL A   1      32.142  19.832  26.886  1.00  0.00     0.347 HD
ATOM     86  H   UNL A   1      33.616  20.166  26.127  1.00  0.00     0.347 HD
ATOM     87  C   UNL A   1      32.985  19.111  23.705  1.00  0.00     0.048 C 
ATOM     88  C   UNL A   1      33.196  17.664  25.745  1.00  0.00     0.065 C 
ATOM     89  C   UNL A   1      32.757  17.872  22.831  1.00  0.00     0.010 C 
ATOM     90  C   UNL A   1      33.052  16.410  24.882  1.00  0.00     0.006 C 
ATOM     91  C   UNL A   1      33.457  16.653  23.429  1.00  0.00     0.001 C 
ENDBRANCH  77  80
ENDBRANCH  75  76
ENDBRANCH  74  75
ENDBRANCH  73  74
ENDBRANCH  72  73
ENDBRANCH   1  72
TORSDOF 16
ENDMDL
MODEL 3
REMARK VINA RESULT:     -11.5      5.645      8.355
REMARK SMILES O=C(NCCCCCCNC(=O)[C@H]1CC[C@@H]2CCCC[C@H]2[NH2+]1)c1ccc(-c2c3nc(c(-c4cccc(S(=O)(=O)[O-])c4F)c4ccc([nH]4)c(-c4cccc(S(=O)(=O)[O-])c4F)c4nc(c(-c5cccc(S(=O)(=O)[O-])c5F)c5ccc2[nH]5)C=C4)C=C3)cc1
REMARK SMILES IDX 5 1 4 2 3 3 1 4 2 5 23 7 24 8 85 9 25 10 84 11 26 12 27 13
REMARK SMILES IDX 28 14 78 15 29 16 83 17 77 18 79 19 30 20 82 21 76 22 75 23
REMARK SMILES IDX 31 25 63 26 43 27 62 28 44 29 47 30 61 31 80 32 45 33 46 34
REMARK SMILES IDX 60 36 81 37 48 38 32 39 33 40 41 41 34 42 36 43 42 44 35 45
REMARK SMILES IDX 37 46 38 47 39 48 40 49 64 50 65 51 73 52 66 53 68 54 74 55
REMARK SMILES IDX 67 56 69 57 70 58 71 59 72 60 49 61 50 62 58 63 51 64 53 65
REMARK SMILES IDX 59 66 52 67 54 68 55 69 56 70 57 71 6 72 7 73 8 74 9 75
REMARK SMILES IDX 10 76 11 77 12 79 13 80 14 81 22 82 15 83 21 84 16 87 20 88
REMARK SMILES IDX 17 89 19 90 18 91
REMARK H PARENT 3 6 79 24 47 35 10 78 22 85 22 86
REMARK Flexibility Score: inf
ROOT
ATOM      1  C   UNL A   1      36.026  23.593  24.460  1.00  0.00     0.021 C 
ENDROOT
BRANCH   1   2
ATOM      2  C   UNL A   1      36.583  23.579  25.880  1.00  0.00     0.116 C 
BRANCH   2   3
ATOM      3  N   UNL A   1      37.674  22.634  26.042  1.00  0.00    -0.352 N 
ATOM      4  O   UNL A   1      39.798  21.956  26.356  1.00  0.00    -0.269 OA
ATOM      5  C   UNL A   1      38.969  22.858  26.444  1.00  0.00     0.251 C 
ATOM      6  H   UNL A   1      37.455  21.697  25.834  1.00  0.00     0.163 HD
BRANCH   5   7
ATOM      7  C   UNL A   1      39.365  24.190  26.952  1.00  0.00     0.039 A 
ATOM      8  C   UNL A   1      39.895  25.157  26.091  1.00  0.00     0.014 A 
ATOM      9  C   UNL A   1      39.194  24.477  28.307  1.00  0.00     0.014 A 
ATOM     10  C   UNL A   1      40.375  26.357  26.609  1.00  0.00     0.010 A 
ATOM     11  C   UNL A   1      39.608  25.713  28.813  1.00  0.00     0.010 A 
ATOM     12  C   UNL A   1      40.231  26.650  27.973  1.00  0.00    -0.014 A 
BRANCH  12  13
ATOM     13  C   UNL A   1      40.683  27.960  28.508  1.00  0.00     0.031 A 
ATOM     14  C   UNL A   1      42.146  28.262  28.680  1.00  0.00     0.074 A 
ATOM     15  C   UNL A   1      39.758  28.866  28.880  1.00  0.00     0.049 A 
ATOM     16  N   UNL A   1      42.713  29.328  29.183  1.00  0.00    -0.248 NA
ATOM     17  C   UNL A   1      43.097  27.230  28.239  1.00  0.00     0.031 C 
ATOM     18  C   UNL A   1      38.309  28.672  28.793  1.00  0.00     0.029 A 
ATOM     19  N   UNL A   1      39.894  30.117  29.426  1.00  0.00    -0.354 N 
ATOM     20  C   UNL A   1      44.080  29.081  29.163  1.00  0.00     0.074 A 
ATOM     21  C   UNL A   1      44.258  27.759  28.600  1.00  0.00     0.031 C 
ATOM     22  C   UNL A   1      37.691  29.761  29.272  1.00  0.00     0.029 A 
ATOM     23  C   UNL A   1      38.695  30.706  29.746  1.00  0.00     0.049 A 
ATOM     24  H   UNL A   1      40.766  30.550  29.575  1.00  0.00     0.167 HD
ATOM     25  C   UNL A   1      45.094  29.885  29.566  1.00  0.00     0.034 A 
ATOM     26  C   UNL A   1      38.427  31.865  30.379  1.00  0.00     0.034 A 
ATOM     27  C   UNL A   1      44.910  31.209  30.100  1.00  0.00     0.049 A 
ATOM     28  C   UNL A   1      39.568  32.742  30.808  1.00  0.00     0.074 A 
ATOM     29  C   UNL A   1      45.874  32.128  30.475  1.00  0.00     0.029 A 
ATOM     30  N   UNL A   1      43.678  31.798  30.351  1.00  0.00    -0.354 N 
ATOM     31  N   UNL A   1      40.855  32.545  30.666  1.00  0.00    -0.248 NA
ATOM     32  C   UNL A   1      39.221  34.015  31.454  1.00  0.00     0.031 C 
ATOM     33  C   UNL A   1      45.227  33.261  30.979  1.00  0.00     0.029 A 
ATOM     34  C   UNL A   1      43.858  33.063  30.886  1.00  0.00     0.049 A 
ATOM     35  H   UNL A   1      42.805  31.378  30.176  1.00  0.00     0.167 HD
ATOM     36  C   UNL A   1      41.473  33.682  31.172  1.00  0.00     0.074 A 
ATOM     37  C   UNL A   1      40.416  34.569  31.611  1.00  0.00     0.031 C 
ATOM     38  C   UNL A   1      42.796  33.959  31.270  1.00  0.00     0.034 A 
BRANCH  25  39
ATOM     39  C   UNL A   1      46.501  29.364  29.421  1.00  0.00     0.023 A 
ATOM     40  C   UNL A   1      47.085  28.623  30.469  1.00  0.00     0.012 A 
ATOM     41  C   UNL A   1      47.229  29.563  28.231  1.00  0.00     0.148 A 
ATOM     42  C   UNL A   1      48.382  28.123  30.351  1.00  0.00     0.002 A 
ATOM     43  C   UNL A   1      48.505  29.025  28.103  1.00  0.00     0.091 A 
ATOM     44  F   UNL A   1      46.668  30.287  27.251  1.00  0.00    -0.205 F 
ATOM     45  C   UNL A   1      49.087  28.317  29.166  1.00  0.00     0.022 A 
BRANCH  43  46
ATOM     46  S   UNL A   1      49.459  29.154  26.586  1.00  0.00     0.127 S 
ATOM     47  O   UNL A   1      49.686  30.595  26.501  1.00  0.00    -0.237 OA
ATOM     48  O   UNL A   1      50.653  28.367  26.904  1.00  0.00    -0.237 OA
ATOM     49  O   UNL A   1      48.622  28.584  25.540  1.00  0.00    -0.744 OA
ENDBRANCH  43  46
ENDBRANCH  25  39
BRANCH  26  50
ATOM     50  C   UNL A   1      37.010  32.265  30.602  1.00  0.00     0.023 A 
ATOM     51  C   UNL A   1      36.447  32.133  31.885  1.00  0.00     0.012 A 
ATOM     52  C   UNL A   1      36.245  32.842  29.569  1.00  0.00     0.148 A 
ATOM     53  C   UNL A   1      35.139  32.549  32.131  1.00  0.00     0.002 A 
ATOM     54  C   UNL A   1      34.964  33.305  29.834  1.00  0.00     0.091 A 
ATOM     55  F   UNL A   1      36.801  32.950  28.354  1.00  0.00    -0.205 F 
ATOM     56  C   UNL A   1      34.402  33.146  31.111  1.00  0.00     0.022 A 
BRANCH  54  57
ATOM     57  S   UNL A   1      33.993  34.211  28.623  1.00  0.00     0.127 S 
ATOM     58  O   UNL A   1      33.750  33.187  27.610  1.00  0.00    -0.237 OA
ATOM     59  O   UNL A   1      32.818  34.593  29.408  1.00  0.00    -0.237 OA
ATOM     60  O   UNL A   1      34.828  35.328  28.205  1.00  0.00    -0.744 OA
ENDBRANCH  54  57
ENDBRANCH  26  50
BRANCH  38  61
ATOM     61  C   UNL A   1      43.190  35.300  31.832  1.00  0.00     0.023 A 
ATOM     62  C   UNL A   1      43.372  35.458  33.219  1.00  0.00     0.012 A 
ATOM     63  C   UNL A   1      43.462  36.381  30.970  1.00  0.00     0.148 A 
ATOM     64  C   UNL A   1      43.794  36.680  33.743  1.00  0.00     0.002 A 
ATOM     65  C   UNL A   1      43.930  37.580  31.494  1.00  0.00     0.091 A 
ATOM     66  F   UNL A   1      43.262  36.216  29.655  1.00  0.00    -0.205 F 
ATOM     67  C   UNL A   1      44.086  37.734  32.881  1.00  0.00     0.022 A 
BRANCH  65  68
ATOM     68  S   UNL A   1      44.424  38.958  30.454  1.00  0.00     0.127 S 
ATOM     69  O   UNL A   1      44.840  39.947  31.446  1.00  0.00    -0.237 OA
ATOM     70  O   UNL A   1      45.517  38.380  29.672  1.00  0.00    -0.237 OA
ATOM     71  O   UNL A   1      43.247  39.314  29.673  1.00  0.00    -0.744 OA
ENDBRANCH  65  68
ENDBRANCH  38  61
ENDBRANCH  12  13
ENDBRANCH   5   7
ENDBRANCH   2   3
ENDBRANCH   1   2
BRANCH   1  72
ATOM     72  C   UNL A   1      35.261  22.335  24.046  1.00  0.00     0.002 C 
BRANCH  72  73
ATOM     73  C   UNL A   1      33.806  22.550  23.623  1.00  0.00     0.002 C 
BRANCH  73  74
ATOM     74  C   UNL A   1      32.750  21.804  24.444  1.00  0.00     0.021 C 
BRANCH  74  75
ATOM     75  C   UNL A   1      32.912  21.865  25.960  1.00  0.00     0.116 C 
BRANCH  75  76
ATOM     76  N   UNL A   1      31.679  22.209  26.645  1.00  0.00    -0.351 N 
ATOM     77  C   UNL A   1      30.958  23.366  26.637  1.00  0.00     0.278 C 
ATOM     78  H   UNL A   1      31.303  21.492  27.205  1.00  0.00     0.163 HD
ATOM     79  O   UNL A   1      29.883  23.363  27.251  1.00  0.00    -0.268 OA
BRANCH  77  80
ATOM     80  C   UNL A   1      31.467  24.668  25.985  1.00  0.00     0.272 C 
ATOM     81  C   UNL A   1      30.669  24.939  24.706  1.00  0.00     0.076 C 
ATOM     82  N   UNL A   1      31.451  25.807  26.921  1.00  0.00    -0.333 N 
ATOM     83  C   UNL A   1      31.149  26.218  24.029  1.00  0.00     0.016 C 
ATOM     84  C   UNL A   1      31.860  27.068  26.302  1.00  0.00     0.186 C 
ATOM     85  H   UNL A   1      32.089  25.603  27.691  1.00  0.00     0.347 HD
ATOM     86  H   UNL A   1      30.490  25.924  27.241  1.00  0.00     0.347 HD
ATOM     87  C   UNL A   1      31.060  27.378  25.020  1.00  0.00     0.048 C 
ATOM     88  C   UNL A   1      31.659  28.207  27.312  1.00  0.00     0.065 C 
ATOM     89  C   UNL A   1      31.552  28.692  24.400  1.00  0.00     0.010 C 
ATOM     90  C   UNL A   1      32.080  29.555  26.725  1.00  0.00     0.006 C 
ATOM     91  C   UNL A   1      31.400  29.847  25.388  1.00  0.00     0.001 C 
ENDBRANCH  77  80
ENDBRANCH  75  76
ENDBRANCH  74  75
ENDBRANCH  73  74
ENDBRANCH  72  73
ENDBRANCH   1  72
TORSDOF 16
ENDMDL
