MODEL 1
REMARK VINA RESULT:     -11.4      0.000      0.000
REMARK SMILES COc1ccc(CC(=O)NCCCCCCNC(=O)c2ccc(-c3c4nc(c(-c5cccc(S(=O)(=O)[O-])c5F)c5ccc([nH]5)c(-c5cccc(S(=O)(=O)[O-])c5F)c5nc(c(-c6cccc(S(=O)(=O)[O-])c6F)c6ccc3[nH]6)C=C5)C=C4)cc2)cc1S(=O)(=O)Nc1ccccc1Br
REMARK SMILES IDX 13 1 12 2 11 3 10 4 8 5 9 6 7 8 6 9 3 10 4 11 84 12 5 13
REMARK SMILES IDX 83 14 2 15 1 16 85 17 86 18 87 19 88 20 89 22 90 23 94 24
REMARK SMILES IDX 91 25 93 26 95 27 92 28 14 29 15 30 16 31 17 32 18 33 19 35
REMARK SMILES IDX 20 36 21 37 82 38 22 39 81 40 23 41 24 42 25 43 75 44 26 45
REMARK SMILES IDX 80 46 74 47 76 48 27 49 79 50 73 51 72 52 28 54 60 55 40 56
REMARK SMILES IDX 59 57 41 58 44 59 58 60 77 61 42 62 43 63 57 65 78 66 45 67
REMARK SMILES IDX 29 68 30 69 38 70 31 71 33 72 39 73 32 74 34 75 35 76 36 77
REMARK SMILES IDX 37 78 61 79 62 80 70 81 63 82 65 83 71 84 64 85 66 86 67 87
REMARK SMILES IDX 68 88 69 89 46 90 47 91 55 92 48 93 50 94 56 95 49 96 51 97
REMARK SMILES IDX 52 98 53 99 54 100
REMARK H PARENT 10 7 88 21 17 34 76 53 44 64
REMARK Flexibility Score: inf
ROOT
ATOM      1  C   UNL A   1      31.389  28.284  24.977  1.00  0.00     0.002 C 
ENDROOT
BRANCH   1   2
ATOM      2  C   UNL A   1      30.501  27.289  24.219  1.00  0.00     0.021 C 
BRANCH   2   3
ATOM      3  C   UNL A   1      30.585  27.424  22.700  1.00  0.00     0.116 C 
BRANCH   3   4
ATOM      4  N   UNL A   1      31.899  27.891  22.299  1.00  0.00    -0.356 N 
ATOM      5  C   UNL A   1      33.029  27.160  22.085  1.00  0.00     0.224 C 
ATOM      6  O   UNL A   1      34.098  27.750  21.912  1.00  0.00    -0.275 OA
ATOM      7  H   UNL A   1      31.985  28.863  22.165  1.00  0.00     0.163 HD
BRANCH   5   8
ATOM      8  C   UNL A   1      32.938  25.650  22.009  1.00  0.00     0.135 C 
BRANCH   8   9
ATOM      9  C   UNL A   1      33.197  24.921  23.306  1.00  0.00    -0.037 A 
ATOM     10  C   UNL A   1      33.949  23.378  25.532  1.00  0.00     0.139 A 
ATOM     11  C   UNL A   1      34.379  24.707  25.400  1.00  0.00     0.048 A 
ATOM     12  C   UNL A   1      33.005  22.869  24.654  1.00  0.00     0.129 A 
ATOM     13  C   UNL A   1      34.001  25.479  24.300  1.00  0.00     0.008 A 
ATOM     14  C   UNL A   1      32.684  23.632  23.511  1.00  0.00     0.030 A 
BRANCH  10  15
ATOM     15  O   UNL A   1      34.523  22.683  26.552  1.00  0.00    -0.495 OA
ATOM     16  C   UNL A   1      33.807  22.865  27.774  1.00  0.00     0.278 C 
ENDBRANCH  10  15
BRANCH  12  17
ATOM     17  S   UNL A   1      32.181  21.300  24.762  1.00  0.00     0.265 S 
ATOM     18  O   UNL A   1      30.923  21.556  25.435  1.00  0.00    -0.201 OA
ATOM     19  O   UNL A   1      32.163  20.773  23.408  1.00  0.00    -0.201 OA
BRANCH  17  20
ATOM     20  N   UNL A   1      32.931  20.111  25.695  1.00  0.00    -0.278 N 
ATOM     21  H   UNL A   1      33.074  20.296  26.650  1.00  0.00     0.180 HD
BRANCH  20  22
ATOM     22  C   UNL A   1      33.371  18.852  25.185  1.00  0.00     0.063 A 
ATOM     23  C   UNL A   1      32.441  17.799  25.168  1.00  0.00     0.028 A 
ATOM     24  C   UNL A   1      34.677  18.617  24.734  1.00  0.00     0.042 A 
ATOM     25  C   UNL A   1      32.790  16.552  24.643  1.00  0.00     0.002 A 
ATOM     26  C   UNL A   1      35.020  17.368  24.203  1.00  0.00     0.018 A 
ATOM     27  Br  UNL A   1      36.049  19.920  24.870  1.00  0.00    -0.049 Br
ATOM     28  C   UNL A   1      34.073  16.343  24.147  1.00  0.00     0.001 A 
ENDBRANCH  20  22
ENDBRANCH  17  20
ENDBRANCH  12  17
ENDBRANCH   8   9
ENDBRANCH   5   8
ENDBRANCH   3   4
ENDBRANCH   2   3
ENDBRANCH   1   2
BRANCH   1  29
ATOM     29  C   UNL A   1      31.673  27.913  26.437  1.00  0.00     0.002 C 
BRANCH  29  30
ATOM     30  C   UNL A   1      33.148  27.963  26.842  1.00  0.00     0.021 C 
BRANCH  30  31
ATOM     31  C   UNL A   1      33.977  28.998  26.090  1.00  0.00     0.116 C 
BRANCH  31  32
ATOM     32  N   UNL A   1      33.828  30.329  26.661  1.00  0.00    -0.352 N 
ATOM     33  C   UNL A   1      34.572  30.943  27.637  1.00  0.00     0.251 C 
ATOM     34  H   UNL A   1      33.089  30.865  26.294  1.00  0.00     0.163 HD
ATOM     35  O   UNL A   1      34.179  31.993  28.139  1.00  0.00    -0.269 OA
BRANCH  33  36
ATOM     36  C   UNL A   1      35.840  30.332  28.090  1.00  0.00     0.039 A 
ATOM     37  C   UNL A   1      36.977  30.450  27.286  1.00  0.00     0.014 A 
ATOM     38  C   UNL A   1      35.904  29.635  29.301  1.00  0.00     0.014 A 
ATOM     39  C   UNL A   1      38.191  29.913  27.721  1.00  0.00     0.010 A 
ATOM     40  C   UNL A   1      37.129  29.162  29.763  1.00  0.00     0.010 A 
ATOM     41  C   UNL A   1      38.282  29.289  28.975  1.00  0.00    -0.014 A 
BRANCH  41  42
ATOM     42  C   UNL A   1      39.575  28.767  29.486  1.00  0.00     0.031 A 
ATOM     43  C   UNL A   1      40.262  29.443  30.640  1.00  0.00     0.074 A 
ATOM     44  C   UNL A   1      40.171  27.738  28.853  1.00  0.00     0.049 A 
ATOM     45  N   UNL A   1      41.415  29.163  31.192  1.00  0.00    -0.248 NA
ATOM     46  C   UNL A   1      39.577  30.601  31.237  1.00  0.00     0.031 C 
ATOM     47  C   UNL A   1      39.640  27.047  27.677  1.00  0.00     0.029 A 
ATOM     48  N   UNL A   1      41.366  27.109  29.097  1.00  0.00    -0.354 N 
ATOM     49  C   UNL A   1      41.609  30.127  32.174  1.00  0.00     0.074 A 
ATOM     50  C   UNL A   1      40.473  31.021  32.118  1.00  0.00     0.031 C 
ATOM     51  C   UNL A   1      40.500  26.083  27.308  1.00  0.00     0.029 A 
ATOM     52  C   UNL A   1      41.653  26.104  28.202  1.00  0.00     0.049 A 
ATOM     53  H   UNL A   1      41.961  27.353  29.842  1.00  0.00     0.167 HD
ATOM     54  C   UNL A   1      42.623  30.240  33.067  1.00  0.00     0.034 A 
ATOM     55  C   UNL A   1      42.724  25.292  28.114  1.00  0.00     0.034 A 
ATOM     56  C   UNL A   1      43.729  29.325  33.146  1.00  0.00     0.049 A 
ATOM     57  C   UNL A   1      43.823  25.418  29.133  1.00  0.00     0.074 A 
ATOM     58  C   UNL A   1      44.763  29.300  34.065  1.00  0.00     0.029 A 
ATOM     59  N   UNL A   1      43.950  28.273  32.269  1.00  0.00    -0.354 N 
ATOM     60  N   UNL A   1      43.912  26.235  30.155  1.00  0.00    -0.248 NA
ATOM     61  C   UNL A   1      44.953  24.486  29.009  1.00  0.00     0.031 C 
ATOM     62  C   UNL A   1      45.618  28.242  33.733  1.00  0.00     0.029 A 
ATOM     63  C   UNL A   1      45.106  27.597  32.618  1.00  0.00     0.049 A 
ATOM     64  H   UNL A   1      43.369  28.040  31.510  1.00  0.00     0.167 HD
ATOM     65  C   UNL A   1      45.087  25.894  30.816  1.00  0.00     0.074 A 
ATOM     66  C   UNL A   1      45.666  24.783  30.088  1.00  0.00     0.031 C 
ATOM     67  C   UNL A   1      45.644  26.459  31.916  1.00  0.00     0.034 A 
BRANCH  54  68
ATOM     68  C   UNL A   1      42.542  31.363  34.068  1.00  0.00     0.023 A 
ATOM     69  C   UNL A   1      43.407  32.469  33.937  1.00  0.00     0.012 A 
ATOM     70  C   UNL A   1      41.599  31.346  35.115  1.00  0.00     0.148 A 
ATOM     71  C   UNL A   1      43.367  33.518  34.855  1.00  0.00     0.002 A 
ATOM     72  C   UNL A   1      41.535  32.417  36.001  1.00  0.00     0.091 A 
ATOM     73  F   UNL A   1      40.799  30.278  35.241  1.00  0.00    -0.205 F 
ATOM     74  C   UNL A   1      42.426  33.496  35.881  1.00  0.00     0.022 A 
BRANCH  72  75
ATOM     75  S   UNL A   1      40.307  32.512  37.309  1.00  0.00     0.127 S 
ATOM     76  O   UNL A   1      41.134  32.362  38.504  1.00  0.00    -0.237 OA
ATOM     77  O   UNL A   1      39.752  33.853  37.117  1.00  0.00    -0.237 OA
ATOM     78  O   UNL A   1      39.368  31.429  37.050  1.00  0.00    -0.744 OA
ENDBRANCH  72  75
ENDBRANCH  54  68
BRANCH  55  79
ATOM     79  C   UNL A   1      42.760  24.225  27.075  1.00  0.00     0.023 A 
ATOM     80  C   UNL A   1      43.525  24.430  25.911  1.00  0.00     0.012 A 
ATOM     81  C   UNL A   1      42.085  23.000  27.246  1.00  0.00     0.148 A 
ATOM     82  C   UNL A   1      43.599  23.447  24.923  1.00  0.00     0.002 A 
ATOM     83  C   UNL A   1      42.205  22.004  26.283  1.00  0.00     0.091 A 
ATOM     84  F   UNL A   1      41.355  22.828  28.358  1.00  0.00    -0.205 F 
ATOM     85  C   UNL A   1      42.949  22.232  25.114  1.00  0.00     0.022 A 
BRANCH  83  86
ATOM     86  S   UNL A   1      41.505  20.363  26.494  1.00  0.00     0.127 S 
ATOM     87  O   UNL A   1      42.128  19.628  25.396  1.00  0.00    -0.237 OA
ATOM     88  O   UNL A   1      41.985  20.002  27.829  1.00  0.00    -0.237 OA
ATOM     89  O   UNL A   1      40.062  20.534  26.401  1.00  0.00    -0.744 OA
ENDBRANCH  83  86
ENDBRANCH  55  79
BRANCH  67  90
ATOM     90  C   UNL A   1      46.934  25.872  32.424  1.00  0.00     0.023 A 
ATOM     91  C   UNL A   1      46.912  24.978  33.513  1.00  0.00     0.012 A 
ATOM     92  C   UNL A   1      48.155  26.146  31.779  1.00  0.00     0.148 A 
ATOM     93  C   UNL A   1      48.091  24.389  33.971  1.00  0.00     0.002 A 
ATOM     94  C   UNL A   1      49.319  25.520  32.212  1.00  0.00     0.091 A 
ATOM     95  F   UNL A   1      48.160  27.014  30.758  1.00  0.00    -0.205 F 
ATOM     96  C   UNL A   1      49.290  24.650  33.314  1.00  0.00     0.022 A 
BRANCH  94  97
ATOM     97  S   UNL A   1      50.892  25.723  31.367  1.00  0.00     0.127 S 
ATOM     98  O   UNL A   1      51.188  27.132  31.622  1.00  0.00    -0.237 OA
ATOM     99  O   UNL A   1      51.754  24.780  32.081  1.00  0.00    -0.237 OA
ATOM    100  O   UNL A   1      50.646  25.375  29.974  1.00  0.00    -0.744 OA
ENDBRANCH  94  97
ENDBRANCH  67  90
ENDBRANCH  41  42
ENDBRANCH  33  36
ENDBRANCH  31  32
ENDBRANCH  30  31
ENDBRANCH  29  30
ENDBRANCH   1  29
TORSDOF 21
ENDMDL
MODEL 2
REMARK VINA RESULT:     -11.1      2.318      2.782
REMARK SMILES COc1ccc(CC(=O)NCCCCCCNC(=O)c2ccc(-c3c4nc(c(-c5cccc(S(=O)(=O)[O-])c5F)c5ccc([nH]5)c(-c5cccc(S(=O)(=O)[O-])c5F)c5nc(c(-c6cccc(S(=O)(=O)[O-])c6F)c6ccc3[nH]6)C=C5)C=C4)cc2)cc1S(=O)(=O)Nc1ccccc1Br
REMARK SMILES IDX 13 1 12 2 11 3 10 4 8 5 9 6 7 8 6 9 3 10 4 11 84 12 5 13
REMARK SMILES IDX 83 14 2 15 1 16 85 17 86 18 87 19 88 20 89 22 90 23 94 24
REMARK SMILES IDX 91 25 93 26 95 27 92 28 14 29 15 30 16 31 17 32 18 33 19 35
REMARK SMILES IDX 20 36 21 37 82 38 22 39 81 40 23 41 24 42 25 43 75 44 26 45
REMARK SMILES IDX 80 46 74 47 76 48 27 49 79 50 73 51 72 52 28 54 60 55 40 56
REMARK SMILES IDX 59 57 41 58 44 59 58 60 77 61 42 62 43 63 57 65 78 66 45 67
REMARK SMILES IDX 29 68 30 69 38 70 31 71 33 72 39 73 32 74 34 75 35 76 36 77
REMARK SMILES IDX 37 78 61 79 62 80 70 81 63 82 65 83 71 84 64 85 66 86 67 87
REMARK SMILES IDX 68 88 69 89 46 90 47 91 55 92 48 93 50 94 56 95 49 96 51 97
REMARK SMILES IDX 52 98 53 99 54 100
REMARK H PARENT 10 7 88 21 17 34 76 53 44 64
REMARK Flexibility Score: inf
ROOT
ATOM      1  C   UNL A   1      31.812  29.369  24.866  1.00  0.00     0.002 C 
ENDROOT
BRANCH   1   2
ATOM      2  C   UNL A   1      30.638  29.050  23.931  1.00  0.00     0.021 C 
BRANCH   2   3
ATOM      3  C   UNL A   1      31.040  28.909  22.465  1.00  0.00     0.116 C 
BRANCH   3   4
ATOM      4  N   UNL A   1      32.400  28.415  22.352  1.00  0.00    -0.356 N 
ATOM      5  C   UNL A   1      32.826  27.125  22.240  1.00  0.00     0.224 C 
ATOM      6  O   UNL A   1      34.032  26.886  22.323  1.00  0.00    -0.275 OA
ATOM      7  H   UNL A   1      33.107  29.101  22.358  1.00  0.00     0.163 HD
BRANCH   5   8
ATOM      8  C   UNL A   1      31.819  26.029  21.959  1.00  0.00     0.135 C 
BRANCH   8   9
ATOM      9  C   UNL A   1      31.496  25.134  23.132  1.00  0.00    -0.037 A 
ATOM     10  C   UNL A   1      31.246  23.536  25.431  1.00  0.00     0.139 A 
ATOM     11  C   UNL A   1      30.702  24.829  25.391  1.00  0.00     0.048 A 
ATOM     12  C   UNL A   1      31.758  22.968  24.274  1.00  0.00     0.129 A 
ATOM     13  C   UNL A   1      30.818  25.622  24.248  1.00  0.00     0.008 A 
ATOM     14  C   UNL A   1      31.932  23.800  23.149  1.00  0.00     0.030 A 
BRANCH  10  15
ATOM     15  O   UNL A   1      31.220  22.935  26.652  1.00  0.00    -0.495 OA
ATOM     16  C   UNL A   1      29.882  22.790  27.131  1.00  0.00     0.278 C 
ENDBRANCH  10  15
BRANCH  12  17
ATOM     17  S   UNL A   1      32.301  21.292  24.057  1.00  0.00     0.265 S 
ATOM     18  O   UNL A   1      31.485  20.491  24.947  1.00  0.00    -0.201 OA
ATOM     19  O   UNL A   1      32.241  21.042  22.627  1.00  0.00    -0.201 OA
BRANCH  17  20
ATOM     20  N   UNL A   1      33.890  20.944  24.504  1.00  0.00    -0.278 N 
ATOM     21  H   UNL A   1      34.152  19.998  24.580  1.00  0.00     0.180 HD
BRANCH  20  22
ATOM     22  C   UNL A   1      34.881  21.935  24.780  1.00  0.00     0.063 A 
ATOM     23  C   UNL A   1      35.710  22.336  23.718  1.00  0.00     0.028 A 
ATOM     24  C   UNL A   1      35.077  22.496  26.049  1.00  0.00     0.042 A 
ATOM     25  C   UNL A   1      36.671  23.332  23.905  1.00  0.00     0.002 A 
ATOM     26  C   UNL A   1      36.038  23.497  26.230  1.00  0.00     0.018 A 
ATOM     27  Br  UNL A   1      34.127  21.904  27.580  1.00  0.00    -0.049 Br
ATOM     28  C   UNL A   1      36.822  23.923  25.157  1.00  0.00     0.001 A 
ENDBRANCH  20  22
ENDBRANCH  17  20
ENDBRANCH  12  17
ENDBRANCH   8   9
ENDBRANCH   5   8
ENDBRANCH   3   4
ENDBRANCH   2   3
ENDBRANCH   1   2
BRANCH   1  29
ATOM     29  C   UNL A   1      31.710  28.750  26.265  1.00  0.00     0.002 C 
BRANCH  29  30
ATOM     30  C   UNL A   1      32.989  28.829  27.102  1.00  0.00     0.021 C 
BRANCH  30  31
ATOM     31  C   UNL A   1      33.986  29.886  26.638  1.00  0.00     0.116 C 
BRANCH  31  32
ATOM     32  N   UNL A   1      33.831  31.135  27.370  1.00  0.00    -0.352 N 
ATOM     33  C   UNL A   1      34.561  31.618  28.426  1.00  0.00     0.251 C 
ATOM     34  H   UNL A   1      33.097  31.715  27.063  1.00  0.00     0.163 HD
ATOM     35  O   UNL A   1      34.162  32.598  29.051  1.00  0.00    -0.269 OA
BRANCH  33  36
ATOM     36  C   UNL A   1      35.821  30.951  28.817  1.00  0.00     0.039 A 
ATOM     37  C   UNL A   1      37.035  31.463  28.348  1.00  0.00     0.014 A 
ATOM     38  C   UNL A   1      35.805  29.818  29.636  1.00  0.00     0.014 A 
ATOM     39  C   UNL A   1      38.235  30.868  28.743  1.00  0.00     0.010 A 
ATOM     40  C   UNL A   1      37.004  29.269  30.082  1.00  0.00     0.010 A 
ATOM     41  C   UNL A   1      38.230  29.783  29.635  1.00  0.00    -0.014 A 
BRANCH  41  42
ATOM     42  C   UNL A   1      39.495  29.174  30.117  1.00  0.00     0.031 A 
ATOM     43  C   UNL A   1      40.184  29.723  31.336  1.00  0.00     0.074 A 
ATOM     44  C   UNL A   1      40.069  28.184  29.406  1.00  0.00     0.049 A 
ATOM     45  N   UNL A   1      41.317  29.357  31.879  1.00  0.00    -0.248 NA
ATOM     46  C   UNL A   1      39.527  30.848  32.021  1.00  0.00     0.031 C 
ATOM     47  C   UNL A   1      39.536  27.616  28.166  1.00  0.00     0.029 A 
ATOM     48  N   UNL A   1      41.238  27.495  29.611  1.00  0.00    -0.354 N 
ATOM     49  C   UNL A   1      41.525  30.225  32.944  1.00  0.00     0.074 A 
ATOM     50  C   UNL A   1      40.420  31.158  32.949  1.00  0.00     0.031 C 
ATOM     51  C   UNL A   1      40.370  26.659  27.727  1.00  0.00     0.029 A 
ATOM     52  C   UNL A   1      41.507  26.563  28.637  1.00  0.00     0.049 A 
ATOM     53  H   UNL A   1      41.827  27.653  30.384  1.00  0.00     0.167 HD
ATOM     54  C   UNL A   1      42.526  30.225  33.858  1.00  0.00     0.034 A 
ATOM     55  C   UNL A   1      42.552  25.725  28.494  1.00  0.00     0.034 A 
ATOM     56  C   UNL A   1      43.599  29.269  33.873  1.00  0.00     0.049 A 
ATOM     57  C   UNL A   1      43.637  25.724  29.537  1.00  0.00     0.074 A 
ATOM     58  C   UNL A   1      44.616  29.129  34.802  1.00  0.00     0.029 A 
ATOM     59  N   UNL A   1      43.801  28.290  32.912  1.00  0.00    -0.354 N 
ATOM     60  N   UNL A   1      43.734  26.446  30.627  1.00  0.00    -0.248 NA
ATOM     61  C   UNL A   1      44.737  24.768  29.348  1.00  0.00     0.031 C 
ATOM     62  C   UNL A   1      45.441  28.075  34.392  1.00  0.00     0.029 A 
ATOM     63  C   UNL A   1      44.928  27.546  33.217  1.00  0.00     0.049 A 
ATOM     64  H   UNL A   1      43.226  28.144  32.126  1.00  0.00     0.167 HD
ATOM     65  C   UNL A   1      44.885  26.008  31.273  1.00  0.00     0.074 A 
ATOM     66  C   UNL A   1      45.439  24.945  30.460  1.00  0.00     0.031 C 
ATOM     67  C   UNL A   1      45.441  26.456  32.426  1.00  0.00     0.034 A 
BRANCH  54  68
ATOM     68  C   UNL A   1      42.464  31.259  34.953  1.00  0.00     0.023 A 
ATOM     69  C   UNL A   1      41.852  30.930  36.180  1.00  0.00     0.012 A 
ATOM     70  C   UNL A   1      43.032  32.537  34.786  1.00  0.00     0.148 A 
ATOM     71  C   UNL A   1      41.766  31.869  37.207  1.00  0.00     0.002 A 
ATOM     72  C   UNL A   1      42.981  33.454  35.831  1.00  0.00     0.091 A 
ATOM     73  F   UNL A   1      43.590  32.844  33.606  1.00  0.00    -0.205 F 
ATOM     74  C   UNL A   1      42.337  33.127  37.037  1.00  0.00     0.022 A 
BRANCH  72  75
ATOM     75  S   UNL A   1      43.755  35.072  35.731  1.00  0.00     0.127 S 
ATOM     76  O   UNL A   1      43.096  35.785  36.824  1.00  0.00    -0.237 OA
ATOM     77  O   UNL A   1      45.164  34.758  35.972  1.00  0.00    -0.237 OA
ATOM     78  O   UNL A   1      43.469  35.566  34.391  1.00  0.00    -0.744 OA
ENDBRANCH  72  75
ENDBRANCH  54  68
BRANCH  55  79
ATOM     79  C   UNL A   1      42.571  24.751  27.366  1.00  0.00     0.023 A 
ATOM     80  C   UNL A   1      43.317  25.058  26.212  1.00  0.00     0.012 A 
ATOM     81  C   UNL A   1      41.899  23.515  27.442  1.00  0.00     0.148 A 
ATOM     82  C   UNL A   1      43.375  24.163  25.142  1.00  0.00     0.002 A 
ATOM     83  C   UNL A   1      42.004  22.606  26.395  1.00  0.00     0.091 A 
ATOM     84  F   UNL A   1      41.188  23.247  28.546  1.00  0.00    -0.205 F 
ATOM     85  C   UNL A   1      42.728  22.935  25.238  1.00  0.00     0.022 A 
BRANCH  83  86
ATOM     86  S   UNL A   1      41.307  20.952  26.475  1.00  0.00     0.127 S 
ATOM     87  O   UNL A   1      42.114  20.239  25.488  1.00  0.00    -0.237 OA
ATOM     88  O   UNL A   1      41.570  20.583  27.867  1.00  0.00    -0.237 OA
ATOM     89  O   UNL A   1      39.896  21.101  26.149  1.00  0.00    -0.744 OA
ENDBRANCH  83  86
ENDBRANCH  55  79
BRANCH  67  90
ATOM     90  C   UNL A   1      46.702  25.783  32.901  1.00  0.00     0.023 A 
ATOM     91  C   UNL A   1      47.954  26.332  32.563  1.00  0.00     0.012 A 
ATOM     92  C   UNL A   1      46.644  24.653  33.739  1.00  0.00     0.148 A 
ATOM     93  C   UNL A   1      49.133  25.748  33.029  1.00  0.00     0.002 A 
ATOM     94  C   UNL A   1      47.820  24.105  34.238  1.00  0.00     0.091 A 
ATOM     95  F   UNL A   1      45.444  24.133  34.033  1.00  0.00    -0.205 F 
ATOM     96  C   UNL A   1      49.065  24.644  33.875  1.00  0.00     0.022 A 
BRANCH  94  97
ATOM     97  S   UNL A   1      47.825  22.741  35.408  1.00  0.00     0.127 S 
ATOM     98  O   UNL A   1      47.160  23.339  36.565  1.00  0.00    -0.237 OA
ATOM     99  O   UNL A   1      47.035  21.727  34.708  1.00  0.00    -0.237 OA
ATOM    100  O   UNL A   1      49.224  22.385  35.602  1.00  0.00    -0.744 OA
ENDBRANCH  94  97
ENDBRANCH  67  90
ENDBRANCH  41  42
ENDBRANCH  33  36
ENDBRANCH  31  32
ENDBRANCH  30  31
ENDBRANCH  29  30
ENDBRANCH   1  29
TORSDOF 21
ENDMDL
MODEL 3
REMARK VINA RESULT:     -10.7      2.484      7.808
REMARK SMILES COc1ccc(CC(=O)NCCCCCCNC(=O)c2ccc(-c3c4nc(c(-c5cccc(S(=O)(=O)[O-])c5F)c5ccc([nH]5)c(-c5cccc(S(=O)(=O)[O-])c5F)c5nc(c(-c6cccc(S(=O)(=O)[O-])c6F)c6ccc3[nH]6)C=C5)C=C4)cc2)cc1S(=O)(=O)Nc1ccccc1Br
REMARK SMILES IDX 13 1 12 2 11 3 10 4 8 5 9 6 7 8 6 9 3 10 4 11 84 12 5 13
REMARK SMILES IDX 83 14 2 15 1 16 85 17 86 18 87 19 88 20 89 22 90 23 94 24
REMARK SMILES IDX 91 25 93 26 95 27 92 28 14 29 15 30 16 31 17 32 18 33 19 35
REMARK SMILES IDX 20 36 21 37 82 38 22 39 81 40 23 41 24 42 25 43 75 44 26 45
REMARK SMILES IDX 80 46 74 47 76 48 27 49 79 50 73 51 72 52 28 54 60 55 40 56
REMARK SMILES IDX 59 57 41 58 44 59 58 60 77 61 42 62 43 63 57 65 78 66 45 67
REMARK SMILES IDX 29 68 30 69 38 70 31 71 33 72 39 73 32 74 34 75 35 76 36 77
REMARK SMILES IDX 37 78 61 79 62 80 70 81 63 82 65 83 71 84 64 85 66 86 67 87
REMARK SMILES IDX 68 88 69 89 46 90 47 91 55 92 48 93 50 94 56 95 49 96 51 97
REMARK SMILES IDX 52 98 53 99 54 100
REMARK H PARENT 10 7 88 21 17 34 76 53 44 64
REMARK Flexibility Score: inf
ROOT
ATOM      1  C   UNL A   1      30.082  29.488  23.915  1.00  0.00     0.002 C 
ENDROOT
BRANCH   1   2
ATOM      2  C   UNL A   1      29.872  28.781  22.569  1.00  0.00     0.021 C 
BRANCH   2   3
ATOM      3  C   UNL A   1      30.770  27.563  22.368  1.00  0.00     0.116 C 
BRANCH   3   4
ATOM      4  N   UNL A   1      32.131  27.973  22.073  1.00  0.00    -0.356 N 
ATOM      5  C   UNL A   1      33.253  27.201  22.007  1.00  0.00     0.224 C 
ATOM      6  O   UNL A   1      34.351  27.752  21.908  1.00  0.00    -0.275 OA
ATOM      7  H   UNL A   1      32.261  28.934  21.900  1.00  0.00     0.163 HD
BRANCH   5   8
ATOM      8  C   UNL A   1      33.121  25.693  21.997  1.00  0.00     0.135 C 
BRANCH   8   9
ATOM      9  C   UNL A   1      33.266  25.023  23.343  1.00  0.00    -0.037 A 
ATOM     10  C   UNL A   1      33.815  23.578  25.691  1.00  0.00     0.139 A 
ATOM     11  C   UNL A   1      34.278  24.894  25.531  1.00  0.00     0.048 A 
ATOM     12  C   UNL A   1      32.933  23.041  24.766  1.00  0.00     0.129 A 
ATOM     13  C   UNL A   1      34.000  25.616  24.369  1.00  0.00     0.008 A 
ATOM     14  C   UNL A   1      32.715  23.752  23.568  1.00  0.00     0.030 A 
BRANCH  10  15
ATOM     15  O   UNL A   1      34.297  22.925  26.784  1.00  0.00    -0.495 OA
ATOM     16  C   UNL A   1      33.331  22.888  27.835  1.00  0.00     0.278 C 
ENDBRANCH  10  15
BRANCH  12  17
ATOM     17  S   UNL A   1      32.076  21.492  24.883  1.00  0.00     0.265 S 
ATOM     18  O   UNL A   1      30.837  21.773  25.581  1.00  0.00    -0.201 OA
ATOM     19  O   UNL A   1      32.020  20.971  23.528  1.00  0.00    -0.201 OA
BRANCH  17  20
ATOM     20  N   UNL A   1      32.815  20.281  25.797  1.00  0.00    -0.278 N 
ATOM     21  H   UNL A   1      32.892  20.418  26.768  1.00  0.00     0.180 HD
BRANCH  20  22
ATOM     22  C   UNL A   1      33.335  19.069  25.250  1.00  0.00     0.063 A 
ATOM     23  C   UNL A   1      32.476  17.958  25.202  1.00  0.00     0.028 A 
ATOM     24  C   UNL A   1      34.652  18.934  24.792  1.00  0.00     0.042 A 
ATOM     25  C   UNL A   1      32.904  16.753  24.639  1.00  0.00     0.002 A 
ATOM     26  C   UNL A   1      35.075  17.726  24.224  1.00  0.00     0.018 A 
ATOM     27  Br  UNL A   1      35.937  20.318  24.967  1.00  0.00    -0.049 Br
ATOM     28  C   UNL A   1      34.198  16.644  24.137  1.00  0.00     0.001 A 
ENDBRANCH  20  22
ENDBRANCH  17  20
ENDBRANCH  12  17
ENDBRANCH   8   9
ENDBRANCH   5   8
ENDBRANCH   3   4
ENDBRANCH   2   3
ENDBRANCH   1   2
BRANCH   1  29
ATOM     29  C   UNL A   1      31.105  28.822  24.842  1.00  0.00     0.002 C 
BRANCH  29  30
ATOM     30  C   UNL A   1      32.291  29.705  25.237  1.00  0.00     0.021 C 
BRANCH  30  31
ATOM     31  C   UNL A   1      32.251  30.216  26.673  1.00  0.00     0.116 C 
BRANCH  31  32
ATOM     32  N   UNL A   1      32.140  31.667  26.729  1.00  0.00    -0.352 N 
ATOM     33  C   UNL A   1      32.925  32.571  27.399  1.00  0.00     0.251 C 
ATOM     34  H   UNL A   1      31.397  32.053  26.212  1.00  0.00     0.163 HD
ATOM     35  O   UNL A   1      32.564  33.741  27.499  1.00  0.00    -0.269 OA
BRANCH  33  36
ATOM     36  C   UNL A   1      34.197  32.132  28.011  1.00  0.00     0.039 A 
ATOM     37  C   UNL A   1      35.248  33.047  28.126  1.00  0.00     0.014 A 
ATOM     38  C   UNL A   1      34.357  30.818  28.461  1.00  0.00     0.014 A 
ATOM     39  C   UNL A   1      36.440  32.658  28.739  1.00  0.00     0.010 A 
ATOM     40  C   UNL A   1      35.521  30.453  29.132  1.00  0.00     0.010 A 
ATOM     41  C   UNL A   1      36.576  31.366  29.271  1.00  0.00    -0.014 A 
BRANCH  41  42
ATOM     42  C   UNL A   1      37.811  30.949  29.982  1.00  0.00     0.031 A 
ATOM     43  C   UNL A   1      38.755  29.965  29.347  1.00  0.00     0.074 A 
ATOM     44  C   UNL A   1      38.037  31.389  31.235  1.00  0.00     0.049 A 
ATOM     45  N   UNL A   1      39.855  29.446  29.831  1.00  0.00    -0.248 NA
ATOM     46  C   UNL A   1      38.405  29.481  28.002  1.00  0.00     0.031 C 
ATOM     47  C   UNL A   1      37.158  32.287  31.987  1.00  0.00     0.029 A 
ATOM     48  N   UNL A   1      39.063  31.123  32.107  1.00  0.00    -0.354 N 
ATOM     49  C   UNL A   1      40.308  28.553  28.868  1.00  0.00     0.074 A 
ATOM     50  C   UNL A   1      39.346  28.572  27.789  1.00  0.00     0.031 C 
ATOM     51  C   UNL A   1      37.688  32.505  33.202  1.00  0.00     0.029 A 
ATOM     52  C   UNL A   1      38.926  31.745  33.325  1.00  0.00     0.049 A 
ATOM     53  H   UNL A   1      39.825  30.542  31.879  1.00  0.00     0.167 HD
ATOM     54  C   UNL A   1      41.441  27.808  28.865  1.00  0.00     0.034 A 
ATOM     55  C   UNL A   1      39.712  31.706  34.419  1.00  0.00     0.034 A 
ATOM     56  C   UNL A   1      42.415  27.824  29.923  1.00  0.00     0.049 A 
ATOM     57  C   UNL A   1      40.979  30.894  34.381  1.00  0.00     0.074 A 
ATOM     58  C   UNL A   1      43.635  27.173  29.980  1.00  0.00     0.029 A 
ATOM     59  N   UNL A   1      42.280  28.523  31.113  1.00  0.00    -0.354 N 
ATOM     60  N   UNL A   1      41.472  30.180  33.399  1.00  0.00    -0.248 NA
ATOM     61  C   UNL A   1      41.815  30.913  35.590  1.00  0.00     0.031 C 
ATOM     62  C   UNL A   1      44.229  27.466  31.213  1.00  0.00     0.029 A 
ATOM     63  C   UNL A   1      43.388  28.315  31.916  1.00  0.00     0.049 A 
ATOM     64  H   UNL A   1      41.509  29.086  31.351  1.00  0.00     0.167 HD
ATOM     65  C   UNL A   1      42.692  29.693  33.856  1.00  0.00     0.074 A 
ATOM     66  C   UNL A   1      42.870  30.210  35.198  1.00  0.00     0.031 C 
ATOM     67  C   UNL A   1      43.576  28.878  33.229  1.00  0.00     0.034 A 
BRANCH  54  68
ATOM     68  C   UNL A   1      41.710  26.963  27.647  1.00  0.00     0.023 A 
ATOM     69  C   UNL A   1      42.223  27.571  26.483  1.00  0.00     0.012 A 
ATOM     70  C   UNL A   1      41.488  25.571  27.657  1.00  0.00     0.148 A 
ATOM     71  C   UNL A   1      42.470  26.820  25.335  1.00  0.00     0.002 A 
ATOM     72  C   UNL A   1      41.778  24.821  26.522  1.00  0.00     0.091 A 
ATOM     73  F   UNL A   1      40.978  25.010  28.762  1.00  0.00    -0.205 F 
ATOM     74  C   UNL A   1      42.256  25.444  25.357  1.00  0.00     0.022 A 
BRANCH  72  75
ATOM     75  S   UNL A   1      41.605  23.033  26.480  1.00  0.00     0.127 S 
ATOM     76  O   UNL A   1      42.244  22.644  27.736  1.00  0.00    -0.237 OA
ATOM     77  O   UNL A   1      40.152  22.861  26.458  1.00  0.00    -0.237 OA
ATOM     78  O   UNL A   1      42.282  22.598  25.266  1.00  0.00    -0.744 OA
ENDBRANCH  72  75
ENDBRANCH  54  68
BRANCH  55  79
ATOM     79  C   UNL A   1      39.369  32.537  35.607  1.00  0.00     0.023 A 
ATOM     80  C   UNL A   1      39.801  33.877  35.650  1.00  0.00     0.012 A 
ATOM     81  C   UNL A   1      38.588  32.033  36.665  1.00  0.00     0.148 A 
ATOM     82  C   UNL A   1      39.483  34.694  36.736  1.00  0.00     0.002 A 
ATOM     83  C   UNL A   1      38.232  32.866  37.720  1.00  0.00     0.091 A 
ATOM     84  F   UNL A   1      38.195  30.752  36.609  1.00  0.00    -0.205 F 
ATOM     85  C   UNL A   1      38.691  34.192  37.764  1.00  0.00     0.022 A 
BRANCH  83  86
ATOM     86  S   UNL A   1      37.115  32.348  39.029  1.00  0.00     0.127 S 
ATOM     87  O   UNL A   1      37.545  33.193  40.141  1.00  0.00    -0.237 OA
ATOM     88  O   UNL A   1      35.810  32.691  38.463  1.00  0.00    -0.237 OA
ATOM     89  O   UNL A   1      37.340  30.920  39.197  1.00  0.00    -0.744 OA
ENDBRANCH  83  86
ENDBRANCH  55  79
BRANCH  67  90
ATOM     90  C   UNL A   1      44.836  28.514  33.970  1.00  0.00     0.023 A 
ATOM     91  C   UNL A   1      45.954  29.368  33.906  1.00  0.00     0.012 A 
ATOM     92  C   UNL A   1      44.886  27.368  34.787  1.00  0.00     0.148 A 
ATOM     93  C   UNL A   1      47.115  29.070  34.620  1.00  0.00     0.002 A 
ATOM     94  C   UNL A   1      46.029  27.103  35.533  1.00  0.00     0.091 A 
ATOM     95  F   UNL A   1      43.819  26.557  34.821  1.00  0.00    -0.205 F 
ATOM     96  C   UNL A   1      47.148  27.946  35.441  1.00  0.00     0.022 A 
BRANCH  94  97
ATOM     97  S   UNL A   1      46.126  25.731  36.689  1.00  0.00     0.127 S 
ATOM     98  O   UNL A   1      47.364  25.075  36.271  1.00  0.00    -0.237 OA
ATOM     99  O   UNL A   1      46.207  26.417  37.980  1.00  0.00    -0.237 OA
ATOM    100  O   UNL A   1      44.908  24.957  36.495  1.00  0.00    -0.744 OA
ENDBRANCH  94  97
ENDBRANCH  67  90
ENDBRANCH  41  42
ENDBRANCH  33  36
ENDBRANCH  31  32
ENDBRANCH  30  31
ENDBRANCH  29  30
ENDBRANCH   1  29
TORSDOF 21
ENDMDL
