MODEL 1
REMARK VINA RESULT:     -10.2      0.000      0.000
REMARK SMILES O=C(CNC(=O)CN1C(=O)S/C(=C\c2cccc(Br)c2)C1=O)NCCCCCCNC(=O)c1ccc(-c2c3nc(c(-c4cccc(S(=O)(=O)[O-])c4F)c4ccc([nH]4)c(-c4cccc(S(=O)(=O)[O-])c4F)c4nc(c(-c5cccc(S(=O)(=O)[O-])c5F)c5ccc2[nH]5)C=C4)C=C3)cc1
REMARK SMILES IDX 26 1 25 2 24 3 23 4 1 5 2 6 3 8 4 9 5 10 6 12 7 13 8 14 9 15
REMARK SMILES IDX 21 16 10 17 11 18 12 19 22 20 13 21 14 22 15 23 20 24 16 25
REMARK SMILES IDX 18 26 17 27 19 28 27 29 28 30 29 31 30 32 31 33 32 35 33 36
REMARK SMILES IDX 34 37 95 38 35 39 94 40 36 41 37 42 38 43 88 44 39 45 93 46
REMARK SMILES IDX 87 47 89 48 40 49 92 50 86 51 85 52 41 54 73 55 53 56 72 57
REMARK SMILES IDX 54 58 57 59 71 60 90 61 55 62 56 63 70 65 91 66 58 67 42 68
REMARK SMILES IDX 43 69 51 70 44 71 46 72 52 73 45 74 47 75 48 76 49 77 50 78
REMARK SMILES IDX 74 79 75 80 83 81 76 82 78 83 84 84 77 85 79 86 80 87 81 88
REMARK SMILES IDX 82 89 59 90 60 91 68 92 61 93 63 94 69 95 62 96 64 97 65 98
REMARK SMILES IDX 66 99 67 100
REMARK H PARENT 23 7 4 11 30 34 89 53 57 64
REMARK Flexibility Score: inf
ROOT
ATOM      1  C   UNL A   1      36.242  34.088  31.562  1.00  0.00     0.002 C 
ENDROOT
BRANCH   1   2
ATOM      2  C   UNL A   1      35.457  34.626  32.764  1.00  0.00     0.021 C 
BRANCH   2   3
ATOM      3  C   UNL A   1      34.049  35.107  32.430  1.00  0.00     0.116 C 
BRANCH   3   4
ATOM      4  N   UNL A   1      33.625  34.653  31.119  1.00  0.00    -0.355 N 
ATOM      5  O   UNL A   1      33.088  36.725  30.284  1.00  0.00    -0.273 OA
ATOM      6  C   UNL A   1      33.182  35.511  30.132  1.00  0.00     0.239 C 
ATOM      7  H   UNL A   1      33.654  33.688  30.923  1.00  0.00     0.163 HD
BRANCH   6   8
ATOM      8  C   UNL A   1      32.847  34.835  28.792  1.00  0.00     0.216 C 
BRANCH   8   9
ATOM      9  N   UNL A   1      34.036  34.492  28.021  1.00  0.00    -0.345 N 
ATOM     10  C   UNL A   1      34.774  33.349  28.004  1.00  0.00     0.240 C 
ATOM     11  H   UNL A   1      34.357  35.200  27.417  1.00  0.00     0.164 HD
ATOM     12  O   UNL A   1      35.839  33.382  27.385  1.00  0.00    -0.273 OA
BRANCH  10  13
ATOM     13  C   UNL A   1      34.313  32.087  28.736  1.00  0.00     0.229 C 
BRANCH  13  14
ATOM     14  N   UNL A   1      33.957  30.999  27.843  1.00  0.00    -0.259 N 
ATOM     15  C   UNL A   1      34.811  29.948  27.624  1.00  0.00     0.294 C 
ATOM     16  C   UNL A   1      32.834  31.052  27.056  1.00  0.00     0.268 C 
ATOM     17  O   UNL A   1      35.879  29.745  28.163  1.00  0.00    -0.261 OA
ATOM     18  S   UNL A   1      34.160  28.899  26.366  1.00  0.00    -0.022 SA
ATOM     19  C   UNL A   1      32.713  29.815  26.240  1.00  0.00     0.083 C 
ATOM     20  O   UNL A   1      32.056  31.991  26.987  1.00  0.00    -0.268 OA
ATOM     21  C   UNL A   1      31.588  29.530  25.572  1.00  0.00     0.029 C 
BRANCH  21  22
ATOM     22  C   UNL A   1      31.319  28.330  24.774  1.00  0.00    -0.023 A 
ATOM     23  C   UNL A   1      31.297  28.391  23.375  1.00  0.00     0.008 A 
ATOM     24  C   UNL A   1      31.143  27.095  25.401  1.00  0.00     0.023 A 
ATOM     25  C   UNL A   1      31.076  27.246  22.609  1.00  0.00     0.002 A 
ATOM     26  C   UNL A   1      30.940  25.948  24.631  1.00  0.00     0.018 A 
ATOM     27  C   UNL A   1      30.897  26.018  23.238  1.00  0.00     0.016 A 
ATOM     28  Br  UNL A   1      30.748  24.272  25.486  1.00  0.00    -0.051 Br
ENDBRANCH  21  22
ENDBRANCH  13  14
ENDBRANCH  10  13
ENDBRANCH   8   9
ENDBRANCH   6   8
ENDBRANCH   3   4
ENDBRANCH   2   3
ENDBRANCH   1   2
BRANCH   1  29
ATOM     29  C   UNL A   1      37.196  32.925  31.833  1.00  0.00     0.002 C 
BRANCH  29  30
ATOM     30  C   UNL A   1      36.572  31.685  32.475  1.00  0.00     0.021 C 
BRANCH  30  31
ATOM     31  C   UNL A   1      37.313  31.103  33.678  1.00  0.00     0.116 C 
BRANCH  31  32
ATOM     32  N   UNL A   1      37.629  29.689  33.534  1.00  0.00    -0.352 N 
ATOM     33  C   UNL A   1      38.628  29.083  32.808  1.00  0.00     0.251 C 
ATOM     34  H   UNL A   1      37.040  29.076  34.030  1.00  0.00     0.163 HD
ATOM     35  O   UNL A   1      38.656  27.859  32.709  1.00  0.00    -0.269 OA
BRANCH  33  36
ATOM     36  C   UNL A   1      39.656  29.898  32.118  1.00  0.00     0.039 A 
ATOM     37  C   UNL A   1      40.679  30.475  32.876  1.00  0.00     0.014 A 
ATOM     38  C   UNL A   1      39.616  30.102  30.736  1.00  0.00     0.014 A 
ATOM     39  C   UNL A   1      41.701  31.187  32.240  1.00  0.00     0.010 A 
ATOM     40  C   UNL A   1      40.671  30.754  30.097  1.00  0.00     0.010 A 
ATOM     41  C   UNL A   1      41.730  31.300  30.841  1.00  0.00    -0.014 A 
BRANCH  41  42
ATOM     42  C   UNL A   1      42.869  31.960  30.143  1.00  0.00     0.031 A 
ATOM     43  C   UNL A   1      44.124  31.190  29.825  1.00  0.00     0.074 A 
ATOM     44  C   UNL A   1      42.805  33.278  29.860  1.00  0.00     0.049 A 
ATOM     45  N   UNL A   1      45.234  31.614  29.277  1.00  0.00    -0.248 NA
ATOM     46  C   UNL A   1      44.144  29.763  30.188  1.00  0.00     0.031 C 
ATOM     47  C   UNL A   1      41.678  34.158  30.180  1.00  0.00     0.029 A 
ATOM     48  N   UNL A   1      43.719  34.115  29.267  1.00  0.00    -0.354 N 
ATOM     49  C   UNL A   1      46.091  30.520  29.252  1.00  0.00     0.074 A 
ATOM     50  C   UNL A   1      45.385  29.419  29.871  1.00  0.00     0.031 C 
ATOM     51  C   UNL A   1      41.968  35.408  29.782  1.00  0.00     0.029 A 
ATOM     52  C   UNL A   1      43.310  35.428  29.207  1.00  0.00     0.049 A 
ATOM     53  H   UNL A   1      44.585  33.804  28.916  1.00  0.00     0.167 HD
ATOM     54  C   UNL A   1      47.339  30.427  28.731  1.00  0.00     0.034 A 
ATOM     55  C   UNL A   1      43.945  36.528  28.754  1.00  0.00     0.034 A 
ATOM     56  C   UNL A   1      48.029  31.509  28.081  1.00  0.00     0.049 A 
ATOM     57  C   UNL A   1      45.321  36.388  28.158  1.00  0.00     0.074 A 
ATOM     58  C   UNL A   1      49.270  31.490  27.467  1.00  0.00     0.029 A 
ATOM     59  N   UNL A   1      47.544  32.801  27.960  1.00  0.00    -0.354 N 
ATOM     60  N   UNL A   1      46.051  35.310  28.012  1.00  0.00    -0.248 NA
ATOM     61  C   UNL A   1      45.945  37.611  27.628  1.00  0.00     0.031 C 
ATOM     62  C   UNL A   1      49.542  32.776  26.990  1.00  0.00     0.029 A 
ATOM     63  C   UNL A   1      48.459  33.588  27.282  1.00  0.00     0.049 A 
ATOM     64  H   UNL A   1      46.676  33.112  28.303  1.00  0.00     0.167 HD
ATOM     65  C   UNL A   1      47.198  35.716  27.337  1.00  0.00     0.074 A 
ATOM     66  C   UNL A   1      47.056  37.134  27.084  1.00  0.00     0.031 C 
ATOM     67  C   UNL A   1      48.279  34.983  26.975  1.00  0.00     0.034 A 
BRANCH  54  68
ATOM     68  C   UNL A   1      48.025  29.086  28.784  1.00  0.00     0.023 A 
ATOM     69  C   UNL A   1      48.778  28.741  29.926  1.00  0.00     0.012 A 
ATOM     70  C   UNL A   1      47.855  28.139  27.756  1.00  0.00     0.148 A 
ATOM     71  C   UNL A   1      49.373  27.485  30.031  1.00  0.00     0.002 A 
ATOM     72  C   UNL A   1      48.415  26.873  27.888  1.00  0.00     0.091 A 
ATOM     73  F   UNL A   1      47.147  28.490  26.673  1.00  0.00    -0.205 F 
ATOM     74  C   UNL A   1      49.182  26.548  29.019  1.00  0.00     0.022 A 
BRANCH  72  75
ATOM     75  S   UNL A   1      48.164  25.565  26.681  1.00  0.00     0.127 S 
ATOM     76  O   UNL A   1      49.036  26.000  25.591  1.00  0.00    -0.237 OA
ATOM     77  O   UNL A   1      48.634  24.385  27.406  1.00  0.00    -0.237 OA
ATOM     78  O   UNL A   1      46.740  25.567  26.375  1.00  0.00    -0.744 OA
ENDBRANCH  72  75
ENDBRANCH  54  68
BRANCH  55  79
ATOM     79  C   UNL A   1      43.273  37.858  28.800  1.00  0.00     0.023 A 
ATOM     80  C   UNL A   1      42.388  38.227  27.767  1.00  0.00     0.012 A 
ATOM     81  C   UNL A   1      43.508  38.763  29.853  1.00  0.00     0.148 A 
ATOM     82  C   UNL A   1      41.787  39.487  27.758  1.00  0.00     0.002 A 
ATOM     83  C   UNL A   1      42.861  39.993  29.869  1.00  0.00     0.091 A 
ATOM     84  F   UNL A   1      44.364  38.403  30.821  1.00  0.00    -0.205 F 
ATOM     85  C   UNL A   1      42.016  40.366  28.813  1.00  0.00     0.022 A 
BRANCH  83  86
ATOM     86  S   UNL A   1      42.998  41.127  31.256  1.00  0.00     0.127 S 
ATOM     87  O   UNL A   1      42.028  42.157  30.897  1.00  0.00    -0.237 OA
ATOM     88  O   UNL A   1      42.607  40.278  32.383  1.00  0.00    -0.237 OA
ATOM     89  O   UNL A   1      44.393  41.545  31.280  1.00  0.00    -0.744 OA
ENDBRANCH  83  86
ENDBRANCH  55  79
BRANCH  67  90
ATOM     90  C   UNL A   1      49.379  35.680  26.218  1.00  0.00     0.023 A 
ATOM     91  C   UNL A   1      49.432  35.592  24.812  1.00  0.00     0.012 A 
ATOM     92  C   UNL A   1      50.316  36.485  26.895  1.00  0.00     0.148 A 
ATOM     93  C   UNL A   1      50.422  36.265  24.097  1.00  0.00     0.002 A 
ATOM     94  C   UNL A   1      51.269  37.193  26.172  1.00  0.00     0.091 A 
ATOM     95  F   UNL A   1      50.261  36.542  28.234  1.00  0.00    -0.205 F 
ATOM     96  C   UNL A   1      51.331  37.074  24.775  1.00  0.00     0.022 A 
BRANCH  94  97
ATOM     97  S   UNL A   1      52.419  38.333  26.951  1.00  0.00     0.127 S 
ATOM     98  O   UNL A   1      51.509  39.255  27.629  1.00  0.00    -0.237 OA
ATOM     99  O   UNL A   1      53.171  37.451  27.844  1.00  0.00    -0.237 OA
ATOM    100  O   UNL A   1      53.205  38.912  25.870  1.00  0.00    -0.744 OA
ENDBRANCH  94  97
ENDBRANCH  67  90
ENDBRANCH  41  42
ENDBRANCH  33  36
ENDBRANCH  31  32
ENDBRANCH  30  31
ENDBRANCH  29  30
ENDBRANCH   1  29
TORSDOF 20
ENDMDL
MODEL 2
REMARK VINA RESULT:     -10.1      5.835     11.129
REMARK SMILES O=C(CNC(=O)CN1C(=O)S/C(=C\c2cccc(Br)c2)C1=O)NCCCCCCNC(=O)c1ccc(-c2c3nc(c(-c4cccc(S(=O)(=O)[O-])c4F)c4ccc([nH]4)c(-c4cccc(S(=O)(=O)[O-])c4F)c4nc(c(-c5cccc(S(=O)(=O)[O-])c5F)c5ccc2[nH]5)C=C4)C=C3)cc1
REMARK SMILES IDX 26 1 25 2 24 3 23 4 1 5 2 6 3 8 4 9 5 10 6 12 7 13 8 14 9 15
REMARK SMILES IDX 21 16 10 17 11 18 12 19 22 20 13 21 14 22 15 23 20 24 16 25
REMARK SMILES IDX 18 26 17 27 19 28 27 29 28 30 29 31 30 32 31 33 32 35 33 36
REMARK SMILES IDX 34 37 95 38 35 39 94 40 36 41 37 42 38 43 88 44 39 45 93 46
REMARK SMILES IDX 87 47 89 48 40 49 92 50 86 51 85 52 41 54 73 55 53 56 72 57
REMARK SMILES IDX 54 58 57 59 71 60 90 61 55 62 56 63 70 65 91 66 58 67 42 68
REMARK SMILES IDX 43 69 51 70 44 71 46 72 52 73 45 74 47 75 48 76 49 77 50 78
REMARK SMILES IDX 74 79 75 80 83 81 76 82 78 83 84 84 77 85 79 86 80 87 81 88
REMARK SMILES IDX 82 89 59 90 60 91 68 92 61 93 63 94 69 95 62 96 64 97 65 98
REMARK SMILES IDX 66 99 67 100
REMARK H PARENT 23 7 4 11 30 34 89 53 57 64
REMARK Flexibility Score: inf
ROOT
ATOM      1  C   UNL A   1      42.370  18.281  26.521  1.00  0.00     0.002 C 
ENDROOT
BRANCH   1   2
ATOM      2  C   UNL A   1      43.814  18.384  26.014  1.00  0.00     0.021 C 
BRANCH   2   3
ATOM      3  C   UNL A   1      43.941  18.911  24.589  1.00  0.00     0.116 C 
BRANCH   3   4
ATOM      4  N   UNL A   1      44.619  20.194  24.550  1.00  0.00    -0.355 N 
ATOM      5  O   UNL A   1      46.755  19.358  24.408  1.00  0.00    -0.273 OA
ATOM      6  C   UNL A   1      45.991  20.318  24.450  1.00  0.00     0.239 C 
ATOM      7  H   UNL A   1      44.076  21.014  24.597  1.00  0.00     0.163 HD
BRANCH   6   8
ATOM      8  C   UNL A   1      46.502  21.765  24.352  1.00  0.00     0.216 C 
BRANCH   8   9
ATOM      9  N   UNL A   1      45.421  22.742  24.317  1.00  0.00    -0.345 N 
ATOM     10  C   UNL A   1      45.371  24.017  24.792  1.00  0.00     0.240 C 
ATOM     11  H   UNL A   1      44.596  22.432  23.880  1.00  0.00     0.164 HD
ATOM     12  O   UNL A   1      44.271  24.572  24.785  1.00  0.00    -0.273 OA
BRANCH  10  13
ATOM     13  C   UNL A   1      46.618  24.721  25.330  1.00  0.00     0.229 C 
BRANCH  13  14
ATOM     14  N   UNL A   1      46.418  26.136  25.583  1.00  0.00    -0.259 N 
ATOM     15  C   UNL A   1      46.833  27.086  24.684  1.00  0.00     0.294 C 
ATOM     16  C   UNL A   1      45.959  26.594  26.792  1.00  0.00     0.268 C 
ATOM     17  O   UNL A   1      47.322  26.897  23.590  1.00  0.00    -0.261 OA
ATOM     18  S   UNL A   1      46.601  28.696  25.363  1.00  0.00    -0.022 SA
ATOM     19  C   UNL A   1      45.851  28.077  26.778  1.00  0.00     0.083 C 
ATOM     20  O   UNL A   1      45.712  25.903  27.769  1.00  0.00    -0.268 OA
ATOM     21  C   UNL A   1      45.212  28.736  27.754  1.00  0.00     0.029 C 
BRANCH  21  22
ATOM     22  C   UNL A   1      44.992  30.184  27.839  1.00  0.00    -0.023 A 
ATOM     23  C   UNL A   1      44.056  30.814  27.009  1.00  0.00     0.008 A 
ATOM     24  C   UNL A   1      45.669  30.942  28.795  1.00  0.00     0.023 A 
ATOM     25  C   UNL A   1      43.816  32.185  27.109  1.00  0.00     0.002 A 
ATOM     26  C   UNL A   1      45.413  32.311  28.904  1.00  0.00     0.018 A 
ATOM     27  C   UNL A   1      44.497  32.938  28.061  1.00  0.00     0.016 A 
ATOM     28  Br  UNL A   1      46.302  33.323  30.232  1.00  0.00    -0.051 Br
ENDBRANCH  21  22
ENDBRANCH  13  14
ENDBRANCH  10  13
ENDBRANCH   8   9
ENDBRANCH   6   8
ENDBRANCH   3   4
ENDBRANCH   2   3
ENDBRANCH   1   2
BRANCH   1  29
ATOM     29  C   UNL A   1      41.446  19.455  26.198  1.00  0.00     0.002 C 
BRANCH  29  30
ATOM     30  C   UNL A   1      41.644  20.713  27.048  1.00  0.00     0.021 C 
BRANCH  30  31
ATOM     31  C   UNL A   1      41.353  22.045  26.357  1.00  0.00     0.116 C 
BRANCH  31  32
ATOM     32  N   UNL A   1      39.993  22.147  25.849  1.00  0.00    -0.352 N 
ATOM     33  C   UNL A   1      39.060  23.142  26.036  1.00  0.00     0.251 C 
ATOM     34  H   UNL A   1      39.698  21.395  25.287  1.00  0.00     0.163 HD
ATOM     35  O   UNL A   1      37.912  22.988  25.625  1.00  0.00    -0.269 OA
BRANCH  33  36
ATOM     36  C   UNL A   1      39.421  24.385  26.756  1.00  0.00     0.039 A 
ATOM     37  C   UNL A   1      38.957  24.565  28.063  1.00  0.00     0.014 A 
ATOM     38  C   UNL A   1      40.205  25.373  26.155  1.00  0.00     0.014 A 
ATOM     39  C   UNL A   1      39.345  25.696  28.790  1.00  0.00     0.010 A 
ATOM     40  C   UNL A   1      40.646  26.464  26.904  1.00  0.00     0.010 A 
ATOM     41  C   UNL A   1      40.226  26.637  28.233  1.00  0.00    -0.014 A 
BRANCH  41  42
ATOM     42  C   UNL A   1      40.733  27.786  29.033  1.00  0.00     0.031 A 
ATOM     43  C   UNL A   1      42.046  27.691  29.766  1.00  0.00     0.074 A 
ATOM     44  C   UNL A   1      39.975  28.896  29.163  1.00  0.00     0.049 A 
ATOM     45  N   UNL A   1      42.614  28.567  30.555  1.00  0.00    -0.248 NA
ATOM     46  C   UNL A   1      42.810  26.443  29.610  1.00  0.00     0.031 C 
ATOM     47  C   UNL A   1      38.651  29.091  28.566  1.00  0.00     0.029 A 
ATOM     48  N   UNL A   1      40.195  30.058  29.863  1.00  0.00    -0.354 N 
ATOM     49  C   UNL A   1      43.785  27.970  31.009  1.00  0.00     0.074 A 
ATOM     50  C   UNL A   1      43.830  26.643  30.434  1.00  0.00     0.031 C 
ATOM     51  C   UNL A   1      38.179  30.295  28.927  1.00  0.00     0.029 A 
ATOM     52  C   UNL A   1      39.147  30.947  29.803  1.00  0.00     0.049 A 
ATOM     53  H   UNL A   1      41.027  30.237  30.359  1.00  0.00     0.167 HD
ATOM     54  C   UNL A   1      44.753  28.489  31.803  1.00  0.00     0.034 A 
ATOM     55  C   UNL A   1      38.975  32.146  30.395  1.00  0.00     0.034 A 
ATOM     56  C   UNL A   1      44.730  29.821  32.344  1.00  0.00     0.049 A 
ATOM     57  C   UNL A   1      40.080  32.707  31.251  1.00  0.00     0.074 A 
ATOM     58  C   UNL A   1      45.697  30.455  33.107  1.00  0.00     0.029 A 
ATOM     59  N   UNL A   1      43.692  30.725  32.186  1.00  0.00    -0.354 N 
ATOM     60  N   UNL A   1      41.244  32.183  31.545  1.00  0.00    -0.248 NA
ATOM     61  C   UNL A   1      39.863  34.044  31.827  1.00  0.00     0.031 C 
ATOM     62  C   UNL A   1      45.234  31.736  33.424  1.00  0.00     0.029 A 
ATOM     63  C   UNL A   1      43.993  31.910  32.836  1.00  0.00     0.049 A 
ATOM     64  H   UNL A   1      42.864  30.550  31.684  1.00  0.00     0.167 HD
ATOM     65  C   UNL A   1      41.914  33.139  32.301  1.00  0.00     0.074 A 
ATOM     66  C   UNL A   1      41.034  34.284  32.402  1.00  0.00     0.031 C 
ATOM     67  C   UNL A   1      43.140  33.068  32.874  1.00  0.00     0.034 A 
BRANCH  54  68
ATOM     68  C   UNL A   1      45.961  27.634  32.089  1.00  0.00     0.023 A 
ATOM     69  C   UNL A   1      45.949  26.773  33.206  1.00  0.00     0.012 A 
ATOM     70  C   UNL A   1      47.064  27.614  31.212  1.00  0.00     0.148 A 
ATOM     71  C   UNL A   1      47.025  25.926  33.461  1.00  0.00     0.002 A 
ATOM     72  C   UNL A   1      48.114  26.734  31.450  1.00  0.00     0.091 A 
ATOM     73  F   UNL A   1      47.063  28.449  30.164  1.00  0.00    -0.205 F 
ATOM     74  C   UNL A   1      48.101  25.898  32.579  1.00  0.00     0.022 A 
BRANCH  72  75
ATOM     75  S   UNL A   1      49.511  26.560  30.333  1.00  0.00     0.127 S 
ATOM     76  O   UNL A   1      50.379  25.657  31.086  1.00  0.00    -0.237 OA
ATOM     77  O   UNL A   1      48.887  25.963  29.152  1.00  0.00    -0.237 OA
ATOM     78  O   UNL A   1      50.037  27.903  30.133  1.00  0.00    -0.744 OA
ENDBRANCH  72  75
ENDBRANCH  54  68
BRANCH  55  79
ATOM     79  C   UNL A   1      37.727  32.929  30.164  1.00  0.00     0.023 A 
ATOM     80  C   UNL A   1      37.489  33.503  28.900  1.00  0.00     0.012 A 
ATOM     81  C   UNL A   1      36.778  33.113  31.188  1.00  0.00     0.148 A 
ATOM     82  C   UNL A   1      36.354  34.285  28.674  1.00  0.00     0.002 A 
ATOM     83  C   UNL A   1      35.621  33.842  30.940  1.00  0.00     0.091 A 
ATOM     84  F   UNL A   1      37.026  32.572  32.390  1.00  0.00    -0.205 F 
ATOM     85  C   UNL A   1      35.416  34.446  29.690  1.00  0.00     0.022 A 
BRANCH  83  86
ATOM     86  S   UNL A   1      34.302  33.986  32.151  1.00  0.00     0.127 S 
ATOM     87  O   UNL A   1      34.957  34.735  33.219  1.00  0.00    -0.237 OA
ATOM     88  O   UNL A   1      33.286  34.733  31.408  1.00  0.00    -0.237 OA
ATOM     89  O   UNL A   1      33.920  32.618  32.473  1.00  0.00    -0.744 OA
ENDBRANCH  83  86
ENDBRANCH  55  79
BRANCH  67  90
ATOM     90  C   UNL A   1      43.636  34.278  33.622  1.00  0.00     0.023 A 
ATOM     91  C   UNL A   1      44.394  35.259  32.951  1.00  0.00     0.012 A 
ATOM     92  C   UNL A   1      43.288  34.479  34.972  1.00  0.00     0.148 A 
ATOM     93  C   UNL A   1      44.826  36.403  33.622  1.00  0.00     0.002 A 
ATOM     94  C   UNL A   1      43.679  35.644  35.620  1.00  0.00     0.091 A 
ATOM     95  F   UNL A   1      42.582  33.526  35.598  1.00  0.00    -0.205 F 
ATOM     96  C   UNL A   1      44.458  36.601  34.951  1.00  0.00     0.022 A 
BRANCH  94  97
ATOM     97  S   UNL A   1      43.172  36.029  37.300  1.00  0.00     0.127 S 
ATOM     98  O   UNL A   1      41.724  35.839  37.224  1.00  0.00    -0.237 OA
ATOM     99  O   UNL A   1      43.880  35.012  38.078  1.00  0.00    -0.237 OA
ATOM    100  O   UNL A   1      43.611  37.395  37.550  1.00  0.00    -0.744 OA
ENDBRANCH  94  97
ENDBRANCH  67  90
ENDBRANCH  41  42
ENDBRANCH  33  36
ENDBRANCH  31  32
ENDBRANCH  30  31
ENDBRANCH  29  30
ENDBRANCH   1  29
TORSDOF 20
ENDMDL
MODEL 3
REMARK VINA RESULT:     -10.1      5.241     10.724
REMARK SMILES O=C(CNC(=O)CN1C(=O)S/C(=C\c2cccc(Br)c2)C1=O)NCCCCCCNC(=O)c1ccc(-c2c3nc(c(-c4cccc(S(=O)(=O)[O-])c4F)c4ccc([nH]4)c(-c4cccc(S(=O)(=O)[O-])c4F)c4nc(c(-c5cccc(S(=O)(=O)[O-])c5F)c5ccc2[nH]5)C=C4)C=C3)cc1
REMARK SMILES IDX 26 1 25 2 24 3 23 4 1 5 2 6 3 8 4 9 5 10 6 12 7 13 8 14 9 15
REMARK SMILES IDX 21 16 10 17 11 18 12 19 22 20 13 21 14 22 15 23 20 24 16 25
REMARK SMILES IDX 18 26 17 27 19 28 27 29 28 30 29 31 30 32 31 33 32 35 33 36
REMARK SMILES IDX 34 37 95 38 35 39 94 40 36 41 37 42 38 43 88 44 39 45 93 46
REMARK SMILES IDX 87 47 89 48 40 49 92 50 86 51 85 52 41 54 73 55 53 56 72 57
REMARK SMILES IDX 54 58 57 59 71 60 90 61 55 62 56 63 70 65 91 66 58 67 42 68
REMARK SMILES IDX 43 69 51 70 44 71 46 72 52 73 45 74 47 75 48 76 49 77 50 78
REMARK SMILES IDX 74 79 75 80 83 81 76 82 78 83 84 84 77 85 79 86 80 87 81 88
REMARK SMILES IDX 82 89 59 90 60 91 68 92 61 93 63 94 69 95 62 96 64 97 65 98
REMARK SMILES IDX 66 99 67 100
REMARK H PARENT 23 7 4 11 30 34 89 53 57 64
REMARK Flexibility Score: inf
ROOT
ATOM      1  C   UNL A   1      42.589  18.469  26.085  1.00  0.00     0.002 C 
ENDROOT
BRANCH   1   2
ATOM      2  C   UNL A   1      44.096  18.636  25.856  1.00  0.00     0.021 C 
BRANCH   2   3
ATOM      3  C   UNL A   1      44.486  18.886  24.403  1.00  0.00     0.116 C 
BRANCH   3   4
ATOM      4  N   UNL A   1      44.546  20.304  24.100  1.00  0.00    -0.355 N 
ATOM      5  O   UNL A   1      46.698  20.638  24.833  1.00  0.00    -0.273 OA
ATOM      6  C   UNL A   1      45.667  21.076  24.331  1.00  0.00     0.239 C 
ATOM      7  H   UNL A   1      43.752  20.736  23.709  1.00  0.00     0.163 HD
BRANCH   6   8
ATOM      8  C   UNL A   1      45.548  22.540  23.873  1.00  0.00     0.216 C 
BRANCH   8   9
ATOM      9  N   UNL A   1      44.515  23.273  24.595  1.00  0.00    -0.345 N 
ATOM     10  C   UNL A   1      44.325  23.438  25.932  1.00  0.00     0.240 C 
ATOM     11  H   UNL A   1      43.850  23.720  24.024  1.00  0.00     0.164 HD
ATOM     12  O   UNL A   1      43.268  23.965  26.284  1.00  0.00    -0.273 OA
BRANCH  10  13
ATOM     13  C   UNL A   1      45.363  22.970  26.953  1.00  0.00     0.229 C 
BRANCH  13  14
ATOM     14  N   UNL A   1      45.516  23.877  28.077  1.00  0.00    -0.259 N 
ATOM     15  C   UNL A   1      46.558  24.767  28.137  1.00  0.00     0.294 C 
ATOM     16  C   UNL A   1      44.730  23.775  29.196  1.00  0.00     0.268 C 
ATOM     17  O   UNL A   1      47.401  24.969  27.289  1.00  0.00    -0.261 OA
ATOM     18  S   UNL A   1      46.553  25.590  29.696  1.00  0.00    -0.022 SA
ATOM     19  C   UNL A   1      45.100  24.819  30.187  1.00  0.00     0.083 C 
ATOM     20  O   UNL A   1      43.873  22.925  29.391  1.00  0.00    -0.268 OA
ATOM     21  C   UNL A   1      44.329  25.070  31.254  1.00  0.00     0.029 C 
BRANCH  21  22
ATOM     22  C   UNL A   1      44.549  26.098  32.276  1.00  0.00    -0.023 A 
ATOM     23  C   UNL A   1      45.417  25.864  33.349  1.00  0.00     0.008 A 
ATOM     24  C   UNL A   1      43.942  27.349  32.157  1.00  0.00     0.023 A 
ATOM     25  C   UNL A   1      45.658  26.850  34.307  1.00  0.00     0.002 A 
ATOM     26  C   UNL A   1      44.199  28.340  33.107  1.00  0.00     0.018 A 
ATOM     27  C   UNL A   1      45.047  28.094  34.186  1.00  0.00     0.016 A 
ATOM     28  Br  UNL A   1      43.408  30.046  32.912  1.00  0.00    -0.051 Br
ENDBRANCH  21  22
ENDBRANCH  13  14
ENDBRANCH  10  13
ENDBRANCH   8   9
ENDBRANCH   6   8
ENDBRANCH   3   4
ENDBRANCH   2   3
ENDBRANCH   1   2
BRANCH   1  29
ATOM     29  C   UNL A   1      41.770  19.754  26.215  1.00  0.00     0.002 C 
BRANCH  29  30
ATOM     30  C   UNL A   1      41.971  20.544  27.511  1.00  0.00     0.021 C 
BRANCH  30  31
ATOM     31  C   UNL A   1      41.117  21.800  27.672  1.00  0.00     0.116 C 
BRANCH  31  32
ATOM     32  N   UNL A   1      39.901  21.781  26.872  1.00  0.00    -0.352 N 
ATOM     33  C   UNL A   1      39.046  22.810  26.551  1.00  0.00     0.251 C 
ATOM     34  H   UNL A   1      39.655  20.901  26.505  1.00  0.00     0.163 HD
ATOM     35  O   UNL A   1      37.993  22.571  25.964  1.00  0.00    -0.269 OA
BRANCH  33  36
ATOM     36  C   UNL A   1      39.369  24.204  26.937  1.00  0.00     0.039 A 
ATOM     37  C   UNL A   1      39.041  24.641  28.224  1.00  0.00     0.014 A 
ATOM     38  C   UNL A   1      39.987  25.081  26.042  1.00  0.00     0.014 A 
ATOM     39  C   UNL A   1      39.402  25.927  28.636  1.00  0.00     0.010 A 
ATOM     40  C   UNL A   1      40.407  26.339  26.478  1.00  0.00     0.010 A 
ATOM     41  C   UNL A   1      40.124  26.776  27.782  1.00  0.00    -0.014 A 
BRANCH  41  42
ATOM     42  C   UNL A   1      40.610  28.105  28.245  1.00  0.00     0.031 A 
ATOM     43  C   UNL A   1      42.085  28.369  28.409  1.00  0.00     0.074 A 
ATOM     44  C   UNL A   1      39.720  29.058  28.593  1.00  0.00     0.049 A 
ATOM     45  N   UNL A   1      42.685  29.443  28.855  1.00  0.00    -0.248 NA
ATOM     46  C   UNL A   1      43.004  27.279  28.043  1.00  0.00     0.031 C 
ATOM     47  C   UNL A   1      38.262  28.909  28.553  1.00  0.00     0.029 A 
ATOM     48  N   UNL A   1      39.907  30.330  29.077  1.00  0.00    -0.354 N 
ATOM     49  C   UNL A   1      44.045  29.151  28.849  1.00  0.00     0.074 A 
ATOM     50  C   UNL A   1      44.180  27.787  28.387  1.00  0.00     0.031 C 
ATOM     51  C   UNL A   1      37.692  30.042  28.994  1.00  0.00     0.029 A 
ATOM     52  C   UNL A   1      38.736  30.987  29.378  1.00  0.00     0.049 A 
ATOM     53  H   UNL A   1      40.798  30.735  29.195  1.00  0.00     0.167 HD
ATOM     54  C   UNL A   1      45.089  29.954  29.166  1.00  0.00     0.034 A 
ATOM     55  C   UNL A   1      38.523  32.205  29.914  1.00  0.00     0.034 A 
ATOM     56  C   UNL A   1      44.960  31.323  29.589  1.00  0.00     0.049 A 
ATOM     57  C   UNL A   1      39.704  33.085  30.232  1.00  0.00     0.074 A 
ATOM     58  C   UNL A   1      45.965  32.233  29.870  1.00  0.00     0.029 A 
ATOM     59  N   UNL A   1      43.758  31.981  29.795  1.00  0.00    -0.354 N 
ATOM     60  N   UNL A   1      40.981  32.839  30.076  1.00  0.00    -0.248 NA
ATOM     61  C   UNL A   1      39.412  34.426  30.762  1.00  0.00     0.031 C 
ATOM     62  C   UNL A   1      45.369  33.436  30.263  1.00  0.00     0.029 A 
ATOM     63  C   UNL A   1      43.995  33.284  30.200  1.00  0.00     0.049 A 
ATOM     64  H   UNL A   1      42.868  31.581  29.670  1.00  0.00     0.167 HD
ATOM     65  C   UNL A   1      41.642  34.005  30.448  1.00  0.00     0.074 A 
ATOM     66  C   UNL A   1      40.622  34.965  30.815  1.00  0.00     0.031 C 
ATOM     67  C   UNL A   1      42.973  34.253  30.498  1.00  0.00     0.034 A 
BRANCH  54  68
ATOM     68  C   UNL A   1      46.480  29.396  29.007  1.00  0.00     0.023 A 
ATOM     69  C   UNL A   1      47.039  29.294  27.716  1.00  0.00     0.012 A 
ATOM     70  C   UNL A   1      47.263  29.059  30.128  1.00  0.00     0.148 A 
ATOM     71  C   UNL A   1      48.345  28.841  27.541  1.00  0.00     0.002 A 
ATOM     72  C   UNL A   1      48.580  28.650  29.948  1.00  0.00     0.091 A 
ATOM     73  F   UNL A   1      46.710  29.150  31.345  1.00  0.00    -0.205 F 
ATOM     74  C   UNL A   1      49.118  28.530  28.656  1.00  0.00     0.022 A 
BRANCH  72  75
ATOM     75  S   UNL A   1      49.688  28.301  31.319  1.00  0.00     0.127 S 
ATOM     76  O   UNL A   1      49.063  27.118  31.909  1.00  0.00    -0.237 OA
ATOM     77  O   UNL A   1      50.954  28.045  30.633  1.00  0.00    -0.237 OA
ATOM     78  O   UNL A   1      49.678  29.491  32.158  1.00  0.00    -0.744 OA
ENDBRANCH  72  75
ENDBRANCH  54  68
BRANCH  55  79
ATOM     79  C   UNL A   1      37.133  32.695  30.144  1.00  0.00     0.023 A 
ATOM     80  C   UNL A   1      36.269  32.878  29.046  1.00  0.00     0.012 A 
ATOM     81  C   UNL A   1      36.663  32.986  31.439  1.00  0.00     0.148 A 
ATOM     82  C   UNL A   1      34.981  33.385  29.229  1.00  0.00     0.002 A 
ATOM     83  C   UNL A   1      35.360  33.435  31.621  1.00  0.00     0.091 A 
ATOM     84  F   UNL A   1      37.502  32.820  32.472  1.00  0.00    -0.205 F 
ATOM     85  C   UNL A   1      34.524  33.655  30.515  1.00  0.00     0.022 A 
BRANCH  83  86
ATOM     86  S   UNL A   1      34.651  33.677  33.253  1.00  0.00     0.127 S 
ATOM     87  O   UNL A   1      35.404  32.714  34.052  1.00  0.00    -0.237 OA
ATOM     88  O   UNL A   1      34.970  35.081  33.518  1.00  0.00    -0.237 OA
ATOM     89  O   UNL A   1      33.228  33.407  33.102  1.00  0.00    -0.744 OA
ENDBRANCH  83  86
ENDBRANCH  55  79
BRANCH  67  90
ATOM     90  C   UNL A   1      43.416  35.631  30.913  1.00  0.00     0.023 A 
ATOM     91  C   UNL A   1      43.763  35.886  32.255  1.00  0.00     0.012 A 
ATOM     92  C   UNL A   1      43.561  36.655  29.957  1.00  0.00     0.148 A 
ATOM     93  C   UNL A   1      44.212  37.147  32.645  1.00  0.00     0.002 A 
ATOM     94  C   UNL A   1      44.057  37.895  30.343  1.00  0.00     0.091 A 
ATOM     95  F   UNL A   1      43.209  36.400  28.688  1.00  0.00    -0.205 F 
ATOM     96  C   UNL A   1      44.370  38.147  31.687  1.00  0.00     0.022 A 
BRANCH  94  97
ATOM     97  S   UNL A   1      44.385  39.211  29.164  1.00  0.00     0.127 S 
ATOM     98  O   UNL A   1      43.041  39.509  28.670  1.00  0.00    -0.237 OA
ATOM     99  O   UNL A   1      44.966  40.251  30.015  1.00  0.00    -0.237 OA
ATOM    100  O   UNL A   1      45.302  38.652  28.182  1.00  0.00    -0.744 OA
ENDBRANCH  94  97
ENDBRANCH  67  90
ENDBRANCH  41  42
ENDBRANCH  33  36
ENDBRANCH  31  32
ENDBRANCH  30  31
ENDBRANCH  29  30
ENDBRANCH   1  29
TORSDOF 20
ENDMDL
