MODEL 1
REMARK VINA RESULT:     -11.0      0.000      0.000
REMARK SMILES O=C(CCNC(=O)[C@H]1CCCN(S(=O)(=O)c2ccc(Cl)cc2)C1)NCCCCCCNC(=O)c1ccc(-c2c3nc(c(-c4cccc(S(=O)(=O)[O-])c4F)c4ccc([nH]4)c(-c4cccc(S(=O)(=O)[O-])c4F)c4nc(c(-c5cccc(S(=O)(=O)[O-])c5F)c5ccc2[nH]5)C=C4)C=C3)cc1
REMARK SMILES IDX 26 1 25 2 24 3 1 4 2 5 3 7 4 8 5 9 6 10 7 12 8 13 9 14 23 15
REMARK SMILES IDX 10 16 12 17 11 18 13 19 14 20 15 21 16 22 17 23 22 24 18 25
REMARK SMILES IDX 21 26 19 27 20 28 27 29 28 30 29 31 30 32 31 33 32 34 33 36
REMARK SMILES IDX 34 37 35 38 96 39 36 40 95 41 37 42 38 43 39 44 89 45 40 46
REMARK SMILES IDX 94 47 88 48 90 49 41 50 93 51 87 52 86 53 42 55 74 56 54 57
REMARK SMILES IDX 73 58 55 59 58 60 72 61 91 62 56 63 57 64 71 66 92 67 59 68
REMARK SMILES IDX 43 69 44 70 52 71 45 72 47 73 53 74 46 75 48 76 49 77 50 78
REMARK SMILES IDX 51 79 75 80 76 81 84 82 77 83 79 84 85 85 78 86 80 87 81 88
REMARK SMILES IDX 82 89 83 90 60 91 61 92 69 93 62 94 64 95 70 96 63 97 65 98
REMARK SMILES IDX 66 99 67 100 68 101
REMARK H PARENT 24 6 5 11 31 35 90 54 58 65
REMARK Flexibility Score: inf
ROOT
ATOM      1  C   UNL A   1      34.750  31.797  28.651  1.00  0.00     0.021 C 
ENDROOT
BRANCH   1   2
ATOM      2  C   UNL A   1      35.057  30.405  28.103  1.00  0.00     0.116 C 
BRANCH   2   3
ATOM      3  N   UNL A   1      34.509  30.213  26.774  1.00  0.00    -0.356 N 
ATOM      4  O   UNL A   1      32.937  28.625  27.325  1.00  0.00    -0.275 OA
ATOM      5  C   UNL A   1      33.456  29.373  26.505  1.00  0.00     0.221 C 
ATOM      6  H   UNL A   1      34.913  30.711  26.027  1.00  0.00     0.163 HD
BRANCH   5   7
ATOM      7  C   UNL A   1      32.961  29.457  25.074  1.00  0.00     0.121 C 
BRANCH   7   8
ATOM      8  C   UNL A   1      31.445  29.650  25.043  1.00  0.00     0.125 C 
BRANCH   8   9
ATOM      9  N   UNL A   1      30.842  29.048  23.861  1.00  0.00    -0.355 N 
ATOM     10  C   UNL A   1      30.779  27.785  23.375  1.00  0.00     0.224 C 
ATOM     11  H   UNL A   1      30.380  29.703  23.289  1.00  0.00     0.163 HD
ATOM     12  O   UNL A   1      30.330  27.678  22.228  1.00  0.00    -0.275 OA
BRANCH  10  13
ATOM     13  C   UNL A   1      31.096  26.516  24.164  1.00  0.00     0.093 C 
ATOM     14  C   UNL A   1      29.992  25.873  24.993  1.00  0.00     0.016 C 
ATOM     15  C   UNL A   1      31.754  25.519  23.203  1.00  0.00     0.116 C 
ATOM     16  C   UNL A   1      30.529  24.633  25.695  1.00  0.00     0.018 C 
ATOM     17  N   UNL A   1      32.184  24.244  23.895  1.00  0.00    -0.197 NA
ATOM     18  C   UNL A   1      31.070  23.639  24.675  1.00  0.00     0.102 C 
BRANCH  17  19
ATOM     19  S   UNL A   1      32.927  23.178  22.746  1.00  0.00     0.243 S 
ATOM     20  O   UNL A   1      32.063  22.016  22.623  1.00  0.00    -0.207 OA
ATOM     21  O   UNL A   1      33.287  23.959  21.587  1.00  0.00    -0.207 OA
BRANCH  19  22
ATOM     22  C   UNL A   1      34.432  22.625  23.522  1.00  0.00     0.082 A 
ATOM     23  C   UNL A   1      34.378  21.565  24.438  1.00  0.00     0.023 A 
ATOM     24  C   UNL A   1      35.663  23.165  23.138  1.00  0.00     0.023 A 
ATOM     25  C   UNL A   1      35.552  21.095  25.028  1.00  0.00     0.022 A 
ATOM     26  C   UNL A   1      36.839  22.672  23.714  1.00  0.00     0.022 A 
ATOM     27  C   UNL A   1      36.778  21.651  24.665  1.00  0.00     0.041 A 
ATOM     28  Cl  UNL A   1      38.224  21.063  25.388  1.00  0.00    -0.084 Cl
ENDBRANCH  19  22
ENDBRANCH  17  19
ENDBRANCH  10  13
ENDBRANCH   8   9
ENDBRANCH   7   8
ENDBRANCH   5   7
ENDBRANCH   2   3
ENDBRANCH   1   2
BRANCH   1  29
ATOM     29  C   UNL A   1      35.453  32.952  27.923  1.00  0.00     0.002 C 
BRANCH  29  30
ATOM     30  C   UNL A   1      35.264  34.340  28.542  1.00  0.00     0.002 C 
BRANCH  30  31
ATOM     31  C   UNL A   1      33.813  34.757  28.788  1.00  0.00     0.021 C 
BRANCH  31  32
ATOM     32  C   UNL A   1      33.630  36.113  29.464  1.00  0.00     0.116 C 
BRANCH  32  33
ATOM     33  N   UNL A   1      32.747  36.055  30.618  1.00  0.00    -0.352 N 
ATOM     34  C   UNL A   1      32.887  35.331  31.778  1.00  0.00     0.251 C 
ATOM     35  H   UNL A   1      31.936  36.611  30.561  1.00  0.00     0.163 HD
ATOM     36  O   UNL A   1      31.973  35.297  32.597  1.00  0.00    -0.269 OA
BRANCH  34  37
ATOM     37  C   UNL A   1      34.130  34.567  32.023  1.00  0.00     0.039 A 
ATOM     38  C   UNL A   1      35.334  35.262  32.169  1.00  0.00     0.014 A 
ATOM     39  C   UNL A   1      34.109  33.172  32.119  1.00  0.00     0.014 A 
ATOM     40  C   UNL A   1      36.505  34.563  32.473  1.00  0.00     0.010 A 
ATOM     41  C   UNL A   1      35.263  32.486  32.489  1.00  0.00     0.010 A 
ATOM     42  C   UNL A   1      36.474  33.172  32.667  1.00  0.00    -0.014 A 
BRANCH  42  43
ATOM     43  C   UNL A   1      37.690  32.420  33.070  1.00  0.00     0.031 A 
ATOM     44  C   UNL A   1      38.392  32.744  34.361  1.00  0.00     0.074 A 
ATOM     45  C   UNL A   1      38.216  31.506  32.230  1.00  0.00     0.049 A 
ATOM     46  N   UNL A   1      39.493  32.235  34.852  1.00  0.00    -0.248 NA
ATOM     47  C   UNL A   1      37.795  33.799  35.198  1.00  0.00     0.031 C 
ATOM     48  C   UNL A   1      37.674  31.155  30.915  1.00  0.00     0.029 A 
ATOM     49  N   UNL A   1      39.339  30.724  32.345  1.00  0.00    -0.354 N 
ATOM     50  C   UNL A   1      39.741  32.930  36.030  1.00  0.00     0.074 A 
ATOM     51  C   UNL A   1      38.694  33.919  36.164  1.00  0.00     0.031 C 
ATOM     52  C   UNL A   1      38.461  30.225  30.349  1.00  0.00     0.029 A 
ATOM     53  C   UNL A   1      39.575  29.932  31.245  1.00  0.00     0.049 A 
ATOM     54  H   UNL A   1      39.920  30.730  33.139  1.00  0.00     0.167 HD
ATOM     55  C   UNL A   1      40.731  32.742  36.935  1.00  0.00     0.034 A 
ATOM     56  C   UNL A   1      40.576  29.068  30.987  1.00  0.00     0.034 A 
ATOM     57  C   UNL A   1      41.742  31.726  36.823  1.00  0.00     0.049 A 
ATOM     58  C   UNL A   1      41.642  28.850  32.026  1.00  0.00     0.074 A 
ATOM     59  C   UNL A   1      42.729  31.390  37.734  1.00  0.00     0.029 A 
ATOM     60  N   UNL A   1      41.901  30.883  35.734  1.00  0.00    -0.354 N 
ATOM     61  N   UNL A   1      41.763  29.398  33.212  1.00  0.00    -0.248 NA
ATOM     62  C   UNL A   1      42.691  27.870  31.708  1.00  0.00     0.031 C 
ATOM     63  C   UNL A   1      43.497  30.357  37.185  1.00  0.00     0.029 A 
ATOM     64  C   UNL A   1      42.975  30.035  35.942  1.00  0.00     0.049 A 
ATOM     65  H   UNL A   1      41.332  30.887  34.930  1.00  0.00     0.167 HD
ATOM     66  C   UNL A   1      42.875  28.801  33.795  1.00  0.00     0.074 A 
ATOM     67  C   UNL A   1      43.382  27.837  32.840  1.00  0.00     0.031 C 
ATOM     68  C   UNL A   1      43.435  29.040  35.007  1.00  0.00     0.034 A 
BRANCH  55  69
ATOM     69  C   UNL A   1      40.736  33.623  38.158  1.00  0.00     0.023 A 
ATOM     70  C   UNL A   1      39.876  33.319  39.234  1.00  0.00     0.012 A 
ATOM     71  C   UNL A   1      41.617  34.716  38.265  1.00  0.00     0.148 A 
ATOM     72  C   UNL A   1      39.865  34.112  40.380  1.00  0.00     0.002 A 
ATOM     73  C   UNL A   1      41.631  35.477  39.430  1.00  0.00     0.091 A 
ATOM     74  F   UNL A   1      42.410  35.005  37.224  1.00  0.00    -0.205 F 
ATOM     75  C   UNL A   1      40.749  35.183  40.483  1.00  0.00     0.022 A 
BRANCH  73  76
ATOM     76  S   UNL A   1      42.787  36.828  39.687  1.00  0.00     0.127 S 
ATOM     77  O   UNL A   1      44.073  36.146  39.548  1.00  0.00    -0.237 OA
ATOM     78  O   UNL A   1      42.456  37.733  38.586  1.00  0.00    -0.237 OA
ATOM     79  O   UNL A   1      42.495  37.355  41.012  1.00  0.00    -0.744 OA
ENDBRANCH  73  76
ENDBRANCH  55  69
BRANCH  56  80
ATOM     80  C   UNL A   1      40.573  28.280  29.721  1.00  0.00     0.023 A 
ATOM     81  C   UNL A   1      39.603  27.275  29.542  1.00  0.00     0.012 A 
ATOM     82  C   UNL A   1      41.496  28.536  28.688  1.00  0.00     0.148 A 
ATOM     83  C   UNL A   1      39.571  26.516  28.372  1.00  0.00     0.002 A 
ATOM     84  C   UNL A   1      41.424  27.813  27.503  1.00  0.00     0.091 A 
ATOM     85  F   UNL A   1      42.418  29.489  28.883  1.00  0.00    -0.205 F 
ATOM     86  C   UNL A   1      40.474  26.791  27.349  1.00  0.00     0.022 A 
BRANCH  84  87
ATOM     87  S   UNL A   1      42.462  28.184  26.085  1.00  0.00     0.127 S 
ATOM     88  O   UNL A   1      43.772  27.732  26.546  1.00  0.00    -0.237 OA
ATOM     89  O   UNL A   1      41.856  27.356  25.041  1.00  0.00    -0.237 OA
ATOM     90  O   UNL A   1      42.327  29.618  25.865  1.00  0.00    -0.744 OA
ENDBRANCH  84  87
ENDBRANCH  56  80
BRANCH  68  91
ATOM     91  C   UNL A   1      44.641  28.225  35.393  1.00  0.00     0.023 A 
ATOM     92  C   UNL A   1      45.934  28.724  35.138  1.00  0.00     0.012 A 
ATOM     93  C   UNL A   1      44.494  27.001  36.077  1.00  0.00     0.148 A 
ATOM     94  C   UNL A   1      47.061  28.002  35.529  1.00  0.00     0.002 A 
ATOM     95  C   UNL A   1      45.623  26.312  36.507  1.00  0.00     0.091 A 
ATOM     96  F   UNL A   1      43.257  26.534  36.294  1.00  0.00    -0.205 F 
ATOM     97  C   UNL A   1      46.906  26.805  36.223  1.00  0.00     0.022 A 
BRANCH  95  98
ATOM     98  S   UNL A   1      45.516  24.812  37.490  1.00  0.00     0.127 S 
ATOM     99  O   UNL A   1      46.925  24.532  37.759  1.00  0.00    -0.237 OA
ATOM    100  O   UNL A   1      44.750  25.258  38.656  1.00  0.00    -0.237 OA
ATOM    101  O   UNL A   1      44.828  23.835  36.657  1.00  0.00    -0.744 OA
ENDBRANCH  95  98
ENDBRANCH  68  91
ENDBRANCH  42  43
ENDBRANCH  34  37
ENDBRANCH  32  33
ENDBRANCH  31  32
ENDBRANCH  30  31
ENDBRANCH  29  30
ENDBRANCH   1  29
TORSDOF 21
ENDMDL
MODEL 2
REMARK VINA RESULT:     -10.6      1.929      2.319
REMARK SMILES O=C(CCNC(=O)[C@H]1CCCN(S(=O)(=O)c2ccc(Cl)cc2)C1)NCCCCCCNC(=O)c1ccc(-c2c3nc(c(-c4cccc(S(=O)(=O)[O-])c4F)c4ccc([nH]4)c(-c4cccc(S(=O)(=O)[O-])c4F)c4nc(c(-c5cccc(S(=O)(=O)[O-])c5F)c5ccc2[nH]5)C=C4)C=C3)cc1
REMARK SMILES IDX 26 1 25 2 24 3 1 4 2 5 3 7 4 8 5 9 6 10 7 12 8 13 9 14 23 15
REMARK SMILES IDX 10 16 12 17 11 18 13 19 14 20 15 21 16 22 17 23 22 24 18 25
REMARK SMILES IDX 21 26 19 27 20 28 27 29 28 30 29 31 30 32 31 33 32 34 33 36
REMARK SMILES IDX 34 37 35 38 96 39 36 40 95 41 37 42 38 43 39 44 89 45 40 46
REMARK SMILES IDX 94 47 88 48 90 49 41 50 93 51 87 52 86 53 42 55 74 56 54 57
REMARK SMILES IDX 73 58 55 59 58 60 72 61 91 62 56 63 57 64 71 66 92 67 59 68
REMARK SMILES IDX 43 69 44 70 52 71 45 72 47 73 53 74 46 75 48 76 49 77 50 78
REMARK SMILES IDX 51 79 75 80 76 81 84 82 77 83 79 84 85 85 78 86 80 87 81 88
REMARK SMILES IDX 82 89 83 90 60 91 61 92 69 93 62 94 64 95 70 96 63 97 65 98
REMARK SMILES IDX 66 99 67 100 68 101
REMARK H PARENT 24 6 5 11 31 35 90 54 58 65
REMARK Flexibility Score: inf
ROOT
ATOM      1  C   UNL A   1      34.682  31.843  28.724  1.00  0.00     0.021 C 
ENDROOT
BRANCH   1   2
ATOM      2  C   UNL A   1      34.967  30.459  28.143  1.00  0.00     0.116 C 
BRANCH   2   3
ATOM      3  N   UNL A   1      34.416  30.307  26.810  1.00  0.00    -0.356 N 
ATOM      4  O   UNL A   1      32.461  29.254  27.413  1.00  0.00    -0.275 OA
ATOM      5  C   UNL A   1      33.181  29.761  26.561  1.00  0.00     0.221 C 
ATOM      6  H   UNL A   1      34.956  30.611  26.044  1.00  0.00     0.163 HD
BRANCH   5   7
ATOM      7  C   UNL A   1      32.758  29.850  25.108  1.00  0.00     0.121 C 
BRANCH   7   8
ATOM      8  C   UNL A   1      31.238  29.746  24.986  1.00  0.00     0.125 C 
BRANCH   8   9
ATOM      9  N   UNL A   1      30.837  28.841  23.916  1.00  0.00    -0.355 N 
ATOM     10  C   UNL A   1      31.222  27.598  23.539  1.00  0.00     0.224 C 
ATOM     11  H   UNL A   1      30.132  29.216  23.339  1.00  0.00     0.163 HD
ATOM     12  O   UNL A   1      30.781  27.212  22.450  1.00  0.00    -0.275 OA
BRANCH  10  13
ATOM     13  C   UNL A   1      32.034  26.625  24.393  1.00  0.00     0.093 C 
ATOM     14  C   UNL A   1      31.383  26.015  25.627  1.00  0.00     0.016 C 
ATOM     15  C   UNL A   1      32.620  25.560  23.460  1.00  0.00     0.116 C 
ATOM     16  C   UNL A   1      32.369  25.088  26.326  1.00  0.00     0.018 C 
ATOM     17  N   UNL A   1      33.512  24.578  24.189  1.00  0.00    -0.197 NA
ATOM     18  C   UNL A   1      32.830  23.991  25.373  1.00  0.00     0.102 C 
BRANCH  17  19
ATOM     19  S   UNL A   1      34.142  23.417  23.066  1.00  0.00     0.243 S 
ATOM     20  O   UNL A   1      33.378  23.553  21.837  1.00  0.00    -0.207 OA
ATOM     21  O   UNL A   1      35.580  23.542  23.061  1.00  0.00    -0.207 OA
BRANCH  19  22
ATOM     22  C   UNL A   1      33.735  21.825  23.756  1.00  0.00     0.082 A 
ATOM     23  C   UNL A   1      32.584  21.162  23.309  1.00  0.00     0.023 A 
ATOM     24  C   UNL A   1      34.612  21.197  24.645  1.00  0.00     0.023 A 
ATOM     25  C   UNL A   1      32.268  19.900  23.811  1.00  0.00     0.022 A 
ATOM     26  C   UNL A   1      34.303  19.919  25.126  1.00  0.00     0.022 A 
ATOM     27  C   UNL A   1      33.129  19.284  24.719  1.00  0.00     0.041 A 
ATOM     28  Cl  UNL A   1      32.741  17.722  25.329  1.00  0.00    -0.084 Cl
ENDBRANCH  19  22
ENDBRANCH  17  19
ENDBRANCH  10  13
ENDBRANCH   8   9
ENDBRANCH   7   8
ENDBRANCH   5   7
ENDBRANCH   2   3
ENDBRANCH   1   2
BRANCH   1  29
ATOM     29  C   UNL A   1      35.303  33.014  27.949  1.00  0.00     0.002 C 
BRANCH  29  30
ATOM     30  C   UNL A   1      35.105  34.400  28.569  1.00  0.00     0.002 C 
BRANCH  30  31
ATOM     31  C   UNL A   1      33.649  34.824  28.778  1.00  0.00     0.021 C 
BRANCH  31  32
ATOM     32  C   UNL A   1      33.456  36.197  29.416  1.00  0.00     0.116 C 
BRANCH  32  33
ATOM     33  N   UNL A   1      32.561  36.167  30.562  1.00  0.00    -0.352 N 
ATOM     34  C   UNL A   1      32.689  35.472  31.741  1.00  0.00     0.251 C 
ATOM     35  H   UNL A   1      31.751  36.721  30.483  1.00  0.00     0.163 HD
ATOM     36  O   UNL A   1      31.767  35.458  32.551  1.00  0.00    -0.269 OA
BRANCH  34  37
ATOM     37  C   UNL A   1      33.930  34.715  32.018  1.00  0.00     0.039 A 
ATOM     38  C   UNL A   1      35.128  35.416  32.183  1.00  0.00     0.014 A 
ATOM     39  C   UNL A   1      33.913  33.321  32.126  1.00  0.00     0.014 A 
ATOM     40  C   UNL A   1      36.296  34.725  32.516  1.00  0.00     0.010 A 
ATOM     41  C   UNL A   1      35.062  32.643  32.525  1.00  0.00     0.010 A 
ATOM     42  C   UNL A   1      36.266  33.336  32.722  1.00  0.00    -0.014 A 
BRANCH  42  43
ATOM     43  C   UNL A   1      37.476  32.592  33.156  1.00  0.00     0.031 A 
ATOM     44  C   UNL A   1      38.206  32.992  34.410  1.00  0.00     0.074 A 
ATOM     45  C   UNL A   1      37.973  31.614  32.373  1.00  0.00     0.049 A 
ATOM     46  N   UNL A   1      39.307  32.500  34.917  1.00  0.00    -0.248 NA
ATOM     47  C   UNL A   1      37.641  34.113  35.181  1.00  0.00     0.031 C 
ATOM     48  C   UNL A   1      37.402  31.182  31.094  1.00  0.00     0.029 A 
ATOM     49  N   UNL A   1      39.084  30.822  32.523  1.00  0.00    -0.354 N 
ATOM     50  C   UNL A   1      39.587  33.270  36.039  1.00  0.00     0.074 A 
ATOM     51  C   UNL A   1      38.558  34.284  36.122  1.00  0.00     0.031 C 
ATOM     52  C   UNL A   1      38.163  30.201  30.581  1.00  0.00     0.029 A 
ATOM     53  C   UNL A   1      39.289  29.952  31.477  1.00  0.00     0.049 A 
ATOM     54  H   UNL A   1      39.680  30.873  33.306  1.00  0.00     0.167 HD
ATOM     55  C   UNL A   1      40.590  33.128  36.939  1.00  0.00     0.034 A 
ATOM     56  C   UNL A   1      40.271  29.055  31.263  1.00  0.00     0.034 A 
ATOM     57  C   UNL A   1      41.582  32.089  36.882  1.00  0.00     0.049 A 
ATOM     58  C   UNL A   1      41.351  28.891  32.298  1.00  0.00     0.074 A 
ATOM     59  C   UNL A   1      42.579  31.800  37.797  1.00  0.00     0.029 A 
ATOM     60  N   UNL A   1      41.708  31.170  35.851  1.00  0.00    -0.354 N 
ATOM     61  N   UNL A   1      41.502  29.516  33.440  1.00  0.00    -0.248 NA
ATOM     62  C   UNL A   1      42.378  27.873  32.031  1.00  0.00     0.031 C 
ATOM     63  C   UNL A   1      43.321  30.718  37.308  1.00  0.00     0.029 A 
ATOM     64  C   UNL A   1      42.772  30.320  36.099  1.00  0.00     0.049 A 
ATOM     65  H   UNL A   1      41.126  31.128  35.058  1.00  0.00     0.167 HD
ATOM     66  C   UNL A   1      42.614  28.943  34.046  1.00  0.00     0.074 A 
ATOM     67  C   UNL A   1      43.088  27.906  33.151  1.00  0.00     0.031 C 
ATOM     68  C   UNL A   1      43.199  29.255  35.229  1.00  0.00     0.034 A 
BRANCH  55  69
ATOM     69  C   UNL A   1      40.630  34.091  38.097  1.00  0.00     0.023 A 
ATOM     70  C   UNL A   1      41.428  35.250  38.007  1.00  0.00     0.012 A 
ATOM     71  C   UNL A   1      39.848  33.879  39.248  1.00  0.00     0.148 A 
ATOM     72  C   UNL A   1      41.478  36.162  39.061  1.00  0.00     0.002 A 
ATOM     73  C   UNL A   1      39.869  34.816  40.277  1.00  0.00     0.091 A 
ATOM     74  F   UNL A   1      39.112  32.761  39.327  1.00  0.00    -0.205 F 
ATOM     75  C   UNL A   1      40.692  35.951  40.189  1.00  0.00     0.022 A 
BRANCH  73  76
ATOM     76  S   UNL A   1      38.831  34.671  41.737  1.00  0.00     0.127 S 
ATOM     77  O   UNL A   1      37.546  34.298  41.148  1.00  0.00    -0.237 OA
ATOM     78  O   UNL A   1      39.493  33.600  42.482  1.00  0.00    -0.237 OA
ATOM     79  O   UNL A   1      38.872  35.973  42.385  1.00  0.00    -0.744 OA
ENDBRANCH  73  76
ENDBRANCH  55  69
BRANCH  56  80
ATOM     80  C   UNL A   1      40.232  28.181  30.055  1.00  0.00     0.023 A 
ATOM     81  C   UNL A   1      39.311  27.118  30.008  1.00  0.00     0.012 A 
ATOM     82  C   UNL A   1      41.074  28.412  28.950  1.00  0.00     0.148 A 
ATOM     83  C   UNL A   1      39.248  26.278  28.895  1.00  0.00     0.002 A 
ATOM     84  C   UNL A   1      40.969  27.605  27.822  1.00  0.00     0.091 A 
ATOM     85  F   UNL A   1      41.952  29.421  29.019  1.00  0.00    -0.205 F 
ATOM     86  C   UNL A   1      40.069  26.527  27.799  1.00  0.00     0.022 A 
BRANCH  84  87
ATOM     87  S   UNL A   1      41.894  27.929  26.317  1.00  0.00     0.127 S 
ATOM     88  O   UNL A   1      41.451  26.838  25.453  1.00  0.00    -0.237 OA
ATOM     89  O   UNL A   1      41.403  29.255  25.939  1.00  0.00    -0.237 OA
ATOM     90  O   UNL A   1      43.297  27.900  26.706  1.00  0.00    -0.744 OA
ENDBRANCH  84  87
ENDBRANCH  56  80
BRANCH  68  91
ATOM     91  C   UNL A   1      44.398  28.448  35.650  1.00  0.00     0.023 A 
ATOM     92  C   UNL A   1      44.220  27.282  36.422  1.00  0.00     0.012 A 
ATOM     93  C   UNL A   1      45.693  28.800  35.218  1.00  0.00     0.148 A 
ATOM     94  C   UNL A   1      45.316  26.498  36.784  1.00  0.00     0.002 A 
ATOM     95  C   UNL A   1      46.773  27.987  35.542  1.00  0.00     0.091 A 
ATOM     96  F   UNL A   1      45.844  29.923  34.501  1.00  0.00    -0.205 F 
ATOM     97  C   UNL A   1      46.588  26.843  36.334  1.00  0.00     0.022 A 
BRANCH  95  98
ATOM     98  S   UNL A   1      48.431  28.302  34.925  1.00  0.00     0.127 S 
ATOM     99  O   UNL A   1      48.721  29.610  35.508  1.00  0.00    -0.237 OA
ATOM    100  O   UNL A   1      49.194  27.194  35.503  1.00  0.00    -0.237 OA
ATOM    101  O   UNL A   1      48.330  28.270  33.472  1.00  0.00    -0.744 OA
ENDBRANCH  95  98
ENDBRANCH  68  91
ENDBRANCH  42  43
ENDBRANCH  34  37
ENDBRANCH  32  33
ENDBRANCH  31  32
ENDBRANCH  30  31
ENDBRANCH  29  30
ENDBRANCH   1  29
TORSDOF 21
ENDMDL
MODEL 3
REMARK VINA RESULT:     -10.4      5.289      9.762
REMARK SMILES O=C(CCNC(=O)[C@H]1CCCN(S(=O)(=O)c2ccc(Cl)cc2)C1)NCCCCCCNC(=O)c1ccc(-c2c3nc(c(-c4cccc(S(=O)(=O)[O-])c4F)c4ccc([nH]4)c(-c4cccc(S(=O)(=O)[O-])c4F)c4nc(c(-c5cccc(S(=O)(=O)[O-])c5F)c5ccc2[nH]5)C=C4)C=C3)cc1
REMARK SMILES IDX 26 1 25 2 24 3 1 4 2 5 3 7 4 8 5 9 6 10 7 12 8 13 9 14 23 15
REMARK SMILES IDX 10 16 12 17 11 18 13 19 14 20 15 21 16 22 17 23 22 24 18 25
REMARK SMILES IDX 21 26 19 27 20 28 27 29 28 30 29 31 30 32 31 33 32 34 33 36
REMARK SMILES IDX 34 37 35 38 96 39 36 40 95 41 37 42 38 43 39 44 89 45 40 46
REMARK SMILES IDX 94 47 88 48 90 49 41 50 93 51 87 52 86 53 42 55 74 56 54 57
REMARK SMILES IDX 73 58 55 59 58 60 72 61 91 62 56 63 57 64 71 66 92 67 59 68
REMARK SMILES IDX 43 69 44 70 52 71 45 72 47 73 53 74 46 75 48 76 49 77 50 78
REMARK SMILES IDX 51 79 75 80 76 81 84 82 77 83 79 84 85 85 78 86 80 87 81 88
REMARK SMILES IDX 82 89 83 90 60 91 61 92 69 93 62 94 64 95 70 96 63 97 65 98
REMARK SMILES IDX 66 99 67 100 68 101
REMARK H PARENT 24 6 5 11 31 35 90 54 58 65
REMARK Flexibility Score: inf
ROOT
ATOM      1  C   UNL A   1      38.837  32.270  36.842  1.00  0.00     0.021 C 
ENDROOT
BRANCH   1   2
ATOM      2  C   UNL A   1      38.472  32.335  35.360  1.00  0.00     0.116 C 
BRANCH   2   3
ATOM      3  N   UNL A   1      37.192  32.981  35.145  1.00  0.00    -0.356 N 
ATOM      4  O   UNL A   1      37.966  34.783  33.941  1.00  0.00    -0.275 OA
ATOM      5  C   UNL A   1      37.039  34.129  34.407  1.00  0.00     0.221 C 
ATOM      6  H   UNL A   1      36.391  32.577  35.550  1.00  0.00     0.163 HD
BRANCH   5   7
ATOM      7  C   UNL A   1      35.593  34.529  34.194  1.00  0.00     0.121 C 
BRANCH   7   8
ATOM      8  C   UNL A   1      35.408  35.151  32.811  1.00  0.00     0.125 C 
BRANCH   8   9
ATOM      9  N   UNL A   1      34.733  34.245  31.890  1.00  0.00    -0.355 N 
ATOM     10  C   UNL A   1      35.119  33.565  30.784  1.00  0.00     0.224 C 
ATOM     11  H   UNL A   1      33.788  34.094  32.123  1.00  0.00     0.163 HD
ATOM     12  O   UNL A   1      34.207  33.027  30.144  1.00  0.00    -0.275 OA
BRANCH  10  13
ATOM     13  C   UNL A   1      36.565  33.321  30.354  1.00  0.00     0.093 C 
ATOM     14  C   UNL A   1      37.560  34.471  30.444  1.00  0.00     0.016 C 
ATOM     15  C   UNL A   1      37.063  32.066  31.078  1.00  0.00     0.116 C 
ATOM     16  C   UNL A   1      38.928  34.008  29.962  1.00  0.00     0.018 C 
ATOM     17  N   UNL A   1      38.468  31.680  30.670  1.00  0.00    -0.197 NA
ATOM     18  C   UNL A   1      39.410  32.825  30.794  1.00  0.00     0.102 C 
BRANCH  17  19
ATOM     19  S   UNL A   1      38.952  30.249  31.521  1.00  0.00     0.243 S 
ATOM     20  O   UNL A   1      40.201  30.556  32.197  1.00  0.00    -0.207 OA
ATOM     21  O   UNL A   1      37.809  29.766  32.260  1.00  0.00    -0.207 OA
BRANCH  19  22
ATOM     22  C   UNL A   1      39.328  29.053  30.255  1.00  0.00     0.082 A 
ATOM     23  C   UNL A   1      39.027  27.703  30.481  1.00  0.00     0.023 A 
ATOM     24  C   UNL A   1      39.809  29.470  29.010  1.00  0.00     0.023 A 
ATOM     25  C   UNL A   1      39.282  26.757  29.488  1.00  0.00     0.022 A 
ATOM     26  C   UNL A   1      40.038  28.521  28.009  1.00  0.00     0.022 A 
ATOM     27  C   UNL A   1      39.787  27.169  28.256  1.00  0.00     0.041 A 
ATOM     28  Cl  UNL A   1      40.090  26.001  27.029  1.00  0.00    -0.084 Cl
ENDBRANCH  19  22
ENDBRANCH  17  19
ENDBRANCH  10  13
ENDBRANCH   8   9
ENDBRANCH   7   8
ENDBRANCH   5   7
ENDBRANCH   2   3
ENDBRANCH   1   2
BRANCH   1  29
ATOM     29  C   UNL A   1      37.926  33.083  37.772  1.00  0.00     0.002 C 
BRANCH  29  30
ATOM     30  C   UNL A   1      38.568  34.313  38.421  1.00  0.00     0.002 C 
BRANCH  30  31
ATOM     31  C   UNL A   1      39.198  34.076  39.796  1.00  0.00     0.021 C 
BRANCH  31  32
ATOM     32  C   UNL A   1      40.702  34.321  39.873  1.00  0.00     0.116 C 
BRANCH  32  33
ATOM     33  N   UNL A   1      41.055  35.725  39.730  1.00  0.00    -0.352 N 
ATOM     34  C   UNL A   1      41.695  36.353  38.689  1.00  0.00     0.251 C 
ATOM     35  H   UNL A   1      40.799  36.306  40.483  1.00  0.00     0.163 HD
ATOM     36  O   UNL A   1      42.033  37.529  38.793  1.00  0.00    -0.269 OA
BRANCH  34  37
ATOM     37  C   UNL A   1      42.003  35.601  37.452  1.00  0.00     0.039 A 
ATOM     38  C   UNL A   1      43.273  35.037  37.302  1.00  0.00     0.014 A 
ATOM     39  C   UNL A   1      41.043  35.443  36.449  1.00  0.00     0.014 A 
ATOM     40  C   UNL A   1      43.558  34.262  36.174  1.00  0.00     0.010 A 
ATOM     41  C   UNL A   1      41.307  34.615  35.361  1.00  0.00     0.010 A 
ATOM     42  C   UNL A   1      42.567  34.018  35.210  1.00  0.00    -0.014 A 
BRANCH  42  43
ATOM     43  C   UNL A   1      42.823  33.133  34.044  1.00  0.00     0.031 A 
ATOM     44  C   UNL A   1      42.970  33.716  32.665  1.00  0.00     0.074 A 
ATOM     45  C   UNL A   1      42.832  31.796  34.213  1.00  0.00     0.049 A 
ATOM     46  N   UNL A   1      43.140  33.100  31.522  1.00  0.00    -0.248 NA
ATOM     47  C   UNL A   1      42.885  35.181  32.547  1.00  0.00     0.031 C 
ATOM     48  C   UNL A   1      42.625  31.103  35.487  1.00  0.00     0.029 A 
ATOM     49  N   UNL A   1      42.997  30.778  33.306  1.00  0.00    -0.354 N 
ATOM     50  C   UNL A   1      43.146  34.095  30.551  1.00  0.00     0.074 A 
ATOM     51  C   UNL A   1      42.928  35.351  31.234  1.00  0.00     0.031 C 
ATOM     52  C   UNL A   1      42.682  29.776  35.281  1.00  0.00     0.029 A 
ATOM     53  C   UNL A   1      42.901  29.522  33.861  1.00  0.00     0.049 A 
ATOM     54  H   UNL A   1      43.167  30.933  32.349  1.00  0.00     0.167 HD
ATOM     55  C   UNL A   1      43.344  33.978  29.217  1.00  0.00     0.034 A 
ATOM     56  C   UNL A   1      42.980  28.305  33.290  1.00  0.00     0.034 A 
ATOM     57  C   UNL A   1      43.610  32.733  28.548  1.00  0.00     0.049 A 
ATOM     58  C   UNL A   1      43.241  28.204  31.811  1.00  0.00     0.074 A 
ATOM     59  C   UNL A   1      43.922  32.521  27.216  1.00  0.00     0.029 A 
ATOM     60  N   UNL A   1      43.590  31.487  29.156  1.00  0.00    -0.354 N 
ATOM     61  N   UNL A   1      43.412  29.166  30.936  1.00  0.00    -0.248 NA
ATOM     62  C   UNL A   1      43.355  26.852  31.247  1.00  0.00     0.031 C 
ATOM     63  C   UNL A   1      44.071  31.144  27.016  1.00  0.00     0.029 A 
ATOM     64  C   UNL A   1      43.873  30.500  28.227  1.00  0.00     0.049 A 
ATOM     65  H   UNL A   1      43.402  31.328  30.109  1.00  0.00     0.167 HD
ATOM     66  C   UNL A   1      43.692  28.537  29.728  1.00  0.00     0.074 A 
ATOM     67  C   UNL A   1      43.685  27.111  29.988  1.00  0.00     0.031 C 
ATOM     68  C   UNL A   1      43.919  29.089  28.510  1.00  0.00     0.034 A 
BRANCH  55  69
ATOM     69  C   UNL A   1      43.338  35.242  28.396  1.00  0.00     0.023 A 
ATOM     70  C   UNL A   1      42.107  35.798  27.989  1.00  0.00     0.012 A 
ATOM     71  C   UNL A   1      44.537  35.905  28.070  1.00  0.00     0.148 A 
ATOM     72  C   UNL A   1      42.072  36.971  27.236  1.00  0.00     0.002 A 
ATOM     73  C   UNL A   1      44.490  37.098  27.357  1.00  0.00     0.091 A 
ATOM     74  F   UNL A   1      45.698  35.351  28.446  1.00  0.00    -0.205 F 
ATOM     75  C   UNL A   1      43.261  37.626  26.930  1.00  0.00     0.022 A 
BRANCH  73  76
ATOM     76  S   UNL A   1      45.964  38.056  26.982  1.00  0.00     0.127 S 
ATOM     77  O   UNL A   1      45.396  39.208  26.282  1.00  0.00    -0.237 OA
ATOM     78  O   UNL A   1      46.489  38.352  28.315  1.00  0.00    -0.237 OA
ATOM     79  O   UNL A   1      46.810  37.187  26.177  1.00  0.00    -0.744 OA
ENDBRANCH  73  76
ENDBRANCH  55  69
BRANCH  56  80
ATOM     80  C   UNL A   1      42.895  27.079  34.134  1.00  0.00     0.023 A 
ATOM     81  C   UNL A   1      41.634  26.645  34.586  1.00  0.00     0.012 A 
ATOM     82  C   UNL A   1      44.040  26.329  34.466  1.00  0.00     0.148 A 
ATOM     83  C   UNL A   1      41.516  25.503  35.380  1.00  0.00     0.002 A 
ATOM     84  C   UNL A   1      43.909  25.162  35.211  1.00  0.00     0.091 A 
ATOM     85  F   UNL A   1      45.232  26.765  34.036  1.00  0.00    -0.205 F 
ATOM     86  C   UNL A   1      42.651  24.756  35.684  1.00  0.00     0.022 A 
BRANCH  84  87
ATOM     87  S   UNL A   1      45.297  24.071  35.542  1.00  0.00     0.127 S 
ATOM     88  O   UNL A   1      45.778  23.781  34.194  1.00  0.00    -0.237 OA
ATOM     89  O   UNL A   1      46.175  24.929  36.338  1.00  0.00    -0.237 OA
ATOM     90  O   UNL A   1      44.741  22.941  36.274  1.00  0.00    -0.744 OA
ENDBRANCH  84  87
ENDBRANCH  56  80
BRANCH  68  91
ATOM     91  C   UNL A   1      44.217  28.157  27.365  1.00  0.00     0.023 A 
ATOM     92  C   UNL A   1      43.156  27.586  26.634  1.00  0.00     0.012 A 
ATOM     93  C   UNL A   1      45.545  27.908  26.965  1.00  0.00     0.148 A 
ATOM     94  C   UNL A   1      43.413  26.756  25.543  1.00  0.00     0.002 A 
ATOM     95  C   UNL A   1      45.792  27.119  25.847  1.00  0.00     0.091 A 
ATOM     96  F   UNL A   1      46.541  28.445  27.685  1.00  0.00    -0.205 F 
ATOM     97  C   UNL A   1      44.728  26.534  25.143  1.00  0.00     0.022 A 
BRANCH  95  98
ATOM     98  S   UNL A   1      47.449  26.858  25.203  1.00  0.00     0.127 S 
ATOM     99  O   UNL A   1      47.232  25.766  24.257  1.00  0.00    -0.237 OA
ATOM    100  O   UNL A   1      47.749  28.150  24.584  1.00  0.00    -0.237 OA
ATOM    101  O   UNL A   1      48.280  26.536  26.355  1.00  0.00    -0.744 OA
ENDBRANCH  95  98
ENDBRANCH  68  91
ENDBRANCH  42  43
ENDBRANCH  34  37
ENDBRANCH  32  33
ENDBRANCH  31  32
ENDBRANCH  30  31
ENDBRANCH  29  30
ENDBRANCH   1  29
TORSDOF 21
ENDMDL
