MODEL 1
REMARK VINA RESULT:     -10.6      0.000      0.000
REMARK SMILES Cc1cc(NC(=O)CC2(CC(=O)NCCCCCCNC(=O)c3ccc(-c4c5nc(c(-c6cccc(S(=O)(=O)[O-])c6F)c6ccc([nH]6)c(-c6cccc(S(=O)(=O)[O-])c6F)c6nc(c(-c7cccc(S(=O)(=O)[O-])c7F)c7ccc4[nH]7)C=C6)C=C5)cc3)CCCC2)ccn1
REMARK SMILES IDX 16 1 15 2 14 3 13 4 11 5 12 6 10 8 9 9 86 10 89 11 87 12
REMARK SMILES IDX 88 13 8 14 6 15 5 16 7 18 4 19 1 20 2 21 3 22 92 23 91 24
REMARK SMILES IDX 90 25 17 26 18 27 19 28 20 29 21 30 22 32 23 33 24 34 85 35
REMARK SMILES IDX 25 36 84 37 26 38 27 39 28 40 78 41 29 42 83 43 77 44 79 45
REMARK SMILES IDX 30 46 82 47 76 48 75 49 31 51 63 52 43 53 62 54 44 55 47 56
REMARK SMILES IDX 61 57 80 58 45 59 46 60 60 62 81 63 48 64 32 65 33 66 41 67
REMARK SMILES IDX 34 68 36 69 42 70 35 71 37 72 38 73 39 74 40 75 64 76 65 77
REMARK SMILES IDX 73 78 66 79 68 80 74 81 67 82 69 83 70 84 71 85 72 86 49 87
REMARK SMILES IDX 50 88 58 89 51 90 53 91 59 92 52 93 54 94 55 95 56 96 57 97
REMARK H PARENT 13 7 5 17 20 31 79 50 47 61
REMARK Flexibility Score: inf
ROOT
ATOM      1  C   UNL A   1      38.690  22.467  26.126  1.00  0.00     0.002 C 
ENDROOT
BRANCH   1   2
ATOM      2  C   UNL A   1      38.031  23.843  26.052  1.00  0.00     0.021 C 
BRANCH   2   3
ATOM      3  C   UNL A   1      36.530  23.787  25.768  1.00  0.00     0.116 C 
BRANCH   3   4
ATOM      4  N   UNL A   1      35.895  22.834  26.648  1.00  0.00    -0.356 N 
ATOM      5  C   UNL A   1      34.711  22.185  26.514  1.00  0.00     0.220 C 
ATOM      6  O   UNL A   1      34.349  21.453  27.437  1.00  0.00    -0.275 OA
ATOM      7  H   UNL A   1      36.397  22.623  27.469  1.00  0.00     0.163 HD
BRANCH   5   8
ATOM      8  C   UNL A   1      33.887  22.317  25.242  1.00  0.00     0.107 C 
BRANCH   8   9
ATOM      9  C   UNL A   1      32.862  23.489  25.104  1.00  0.00    -0.012 C 
ATOM     10  C   UNL A   1      31.728  22.966  24.186  1.00  0.00     0.008 C 
ATOM     11  C   UNL A   1      33.348  24.665  24.228  1.00  0.00     0.008 C 
ATOM     12  C   UNL A   1      32.273  23.058  22.760  1.00  0.00     0.001 C 
ATOM     13  C   UNL A   1      33.257  24.219  22.774  1.00  0.00     0.001 C 
BRANCH   9  14
ATOM     14  C   UNL A   1      32.435  24.047  26.495  1.00  0.00     0.108 C 
BRANCH  14  15
ATOM     15  C   UNL A   1      30.957  24.223  26.781  1.00  0.00     0.224 C 
ATOM     16  N   UNL A   1      30.272  25.368  26.499  1.00  0.00    -0.326 N 
ATOM     17  H   UNL A   1      29.323  25.335  26.757  1.00  0.00     0.169 HD
ATOM     18  O   UNL A   1      30.302  23.285  27.251  1.00  0.00    -0.275 OA
BRANCH  16  19
ATOM     19  C   UNL A   1      30.653  26.587  25.910  1.00  0.00     0.044 A 
ATOM     20  C   UNL A   1      30.644  27.932  22.377  1.00  0.00     0.067 C 
ATOM     21  C   UNL A   1      30.838  27.823  23.858  1.00  0.00     0.039 A 
ATOM     22  C   UNL A   1      30.311  26.749  24.565  1.00  0.00     0.049 A 
ATOM     23  N   UNL A   1      31.630  28.751  24.437  1.00  0.00    -0.261 NA
ATOM     24  C   UNL A   1      31.882  28.619  25.753  1.00  0.00     0.113 A 
ATOM     25  C   UNL A   1      31.405  27.575  26.528  1.00  0.00     0.046 A 
ENDBRANCH  16  19
ENDBRANCH  14  15
ENDBRANCH   9  14
ENDBRANCH   8   9
ENDBRANCH   5   8
ENDBRANCH   3   4
ENDBRANCH   2   3
ENDBRANCH   1   2
BRANCH   1  26
ATOM     26  C   UNL A   1      38.192  21.472  25.074  1.00  0.00     0.002 C 
BRANCH  26  27
ATOM     27  C   UNL A   1      38.772  20.059  25.196  1.00  0.00     0.021 C 
BRANCH  27  28
ATOM     28  C   UNL A   1      39.551  19.805  26.484  1.00  0.00     0.116 C 
BRANCH  28  29
ATOM     29  N   UNL A   1      40.824  19.155  26.216  1.00  0.00    -0.352 N 
ATOM     30  C   UNL A   1      42.058  19.718  26.013  1.00  0.00     0.251 C 
ATOM     31  H   UNL A   1      40.797  18.172  26.176  1.00  0.00     0.163 HD
ATOM     32  O   UNL A   1      42.969  19.048  25.539  1.00  0.00    -0.269 OA
BRANCH  30  33
ATOM     33  C   UNL A   1      42.279  21.134  26.369  1.00  0.00     0.039 A 
ATOM     34  C   UNL A   1      42.439  21.481  27.712  1.00  0.00     0.014 A 
ATOM     35  C   UNL A   1      42.307  22.117  25.376  1.00  0.00     0.014 A 
ATOM     36  C   UNL A   1      42.669  22.815  28.056  1.00  0.00     0.010 A 
ATOM     37  C   UNL A   1      42.608  23.433  25.713  1.00  0.00     0.010 A 
ATOM     38  C   UNL A   1      42.776  23.797  27.058  1.00  0.00    -0.014 A 
BRANCH  38  39
ATOM     39  C   UNL A   1      43.058  25.213  27.398  1.00  0.00     0.031 A 
ATOM     40  C   UNL A   1      44.461  25.749  27.298  1.00  0.00     0.074 A 
ATOM     41  C   UNL A   1      42.068  25.993  27.875  1.00  0.00     0.049 A 
ATOM     42  N   UNL A   1      44.914  26.935  27.610  1.00  0.00    -0.248 NA
ATOM     43  C   UNL A   1      45.497  24.821  26.814  1.00  0.00     0.031 C 
ATOM     44  C   UNL A   1      40.684  25.563  28.092  1.00  0.00     0.029 A 
ATOM     45  N   UNL A   1      42.079  27.299  28.292  1.00  0.00    -0.354 N 
ATOM     46  C   UNL A   1      46.286  26.887  27.392  1.00  0.00     0.074 A 
ATOM     47  C   UNL A   1      46.598  25.543  26.957  1.00  0.00     0.031 C 
ATOM     48  C   UNL A   1      39.981  26.586  28.602  1.00  0.00     0.029 A 
ATOM     49  C   UNL A   1      40.866  27.733  28.774  1.00  0.00     0.049 A 
ATOM     50  H   UNL A   1      42.878  27.871  28.251  1.00  0.00     0.167 HD
ATOM     51  C   UNL A   1      47.199  27.880  27.512  1.00  0.00     0.034 A 
ATOM     52  C   UNL A   1      40.510  28.921  29.303  1.00  0.00     0.034 A 
ATOM     53  C   UNL A   1      46.876  29.225  27.901  1.00  0.00     0.049 A 
ATOM     54  C   UNL A   1      41.534  30.021  29.383  1.00  0.00     0.074 A 
ATOM     55  C   UNL A   1      47.713  30.325  27.972  1.00  0.00     0.029 A 
ATOM     56  N   UNL A   1      45.618  29.655  28.290  1.00  0.00    -0.354 N 
ATOM     57  N   UNL A   1      42.795  30.001  29.023  1.00  0.00    -0.248 NA
ATOM     58  C   UNL A   1      41.079  31.317  29.903  1.00  0.00     0.031 C 
ATOM     59  C   UNL A   1      46.963  31.416  28.423  1.00  0.00     0.029 A 
ATOM     60  C   UNL A   1      45.653  31.002  28.608  1.00  0.00     0.049 A 
ATOM     61  H   UNL A   1      44.815  29.086  28.335  1.00  0.00     0.167 HD
ATOM     62  C   UNL A   1      43.274  31.288  29.239  1.00  0.00     0.074 A 
ATOM     63  C   UNL A   1      42.160  32.068  29.740  1.00  0.00     0.031 C 
ATOM     64  C   UNL A   1      44.525  31.778  29.053  1.00  0.00     0.034 A 
BRANCH  51  65
ATOM     65  C   UNL A   1      48.630  27.561  27.161  1.00  0.00     0.023 A 
ATOM     66  C   UNL A   1      49.490  27.051  28.155  1.00  0.00     0.012 A 
ATOM     67  C   UNL A   1      49.106  27.706  25.843  1.00  0.00     0.148 A 
ATOM     68  C   UNL A   1      50.812  26.725  27.853  1.00  0.00     0.002 A 
ATOM     69  C   UNL A   1      50.413  27.337  25.541  1.00  0.00     0.091 A 
ATOM     70  F   UNL A   1      48.281  28.211  24.916  1.00  0.00    -0.205 F 
ATOM     71  C   UNL A   1      51.270  26.859  26.546  1.00  0.00     0.022 A 
BRANCH  69  72
ATOM     72  S   UNL A   1      51.075  27.395  23.872  1.00  0.00     0.127 S 
ATOM     73  O   UNL A   1      50.033  26.704  23.116  1.00  0.00    -0.237 OA
ATOM     74  O   UNL A   1      51.156  28.835  23.623  1.00  0.00    -0.237 OA
ATOM     75  O   UNL A   1      52.362  26.716  23.926  1.00  0.00    -0.744 OA
ENDBRANCH  69  72
ENDBRANCH  51  65
BRANCH  52  76
ATOM     76  C   UNL A   1      39.103  29.150  29.737  1.00  0.00     0.023 A 
ATOM     77  C   UNL A   1      38.714  28.787  31.043  1.00  0.00     0.012 A 
ATOM     78  C   UNL A   1      38.160  29.748  28.881  1.00  0.00     0.148 A 
ATOM     79  C   UNL A   1      37.403  28.986  31.474  1.00  0.00     0.002 A 
ATOM     80  C   UNL A   1      36.870  29.995  29.337  1.00  0.00     0.091 A 
ATOM     81  F   UNL A   1      38.546  30.076  27.640  1.00  0.00    -0.205 F 
ATOM     82  C   UNL A   1      36.484  29.598  30.626  1.00  0.00     0.022 A 
BRANCH  80  83
ATOM     83  S   UNL A   1      35.662  30.898  28.361  1.00  0.00     0.127 S 
ATOM     84  O   UNL A   1      35.153  29.857  27.474  1.00  0.00    -0.237 OA
ATOM     85  O   UNL A   1      34.721  31.350  29.387  1.00  0.00    -0.237 OA
ATOM     86  O   UNL A   1      36.404  31.974  27.717  1.00  0.00    -0.744 OA
ENDBRANCH  80  83
ENDBRANCH  52  76
BRANCH  64  87
ATOM     87  C   UNL A   1      44.757  33.234  29.355  1.00  0.00     0.023 A 
ATOM     88  C   UNL A   1      45.188  33.625  30.639  1.00  0.00     0.012 A 
ATOM     89  C   UNL A   1      44.624  34.206  28.344  1.00  0.00     0.148 A 
ATOM     90  C   UNL A   1      45.451  34.965  30.919  1.00  0.00     0.002 A 
ATOM     91  C   UNL A   1      44.936  35.532  28.618  1.00  0.00     0.091 A 
ATOM     92  F   UNL A   1      44.195  33.816  27.134  1.00  0.00    -0.205 F 
ATOM     93  C   UNL A   1      45.338  35.915  29.907  1.00  0.00     0.022 A 
BRANCH  91  94
ATOM     94  S   UNL A   1      44.913  36.806  27.351  1.00  0.00     0.127 S 
ATOM     95  O   UNL A   1      45.381  37.974  28.096  1.00  0.00    -0.237 OA
ATOM     96  O   UNL A   1      45.867  36.286  26.371  1.00  0.00    -0.237 OA
ATOM     97  O   UNL A   1      43.538  36.876  26.876  1.00  0.00    -0.744 OA
ENDBRANCH  91  94
ENDBRANCH  64  87
ENDBRANCH  38  39
ENDBRANCH  30  33
ENDBRANCH  28  29
ENDBRANCH  27  28
ENDBRANCH  26  27
ENDBRANCH   1  26
TORSDOF 20
ENDMDL
MODEL 2
REMARK VINA RESULT:     -10.5      5.810      9.516
REMARK SMILES Cc1cc(NC(=O)CC2(CC(=O)NCCCCCCNC(=O)c3ccc(-c4c5nc(c(-c6cccc(S(=O)(=O)[O-])c6F)c6ccc([nH]6)c(-c6cccc(S(=O)(=O)[O-])c6F)c6nc(c(-c7cccc(S(=O)(=O)[O-])c7F)c7ccc4[nH]7)C=C6)C=C5)cc3)CCCC2)ccn1
REMARK SMILES IDX 16 1 15 2 14 3 13 4 11 5 12 6 10 8 9 9 86 10 89 11 87 12
REMARK SMILES IDX 88 13 8 14 6 15 5 16 7 18 4 19 1 20 2 21 3 22 92 23 91 24
REMARK SMILES IDX 90 25 17 26 18 27 19 28 20 29 21 30 22 32 23 33 24 34 85 35
REMARK SMILES IDX 25 36 84 37 26 38 27 39 28 40 78 41 29 42 83 43 77 44 79 45
REMARK SMILES IDX 30 46 82 47 76 48 75 49 31 51 63 52 43 53 62 54 44 55 47 56
REMARK SMILES IDX 61 57 80 58 45 59 46 60 60 62 81 63 48 64 32 65 33 66 41 67
REMARK SMILES IDX 34 68 36 69 42 70 35 71 37 72 38 73 39 74 40 75 64 76 65 77
REMARK SMILES IDX 73 78 66 79 68 80 74 81 67 82 69 83 70 84 71 85 72 86 49 87
REMARK SMILES IDX 50 88 58 89 51 90 53 91 59 92 52 93 54 94 55 95 56 96 57 97
REMARK H PARENT 13 7 5 17 20 31 79 50 47 61
REMARK Flexibility Score: inf
ROOT
ATOM      1  C   UNL A   1      31.982  29.409  26.810  1.00  0.00     0.002 C 
ENDROOT
BRANCH   1   2
ATOM      2  C   UNL A   1      33.293  28.731  26.415  1.00  0.00     0.021 C 
BRANCH   2   3
ATOM      3  C   UNL A   1      33.160  27.224  26.196  1.00  0.00     0.116 C 
BRANCH   3   4
ATOM      4  N   UNL A   1      31.769  26.870  26.029  1.00  0.00    -0.356 N 
ATOM      5  C   UNL A   1      31.162  25.663  26.157  1.00  0.00     0.220 C 
ATOM      6  O   UNL A   1      29.956  25.597  25.906  1.00  0.00    -0.275 OA
ATOM      7  H   UNL A   1      31.173  27.615  25.786  1.00  0.00     0.163 HD
BRANCH   5   8
ATOM      8  C   UNL A   1      31.933  24.448  26.649  1.00  0.00     0.107 C 
BRANCH   8   9
ATOM      9  C   UNL A   1      32.563  23.463  25.612  1.00  0.00    -0.012 C 
ATOM     10  C   UNL A   1      32.939  22.184  26.403  1.00  0.00     0.008 C 
ATOM     11  C   UNL A   1      33.974  23.861  25.126  1.00  0.00     0.008 C 
ATOM     12  C   UNL A   1      34.245  22.515  27.128  1.00  0.00     0.001 C 
ATOM     13  C   UNL A   1      34.952  23.537  26.249  1.00  0.00     0.001 C 
BRANCH   9  14
ATOM     14  C   UNL A   1      31.643  23.269  24.368  1.00  0.00     0.108 C 
BRANCH  14  15
ATOM     15  C   UNL A   1      32.289  23.150  23.002  1.00  0.00     0.224 C 
ATOM     16  N   UNL A   1      32.454  24.209  22.159  1.00  0.00    -0.326 N 
ATOM     17  H   UNL A   1      32.876  23.969  21.302  1.00  0.00     0.169 HD
ATOM     18  O   UNL A   1      32.740  22.062  22.624  1.00  0.00    -0.275 OA
BRANCH  16  19
ATOM     19  C   UNL A   1      32.144  25.575  22.270  1.00  0.00     0.044 A 
ATOM     20  C   UNL A   1      34.177  28.707  22.862  1.00  0.00     0.067 C 
ATOM     21  C   UNL A   1      33.021  27.782  22.634  1.00  0.00     0.039 A 
ATOM     22  C   UNL A   1      33.234  26.448  22.308  1.00  0.00     0.049 A 
ATOM     23  N   UNL A   1      31.788  28.282  22.865  1.00  0.00    -0.261 NA
ATOM     24  C   UNL A   1      30.744  27.440  22.746  1.00  0.00     0.113 A 
ATOM     25  C   UNL A   1      30.869  26.096  22.434  1.00  0.00     0.046 A 
ENDBRANCH  16  19
ENDBRANCH  14  15
ENDBRANCH   9  14
ENDBRANCH   8   9
ENDBRANCH   5   8
ENDBRANCH   3   4
ENDBRANCH   2   3
ENDBRANCH   1   2
BRANCH   1  26
ATOM     26  C   UNL A   1      31.479  30.446  25.802  1.00  0.00     0.002 C 
BRANCH  26  27
ATOM     27  C   UNL A   1      31.370  31.874  26.345  1.00  0.00     0.021 C 
BRANCH  27  28
ATOM     28  C   UNL A   1      32.649  32.406  26.986  1.00  0.00     0.116 C 
BRANCH  28  29
ATOM     29  N   UNL A   1      32.509  33.800  27.377  1.00  0.00    -0.352 N 
ATOM     30  C   UNL A   1      33.110  34.475  28.408  1.00  0.00     0.251 C 
ATOM     31  H   UNL A   1      31.896  34.334  26.823  1.00  0.00     0.163 HD
ATOM     32  O   UNL A   1      32.681  35.570  28.760  1.00  0.00    -0.269 OA
BRANCH  30  33
ATOM     33  C   UNL A   1      34.274  33.876  29.090  1.00  0.00     0.039 A 
ATOM     34  C   UNL A   1      34.064  32.884  30.049  1.00  0.00     0.014 A 
ATOM     35  C   UNL A   1      35.569  34.310  28.793  1.00  0.00     0.014 A 
ATOM     36  C   UNL A   1      35.160  32.297  30.684  1.00  0.00     0.010 A 
ATOM     37  C   UNL A   1      36.662  33.675  29.373  1.00  0.00     0.010 A 
ATOM     38  C   UNL A   1      36.468  32.672  30.336  1.00  0.00    -0.014 A 
BRANCH  38  39
ATOM     39  C   UNL A   1      37.648  32.035  30.970  1.00  0.00     0.031 A 
ATOM     40  C   UNL A   1      38.424  30.979  30.230  1.00  0.00     0.074 A 
ATOM     41  C   UNL A   1      37.969  32.346  32.241  1.00  0.00     0.049 A 
ATOM     42  N   UNL A   1      39.441  30.266  30.639  1.00  0.00    -0.248 NA
ATOM     43  C   UNL A   1      37.981  30.660  28.862  1.00  0.00     0.031 C 
ATOM     44  C   UNL A   1      37.244  33.296  33.088  1.00  0.00     0.029 A 
ATOM     45  N   UNL A   1      38.970  31.876  33.052  1.00  0.00    -0.354 N 
ATOM     46  C   UNL A   1      39.738  29.395  29.597  1.00  0.00     0.074 A 
ATOM     47  C   UNL A   1      38.770  29.642  28.551  1.00  0.00     0.031 C 
ATOM     48  C   UNL A   1      37.822  33.337  34.298  1.00  0.00     0.029 A 
ATOM     49  C   UNL A   1      38.941  32.400  34.324  1.00  0.00     0.049 A 
ATOM     50  H   UNL A   1      39.645  31.225  32.753  1.00  0.00     0.167 HD
ATOM     51  C   UNL A   1      40.744  28.494  29.506  1.00  0.00     0.034 A 
ATOM     52  C   UNL A   1      39.723  32.146  35.392  1.00  0.00     0.034 A 
ATOM     53  C   UNL A   1      41.730  28.284  30.530  1.00  0.00     0.049 A 
ATOM     54  C   UNL A   1      40.861  31.174  35.249  1.00  0.00     0.074 A 
ATOM     55  C   UNL A   1      42.838  27.456  30.502  1.00  0.00     0.029 A 
ATOM     56  N   UNL A   1      41.726  28.903  31.770  1.00  0.00    -0.354 N 
ATOM     57  N   UNL A   1      41.220  30.473  34.199  1.00  0.00    -0.248 NA
ATOM     58  C   UNL A   1      41.726  30.984  36.421  1.00  0.00     0.031 C 
ATOM     59  C   UNL A   1      43.493  27.560  31.733  1.00  0.00     0.029 A 
ATOM     60  C   UNL A   1      42.808  28.473  32.519  1.00  0.00     0.049 A 
ATOM     61  H   UNL A   1      41.052  29.554  32.074  1.00  0.00     0.167 HD
ATOM     62  C   UNL A   1      42.372  29.789  34.573  1.00  0.00     0.074 A 
ATOM     63  C   UNL A   1      42.661  30.177  35.939  1.00  0.00     0.031 C 
ATOM     64  C   UNL A   1      43.114  28.909  33.857  1.00  0.00     0.034 A 
BRANCH  51  65
ATOM     65  C   UNL A   1      40.863  27.705  28.227  1.00  0.00     0.023 A 
ATOM     66  C   UNL A   1      41.499  28.287  27.110  1.00  0.00     0.012 A 
ATOM     67  C   UNL A   1      40.404  26.376  28.145  1.00  0.00     0.148 A 
ATOM     68  C   UNL A   1      41.645  27.572  25.922  1.00  0.00     0.002 A 
ATOM     69  C   UNL A   1      40.593  25.655  26.970  1.00  0.00     0.091 A 
ATOM     70  F   UNL A   1      39.784  25.846  29.209  1.00  0.00    -0.205 F 
ATOM     71  C   UNL A   1      41.201  26.255  25.855  1.00  0.00     0.022 A 
BRANCH  69  72
ATOM     72  S   UNL A   1      40.129  23.927  26.809  1.00  0.00     0.127 S 
ATOM     73  O   UNL A   1      38.736  24.034  26.381  1.00  0.00    -0.237 OA
ATOM     74  O   UNL A   1      41.051  23.457  25.774  1.00  0.00    -0.237 OA
ATOM     75  O   UNL A   1      40.335  23.331  28.121  1.00  0.00    -0.744 OA
ENDBRANCH  69  72
ENDBRANCH  51  65
BRANCH  52  76
ATOM     76  C   UNL A   1      39.493  32.877  36.671  1.00  0.00     0.023 A 
ATOM     77  C   UNL A   1      40.158  34.097  36.900  1.00  0.00     0.012 A 
ATOM     78  C   UNL A   1      38.600  32.388  37.643  1.00  0.00     0.148 A 
ATOM     79  C   UNL A   1      39.965  34.800  38.089  1.00  0.00     0.002 A 
ATOM     80  C   UNL A   1      38.369  33.122  38.801  1.00  0.00     0.091 A 
ATOM     81  F   UNL A   1      37.984  31.220  37.411  1.00  0.00    -0.205 F 
ATOM     82  C   UNL A   1      39.064  34.319  39.035  1.00  0.00     0.022 A 
BRANCH  80  83
ATOM     83  S   UNL A   1      37.128  32.646  40.009  1.00  0.00     0.127 S 
ATOM     84  O   UNL A   1      35.916  32.612  39.197  1.00  0.00    -0.237 OA
ATOM     85  O   UNL A   1      37.616  31.337  40.445  1.00  0.00    -0.237 OA
ATOM     86  O   UNL A   1      37.172  33.673  41.042  1.00  0.00    -0.744 OA
ENDBRANCH  80  83
ENDBRANCH  52  76
BRANCH  64  87
ATOM     87  C   UNL A   1      44.336  28.327  34.516  1.00  0.00     0.023 A 
ATOM     88  C   UNL A   1      45.561  29.022  34.461  1.00  0.00     0.012 A 
ATOM     89  C   UNL A   1      44.250  27.132  35.257  1.00  0.00     0.148 A 
ATOM     90  C   UNL A   1      46.689  28.517  35.107  1.00  0.00     0.002 A 
ATOM     91  C   UNL A   1      45.366  26.662  35.938  1.00  0.00     0.091 A 
ATOM     92  F   UNL A   1      43.080  26.477  35.281  1.00  0.00    -0.205 F 
ATOM     93  C   UNL A   1      46.589  27.346  35.854  1.00  0.00     0.022 A 
BRANCH  91  94
ATOM     94  S   UNL A   1      45.304  25.217  37.003  1.00  0.00     0.127 S 
ATOM     95  O   UNL A   1      44.633  24.242  36.144  1.00  0.00    -0.237 OA
ATOM     96  O   UNL A   1      46.723  24.945  37.240  1.00  0.00    -0.237 OA
ATOM     97  O   UNL A   1      44.562  25.623  38.189  1.00  0.00    -0.744 OA
ENDBRANCH  91  94
ENDBRANCH  64  87
ENDBRANCH  38  39
ENDBRANCH  30  33
ENDBRANCH  28  29
ENDBRANCH  27  28
ENDBRANCH  26  27
ENDBRANCH   1  26
TORSDOF 20
ENDMDL
MODEL 3
REMARK VINA RESULT:     -10.5      1.710      7.660
REMARK SMILES Cc1cc(NC(=O)CC2(CC(=O)NCCCCCCNC(=O)c3ccc(-c4c5nc(c(-c6cccc(S(=O)(=O)[O-])c6F)c6ccc([nH]6)c(-c6cccc(S(=O)(=O)[O-])c6F)c6nc(c(-c7cccc(S(=O)(=O)[O-])c7F)c7ccc4[nH]7)C=C6)C=C5)cc3)CCCC2)ccn1
REMARK SMILES IDX 16 1 15 2 14 3 13 4 11 5 12 6 10 8 9 9 86 10 89 11 87 12
REMARK SMILES IDX 88 13 8 14 6 15 5 16 7 18 4 19 1 20 2 21 3 22 92 23 91 24
REMARK SMILES IDX 90 25 17 26 18 27 19 28 20 29 21 30 22 32 23 33 24 34 85 35
REMARK SMILES IDX 25 36 84 37 26 38 27 39 28 40 78 41 29 42 83 43 77 44 79 45
REMARK SMILES IDX 30 46 82 47 76 48 75 49 31 51 63 52 43 53 62 54 44 55 47 56
REMARK SMILES IDX 61 57 80 58 45 59 46 60 60 62 81 63 48 64 32 65 33 66 41 67
REMARK SMILES IDX 34 68 36 69 42 70 35 71 37 72 38 73 39 74 40 75 64 76 65 77
REMARK SMILES IDX 73 78 66 79 68 80 74 81 67 82 69 83 70 84 71 85 72 86 49 87
REMARK SMILES IDX 50 88 58 89 51 90 53 91 59 92 52 93 54 94 55 95 56 96 57 97
REMARK H PARENT 13 7 5 17 20 31 79 50 47 61
REMARK Flexibility Score: inf
ROOT
ATOM      1  C   UNL A   1      37.468  21.461  24.943  1.00  0.00     0.002 C 
ENDROOT
BRANCH   1   2
ATOM      2  C   UNL A   1      36.109  22.129  25.144  1.00  0.00     0.021 C 
BRANCH   2   3
ATOM      3  C   UNL A   1      35.407  21.709  26.436  1.00  0.00     0.116 C 
BRANCH   3   4
ATOM      4  N   UNL A   1      34.292  20.843  26.133  1.00  0.00    -0.356 N 
ATOM      5  C   UNL A   1      33.256  21.031  25.276  1.00  0.00     0.220 C 
ATOM      6  O   UNL A   1      32.383  20.162  25.230  1.00  0.00    -0.275 OA
ATOM      7  H   UNL A   1      34.280  19.988  26.621  1.00  0.00     0.163 HD
BRANCH   5   8
ATOM      8  C   UNL A   1      33.207  22.248  24.365  1.00  0.00     0.107 C 
BRANCH   8   9
ATOM      9  C   UNL A   1      32.434  23.526  24.826  1.00  0.00    -0.012 C 
ATOM     10  C   UNL A   1      32.635  24.580  23.706  1.00  0.00     0.008 C 
ATOM     11  C   UNL A   1      33.100  24.293  25.989  1.00  0.00     0.008 C 
ATOM     12  C   UNL A   1      34.037  25.151  23.920  1.00  0.00     0.001 C 
ATOM     13  C   UNL A   1      34.297  25.043  25.417  1.00  0.00     0.001 C 
BRANCH   9  14
ATOM     14  C   UNL A   1      30.962  23.198  25.222  1.00  0.00     0.108 C 
BRANCH  14  15
ATOM     15  C   UNL A   1      30.347  23.938  26.392  1.00  0.00     0.224 C 
ATOM     16  N   UNL A   1      30.015  25.261  26.349  1.00  0.00    -0.326 N 
ATOM     17  H   UNL A   1      29.639  25.602  27.193  1.00  0.00     0.169 HD
ATOM     18  O   UNL A   1      30.078  23.332  27.435  1.00  0.00    -0.275 OA
BRANCH  16  19
ATOM     19  C   UNL A   1      30.100  26.234  25.338  1.00  0.00     0.044 A 
ATOM     20  C   UNL A   1      31.828  29.582  25.032  1.00  0.00     0.067 C 
ATOM     21  C   UNL A   1      30.997  28.375  24.721  1.00  0.00     0.039 A 
ATOM     22  C   UNL A   1      31.010  27.269  25.562  1.00  0.00     0.049 A 
ATOM     23  N   UNL A   1      30.169  28.465  23.658  1.00  0.00    -0.261 NA
ATOM     24  C   UNL A   1      29.354  27.420  23.414  1.00  0.00     0.113 A 
ATOM     25  C   UNL A   1      29.298  26.286  24.207  1.00  0.00     0.046 A 
ENDBRANCH  16  19
ENDBRANCH  14  15
ENDBRANCH   9  14
ENDBRANCH   8   9
ENDBRANCH   5   8
ENDBRANCH   3   4
ENDBRANCH   2   3
ENDBRANCH   1   2
BRANCH   1  26
ATOM     26  C   UNL A   1      37.395  19.966  24.617  1.00  0.00     0.002 C 
BRANCH  26  27
ATOM     27  C   UNL A   1      38.414  19.093  25.356  1.00  0.00     0.021 C 
BRANCH  27  28
ATOM     28  C   UNL A   1      39.645  19.845  25.856  1.00  0.00     0.116 C 
BRANCH  28  29
ATOM     29  N   UNL A   1      40.771  18.947  26.059  1.00  0.00    -0.352 N 
ATOM     30  C   UNL A   1      42.102  19.246  26.198  1.00  0.00     0.251 C 
ATOM     31  H   UNL A   1      40.545  17.991  26.103  1.00  0.00     0.163 HD
ATOM     32  O   UNL A   1      42.945  18.360  26.095  1.00  0.00    -0.269 OA
BRANCH  30  33
ATOM     33  C   UNL A   1      42.511  20.637  26.473  1.00  0.00     0.039 A 
ATOM     34  C   UNL A   1      42.601  21.071  27.797  1.00  0.00     0.014 A 
ATOM     35  C   UNL A   1      42.785  21.515  25.420  1.00  0.00     0.014 A 
ATOM     36  C   UNL A   1      43.007  22.379  28.067  1.00  0.00     0.010 A 
ATOM     37  C   UNL A   1      43.259  22.795  25.692  1.00  0.00     0.010 A 
ATOM     38  C   UNL A   1      43.360  23.244  27.018  1.00  0.00    -0.014 A 
BRANCH  38  39
ATOM     39  C   UNL A   1      43.830  24.626  27.283  1.00  0.00     0.031 A 
ATOM     40  C   UNL A   1      42.863  25.672  27.770  1.00  0.00     0.074 A 
ATOM     41  C   UNL A   1      45.106  24.959  27.006  1.00  0.00     0.049 A 
ATOM     42  N   UNL A   1      43.070  26.943  27.998  1.00  0.00    -0.248 NA
ATOM     43  C   UNL A   1      41.474  25.240  28.003  1.00  0.00     0.031 C 
ATOM     44  C   UNL A   1      46.116  24.052  26.455  1.00  0.00     0.029 A 
ATOM     45  N   UNL A   1      45.764  26.157  27.123  1.00  0.00    -0.354 N 
ATOM     46  C   UNL A   1      41.837  27.468  28.367  1.00  0.00     0.074 A 
ATOM     47  C   UNL A   1      40.879  26.386  28.297  1.00  0.00     0.031 C 
ATOM     48  C   UNL A   1      47.263  24.727  26.280  1.00  0.00     0.029 A 
ATOM     49  C   UNL A   1      47.065  26.116  26.680  1.00  0.00     0.049 A 
ATOM     50  H   UNL A   1      45.344  26.969  27.487  1.00  0.00     0.167 HD
ATOM     51  C   UNL A   1      41.535  28.728  28.760  1.00  0.00     0.034 A 
ATOM     52  C   UNL A   1      47.992  27.092  26.598  1.00  0.00     0.034 A 
ATOM     53  C   UNL A   1      42.501  29.787  28.870  1.00  0.00     0.049 A 
ATOM     54  C   UNL A   1      47.643  28.472  27.083  1.00  0.00     0.074 A 
ATOM     55  C   UNL A   1      42.314  31.076  29.338  1.00  0.00     0.029 A 
ATOM     56  N   UNL A   1      43.833  29.684  28.504  1.00  0.00    -0.354 N 
ATOM     57  N   UNL A   1      46.510  28.911  27.578  1.00  0.00    -0.248 NA
ATOM     58  C   UNL A   1      48.709  29.483  27.038  1.00  0.00     0.031 C 
ATOM     59  C   UNL A   1      43.531  31.758  29.236  1.00  0.00     0.029 A 
ATOM     60  C   UNL A   1      44.482  30.887  28.730  1.00  0.00     0.049 A 
ATOM     61  H   UNL A   1      44.257  28.875  28.138  1.00  0.00     0.167 HD
ATOM     62  C   UNL A   1      46.737  30.235  27.935  1.00  0.00     0.074 A 
ATOM     63  C   UNL A   1      48.123  30.520  27.620  1.00  0.00     0.031 C 
ATOM     64  C   UNL A   1      45.874  31.138  28.463  1.00  0.00     0.034 A 
BRANCH  51  65
ATOM     65  C   UNL A   1      40.110  29.015  29.156  1.00  0.00     0.023 A 
ATOM     66  C   UNL A   1      39.139  29.218  28.153  1.00  0.00     0.012 A 
ATOM     67  C   UNL A   1      39.718  29.026  30.509  1.00  0.00     0.148 A 
ATOM     68  C   UNL A   1      37.808  29.462  28.490  1.00  0.00     0.002 A 
ATOM     69  C   UNL A   1      38.381  29.226  30.835  1.00  0.00     0.091 A 
ATOM     70  F   UNL A   1      40.658  28.852  31.449  1.00  0.00    -0.205 F 
ATOM     71  C   UNL A   1      37.428  29.456  29.829  1.00  0.00     0.022 A 
BRANCH  69  72
ATOM     72  S   UNL A   1      37.774  29.159  32.524  1.00  0.00     0.127 S 
ATOM     73  O   UNL A   1      36.422  29.692  32.374  1.00  0.00    -0.237 OA
ATOM     74  O   UNL A   1      37.837  27.726  32.817  1.00  0.00    -0.237 OA
ATOM     75  O   UNL A   1      38.685  29.979  33.311  1.00  0.00    -0.744 OA
ENDBRANCH  69  72
ENDBRANCH  51  65
BRANCH  52  76
ATOM     76  C   UNL A   1      49.359  26.777  26.095  1.00  0.00     0.023 A 
ATOM     77  C   UNL A   1      50.237  26.024  26.901  1.00  0.00     0.012 A 
ATOM     78  C   UNL A   1      49.783  27.190  24.818  1.00  0.00     0.148 A 
ATOM     79  C   UNL A   1      51.523  25.718  26.456  1.00  0.00     0.002 A 
ATOM     80  C   UNL A   1      51.046  26.834  24.359  1.00  0.00     0.091 A 
ATOM     81  F   UNL A   1      48.937  27.914  24.071  1.00  0.00    -0.205 F 
ATOM     82  C   UNL A   1      51.924  26.114  25.184  1.00  0.00     0.022 A 
BRANCH  80  83
ATOM     83  S   UNL A   1      51.595  27.184  22.685  1.00  0.00     0.127 S 
ATOM     84  O   UNL A   1      52.798  26.364  22.586  1.00  0.00    -0.237 OA
ATOM     85  O   UNL A   1      50.460  26.714  21.890  1.00  0.00    -0.237 OA
ATOM     86  O   UNL A   1      51.803  28.625  22.635  1.00  0.00    -0.744 OA
ENDBRANCH  80  83
ENDBRANCH  52  76
BRANCH  64  87
ATOM     87  C   UNL A   1      46.404  32.513  28.771  1.00  0.00     0.023 A 
ATOM     88  C   UNL A   1      47.054  32.757  29.998  1.00  0.00     0.012 A 
ATOM     89  C   UNL A   1      46.329  33.542  27.811  1.00  0.00     0.148 A 
ATOM     90  C   UNL A   1      47.590  34.014  30.276  1.00  0.00     0.002 A 
ATOM     91  C   UNL A   1      46.909  34.776  28.077  1.00  0.00     0.091 A 
ATOM     92  F   UNL A   1      45.691  33.295  26.657  1.00  0.00    -0.205 F 
ATOM     93  C   UNL A   1      47.530  35.017  29.313  1.00  0.00     0.022 A 
BRANCH  91  94
ATOM     94  S   UNL A   1      46.965  36.095  26.858  1.00  0.00     0.127 S 
ATOM     95  O   UNL A   1      47.706  37.132  27.575  1.00  0.00    -0.237 OA
ATOM     96  O   UNL A   1      47.702  35.470  25.759  1.00  0.00    -0.237 OA
ATOM     97  O   UNL A   1      45.578  36.416  26.549  1.00  0.00    -0.744 OA
ENDBRANCH  91  94
ENDBRANCH  64  87
ENDBRANCH  38  39
ENDBRANCH  30  33
ENDBRANCH  28  29
ENDBRANCH  27  28
ENDBRANCH  26  27
ENDBRANCH   1  26
TORSDOF 20
ENDMDL
