MODEL 1
REMARK VINA RESULT:     -11.5      0.000      0.000
REMARK SMILES Cc1nn(Cc2ccc(C(=O)NCCCCCCNC(=O)c3ccc(-c4c5nc(c(-c6cccc(S(=O)(=O)[O-])c6F)c6ccc([nH]6)c(-c6cccc(S(=O)(=O)[O-])c6F)c6nc(c(-c7cccc(S(=O)(=O)[O-])c7F)c7ccc4[nH]7)C=C6)C=C5)cc3)o2)c(C)c1C
REMARK SMILES IDX 16 1 15 2 14 3 13 4 12 5 10 6 11 7 9 9 6 10 7 11 85 12 8 13
REMARK SMILES IDX 5 14 4 15 1 16 2 17 3 18 88 19 86 20 89 21 87 22 17 23 18 24
REMARK SMILES IDX 19 25 20 26 21 28 22 29 23 30 84 31 24 32 83 33 25 34 26 35
REMARK SMILES IDX 27 36 77 37 28 38 82 39 76 40 78 41 29 42 81 43 75 44 74 45
REMARK SMILES IDX 30 47 62 48 42 49 61 50 43 51 46 52 60 53 79 54 44 55 45 56
REMARK SMILES IDX 59 58 80 59 47 60 31 61 32 62 40 63 33 64 35 65 41 66 34 67
REMARK SMILES IDX 36 68 37 69 38 70 39 71 63 72 64 73 72 74 65 75 67 76 73 77
REMARK SMILES IDX 66 78 68 79 69 80 70 81 71 82 48 83 49 84 57 85 50 86 52 87
REMARK SMILES IDX 58 88 51 89 53 90 54 91 55 92 56 93
REMARK H PARENT 12 8 19 27 78 46 46 57
REMARK Flexibility Score: inf
ROOT
ATOM      1  C   UNL A   1      32.017  29.283  26.894  1.00  0.00     0.002 C 
ENDROOT
BRANCH   1   2
ATOM      2  C   UNL A   1      31.345  28.243  25.984  1.00  0.00     0.002 C 
BRANCH   2   3
ATOM      3  C   UNL A   1      31.065  26.870  26.607  1.00  0.00     0.021 C 
BRANCH   3   4
ATOM      4  C   UNL A   1      30.234  25.921  25.747  1.00  0.00     0.116 C 
BRANCH   4   5
ATOM      5  N   UNL A   1      29.704  24.806  26.513  1.00  0.00    -0.349 N 
ATOM      6  C   UNL A   1      30.273  23.631  26.942  1.00  0.00     0.286 C 
ATOM      7  O   UNL A   1      29.532  22.880  27.585  1.00  0.00    -0.266 OA
ATOM      8  H   UNL A   1      28.760  24.911  26.772  1.00  0.00     0.163 HD
BRANCH   6   9
ATOM      9  C   UNL A   1      31.662  23.298  26.686  1.00  0.00     0.191 A 
ATOM     10  C   UNL A   1      33.579  23.199  25.587  1.00  0.00     0.126 A 
ATOM     11  C   UNL A   1      33.788  22.557  26.789  1.00  0.00     0.048 A 
ATOM     12  O   UNL A   1      32.304  23.678  25.541  1.00  0.00    -0.454 OA
ATOM     13  C   UNL A   1      32.562  22.621  27.492  1.00  0.00     0.056 A 
BRANCH  10  14
ATOM     14  C   UNL A   1      34.446  23.501  24.416  1.00  0.00     0.219 C 
BRANCH  14  15
ATOM     15  N   UNL A   1      33.939  24.605  23.608  1.00  0.00    -0.262 N 
ATOM     16  C   UNL A   1      32.550  25.657  20.530  1.00  0.00     0.069 C 
ATOM     17  C   UNL A   1      33.160  25.563  21.879  1.00  0.00     0.063 A 
ATOM     18  N   UNL A   1      33.558  24.366  22.331  1.00  0.00    -0.177 NA
ATOM     19  C   UNL A   1      33.416  26.596  22.819  1.00  0.00    -0.007 A 
ATOM     20  C   UNL A   1      33.929  25.941  23.927  1.00  0.00     0.039 A 
ATOM     21  C   UNL A   1      33.184  28.058  22.683  1.00  0.00     0.048 C 
ATOM     22  C   UNL A   1      34.376  26.489  25.235  1.00  0.00     0.066 C 
ENDBRANCH  14  15
ENDBRANCH  10  14
ENDBRANCH   6   9
ENDBRANCH   4   5
ENDBRANCH   3   4
ENDBRANCH   2   3
ENDBRANCH   1   2
BRANCH   1  23
ATOM     23  C   UNL A   1      33.210  30.048  26.305  1.00  0.00     0.021 C 
BRANCH  23  24
ATOM     24  C   UNL A   1      34.381  30.193  27.263  1.00  0.00     0.116 C 
BRANCH  24  25
ATOM     25  N   UNL A   1      34.240  31.346  28.160  1.00  0.00    -0.352 N 
ATOM     26  C   UNL A   1      34.958  31.631  29.313  1.00  0.00     0.251 C 
ATOM     27  H   UNL A   1      33.547  31.999  27.913  1.00  0.00     0.163 HD
ATOM     28  O   UNL A   1      34.534  32.410  30.146  1.00  0.00    -0.269 OA
BRANCH  26  29
ATOM     29  C   UNL A   1      36.269  30.981  29.488  1.00  0.00     0.039 A 
ATOM     30  C   UNL A   1      36.414  29.596  29.636  1.00  0.00     0.014 A 
ATOM     31  C   UNL A   1      37.379  31.817  29.487  1.00  0.00     0.014 A 
ATOM     32  C   UNL A   1      37.699  29.061  29.722  1.00  0.00     0.010 A 
ATOM     33  C   UNL A   1      38.623  31.281  29.350  1.00  0.00     0.010 A 
ATOM     34  C   UNL A   1      38.792  29.920  29.576  1.00  0.00    -0.014 A 
BRANCH  34  35
ATOM     35  C   UNL A   1      40.175  29.470  29.616  1.00  0.00     0.031 A 
ATOM     36  C   UNL A   1      40.720  29.264  30.985  1.00  0.00     0.074 A 
ATOM     37  C   UNL A   1      40.719  28.926  28.502  1.00  0.00     0.049 A 
ATOM     38  N   UNL A   1      41.697  29.883  31.562  1.00  0.00    -0.248 NA
ATOM     39  C   UNL A   1      39.976  28.367  31.887  1.00  0.00     0.031 C 
ATOM     40  C   UNL A   1      40.064  28.723  27.197  1.00  0.00     0.029 A 
ATOM     41  N   UNL A   1      41.883  28.245  28.355  1.00  0.00    -0.354 N 
ATOM     42  C   UNL A   1      41.840  29.268  32.808  1.00  0.00     0.074 A 
ATOM     43  C   UNL A   1      40.606  28.575  33.043  1.00  0.00     0.031 C 
ATOM     44  C   UNL A   1      40.711  27.751  26.516  1.00  0.00     0.029 A 
ATOM     45  C   UNL A   1      41.907  27.392  27.252  1.00  0.00     0.049 A 
ATOM     46  H   UNL A   1      42.644  28.343  28.973  1.00  0.00     0.167 HD
ATOM     47  C   UNL A   1      43.064  29.119  33.393  1.00  0.00     0.034 A 
ATOM     48  C   UNL A   1      42.809  26.413  27.005  1.00  0.00     0.034 A 
ATOM     49  C   UNL A   1      44.049  29.927  32.710  1.00  0.00     0.049 A 
ATOM     50  C   UNL A   1      43.980  26.677  27.872  1.00  0.00     0.074 A 
ATOM     51  C   UNL A   1      44.209  31.270  32.439  1.00  0.00     0.029 A 
ATOM     52  N   UNL A   1      44.882  29.262  31.840  1.00  0.00    -0.354 N 
ATOM     53  N   UNL A   1      44.742  27.727  27.754  1.00  0.00    -0.248 NA
ATOM     54  C   UNL A   1      44.031  26.005  29.161  1.00  0.00     0.031 C 
ATOM     55  C   UNL A   1      44.767  31.316  31.126  1.00  0.00     0.029 A 
ATOM     56  C   UNL A   1      44.983  30.004  30.697  1.00  0.00     0.049 A 
ATOM     57  H   UNL A   1      45.327  28.401  32.011  1.00  0.00     0.167 HD
ATOM     58  C   UNL A   1      44.999  28.114  29.063  1.00  0.00     0.074 A 
ATOM     59  C   UNL A   1      44.642  26.953  29.878  1.00  0.00     0.031 C 
ATOM     60  C   UNL A   1      45.177  29.430  29.383  1.00  0.00     0.034 A 
BRANCH  47  61
ATOM     61  C   UNL A   1      43.507  27.954  34.275  1.00  0.00     0.023 A 
ATOM     62  C   UNL A   1      44.060  28.298  35.534  1.00  0.00     0.012 A 
ATOM     63  C   UNL A   1      43.682  26.613  33.862  1.00  0.00     0.148 A 
ATOM     64  C   UNL A   1      44.844  27.405  36.272  1.00  0.00     0.002 A 
ATOM     65  C   UNL A   1      44.416  25.708  34.626  1.00  0.00     0.091 A 
ATOM     66  F   UNL A   1      43.239  26.200  32.677  1.00  0.00    -0.205 F 
ATOM     67  C   UNL A   1      45.032  26.110  35.812  1.00  0.00     0.022 A 
BRANCH  65  68
ATOM     68  S   UNL A   1      44.660  24.004  34.096  1.00  0.00     0.127 S 
ATOM     69  O   UNL A   1      45.378  24.193  32.838  1.00  0.00    -0.237 OA
ATOM     70  O   UNL A   1      45.462  23.462  35.193  1.00  0.00    -0.237 OA
ATOM     71  O   UNL A   1      43.328  23.425  33.986  1.00  0.00    -0.744 OA
ENDBRANCH  65  68
ENDBRANCH  47  61
BRANCH  48  72
ATOM     72  C   UNL A   1      42.641  25.127  26.288  1.00  0.00     0.023 A 
ATOM     73  C   UNL A   1      43.593  24.733  25.327  1.00  0.00     0.012 A 
ATOM     74  C   UNL A   1      41.707  24.165  26.735  1.00  0.00     0.148 A 
ATOM     75  C   UNL A   1      43.634  23.417  24.849  1.00  0.00     0.002 A 
ATOM     76  C   UNL A   1      41.749  22.860  26.253  1.00  0.00     0.091 A 
ATOM     77  F   UNL A   1      40.843  24.510  27.700  1.00  0.00    -0.205 F 
ATOM     78  C   UNL A   1      42.718  22.478  25.319  1.00  0.00     0.022 A 
BRANCH  76  79
ATOM     79  S   UNL A   1      40.624  21.584  26.841  1.00  0.00     0.127 S 
ATOM     80  O   UNL A   1      40.888  21.590  28.280  1.00  0.00    -0.237 OA
ATOM     81  O   UNL A   1      39.326  22.129  26.451  1.00  0.00    -0.237 OA
ATOM     82  O   UNL A   1      41.026  20.359  26.161  1.00  0.00    -0.744 OA
ENDBRANCH  76  79
ENDBRANCH  48  72
BRANCH  60  83
ATOM     83  C   UNL A   1      45.342  30.418  28.255  1.00  0.00     0.023 A 
ATOM     84  C   UNL A   1      44.244  31.036  27.622  1.00  0.00     0.012 A 
ATOM     85  C   UNL A   1      46.636  30.883  27.976  1.00  0.00     0.148 A 
ATOM     86  C   UNL A   1      44.433  32.089  26.721  1.00  0.00     0.002 A 
ATOM     87  C   UNL A   1      46.818  31.961  27.119  1.00  0.00     0.091 A 
ATOM     88  F   UNL A   1      47.668  30.286  28.590  1.00  0.00    -0.205 F 
ATOM     89  C   UNL A   1      45.721  32.562  26.483  1.00  0.00     0.022 A 
BRANCH  87  90
ATOM     90  S   UNL A   1      48.433  32.704  26.886  1.00  0.00     0.127 S 
ATOM     91  O   UNL A   1      48.733  33.206  28.225  1.00  0.00    -0.237 OA
ATOM     92  O   UNL A   1      49.246  31.562  26.464  1.00  0.00    -0.237 OA
ATOM     93  O   UNL A   1      48.262  33.722  25.857  1.00  0.00    -0.744 OA
ENDBRANCH  87  90
ENDBRANCH  60  83
ENDBRANCH  34  35
ENDBRANCH  26  29
ENDBRANCH  24  25
ENDBRANCH  23  24
ENDBRANCH   1  23
TORSDOF 18
ENDMDL
MODEL 2
REMARK VINA RESULT:     -11.4      2.026      3.012
REMARK SMILES Cc1nn(Cc2ccc(C(=O)NCCCCCCNC(=O)c3ccc(-c4c5nc(c(-c6cccc(S(=O)(=O)[O-])c6F)c6ccc([nH]6)c(-c6cccc(S(=O)(=O)[O-])c6F)c6nc(c(-c7cccc(S(=O)(=O)[O-])c7F)c7ccc4[nH]7)C=C6)C=C5)cc3)o2)c(C)c1C
REMARK SMILES IDX 16 1 15 2 14 3 13 4 12 5 10 6 11 7 9 9 6 10 7 11 85 12 8 13
REMARK SMILES IDX 5 14 4 15 1 16 2 17 3 18 88 19 86 20 89 21 87 22 17 23 18 24
REMARK SMILES IDX 19 25 20 26 21 28 22 29 23 30 84 31 24 32 83 33 25 34 26 35
REMARK SMILES IDX 27 36 77 37 28 38 82 39 76 40 78 41 29 42 81 43 75 44 74 45
REMARK SMILES IDX 30 47 62 48 42 49 61 50 43 51 46 52 60 53 79 54 44 55 45 56
REMARK SMILES IDX 59 58 80 59 47 60 31 61 32 62 40 63 33 64 35 65 41 66 34 67
REMARK SMILES IDX 36 68 37 69 38 70 39 71 63 72 64 73 72 74 65 75 67 76 73 77
REMARK SMILES IDX 66 78 68 79 69 80 70 81 71 82 48 83 49 84 57 85 50 86 52 87
REMARK SMILES IDX 58 88 51 89 53 90 54 91 55 92 56 93
REMARK H PARENT 12 8 19 27 78 46 46 57
REMARK Flexibility Score: inf
ROOT
ATOM      1  C   UNL A   1      33.007  28.486  26.351  1.00  0.00     0.002 C 
ENDROOT
BRANCH   1   2
ATOM      2  C   UNL A   1      31.576  27.955  26.535  1.00  0.00     0.002 C 
BRANCH   2   3
ATOM      3  C   UNL A   1      31.132  26.847  25.574  1.00  0.00     0.021 C 
BRANCH   3   4
ATOM      4  C   UNL A   1      31.672  25.453  25.892  1.00  0.00     0.116 C 
BRANCH   4   5
ATOM      5  N   UNL A   1      30.717  24.650  26.636  1.00  0.00    -0.349 N 
ATOM      6  C   UNL A   1      30.667  23.305  26.917  1.00  0.00     0.286 C 
ATOM      7  O   UNL A   1      29.698  22.934  27.588  1.00  0.00    -0.266 OA
ATOM      8  H   UNL A   1      29.964  25.164  27.006  1.00  0.00     0.163 HD
BRANCH   6   9
ATOM      9  C   UNL A   1      31.697  22.379  26.484  1.00  0.00     0.191 A 
ATOM     10  C   UNL A   1      32.658  20.806  25.264  1.00  0.00     0.126 A 
ATOM     11  C   UNL A   1      33.575  21.161  26.230  1.00  0.00     0.048 A 
ATOM     12  O   UNL A   1      31.536  21.568  25.396  1.00  0.00    -0.454 OA
ATOM     13  C   UNL A   1      32.961  22.167  27.010  1.00  0.00     0.056 A 
BRANCH  10  14
ATOM     14  C   UNL A   1      32.677  19.841  24.131  1.00  0.00     0.219 C 
BRANCH  14  15
ATOM     15  N   UNL A   1      33.095  18.502  24.536  1.00  0.00    -0.262 N 
ATOM     16  C   UNL A   1      32.133  15.291  25.665  1.00  0.00     0.069 C 
ATOM     17  C   UNL A   1      32.861  16.522  25.266  1.00  0.00     0.063 A 
ATOM     18  N   UNL A   1      32.161  17.626  24.975  1.00  0.00    -0.177 NA
ATOM     19  C   UNL A   1      34.260  16.734  25.147  1.00  0.00    -0.007 A 
ATOM     20  C   UNL A   1      34.377  18.033  24.679  1.00  0.00     0.039 A 
ATOM     21  C   UNL A   1      35.374  15.793  25.437  1.00  0.00     0.048 C 
ATOM     22  C   UNL A   1      35.595  18.821  24.350  1.00  0.00     0.066 C 
ENDBRANCH  14  15
ENDBRANCH  10  14
ENDBRANCH   6   9
ENDBRANCH   4   5
ENDBRANCH   3   4
ENDBRANCH   2   3
ENDBRANCH   1   2
BRANCH   1  23
ATOM     23  C   UNL A   1      33.672  29.122  27.581  1.00  0.00     0.021 C 
BRANCH  23  24
ATOM     24  C   UNL A   1      34.468  30.378  27.269  1.00  0.00     0.116 C 
BRANCH  24  25
ATOM     25  N   UNL A   1      34.261  31.442  28.258  1.00  0.00    -0.352 N 
ATOM     26  C   UNL A   1      34.933  31.646  29.455  1.00  0.00     0.251 C 
ATOM     27  H   UNL A   1      33.555  32.093  28.045  1.00  0.00     0.163 HD
ATOM     28  O   UNL A   1      34.456  32.334  30.338  1.00  0.00    -0.269 OA
BRANCH  26  29
ATOM     29  C   UNL A   1      36.258  31.023  29.618  1.00  0.00     0.039 A 
ATOM     30  C   UNL A   1      36.427  29.652  29.851  1.00  0.00     0.014 A 
ATOM     31  C   UNL A   1      37.356  31.868  29.514  1.00  0.00     0.014 A 
ATOM     32  C   UNL A   1      37.722  29.137  29.918  1.00  0.00     0.010 A 
ATOM     33  C   UNL A   1      38.600  31.337  29.360  1.00  0.00     0.010 A 
ATOM     34  C   UNL A   1      38.797  29.996  29.669  1.00  0.00    -0.014 A 
BRANCH  34  35
ATOM     35  C   UNL A   1      40.186  29.565  29.680  1.00  0.00     0.031 A 
ATOM     36  C   UNL A   1      40.763  29.371  31.038  1.00  0.00     0.074 A 
ATOM     37  C   UNL A   1      40.712  29.024  28.557  1.00  0.00     0.049 A 
ATOM     38  N   UNL A   1      41.744  30.005  31.592  1.00  0.00    -0.248 NA
ATOM     39  C   UNL A   1      40.051  28.468  31.959  1.00  0.00     0.031 C 
ATOM     40  C   UNL A   1      40.032  28.807  27.267  1.00  0.00     0.029 A 
ATOM     41  N   UNL A   1      41.882  28.358  28.387  1.00  0.00    -0.354 N 
ATOM     42  C   UNL A   1      41.922  29.397  32.836  1.00  0.00     0.074 A 
ATOM     43  C   UNL A   1      40.703  28.689  33.100  1.00  0.00     0.031 C 
ATOM     44  C   UNL A   1      40.677  27.842  26.575  1.00  0.00     0.029 A 
ATOM     45  C   UNL A   1      41.893  27.502  27.286  1.00  0.00     0.049 A 
ATOM     46  H   UNL A   1      42.655  28.468  28.987  1.00  0.00     0.167 HD
ATOM     47  C   UNL A   1      43.161  29.266  33.394  1.00  0.00     0.034 A 
ATOM     48  C   UNL A   1      42.802  26.533  27.023  1.00  0.00     0.034 A 
ATOM     49  C   UNL A   1      44.120  30.084  32.688  1.00  0.00     0.049 A 
ATOM     50  C   UNL A   1      43.988  26.815  27.863  1.00  0.00     0.074 A 
ATOM     51  C   UNL A   1      44.257  31.429  32.409  1.00  0.00     0.029 A 
ATOM     52  N   UNL A   1      44.942  29.427  31.802  1.00  0.00    -0.354 N 
ATOM     53  N   UNL A   1      44.734  27.875  27.725  1.00  0.00    -0.248 NA
ATOM     54  C   UNL A   1      44.077  26.149  29.153  1.00  0.00     0.031 C 
ATOM     55  C   UNL A   1      44.785  31.477  31.084  1.00  0.00     0.029 A 
ATOM     56  C   UNL A   1      45.009  30.166  30.655  1.00  0.00     0.049 A 
ATOM     57  H   UNL A   1      45.402  28.573  31.966  1.00  0.00     0.167 HD
ATOM     58  C   UNL A   1      45.014  28.270  29.027  1.00  0.00     0.074 A 
ATOM     59  C   UNL A   1      44.691  27.108  29.853  1.00  0.00     0.031 C 
ATOM     60  C   UNL A   1      45.182  29.590  29.338  1.00  0.00     0.034 A 
BRANCH  47  61
ATOM     61  C   UNL A   1      43.638  28.110  34.271  1.00  0.00     0.023 A 
ATOM     62  C   UNL A   1      44.231  28.467  35.507  1.00  0.00     0.012 A 
ATOM     63  C   UNL A   1      43.806  26.767  33.863  1.00  0.00     0.148 A 
ATOM     64  C   UNL A   1      45.044  27.583  36.226  1.00  0.00     0.002 A 
ATOM     65  C   UNL A   1      44.569  25.871  34.610  1.00  0.00     0.091 A 
ATOM     66  F   UNL A   1      43.326  26.342  32.697  1.00  0.00    -0.205 F 
ATOM     67  C   UNL A   1      45.223  26.285  35.770  1.00  0.00     0.022 A 
BRANCH  65  68
ATOM     68  S   UNL A   1      44.803  24.164  34.085  1.00  0.00     0.127 S 
ATOM     69  O   UNL A   1      45.753  23.682  35.084  1.00  0.00    -0.237 OA
ATOM     70  O   UNL A   1      43.448  23.627  34.205  1.00  0.00    -0.237 OA
ATOM     71  O   UNL A   1      45.300  24.232  32.717  1.00  0.00    -0.744 OA
ENDBRANCH  65  68
ENDBRANCH  47  61
BRANCH  48  72
ATOM     72  C   UNL A   1      42.636  25.243  26.314  1.00  0.00     0.023 A 
ATOM     73  C   UNL A   1      43.576  24.853  25.340  1.00  0.00     0.012 A 
ATOM     74  C   UNL A   1      41.719  24.274  26.780  1.00  0.00     0.148 A 
ATOM     75  C   UNL A   1      43.622  23.536  24.867  1.00  0.00     0.002 A 
ATOM     76  C   UNL A   1      41.766  22.967  26.304  1.00  0.00     0.091 A 
ATOM     77  F   UNL A   1      40.867  24.614  27.757  1.00  0.00    -0.205 F 
ATOM     78  C   UNL A   1      42.724  22.590  25.355  1.00  0.00     0.022 A 
BRANCH  76  79
ATOM     79  S   UNL A   1      40.664  21.682  26.914  1.00  0.00     0.127 S 
ATOM     80  O   UNL A   1      39.352  22.202  26.526  1.00  0.00    -0.237 OA
ATOM     81  O   UNL A   1      41.113  20.518  26.155  1.00  0.00    -0.237 OA
ATOM     82  O   UNL A   1      40.885  21.623  28.354  1.00  0.00    -0.744 OA
ENDBRANCH  76  79
ENDBRANCH  48  72
BRANCH  60  83
ATOM     83  C   UNL A   1      45.309  30.576  28.204  1.00  0.00     0.023 A 
ATOM     84  C   UNL A   1      44.188  31.155  27.573  1.00  0.00     0.012 A 
ATOM     85  C   UNL A   1      46.586  31.081  27.915  1.00  0.00     0.148 A 
ATOM     86  C   UNL A   1      44.338  32.207  26.665  1.00  0.00     0.002 A 
ATOM     87  C   UNL A   1      46.729  32.159  27.051  1.00  0.00     0.091 A 
ATOM     88  F   UNL A   1      47.640  30.520  28.526  1.00  0.00    -0.205 F 
ATOM     89  C   UNL A   1      45.609  32.720  26.416  1.00  0.00     0.022 A 
BRANCH  87  90
ATOM     90  S   UNL A   1      48.318  32.951  26.804  1.00  0.00     0.127 S 
ATOM     91  O   UNL A   1      49.159  31.826  26.400  1.00  0.00    -0.237 OA
ATOM     92  O   UNL A   1      48.028  33.912  25.738  1.00  0.00    -0.237 OA
ATOM     93  O   UNL A   1      48.662  33.567  28.080  1.00  0.00    -0.744 OA
ENDBRANCH  87  90
ENDBRANCH  60  83
ENDBRANCH  34  35
ENDBRANCH  26  29
ENDBRANCH  24  25
ENDBRANCH  23  24
ENDBRANCH   1  23
TORSDOF 18
ENDMDL
MODEL 3
REMARK VINA RESULT:     -11.1      3.095      7.699
REMARK SMILES Cc1nn(Cc2ccc(C(=O)NCCCCCCNC(=O)c3ccc(-c4c5nc(c(-c6cccc(S(=O)(=O)[O-])c6F)c6ccc([nH]6)c(-c6cccc(S(=O)(=O)[O-])c6F)c6nc(c(-c7cccc(S(=O)(=O)[O-])c7F)c7ccc4[nH]7)C=C6)C=C5)cc3)o2)c(C)c1C
REMARK SMILES IDX 16 1 15 2 14 3 13 4 12 5 10 6 11 7 9 9 6 10 7 11 85 12 8 13
REMARK SMILES IDX 5 14 4 15 1 16 2 17 3 18 88 19 86 20 89 21 87 22 17 23 18 24
REMARK SMILES IDX 19 25 20 26 21 28 22 29 23 30 84 31 24 32 83 33 25 34 26 35
REMARK SMILES IDX 27 36 77 37 28 38 82 39 76 40 78 41 29 42 81 43 75 44 74 45
REMARK SMILES IDX 30 47 62 48 42 49 61 50 43 51 46 52 60 53 79 54 44 55 45 56
REMARK SMILES IDX 59 58 80 59 47 60 31 61 32 62 40 63 33 64 35 65 41 66 34 67
REMARK SMILES IDX 36 68 37 69 38 70 39 71 63 72 64 73 72 74 65 75 67 76 73 77
REMARK SMILES IDX 66 78 68 79 69 80 70 81 71 82 48 83 49 84 57 85 50 86 52 87
REMARK SMILES IDX 58 88 51 89 53 90 54 91 55 92 56 93
REMARK H PARENT 12 8 19 27 78 46 46 57
REMARK Flexibility Score: inf
ROOT
ATOM      1  C   UNL A   1      38.966  21.892  25.839  1.00  0.00     0.002 C 
ENDROOT
BRANCH   1   2
ATOM      2  C   UNL A   1      37.515  22.398  25.788  1.00  0.00     0.002 C 
BRANCH   2   3
ATOM      3  C   UNL A   1      36.430  21.335  25.580  1.00  0.00     0.021 C 
BRANCH   3   4
ATOM      4  C   UNL A   1      35.112  21.599  26.306  1.00  0.00     0.116 C 
BRANCH   4   5
ATOM      5  N   UNL A   1      34.207  20.465  26.233  1.00  0.00    -0.349 N 
ATOM      6  C   UNL A   1      33.210  20.139  25.345  1.00  0.00     0.286 C 
ATOM      7  O   UNL A   1      32.615  19.080  25.573  1.00  0.00    -0.266 OA
ATOM      8  H   UNL A   1      34.330  19.808  26.955  1.00  0.00     0.163 HD
BRANCH   6   9
ATOM      9  C   UNL A   1      32.889  20.963  24.194  1.00  0.00     0.191 A 
ATOM     10  C   UNL A   1      32.809  22.773  22.927  1.00  0.00     0.126 A 
ATOM     11  C   UNL A   1      32.166  21.778  22.222  1.00  0.00     0.048 A 
ATOM     12  O   UNL A   1      33.277  22.270  24.104  1.00  0.00    -0.454 OA
ATOM     13  C   UNL A   1      32.218  20.620  23.032  1.00  0.00     0.056 A 
BRANCH  10  14
ATOM     14  C   UNL A   1      33.120  24.200  22.643  1.00  0.00     0.219 C 
BRANCH  14  15
ATOM     15  N   UNL A   1      32.312  25.123  23.433  1.00  0.00    -0.262 N 
ATOM     16  C   UNL A   1      29.311  26.975  23.710  1.00  0.00     0.069 C 
ATOM     17  C   UNL A   1      30.664  26.388  23.876  1.00  0.00     0.063 A 
ATOM     18  N   UNL A   1      31.142  25.575  22.925  1.00  0.00    -0.177 NA
ATOM     19  C   UNL A   1      31.593  26.568  24.935  1.00  0.00    -0.007 A 
ATOM     20  C   UNL A   1      32.655  25.740  24.612  1.00  0.00     0.039 A 
ATOM     21  C   UNL A   1      31.478  27.432  26.139  1.00  0.00     0.048 C 
ATOM     22  C   UNL A   1      33.926  25.490  25.343  1.00  0.00     0.066 C 
ENDBRANCH  14  15
ENDBRANCH  10  14
ENDBRANCH   6   9
ENDBRANCH   4   5
ENDBRANCH   3   4
ENDBRANCH   2   3
ENDBRANCH   1   2
BRANCH   1  23
ATOM     23  C   UNL A   1      39.218  20.466  25.326  1.00  0.00     0.021 C 
BRANCH  23  24
ATOM     24  C   UNL A   1      39.782  19.526  26.378  1.00  0.00     0.116 C 
BRANCH  24  25
ATOM     25  N   UNL A   1      41.033  18.886  25.956  1.00  0.00    -0.352 N 
ATOM     26  C   UNL A   1      42.257  19.483  25.691  1.00  0.00     0.251 C 
ATOM     27  H   UNL A   1      40.998  17.909  25.846  1.00  0.00     0.163 HD
ATOM     28  O   UNL A   1      43.107  18.917  25.029  1.00  0.00    -0.269 OA
BRANCH  26  29
ATOM     29  C   UNL A   1      42.512  20.819  26.260  1.00  0.00     0.039 A 
ATOM     30  C   UNL A   1      42.988  21.890  25.493  1.00  0.00     0.014 A 
ATOM     31  C   UNL A   1      42.242  20.976  27.614  1.00  0.00     0.014 A 
ATOM     32  C   UNL A   1      43.128  23.138  26.099  1.00  0.00     0.010 A 
ATOM     33  C   UNL A   1      42.169  22.229  28.142  1.00  0.00     0.010 A 
ATOM     34  C   UNL A   1      42.713  23.288  27.426  1.00  0.00    -0.014 A 
BRANCH  34  35
ATOM     35  C   UNL A   1      42.784  24.549  28.149  1.00  0.00     0.031 A 
ATOM     36  C   UNL A   1      41.610  25.442  27.952  1.00  0.00     0.074 A 
ATOM     37  C   UNL A   1      43.647  24.661  29.185  1.00  0.00     0.049 A 
ATOM     38  N   UNL A   1      41.577  26.619  27.419  1.00  0.00    -0.248 NA
ATOM     39  C   UNL A   1      40.275  24.886  28.236  1.00  0.00     0.031 C 
ATOM     40  C   UNL A   1      44.566  23.629  29.698  1.00  0.00     0.029 A 
ATOM     41  N   UNL A   1      43.735  25.629  30.133  1.00  0.00    -0.354 N 
ATOM     42  C   UNL A   1      40.251  27.041  27.537  1.00  0.00     0.074 A 
ATOM     43  C   UNL A   1      39.484  25.851  27.769  1.00  0.00     0.031 C 
ATOM     44  C   UNL A   1      44.889  23.911  30.979  1.00  0.00     0.029 A 
ATOM     45  C   UNL A   1      44.347  25.211  31.315  1.00  0.00     0.049 A 
ATOM     46  H   UNL A   1      43.398  26.545  29.998  1.00  0.00     0.167 HD
ATOM     47  C   UNL A   1      39.936  28.352  27.748  1.00  0.00     0.034 A 
ATOM     48  C   UNL A   1      44.339  25.862  32.503  1.00  0.00     0.034 A 
ATOM     49  C   UNL A   1      41.092  29.189  27.521  1.00  0.00     0.049 A 
ATOM     50  C   UNL A   1      43.942  27.261  32.226  1.00  0.00     0.074 A 
ATOM     51  C   UNL A   1      41.938  29.439  26.459  1.00  0.00     0.029 A 
ATOM     52  N   UNL A   1      41.752  29.631  28.644  1.00  0.00    -0.354 N 
ATOM     53  N   UNL A   1      44.657  28.087  31.516  1.00  0.00    -0.248 NA
ATOM     54  C   UNL A   1      42.534  27.601  32.356  1.00  0.00     0.031 C 
ATOM     55  C   UNL A   1      43.231  29.585  27.047  1.00  0.00     0.029 A 
ATOM     56  C   UNL A   1      43.094  29.487  28.433  1.00  0.00     0.049 A 
ATOM     57  H   UNL A   1      41.330  29.989  29.458  1.00  0.00     0.167 HD
ATOM     58  C   UNL A   1      43.727  28.768  30.741  1.00  0.00     0.074 A 
ATOM     59  C   UNL A   1      42.439  28.518  31.388  1.00  0.00     0.031 C 
ATOM     60  C   UNL A   1      44.046  29.207  29.487  1.00  0.00     0.034 A 
BRANCH  47  61
ATOM     61  C   UNL A   1      38.759  28.877  28.567  1.00  0.00     0.023 A 
ATOM     62  C   UNL A   1      37.851  29.725  27.885  1.00  0.00     0.012 A 
ATOM     63  C   UNL A   1      38.638  28.839  29.975  1.00  0.00     0.148 A 
ATOM     64  C   UNL A   1      36.970  30.573  28.564  1.00  0.00     0.002 A 
ATOM     65  C   UNL A   1      37.720  29.643  30.648  1.00  0.00     0.091 A 
ATOM     66  F   UNL A   1      39.472  28.109  30.713  1.00  0.00    -0.205 F 
ATOM     67  C   UNL A   1      36.912  30.540  29.950  1.00  0.00     0.022 A 
BRANCH  65  68
ATOM     68  S   UNL A   1      37.575  29.614  32.443  1.00  0.00     0.127 S 
ATOM     69  O   UNL A   1      37.497  28.179  32.703  1.00  0.00    -0.237 OA
ATOM     70  O   UNL A   1      38.825  30.253  32.853  1.00  0.00    -0.237 OA
ATOM     71  O   UNL A   1      36.379  30.383  32.759  1.00  0.00    -0.744 OA
ENDBRANCH  65  68
ENDBRANCH  47  61
BRANCH  48  72
ATOM     72  C   UNL A   1      44.385  25.320  33.881  1.00  0.00     0.023 A 
ATOM     73  C   UNL A   1      43.339  24.498  34.345  1.00  0.00     0.012 A 
ATOM     74  C   UNL A   1      45.573  25.380  34.644  1.00  0.00     0.148 A 
ATOM     75  C   UNL A   1      43.481  23.737  35.512  1.00  0.00     0.002 A 
ATOM     76  C   UNL A   1      45.708  24.625  35.806  1.00  0.00     0.091 A 
ATOM     77  F   UNL A   1      46.600  26.103  34.176  1.00  0.00    -0.205 F 
ATOM     78  C   UNL A   1      44.669  23.794  36.238  1.00  0.00     0.022 A 
BRANCH  76  79
ATOM     79  S   UNL A   1      47.225  24.618  36.774  1.00  0.00     0.127 S 
ATOM     80  O   UNL A   1      48.198  24.115  35.805  1.00  0.00    -0.237 OA
ATOM     81  O   UNL A   1      47.369  26.032  37.113  1.00  0.00    -0.237 OA
ATOM     82  O   UNL A   1      46.974  23.721  37.896  1.00  0.00    -0.744 OA
ENDBRANCH  76  79
ENDBRANCH  48  72
BRANCH  60  83
ATOM     83  C   UNL A   1      45.494  29.160  29.066  1.00  0.00     0.023 A 
ATOM     84  C   UNL A   1      46.436  30.125  29.481  1.00  0.00     0.012 A 
ATOM     85  C   UNL A   1      45.949  28.005  28.414  1.00  0.00     0.148 A 
ATOM     86  C   UNL A   1      47.801  29.947  29.240  1.00  0.00     0.002 A 
ATOM     87  C   UNL A   1      47.310  27.806  28.219  1.00  0.00     0.091 A 
ATOM     88  F   UNL A   1      45.040  27.097  28.029  1.00  0.00    -0.205 F 
ATOM     89  C   UNL A   1      48.239  28.778  28.623  1.00  0.00     0.022 A 
BRANCH  87  90
ATOM     90  S   UNL A   1      47.942  26.262  27.563  1.00  0.00     0.127 S 
ATOM     91  O   UNL A   1      47.445  25.292  28.536  1.00  0.00    -0.237 OA
ATOM     92  O   UNL A   1      47.301  26.194  26.248  1.00  0.00    -0.237 OA
ATOM     93  O   UNL A   1      49.391  26.412  27.509  1.00  0.00    -0.744 OA
ENDBRANCH  87  90
ENDBRANCH  60  83
ENDBRANCH  34  35
ENDBRANCH  26  29
ENDBRANCH  24  25
ENDBRANCH  23  24
ENDBRANCH   1  23
TORSDOF 18
ENDMDL
