MODEL 1
REMARK VINA RESULT:     -11.0      0.000      0.000
REMARK SMILES O=C(NCCCCCCNC(=O)[C@H]1C[C@@H]1C(=O)Nc1ccc(Cl)c(Br)c1)c1ccc(-c2c3nc(c(-c4cccc(S(=O)(=O)[O-])c4F)c4ccc([nH]4)c(-c4cccc(S(=O)(=O)[O-])c4F)c4nc(c(-c5cccc(S(=O)(=O)[O-])c5F)c5ccc2[nH]5)C=C4)C=C3)cc1
REMARK SMILES IDX 6 1 5 2 4 3 3 4 1 5 2 6 27 8 28 9 89 10 29 11 88 12 30 13
REMARK SMILES IDX 31 14 32 15 82 16 33 17 87 18 81 19 83 20 34 21 86 22 80 23
REMARK SMILES IDX 79 24 35 26 67 27 47 28 66 29 48 30 51 31 65 32 84 33 49 34
REMARK SMILES IDX 50 35 64 37 85 38 52 39 36 40 37 41 45 42 38 43 40 44 46 45
REMARK SMILES IDX 39 46 41 47 42 48 43 49 44 50 68 51 69 52 77 53 70 54 72 55
REMARK SMILES IDX 78 56 71 57 73 58 74 59 75 60 76 61 53 62 54 63 62 64 55 65
REMARK SMILES IDX 57 66 63 67 56 68 58 69 59 70 60 71 61 72 7 73 8 74 9 75
REMARK SMILES IDX 10 76 11 77 12 79 13 80 14 81 15 82 16 83 17 84 18 85 19 87
REMARK SMILES IDX 20 88 26 89 21 90 24 91 22 92 25 93 23 94
REMARK H PARENT 3 7 83 25 51 36 10 78 18 86
REMARK Flexibility Score: inf
ROOT
ATOM      1  C   UNL A   1      35.297  23.884  24.135  1.00  0.00     0.002 C 
ENDROOT
BRANCH   1   2
ATOM      2  C   UNL A   1      36.635  23.194  24.422  1.00  0.00     0.021 C 
BRANCH   2   3
ATOM      3  C   UNL A   1      36.934  22.952  25.899  1.00  0.00     0.116 C 
BRANCH   3   4
ATOM      4  N   UNL A   1      38.127  22.147  26.089  1.00  0.00    -0.352 N 
ATOM      5  O   UNL A   1      40.312  21.727  26.393  1.00  0.00    -0.269 OA
ATOM      6  C   UNL A   1      39.389  22.535  26.463  1.00  0.00     0.251 C 
ATOM      7  H   UNL A   1      38.014  21.183  25.926  1.00  0.00     0.163 HD
BRANCH   6   8
ATOM      8  C   UNL A   1      39.647  23.913  26.940  1.00  0.00     0.039 A 
ATOM      9  C   UNL A   1      40.124  24.858  26.026  1.00  0.00     0.014 A 
ATOM     10  C   UNL A   1      39.496  24.261  28.287  1.00  0.00     0.014 A 
ATOM     11  C   UNL A   1      40.436  26.150  26.455  1.00  0.00     0.010 A 
ATOM     12  C   UNL A   1      39.755  25.566  28.704  1.00  0.00     0.010 A 
ATOM     13  C   UNL A   1      40.256  26.514  27.799  1.00  0.00    -0.014 A 
BRANCH  13  14
ATOM     14  C   UNL A   1      40.662  27.855  28.287  1.00  0.00     0.031 A 
ATOM     15  C   UNL A   1      42.116  28.246  28.270  1.00  0.00     0.074 A 
ATOM     16  C   UNL A   1      39.740  28.710  28.772  1.00  0.00     0.049 A 
ATOM     17  N   UNL A   1      42.677  29.349  28.691  1.00  0.00    -0.248 NA
ATOM     18  C   UNL A   1      43.066  27.262  27.723  1.00  0.00     0.031 C 
ATOM     19  C   UNL A   1      38.306  28.436  28.880  1.00  0.00     0.029 A 
ATOM     20  N   UNL A   1      39.876  29.981  29.270  1.00  0.00    -0.354 N 
ATOM     21  C   UNL A   1      44.042  29.177  28.497  1.00  0.00     0.074 A 
ATOM     22  C   UNL A   1      44.230  27.856  27.940  1.00  0.00     0.031 C 
ATOM     23  C   UNL A   1      37.692  29.515  29.393  1.00  0.00     0.029 A 
ATOM     24  C   UNL A   1      38.689  30.549  29.667  1.00  0.00     0.049 A 
ATOM     25  H   UNL A   1      40.743  30.444  29.337  1.00  0.00     0.167 HD
ATOM     26  C   UNL A   1      45.047  30.053  28.726  1.00  0.00     0.034 A 
ATOM     27  C   UNL A   1      38.430  31.766  30.182  1.00  0.00     0.034 A 
ATOM     28  C   UNL A   1      44.859  31.393  29.203  1.00  0.00     0.049 A 
ATOM     29  C   UNL A   1      39.559  32.740  30.381  1.00  0.00     0.074 A 
ATOM     30  C   UNL A   1      45.813  32.375  29.401  1.00  0.00     0.029 A 
ATOM     31  N   UNL A   1      43.634  31.947  29.536  1.00  0.00    -0.354 N 
ATOM     32  N   UNL A   1      40.831  32.591  30.103  1.00  0.00    -0.248 NA
ATOM     33  C   UNL A   1      39.217  34.056  30.943  1.00  0.00     0.031 C 
ATOM     34  C   UNL A   1      45.162  33.530  29.843  1.00  0.00     0.029 A 
ATOM     35  C   UNL A   1      43.805  33.261  29.928  1.00  0.00     0.049 A 
ATOM     36  H   UNL A   1      42.771  31.475  29.499  1.00  0.00     0.167 HD
ATOM     37  C   UNL A   1      41.438  33.797  30.432  1.00  0.00     0.074 A 
ATOM     38  C   UNL A   1      40.393  34.674  30.919  1.00  0.00     0.031 C 
ATOM     39  C   UNL A   1      42.746  34.139  30.355  1.00  0.00     0.034 A 
BRANCH  26  40
ATOM     40  C   UNL A   1      46.443  29.617  28.380  1.00  0.00     0.023 A 
ATOM     41  C   UNL A   1      46.972  29.964  27.121  1.00  0.00     0.012 A 
ATOM     42  C   UNL A   1      47.249  28.934  29.310  1.00  0.00     0.148 A 
ATOM     43  C   UNL A   1      48.280  29.623  26.785  1.00  0.00     0.002 A 
ATOM     44  C   UNL A   1      48.561  28.620  28.977  1.00  0.00     0.091 A 
ATOM     45  F   UNL A   1      46.715  28.598  30.493  1.00  0.00    -0.205 F 
ATOM     46  C   UNL A   1      49.076  28.960  27.715  1.00  0.00     0.022 A 
BRANCH  44  47
ATOM     47  S   UNL A   1      49.687  27.808  30.117  1.00  0.00     0.127 S 
ATOM     48  O   UNL A   1      49.455  28.562  31.348  1.00  0.00    -0.237 OA
ATOM     49  O   UNL A   1      49.175  26.438  30.133  1.00  0.00    -0.237 OA
ATOM     50  O   UNL A   1      51.017  27.954  29.540  1.00  0.00    -0.744 OA
ENDBRANCH  44  47
ENDBRANCH  26  40
BRANCH  27  51
ATOM     51  C   UNL A   1      37.022  32.163  30.454  1.00  0.00     0.023 A 
ATOM     52  C   UNL A   1      36.486  31.924  31.734  1.00  0.00     0.012 A 
ATOM     53  C   UNL A   1      36.239  32.823  29.489  1.00  0.00     0.148 A 
ATOM     54  C   UNL A   1      35.188  32.328  32.047  1.00  0.00     0.002 A 
ATOM     55  C   UNL A   1      34.959  33.255  29.818  1.00  0.00     0.091 A 
ATOM     56  F   UNL A   1      36.770  33.030  28.276  1.00  0.00    -0.205 F 
ATOM     57  C   UNL A   1      34.429  33.001  31.093  1.00  0.00     0.022 A 
BRANCH  55  58
ATOM     58  S   UNL A   1      33.943  34.219  28.694  1.00  0.00     0.127 S 
ATOM     59  O   UNL A   1      32.837  34.620  29.560  1.00  0.00    -0.237 OA
ATOM     60  O   UNL A   1      34.854  35.301  28.318  1.00  0.00    -0.237 OA
ATOM     61  O   UNL A   1      33.595  33.318  27.604  1.00  0.00    -0.744 OA
ENDBRANCH  55  58
ENDBRANCH  27  51
BRANCH  39  62
ATOM     62  C   UNL A   1      43.146  35.518  30.796  1.00  0.00     0.023 A 
ATOM     63  C   UNL A   1      43.474  35.733  32.149  1.00  0.00     0.012 A 
ATOM     64  C   UNL A   1      43.333  36.552  29.859  1.00  0.00     0.148 A 
ATOM     65  C   UNL A   1      43.981  36.963  32.564  1.00  0.00     0.002 A 
ATOM     66  C   UNL A   1      43.866  37.765  30.275  1.00  0.00     0.091 A 
ATOM     67  F   UNL A   1      43.005  36.320  28.580  1.00  0.00    -0.205 F 
ATOM     68  C   UNL A   1      44.189  37.973  31.627  1.00  0.00     0.022 A 
BRANCH  66  69
ATOM     69  S   UNL A   1      44.240  39.102  29.134  1.00  0.00     0.127 S 
ATOM     70  O   UNL A   1      42.910  39.450  28.638  1.00  0.00    -0.237 OA
ATOM     71  O   UNL A   1      44.844  40.102  30.017  1.00  0.00    -0.237 OA
ATOM     72  O   UNL A   1      45.147  38.543  28.141  1.00  0.00    -0.744 OA
ENDBRANCH  66  69
ENDBRANCH  39  62
ENDBRANCH  13  14
ENDBRANCH   6   8
ENDBRANCH   3   4
ENDBRANCH   2   3
ENDBRANCH   1   2
BRANCH   1  73
ATOM     73  C   UNL A   1      34.559  23.397  22.883  1.00  0.00     0.002 C 
BRANCH  73  74
ATOM     74  C   UNL A   1      33.264  24.150  22.550  1.00  0.00     0.021 C 
BRANCH  74  75
ATOM     75  C   UNL A   1      31.994  23.444  23.021  1.00  0.00     0.116 C 
BRANCH  75  76
ATOM     76  N   UNL A   1      32.228  22.019  23.171  1.00  0.00    -0.356 N 
ATOM     77  C   UNL A   1      32.420  21.204  24.248  1.00  0.00     0.223 C 
ATOM     78  H   UNL A   1      32.254  21.540  22.312  1.00  0.00     0.163 HD
ATOM     79  O   UNL A   1      32.740  20.036  24.023  1.00  0.00    -0.275 OA
BRANCH  77  80
ATOM     80  C   UNL A   1      32.172  21.586  25.663  1.00  0.00     0.091 C 
ATOM     81  C   UNL A   1      33.150  21.961  26.728  1.00  0.00     0.028 C 
ATOM     82  C   UNL A   1      32.317  23.040  26.059  1.00  0.00     0.092 C 
BRANCH  82  83
ATOM     83  C   UNL A   1      31.251  23.762  26.807  1.00  0.00     0.228 C 
ATOM     84  O   UNL A   1      30.453  23.144  27.504  1.00  0.00    -0.274 OA
ATOM     85  N   UNL A   1      31.319  25.137  26.856  1.00  0.00    -0.326 N 
ATOM     86  H   UNL A   1      30.904  25.558  27.643  1.00  0.00     0.169 HD
BRANCH  85  87
ATOM     87  C   UNL A   1      31.904  26.016  25.932  1.00  0.00     0.042 A 
ATOM     88  C   UNL A   1      33.258  26.343  25.986  1.00  0.00     0.028 A 
ATOM     89  C   UNL A   1      31.127  26.514  24.886  1.00  0.00     0.043 A 
ATOM     90  C   UNL A   1      33.820  27.224  25.061  1.00  0.00     0.024 A 
ATOM     91  C   UNL A   1      31.683  27.407  23.957  1.00  0.00     0.038 A 
ATOM     92  C   UNL A   1      33.031  27.772  24.051  1.00  0.00     0.055 A 
ATOM     93  Br  UNL A   1      30.536  28.090  22.605  1.00  0.00    -0.049 Br
ATOM     94  Cl  UNL A   1      33.790  28.865  22.951  1.00  0.00    -0.083 Cl
ENDBRANCH  85  87
ENDBRANCH  82  83
ENDBRANCH  77  80
ENDBRANCH  75  76
ENDBRANCH  74  75
ENDBRANCH  73  74
ENDBRANCH   1  73
TORSDOF 18
ENDMDL
MODEL 2
REMARK VINA RESULT:     -10.9      1.901      2.458
REMARK SMILES O=C(NCCCCCCNC(=O)[C@H]1C[C@@H]1C(=O)Nc1ccc(Cl)c(Br)c1)c1ccc(-c2c3nc(c(-c4cccc(S(=O)(=O)[O-])c4F)c4ccc([nH]4)c(-c4cccc(S(=O)(=O)[O-])c4F)c4nc(c(-c5cccc(S(=O)(=O)[O-])c5F)c5ccc2[nH]5)C=C4)C=C3)cc1
REMARK SMILES IDX 6 1 5 2 4 3 3 4 1 5 2 6 27 8 28 9 89 10 29 11 88 12 30 13
REMARK SMILES IDX 31 14 32 15 82 16 33 17 87 18 81 19 83 20 34 21 86 22 80 23
REMARK SMILES IDX 79 24 35 26 67 27 47 28 66 29 48 30 51 31 65 32 84 33 49 34
REMARK SMILES IDX 50 35 64 37 85 38 52 39 36 40 37 41 45 42 38 43 40 44 46 45
REMARK SMILES IDX 39 46 41 47 42 48 43 49 44 50 68 51 69 52 77 53 70 54 72 55
REMARK SMILES IDX 78 56 71 57 73 58 74 59 75 60 76 61 53 62 54 63 62 64 55 65
REMARK SMILES IDX 57 66 63 67 56 68 58 69 59 70 60 71 61 72 7 73 8 74 9 75
REMARK SMILES IDX 10 76 11 77 12 79 13 80 14 81 15 82 16 83 17 84 18 85 19 87
REMARK SMILES IDX 20 88 26 89 21 90 24 91 22 92 25 93 23 94
REMARK H PARENT 3 7 83 25 51 36 10 78 18 86
REMARK Flexibility Score: inf
ROOT
ATOM      1  C   UNL A   1      35.148  23.745  24.019  1.00  0.00     0.002 C 
ENDROOT
BRANCH   1   2
ATOM      2  C   UNL A   1      36.263  22.704  24.165  1.00  0.00     0.021 C 
BRANCH   2   3
ATOM      3  C   UNL A   1      36.470  22.172  25.581  1.00  0.00     0.116 C 
BRANCH   3   4
ATOM      4  N   UNL A   1      37.488  21.139  25.632  1.00  0.00    -0.352 N 
ATOM      5  O   UNL A   1      39.561  20.282  25.751  1.00  0.00    -0.269 OA
ATOM      6  C   UNL A   1      38.821  21.245  25.939  1.00  0.00     0.251 C 
ATOM      7  H   UNL A   1      37.178  20.231  25.415  1.00  0.00     0.163 HD
BRANCH   6   8
ATOM      8  C   UNL A   1      39.374  22.506  26.487  1.00  0.00     0.039 A 
ATOM      9  C   UNL A   1      38.885  23.719  25.994  1.00  0.00     0.014 A 
ATOM     10  C   UNL A   1      40.417  22.502  27.420  1.00  0.00     0.014 A 
ATOM     11  C   UNL A   1      39.427  24.925  26.442  1.00  0.00     0.010 A 
ATOM     12  C   UNL A   1      40.920  23.707  27.909  1.00  0.00     0.010 A 
ATOM     13  C   UNL A   1      40.450  24.930  27.403  1.00  0.00    -0.014 A 
BRANCH  13  14
ATOM     14  C   UNL A   1      41.094  26.198  27.828  1.00  0.00     0.031 A 
ATOM     15  C   UNL A   1      42.519  26.479  27.432  1.00  0.00     0.074 A 
ATOM     16  C   UNL A   1      40.419  27.081  28.588  1.00  0.00     0.049 A 
ATOM     17  N   UNL A   1      43.271  27.503  27.738  1.00  0.00    -0.248 NA
ATOM     18  C   UNL A   1      43.193  25.469  26.597  1.00  0.00     0.031 C 
ATOM     19  C   UNL A   1      39.048  26.908  29.071  1.00  0.00     0.029 A 
ATOM     20  N   UNL A   1      40.800  28.299  29.093  1.00  0.00    -0.354 N 
ATOM     21  C   UNL A   1      44.512  27.245  27.169  1.00  0.00     0.074 A 
ATOM     22  C   UNL A   1      44.422  25.957  26.517  1.00  0.00     0.031 C 
ATOM     23  C   UNL A   1      38.696  27.990  29.786  1.00  0.00     0.029 A 
ATOM     24  C   UNL A   1      39.819  28.923  29.828  1.00  0.00     0.049 A 
ATOM     25  H   UNL A   1      41.691  28.690  28.943  1.00  0.00     0.167 HD
ATOM     26  C   UNL A   1      45.618  28.024  27.156  1.00  0.00     0.034 A 
ATOM     27  C   UNL A   1      39.821  30.116  30.454  1.00  0.00     0.034 A 
ATOM     28  C   UNL A   1      45.688  29.337  27.733  1.00  0.00     0.049 A 
ATOM     29  C   UNL A   1      41.047  30.986  30.384  1.00  0.00     0.074 A 
ATOM     30  C   UNL A   1      46.746  30.228  27.710  1.00  0.00     0.029 A 
ATOM     31  N   UNL A   1      44.654  29.955  28.416  1.00  0.00    -0.354 N 
ATOM     32  N   UNL A   1      42.178  30.763  29.761  1.00  0.00    -0.248 NA
ATOM     33  C   UNL A   1      40.990  32.279  31.083  1.00  0.00     0.031 C 
ATOM     34  C   UNL A   1      46.346  31.393  28.371  1.00  0.00     0.029 A 
ATOM     35  C   UNL A   1      45.044  31.221  28.811  1.00  0.00     0.049 A 
ATOM     36  H   UNL A   1      43.773  29.552  28.593  1.00  0.00     0.167 HD
ATOM     37  C   UNL A   1      42.958  31.893  29.970  1.00  0.00     0.074 A 
ATOM     38  C   UNL A   1      42.168  32.808  30.768  1.00  0.00     0.031 C 
ATOM     39  C   UNL A   1      44.224  32.141  29.555  1.00  0.00     0.034 A 
BRANCH  26  40
ATOM     40  C   UNL A   1      46.823  27.512  26.420  1.00  0.00     0.023 A 
ATOM     41  C   UNL A   1      46.970  27.825  25.054  1.00  0.00     0.012 A 
ATOM     42  C   UNL A   1      47.834  26.790  27.082  1.00  0.00     0.148 A 
ATOM     43  C   UNL A   1      48.099  27.412  24.351  1.00  0.00     0.002 A 
ATOM     44  C   UNL A   1      48.970  26.405  26.380  1.00  0.00     0.091 A 
ATOM     45  F   UNL A   1      47.661  26.490  28.377  1.00  0.00    -0.205 F 
ATOM     46  C   UNL A   1      49.102  26.711  25.015  1.00  0.00     0.022 A 
BRANCH  44  47
ATOM     47  S   UNL A   1      50.342  25.538  27.150  1.00  0.00     0.127 S 
ATOM     48  O   UNL A   1      50.734  26.479  28.198  1.00  0.00    -0.237 OA
ATOM     49  O   UNL A   1      49.702  24.316  27.634  1.00  0.00    -0.237 OA
ATOM     50  O   UNL A   1      51.329  25.334  26.097  1.00  0.00    -0.744 OA
ENDBRANCH  44  47
ENDBRANCH  26  40
BRANCH  27  51
ATOM     51  C   UNL A   1      38.581  30.595  31.121  1.00  0.00     0.023 A 
ATOM     52  C   UNL A   1      38.447  30.418  32.512  1.00  0.00     0.012 A 
ATOM     53  C   UNL A   1      37.573  31.272  30.410  1.00  0.00     0.148 A 
ATOM     54  C   UNL A   1      37.324  30.901  33.184  1.00  0.00     0.002 A 
ATOM     55  C   UNL A   1      36.473  31.782  31.091  1.00  0.00     0.091 A 
ATOM     56  F   UNL A   1      37.720  31.419  29.086  1.00  0.00    -0.205 F 
ATOM     57  C   UNL A   1      36.342  31.590  32.476  1.00  0.00     0.022 A 
BRANCH  55  58
ATOM     58  S   UNL A   1      35.208  32.772  30.286  1.00  0.00     0.127 S 
ATOM     59  O   UNL A   1      34.271  33.008  31.383  1.00  0.00    -0.237 OA
ATOM     60  O   UNL A   1      35.969  33.947  29.863  1.00  0.00    -0.237 OA
ATOM     61  O   UNL A   1      34.703  31.953  29.192  1.00  0.00    -0.744 OA
ENDBRANCH  55  58
ENDBRANCH  27  51
BRANCH  39  62
ATOM     62  C   UNL A   1      44.852  33.451  29.938  1.00  0.00     0.023 A 
ATOM     63  C   UNL A   1      45.667  33.507  31.085  1.00  0.00     0.012 A 
ATOM     64  C   UNL A   1      44.753  34.575  29.095  1.00  0.00     0.148 A 
ATOM     65  C   UNL A   1      46.375  34.668  31.390  1.00  0.00     0.002 A 
ATOM     66  C   UNL A   1      45.484  35.718  29.390  1.00  0.00     0.091 A 
ATOM     67  F   UNL A   1      43.962  34.494  28.015  1.00  0.00    -0.205 F 
ATOM     68  C   UNL A   1      46.294  35.767  30.538  1.00  0.00     0.022 A 
BRANCH  66  69
ATOM     69  S   UNL A   1      45.504  37.160  28.317  1.00  0.00     0.127 S 
ATOM     70  O   UNL A   1      46.365  38.074  29.066  1.00  0.00    -0.237 OA
ATOM     71  O   UNL A   1      46.101  36.625  27.092  1.00  0.00    -0.237 OA
ATOM     72  O   UNL A   1      44.117  37.582  28.183  1.00  0.00    -0.744 OA
ENDBRANCH  66  69
ENDBRANCH  39  62
ENDBRANCH  13  14
ENDBRANCH   6   8
ENDBRANCH   3   4
ENDBRANCH   2   3
ENDBRANCH   1   2
BRANCH   1  73
ATOM     73  C   UNL A   1      34.213  23.546  22.821  1.00  0.00     0.002 C 
BRANCH  73  74
ATOM     74  C   UNL A   1      32.789  24.090  23.003  1.00  0.00     0.021 C 
BRANCH  74  75
ATOM     75  C   UNL A   1      31.738  23.012  23.256  1.00  0.00     0.116 C 
BRANCH  75  76
ATOM     76  N   UNL A   1      32.362  21.795  23.743  1.00  0.00    -0.356 N 
ATOM     77  C   UNL A   1      32.608  21.295  24.988  1.00  0.00     0.223 C 
ATOM     78  H   UNL A   1      32.674  21.205  23.020  1.00  0.00     0.163 HD
ATOM     79  O   UNL A   1      33.298  20.278  25.063  1.00  0.00    -0.275 OA
BRANCH  77  80
ATOM     80  C   UNL A   1      32.023  21.820  26.250  1.00  0.00     0.091 C 
ATOM     81  C   UNL A   1      32.609  22.772  27.242  1.00  0.00     0.028 C 
ATOM     82  C   UNL A   1      31.535  23.254  26.283  1.00  0.00     0.092 C 
BRANCH  82  83
ATOM     83  C   UNL A   1      30.174  23.610  26.771  1.00  0.00     0.228 C 
ATOM     84  O   UNL A   1      29.514  22.804  27.420  1.00  0.00    -0.274 OA
ATOM     85  N   UNL A   1      29.771  24.922  26.651  1.00  0.00    -0.326 N 
ATOM     86  H   UNL A   1      29.106  25.227  27.310  1.00  0.00     0.169 HD
BRANCH  85  87
ATOM     87  C   UNL A   1      30.186  25.881  25.715  1.00  0.00     0.042 A 
ATOM     88  C   UNL A   1      29.627  25.952  24.441  1.00  0.00     0.028 A 
ATOM     89  C   UNL A   1      31.127  26.837  26.098  1.00  0.00     0.043 A 
ATOM     90  C   UNL A   1      30.058  26.910  23.521  1.00  0.00     0.024 A 
ATOM     91  C   UNL A   1      31.571  27.798  25.176  1.00  0.00     0.038 A 
ATOM     92  C   UNL A   1      31.042  27.828  23.881  1.00  0.00     0.055 A 
ATOM     93  Br  UNL A   1      32.905  29.020  25.760  1.00  0.00    -0.049 Br
ATOM     94  Cl  UNL A   1      31.536  28.976  22.689  1.00  0.00    -0.083 Cl
ENDBRANCH  85  87
ENDBRANCH  82  83
ENDBRANCH  77  80
ENDBRANCH  75  76
ENDBRANCH  74  75
ENDBRANCH  73  74
ENDBRANCH   1  73
TORSDOF 18
ENDMDL
MODEL 3
REMARK VINA RESULT:     -10.9      2.700      3.821
REMARK SMILES O=C(NCCCCCCNC(=O)[C@H]1C[C@@H]1C(=O)Nc1ccc(Cl)c(Br)c1)c1ccc(-c2c3nc(c(-c4cccc(S(=O)(=O)[O-])c4F)c4ccc([nH]4)c(-c4cccc(S(=O)(=O)[O-])c4F)c4nc(c(-c5cccc(S(=O)(=O)[O-])c5F)c5ccc2[nH]5)C=C4)C=C3)cc1
REMARK SMILES IDX 6 1 5 2 4 3 3 4 1 5 2 6 27 8 28 9 89 10 29 11 88 12 30 13
REMARK SMILES IDX 31 14 32 15 82 16 33 17 87 18 81 19 83 20 34 21 86 22 80 23
REMARK SMILES IDX 79 24 35 26 67 27 47 28 66 29 48 30 51 31 65 32 84 33 49 34
REMARK SMILES IDX 50 35 64 37 85 38 52 39 36 40 37 41 45 42 38 43 40 44 46 45
REMARK SMILES IDX 39 46 41 47 42 48 43 49 44 50 68 51 69 52 77 53 70 54 72 55
REMARK SMILES IDX 78 56 71 57 73 58 74 59 75 60 76 61 53 62 54 63 62 64 55 65
REMARK SMILES IDX 57 66 63 67 56 68 58 69 59 70 60 71 61 72 7 73 8 74 9 75
REMARK SMILES IDX 10 76 11 77 12 79 13 80 14 81 15 82 16 83 17 84 18 85 19 87
REMARK SMILES IDX 20 88 26 89 21 90 24 91 22 92 25 93 23 94
REMARK H PARENT 3 7 83 25 51 36 10 78 18 86
REMARK Flexibility Score: inf
ROOT
ATOM      1  C   UNL A   1      35.909  23.447  23.864  1.00  0.00     0.002 C 
ENDROOT
BRANCH   1   2
ATOM      2  C   UNL A   1      36.533  22.065  24.086  1.00  0.00     0.021 C 
BRANCH   2   3
ATOM      3  C   UNL A   1      36.792  21.698  25.544  1.00  0.00     0.116 C 
BRANCH   3   4
ATOM      4  N   UNL A   1      37.847  20.711  25.680  1.00  0.00    -0.352 N 
ATOM      5  O   UNL A   1      39.946  19.945  25.903  1.00  0.00    -0.269 OA
ATOM      6  C   UNL A   1      39.165  20.886  26.018  1.00  0.00     0.251 C 
ATOM      7  H   UNL A   1      37.578  19.781  25.505  1.00  0.00     0.163 HD
BRANCH   6   8
ATOM      8  C   UNL A   1      39.653  22.196  26.511  1.00  0.00     0.039 A 
ATOM      9  C   UNL A   1      39.267  23.353  25.826  1.00  0.00     0.014 A 
ATOM     10  C   UNL A   1      40.541  22.287  27.587  1.00  0.00     0.014 A 
ATOM     11  C   UNL A   1      39.758  24.597  26.225  1.00  0.00     0.010 A 
ATOM     12  C   UNL A   1      40.987  23.535  28.020  1.00  0.00     0.010 A 
ATOM     13  C   UNL A   1      40.623  24.699  27.325  1.00  0.00    -0.014 A 
BRANCH  13  14
ATOM     14  C   UNL A   1      41.219  26.003  27.709  1.00  0.00     0.031 A 
ATOM     15  C   UNL A   1      42.638  26.318  27.318  1.00  0.00     0.074 A 
ATOM     16  C   UNL A   1      40.507  26.889  28.431  1.00  0.00     0.049 A 
ATOM     17  N   UNL A   1      43.353  27.377  27.593  1.00  0.00    -0.248 NA
ATOM     18  C   UNL A   1      43.355  25.302  26.526  1.00  0.00     0.031 C 
ATOM     19  C   UNL A   1      39.138  26.687  28.908  1.00  0.00     0.029 A 
ATOM     20  N   UNL A   1      40.841  28.137  28.896  1.00  0.00    -0.354 N 
ATOM     21  C   UNL A   1      44.607  27.141  27.046  1.00  0.00     0.074 A 
ATOM     22  C   UNL A   1      44.567  25.829  26.440  1.00  0.00     0.031 C 
ATOM     23  C   UNL A   1      38.742  27.781  29.579  1.00  0.00     0.029 A 
ATOM     24  C   UNL A   1      39.833  28.753  29.598  1.00  0.00     0.049 A 
ATOM     25  H   UNL A   1      41.721  28.552  28.740  1.00  0.00     0.167 HD
ATOM     26  C   UNL A   1      45.686  27.957  27.016  1.00  0.00     0.034 A 
ATOM     27  C   UNL A   1      39.788  29.967  30.181  1.00  0.00     0.034 A 
ATOM     28  C   UNL A   1      45.706  29.291  27.545  1.00  0.00     0.049 A 
ATOM     29  C   UNL A   1      40.985  30.875  30.091  1.00  0.00     0.074 A 
ATOM     30  C   UNL A   1      46.734  30.216  27.500  1.00  0.00     0.029 A 
ATOM     31  N   UNL A   1      44.645  29.897  28.196  1.00  0.00    -0.354 N 
ATOM     32  N   UNL A   1      42.129  30.668  29.487  1.00  0.00    -0.248 NA
ATOM     33  C   UNL A   1      40.877  32.189  30.742  1.00  0.00     0.031 C 
ATOM     34  C   UNL A   1      46.289  31.390  28.115  1.00  0.00     0.029 A 
ATOM     35  C   UNL A   1      44.988  31.189  28.549  1.00  0.00     0.049 A 
ATOM     36  H   UNL A   1      43.776  29.472  28.379  1.00  0.00     0.167 HD
ATOM     37  C   UNL A   1      42.869  31.831  29.663  1.00  0.00     0.074 A 
ATOM     38  C   UNL A   1      42.040  32.746  30.419  1.00  0.00     0.031 C 
ATOM     39  C   UNL A   1      44.129  32.107  29.251  1.00  0.00     0.034 A 
BRANCH  26  40
ATOM     40  C   UNL A   1      46.916  27.460  26.309  1.00  0.00     0.023 A 
ATOM     41  C   UNL A   1      47.083  27.758  24.943  1.00  0.00     0.012 A 
ATOM     42  C   UNL A   1      47.928  26.767  27.000  1.00  0.00     0.148 A 
ATOM     43  C   UNL A   1      48.234  27.359  24.267  1.00  0.00     0.002 A 
ATOM     44  C   UNL A   1      49.085  26.396  26.326  1.00  0.00     0.091 A 
ATOM     45  F   UNL A   1      47.736  26.480  28.296  1.00  0.00    -0.205 F 
ATOM     46  C   UNL A   1      49.238  26.687  24.960  1.00  0.00     0.022 A 
BRANCH  44  47
ATOM     47  S   UNL A   1      50.459  25.567  27.133  1.00  0.00     0.127 S 
ATOM     48  O   UNL A   1      51.385  25.377  26.017  1.00  0.00    -0.237 OA
ATOM     49  O   UNL A   1      50.884  26.562  28.117  1.00  0.00    -0.237 OA
ATOM     50  O   UNL A   1      49.912  24.343  27.702  1.00  0.00    -0.744 OA
ENDBRANCH  44  47
ENDBRANCH  26  40
BRANCH  27  51
ATOM     51  C   UNL A   1      38.525  30.427  30.818  1.00  0.00     0.023 A 
ATOM     52  C   UNL A   1      38.324  30.170  32.188  1.00  0.00     0.012 A 
ATOM     53  C   UNL A   1      37.562  31.164  30.104  1.00  0.00     0.148 A 
ATOM     54  C   UNL A   1      37.178  30.630  32.836  1.00  0.00     0.002 A 
ATOM     55  C   UNL A   1      36.439  31.651  30.764  1.00  0.00     0.091 A 
ATOM     56  F   UNL A   1      37.773  31.387  28.800  1.00  0.00    -0.205 F 
ATOM     57  C   UNL A   1      36.241  31.378  32.127  1.00  0.00     0.022 A 
BRANCH  55  58
ATOM     58  S   UNL A   1      35.228  32.710  29.964  1.00  0.00     0.127 S 
ATOM     59  O   UNL A   1      34.407  33.133  31.097  1.00  0.00    -0.237 OA
ATOM     60  O   UNL A   1      36.075  33.757  29.392  1.00  0.00    -0.237 OA
ATOM     61  O   UNL A   1      34.559  31.870  28.980  1.00  0.00    -0.744 OA
ENDBRANCH  55  58
ENDBRANCH  27  51
BRANCH  39  62
ATOM     62  C   UNL A   1      44.709  33.450  29.592  1.00  0.00     0.023 A 
ATOM     63  C   UNL A   1      45.415  33.601  30.801  1.00  0.00     0.012 A 
ATOM     64  C   UNL A   1      44.678  34.509  28.664  1.00  0.00     0.148 A 
ATOM     65  C   UNL A   1      46.083  34.792  31.083  1.00  0.00     0.002 A 
ATOM     66  C   UNL A   1      45.370  35.681  28.939  1.00  0.00     0.091 A 
ATOM     67  F   UNL A   1      43.990  34.339  27.526  1.00  0.00    -0.205 F 
ATOM     68  C   UNL A   1      46.071  35.825  30.149  1.00  0.00     0.022 A 
BRANCH  66  69
ATOM     69  S   UNL A   1      45.477  37.041  27.770  1.00  0.00     0.127 S 
ATOM     70  O   UNL A   1      46.257  38.021  28.525  1.00  0.00    -0.237 OA
ATOM     71  O   UNL A   1      46.188  36.429  26.647  1.00  0.00    -0.237 OA
ATOM     72  O   UNL A   1      44.104  37.432  27.479  1.00  0.00    -0.744 OA
ENDBRANCH  66  69
ENDBRANCH  39  62
ENDBRANCH  13  14
ENDBRANCH   6   8
ENDBRANCH   3   4
ENDBRANCH   2   3
ENDBRANCH   1   2
BRANCH   1  73
ATOM     73  C   UNL A   1      34.581  23.455  23.099  1.00  0.00     0.002 C 
BRANCH  73  74
ATOM     74  C   UNL A   1      33.755  24.742  23.232  1.00  0.00     0.021 C 
BRANCH  74  75
ATOM     75  C   UNL A   1      33.664  25.280  24.659  1.00  0.00     0.116 C 
BRANCH  75  76
ATOM     76  N   UNL A   1      32.315  25.728  24.950  1.00  0.00    -0.356 N 
ATOM     77  C   UNL A   1      31.320  25.261  25.758  1.00  0.00     0.223 C 
ATOM     78  H   UNL A   1      32.065  26.544  24.460  1.00  0.00     0.163 HD
ATOM     79  O   UNL A   1      30.218  25.804  25.670  1.00  0.00    -0.275 OA
BRANCH  77  80
ATOM     80  C   UNL A   1      31.489  24.220  26.806  1.00  0.00     0.091 C 
ATOM     81  C   UNL A   1      30.645  23.022  27.097  1.00  0.00     0.028 C 
ATOM     82  C   UNL A   1      31.981  22.848  26.395  1.00  0.00     0.092 C 
BRANCH  82  83
ATOM     83  C   UNL A   1      33.126  22.186  27.077  1.00  0.00     0.228 C 
ATOM     84  O   UNL A   1      33.706  22.744  28.004  1.00  0.00    -0.274 OA
ATOM     85  N   UNL A   1      33.375  20.864  26.779  1.00  0.00    -0.326 N 
ATOM     86  H   UNL A   1      33.817  20.342  27.486  1.00  0.00     0.169 HD
BRANCH  85  87
ATOM     87  C   UNL A   1      33.080  20.165  25.599  1.00  0.00     0.042 A 
ATOM     88  C   UNL A   1      32.652  20.820  24.446  1.00  0.00     0.028 A 
ATOM     89  C   UNL A   1      33.297  18.787  25.557  1.00  0.00     0.043 A 
ATOM     90  C   UNL A   1      32.358  20.105  23.283  1.00  0.00     0.024 A 
ATOM     91  C   UNL A   1      32.995  18.061  24.394  1.00  0.00     0.038 A 
ATOM     92  C   UNL A   1      32.515  18.721  23.257  1.00  0.00     0.055 A 
ATOM     93  Br  UNL A   1      33.255  16.179  24.446  1.00  0.00    -0.049 Br
ATOM     94  Cl  UNL A   1      32.119  17.901  21.790  1.00  0.00    -0.083 Cl
ENDBRANCH  85  87
ENDBRANCH  82  83
ENDBRANCH  77  80
ENDBRANCH  75  76
ENDBRANCH  74  75
ENDBRANCH  73  74
ENDBRANCH   1  73
TORSDOF 18
ENDMDL
