MODEL 1
REMARK VINA RESULT:     -10.8      0.000      0.000
REMARK SMILES CC[C@H](C(=O)NCCCCCCNC(=O)c1ccc(-c2c3nc(c(-c4cccc(S(=O)(=O)[O-])c4F)c4ccc([nH]4)c(-c4cccc(S(=O)(=O)[O-])c4F)c4nc(c(-c5cccc(S(=O)(=O)[O-])c5F)c5ccc2[nH]5)C=C4)C=C3)cc1)[N@H+](C)[C@H]1CC[C@H]([NH3+])CC1
REMARK SMILES IDX 9 1 8 2 7 3 6 4 4 5 5 6 3 8 2 9 1 10 79 11 80 12 81 14 82 15
REMARK SMILES IDX 87 16 83 17 86 18 84 19 85 20 10 24 11 25 12 26 13 27 14 28
REMARK SMILES IDX 15 30 16 31 17 32 78 33 18 34 77 35 19 36 20 37 21 38 71 39
REMARK SMILES IDX 22 40 76 41 70 42 72 43 23 44 75 45 69 46 68 47 24 49 56 50
REMARK SMILES IDX 36 51 55 52 37 53 40 54 54 55 73 56 38 57 39 58 53 60 74 61
REMARK SMILES IDX 41 62 25 63 26 64 34 65 27 66 29 67 35 68 28 69 30 70 31 71
REMARK SMILES IDX 32 72 33 73 57 74 58 75 66 76 59 77 61 78 67 79 60 80 62 81
REMARK SMILES IDX 63 82 64 83 65 84 42 85 43 86 51 87 44 88 46 89 52 90 45 91
REMARK SMILES IDX 47 92 48 93 49 94 50 95
REMARK H PARENT 6 7 79 13 85 21 85 22 85 23 13 29 72 48 40 59
REMARK Flexibility Score: inf
ROOT
ATOM      1  C   UNL A   1      34.003  28.323  24.807  1.00  0.00     0.002 C 
ENDROOT
BRANCH   1   2
ATOM      2  C   UNL A   1      33.811  28.383  23.286  1.00  0.00     0.021 C 
BRANCH   2   3
ATOM      3  C   UNL A   1      32.477  27.814  22.806  1.00  0.00     0.116 C 
BRANCH   3   4
ATOM      4  N   UNL A   1      32.666  27.000  21.618  1.00  0.00    -0.351 N 
ATOM      5  C   UNL A   1      32.887  25.658  21.489  1.00  0.00     0.278 C 
ATOM      6  O   UNL A   1      33.096  25.230  20.350  1.00  0.00    -0.268 OA
ATOM      7  H   UNL A   1      32.627  27.495  20.768  1.00  0.00     0.163 HD
BRANCH   5   8
ATOM      8  C   UNL A   1      32.794  24.750  22.742  1.00  0.00     0.273 C 
BRANCH   8   9
ATOM      9  C   UNL A   1      31.283  24.629  23.065  1.00  0.00     0.072 C 
ATOM     10  C   UNL A   1      30.957  24.481  24.548  1.00  0.00     0.011 C 
ENDBRANCH   8   9
BRANCH   8  11
ATOM     11  N   UNL A   1      33.527  23.454  22.579  1.00  0.00    -0.325 N 
ATOM     12  C   UNL A   1      32.581  22.351  22.375  1.00  0.00     0.333 C 
ATOM     13  H   UNL A   1      34.101  23.532  21.739  1.00  0.00     0.348 HD
BRANCH  11  14
ATOM     14  C   UNL A   1      34.502  23.187  23.677  1.00  0.00     0.184 C 
ATOM     15  C   UNL A   1      34.587  24.371  24.670  1.00  0.00     0.071 C 
ATOM     16  C   UNL A   1      35.916  22.764  23.217  1.00  0.00     0.071 C 
ATOM     17  C   UNL A   1      35.531  24.080  25.838  1.00  0.00     0.071 C 
ATOM     18  C   UNL A   1      36.851  22.498  24.399  1.00  0.00     0.071 C 
ATOM     19  C   UNL A   1      36.927  23.708  25.331  1.00  0.00     0.181 C 
BRANCH  19  20
ATOM     20  N   UNL A   1      37.823  23.424  26.449  1.00  0.00    -0.355 N 
ATOM     21  H   UNL A   1      37.524  22.569  26.916  1.00  0.00     0.344 HD
ATOM     22  H   UNL A   1      37.797  24.200  27.111  1.00  0.00     0.344 HD
ATOM     23  H   UNL A   1      38.775  23.307  26.101  1.00  0.00     0.344 HD
ENDBRANCH  19  20
ENDBRANCH  11  14
ENDBRANCH   8  11
ENDBRANCH   5   8
ENDBRANCH   3   4
ENDBRANCH   2   3
ENDBRANCH   1   2
BRANCH   1  24
ATOM     24  C   UNL A   1      32.896  27.591  25.572  1.00  0.00     0.002 C 
BRANCH  24  25
ATOM     25  C   UNL A   1      31.761  28.485  26.077  1.00  0.00     0.021 C 
BRANCH  25  26
ATOM     26  C   UNL A   1      32.134  29.376  27.258  1.00  0.00     0.116 C 
BRANCH  26  27
ATOM     27  N   UNL A   1      32.110  30.789  26.907  1.00  0.00    -0.352 N 
ATOM     28  C   UNL A   1      33.038  31.763  27.179  1.00  0.00     0.251 C 
ATOM     29  H   UNL A   1      31.317  31.088  26.404  1.00  0.00     0.163 HD
ATOM     30  O   UNL A   1      32.771  32.944  26.976  1.00  0.00    -0.269 OA
BRANCH  28  31
ATOM     31  C   UNL A   1      34.352  31.382  27.738  1.00  0.00     0.039 A 
ATOM     32  C   UNL A   1      35.301  32.379  27.983  1.00  0.00     0.014 A 
ATOM     33  C   UNL A   1      34.641  30.048  28.036  1.00  0.00     0.014 A 
ATOM     34  C   UNL A   1      36.512  32.045  28.591  1.00  0.00     0.010 A 
ATOM     35  C   UNL A   1      35.817  29.729  28.708  1.00  0.00     0.010 A 
ATOM     36  C   UNL A   1      36.765  30.723  28.992  1.00  0.00    -0.014 A 
BRANCH  36  37
ATOM     37  C   UNL A   1      37.999  30.364  29.739  1.00  0.00     0.031 A 
ATOM     38  C   UNL A   1      38.981  29.384  29.159  1.00  0.00     0.074 A 
ATOM     39  C   UNL A   1      38.187  30.851  30.982  1.00  0.00     0.049 A 
ATOM     40  N   UNL A   1      40.072  28.898  29.692  1.00  0.00    -0.248 NA
ATOM     41  C   UNL A   1      38.688  28.862  27.814  1.00  0.00     0.031 C 
ATOM     42  C   UNL A   1      37.269  31.751  31.686  1.00  0.00     0.029 A 
ATOM     43  N   UNL A   1      39.195  30.633  31.889  1.00  0.00    -0.354 N 
ATOM     44  C   UNL A   1      40.576  27.990  28.769  1.00  0.00     0.074 A 
ATOM     45  C   UNL A   1      39.654  27.969  27.654  1.00  0.00     0.031 C 
ATOM     46  C   UNL A   1      37.757  32.008  32.910  1.00  0.00     0.029 A 
ATOM     47  C   UNL A   1      38.999  31.264  33.095  1.00  0.00     0.049 A 
ATOM     48  H   UNL A   1      39.984  30.077  31.694  1.00  0.00     0.167 HD
ATOM     49  C   UNL A   1      41.714  27.260  28.831  1.00  0.00     0.034 A 
ATOM     50  C   UNL A   1      39.727  31.236  34.229  1.00  0.00     0.034 A 
ATOM     51  C   UNL A   1      42.644  27.308  29.926  1.00  0.00     0.049 A 
ATOM     52  C   UNL A   1      40.997  30.430  34.264  1.00  0.00     0.074 A 
ATOM     53  C   UNL A   1      43.870  26.676  30.042  1.00  0.00     0.029 A 
ATOM     54  N   UNL A   1      42.449  28.018  31.102  1.00  0.00    -0.354 N 
ATOM     55  N   UNL A   1      41.538  29.703  33.317  1.00  0.00    -0.248 NA
ATOM     56  C   UNL A   1      41.772  30.464  35.513  1.00  0.00     0.031 C 
ATOM     57  C   UNL A   1      44.399  26.973  31.302  1.00  0.00     0.029 A 
ATOM     58  C   UNL A   1      43.521  27.823  31.956  1.00  0.00     0.049 A 
ATOM     59  H   UNL A   1      41.664  28.577  31.299  1.00  0.00     0.167 HD
ATOM     60  C   UNL A   1      42.733  29.223  33.842  1.00  0.00     0.074 A 
ATOM     61  C   UNL A   1      42.846  29.758  35.182  1.00  0.00     0.031 C 
ATOM     62  C   UNL A   1      43.646  28.399  33.269  1.00  0.00     0.034 A 
BRANCH  49  63
ATOM     63  C   UNL A   1      42.043  26.371  27.659  1.00  0.00     0.023 A 
ATOM     64  C   UNL A   1      42.723  26.907  26.545  1.00  0.00     0.012 A 
ATOM     65  C   UNL A   1      41.739  24.996  27.686  1.00  0.00     0.148 A 
ATOM     66  C   UNL A   1      43.064  26.096  25.463  1.00  0.00     0.002 A 
ATOM     67  C   UNL A   1      42.124  24.185  26.624  1.00  0.00     0.091 A 
ATOM     68  F   UNL A   1      41.075  24.507  28.743  1.00  0.00    -0.205 F 
ATOM     69  C   UNL A   1      42.775  24.735  25.508  1.00  0.00     0.022 A 
BRANCH  67  70
ATOM     70  S   UNL A   1      41.872  22.407  26.619  1.00  0.00     0.127 S 
ATOM     71  O   UNL A   1      42.545  22.010  27.856  1.00  0.00    -0.237 OA
ATOM     72  O   UNL A   1      40.412  22.305  26.660  1.00  0.00    -0.237 OA
ATOM     73  O   UNL A   1      42.482  21.916  25.392  1.00  0.00    -0.744 OA
ENDBRANCH  67  70
ENDBRANCH  49  63
BRANCH  50  74
ATOM     74  C   UNL A   1      39.294  32.032  35.413  1.00  0.00     0.023 A 
ATOM     75  C   UNL A   1      38.402  31.462  36.343  1.00  0.00     0.012 A 
ATOM     76  C   UNL A   1      39.775  33.337  35.634  1.00  0.00     0.148 A 
ATOM     77  C   UNL A   1      37.971  32.191  37.452  1.00  0.00     0.002 A 
ATOM     78  C   UNL A   1      39.387  34.035  36.771  1.00  0.00     0.091 A 
ATOM     79  F   UNL A   1      40.616  33.865  34.732  1.00  0.00    -0.205 F 
ATOM     80  C   UNL A   1      38.470  33.471  37.671  1.00  0.00     0.022 A 
BRANCH  78  81
ATOM     81  S   UNL A   1      40.080  35.635  37.202  1.00  0.00     0.127 S 
ATOM     82  O   UNL A   1      39.653  36.460  36.074  1.00  0.00    -0.237 OA
ATOM     83  O   UNL A   1      39.405  35.925  38.468  1.00  0.00    -0.237 OA
ATOM     84  O   UNL A   1      41.516  35.424  37.323  1.00  0.00    -0.744 OA
ENDBRANCH  78  81
ENDBRANCH  50  74
BRANCH  62  85
ATOM     85  C   UNL A   1      44.873  28.049  34.071  1.00  0.00     0.023 A 
ATOM     86  C   UNL A   1      46.005  28.887  34.027  1.00  0.00     0.012 A 
ATOM     87  C   UNL A   1      44.873  26.931  34.929  1.00  0.00     0.148 A 
ATOM     88  C   UNL A   1      47.127  28.602  34.803  1.00  0.00     0.002 A 
ATOM     89  C   UNL A   1      45.975  26.683  35.738  1.00  0.00     0.091 A 
ATOM     90  F   UNL A   1      43.792  26.137  34.942  1.00  0.00    -0.205 F 
ATOM     91  C   UNL A   1      47.108  27.509  35.667  1.00  0.00     0.022 A 
BRANCH  89  92
ATOM     92  S   UNL A   1      46.003  25.358  36.951  1.00  0.00     0.127 S 
ATOM     93  O   UNL A   1      45.926  24.172  36.098  1.00  0.00    -0.237 OA
ATOM     94  O   UNL A   1      47.300  25.560  37.597  1.00  0.00    -0.237 OA
ATOM     95  O   UNL A   1      44.853  25.577  37.817  1.00  0.00    -0.744 OA
ENDBRANCH  89  92
ENDBRANCH  62  85
ENDBRANCH  36  37
ENDBRANCH  28  31
ENDBRANCH  26  27
ENDBRANCH  25  26
ENDBRANCH  24  25
ENDBRANCH   1  24
TORSDOF 20
ENDMDL
MODEL 2
REMARK VINA RESULT:     -10.6      2.430      8.112
REMARK SMILES CC[C@H](C(=O)NCCCCCCNC(=O)c1ccc(-c2c3nc(c(-c4cccc(S(=O)(=O)[O-])c4F)c4ccc([nH]4)c(-c4cccc(S(=O)(=O)[O-])c4F)c4nc(c(-c5cccc(S(=O)(=O)[O-])c5F)c5ccc2[nH]5)C=C4)C=C3)cc1)[N@H+](C)[C@H]1CC[C@H]([NH3+])CC1
REMARK SMILES IDX 9 1 8 2 7 3 6 4 4 5 5 6 3 8 2 9 1 10 79 11 80 12 81 14 82 15
REMARK SMILES IDX 87 16 83 17 86 18 84 19 85 20 10 24 11 25 12 26 13 27 14 28
REMARK SMILES IDX 15 30 16 31 17 32 78 33 18 34 77 35 19 36 20 37 21 38 71 39
REMARK SMILES IDX 22 40 76 41 70 42 72 43 23 44 75 45 69 46 68 47 24 49 56 50
REMARK SMILES IDX 36 51 55 52 37 53 40 54 54 55 73 56 38 57 39 58 53 60 74 61
REMARK SMILES IDX 41 62 25 63 26 64 34 65 27 66 29 67 35 68 28 69 30 70 31 71
REMARK SMILES IDX 32 72 33 73 57 74 58 75 66 76 59 77 61 78 67 79 60 80 62 81
REMARK SMILES IDX 63 82 64 83 65 84 42 85 43 86 51 87 44 88 46 89 52 90 45 91
REMARK SMILES IDX 47 92 48 93 49 94 50 95
REMARK H PARENT 6 7 79 13 85 21 85 22 85 23 13 29 72 48 40 59
REMARK Flexibility Score: inf
ROOT
ATOM      1  C   UNL A   1      32.882  30.143  27.170  1.00  0.00     0.002 C 
ENDROOT
BRANCH   1   2
ATOM      2  C   UNL A   1      32.922  28.615  27.043  1.00  0.00     0.021 C 
BRANCH   2   3
ATOM      3  C   UNL A   1      34.109  28.089  26.236  1.00  0.00     0.116 C 
BRANCH   3   4
ATOM      4  N   UNL A   1      34.125  28.678  24.909  1.00  0.00    -0.351 N 
ATOM      5  C   UNL A   1      33.665  28.192  23.717  1.00  0.00     0.278 C 
ATOM      6  O   UNL A   1      33.881  28.873  22.711  1.00  0.00    -0.268 OA
ATOM      7  H   UNL A   1      34.533  29.572  24.859  1.00  0.00     0.163 HD
BRANCH   5   8
ATOM      8  C   UNL A   1      32.849  26.873  23.701  1.00  0.00     0.273 C 
BRANCH   8   9
ATOM      9  C   UNL A   1      31.477  27.233  23.076  1.00  0.00     0.072 C 
ATOM     10  C   UNL A   1      30.530  27.986  24.005  1.00  0.00     0.011 C 
ENDBRANCH   8   9
BRANCH   8  11
ATOM     11  N   UNL A   1      33.582  25.742  23.047  1.00  0.00    -0.325 N 
ATOM     12  C   UNL A   1      32.976  25.419  21.750  1.00  0.00     0.333 C 
ATOM     13  H   UNL A   1      34.537  26.057  22.875  1.00  0.00     0.348 HD
BRANCH  11  14
ATOM     14  C   UNL A   1      33.732  24.549  23.931  1.00  0.00     0.184 C 
ATOM     15  C   UNL A   1      34.943  24.690  24.885  1.00  0.00     0.071 C 
ATOM     16  C   UNL A   1      33.775  23.187  23.201  1.00  0.00     0.071 C 
ATOM     17  C   UNL A   1      35.065  23.505  25.843  1.00  0.00     0.071 C 
ATOM     18  C   UNL A   1      33.918  22.015  24.174  1.00  0.00     0.071 C 
ATOM     19  C   UNL A   1      35.146  22.185  25.071  1.00  0.00     0.181 C 
BRANCH  19  20
ATOM     20  N   UNL A   1      35.256  21.055  25.990  1.00  0.00    -0.355 N 
ATOM     21  H   UNL A   1      36.067  21.185  26.594  1.00  0.00     0.344 HD
ATOM     22  H   UNL A   1      35.363  20.192  25.457  1.00  0.00     0.344 HD
ATOM     23  H   UNL A   1      34.412  20.998  26.561  1.00  0.00     0.344 HD
ENDBRANCH  19  20
ENDBRANCH  11  14
ENDBRANCH   8  11
ENDBRANCH   5   8
ENDBRANCH   3   4
ENDBRANCH   2   3
ENDBRANCH   1   2
BRANCH   1  24
ATOM     24  C   UNL A   1      31.704  30.822  26.466  1.00  0.00     0.002 C 
BRANCH  24  25
ATOM     25  C   UNL A   1      31.561  32.320  26.748  1.00  0.00     0.021 C 
BRANCH  25  26
ATOM     26  C   UNL A   1      32.772  32.956  27.424  1.00  0.00     0.116 C 
BRANCH  26  27
ATOM     27  N   UNL A   1      32.519  34.335  27.816  1.00  0.00    -0.352 N 
ATOM     28  C   UNL A   1      33.065  35.054  28.850  1.00  0.00     0.251 C 
ATOM     29  H   UNL A   1      31.864  34.820  27.263  1.00  0.00     0.163 HD
ATOM     30  O   UNL A   1      32.598  36.148  29.156  1.00  0.00    -0.269 OA
BRANCH  28  31
ATOM     31  C   UNL A   1      34.205  34.494  29.605  1.00  0.00     0.039 A 
ATOM     32  C   UNL A   1      33.965  33.868  30.831  1.00  0.00     0.014 A 
ATOM     33  C   UNL A   1      35.504  34.569  29.096  1.00  0.00     0.014 A 
ATOM     34  C   UNL A   1      35.019  33.258  31.514  1.00  0.00     0.010 A 
ATOM     35  C   UNL A   1      36.539  33.898  29.740  1.00  0.00     0.010 A 
ATOM     36  C   UNL A   1      36.309  33.235  30.955  1.00  0.00    -0.014 A 
BRANCH  36  37
ATOM     37  C   UNL A   1      37.422  32.499  31.609  1.00  0.00     0.031 A 
ATOM     38  C   UNL A   1      37.970  32.964  32.929  1.00  0.00     0.074 A 
ATOM     39  C   UNL A   1      38.001  31.465  30.965  1.00  0.00     0.049 A 
ATOM     40  N   UNL A   1      38.980  32.493  33.614  1.00  0.00    -0.248 NA
ATOM     41  C   UNL A   1      37.313  34.125  33.553  1.00  0.00     0.031 C 
ATOM     42  C   UNL A   1      37.610  30.965  29.644  1.00  0.00     0.029 A 
ATOM     43  N   UNL A   1      39.063  30.669  31.318  1.00  0.00    -0.354 N 
ATOM     44  C   UNL A   1      39.104  33.317  34.725  1.00  0.00     0.074 A 
ATOM     45  C   UNL A   1      38.085  34.337  34.609  1.00  0.00     0.031 C 
ATOM     46  C   UNL A   1      38.418  29.949  29.301  1.00  0.00     0.029 A 
ATOM     47  C   UNL A   1      39.407  29.749  30.355  1.00  0.00     0.049 A 
ATOM     48  H   UNL A   1      39.533  30.750  32.179  1.00  0.00     0.167 HD
ATOM     49  C   UNL A   1      39.969  33.219  35.763  1.00  0.00     0.034 A 
ATOM     50  C   UNL A   1      40.415  28.855  30.317  1.00  0.00     0.034 A 
ATOM     51  C   UNL A   1      40.959  32.184  35.891  1.00  0.00     0.049 A 
ATOM     52  C   UNL A   1      41.351  28.756  31.490  1.00  0.00     0.074 A 
ATOM     53  C   UNL A   1      41.821  31.945  36.947  1.00  0.00     0.029 A 
ATOM     54  N   UNL A   1      41.230  31.222  34.930  1.00  0.00    -0.354 N 
ATOM     55  N   UNL A   1      41.350  29.442  32.607  1.00  0.00    -0.248 NA
ATOM     56  C   UNL A   1      42.410  27.738  31.412  1.00  0.00     0.031 C 
ATOM     57  C   UNL A   1      42.639  30.863  36.608  1.00  0.00     0.029 A 
ATOM     58  C   UNL A   1      42.260  30.401  35.358  1.00  0.00     0.049 A 
ATOM     59  H   UNL A   1      40.760  31.136  34.069  1.00  0.00     0.167 HD
ATOM     60  C   UNL A   1      42.381  28.918  33.377  1.00  0.00     0.074 A 
ATOM     61  C   UNL A   1      42.972  27.842  32.609  1.00  0.00     0.031 C 
ATOM     62  C   UNL A   1      42.809  29.303  34.606  1.00  0.00     0.034 A 
BRANCH  49  63
ATOM     63  C   UNL A   1      39.860  34.237  36.868  1.00  0.00     0.023 A 
ATOM     64  C   UNL A   1      40.210  35.580  36.617  1.00  0.00     0.012 A 
ATOM     65  C   UNL A   1      39.350  33.881  38.132  1.00  0.00     0.148 A 
ATOM     66  C   UNL A   1      40.088  36.545  37.616  1.00  0.00     0.002 A 
ATOM     67  C   UNL A   1      39.186  34.858  39.108  1.00  0.00     0.091 A 
ATOM     68  F   UNL A   1      39.040  32.597  38.359  1.00  0.00    -0.205 F 
ATOM     69  C   UNL A   1      39.566  36.186  38.856  1.00  0.00     0.022 A 
BRANCH  67  70
ATOM     70  S   UNL A   1      38.448  34.517  40.709  1.00  0.00     0.127 S 
ATOM     71  O   UNL A   1      38.148  35.866  41.190  1.00  0.00    -0.237 OA
ATOM     72  O   UNL A   1      37.273  33.725  40.342  1.00  0.00    -0.237 OA
ATOM     73  O   UNL A   1      39.456  33.793  41.472  1.00  0.00    -0.744 OA
ENDBRANCH  67  70
ENDBRANCH  49  63
BRANCH  50  74
ATOM     74  C   UNL A   1      40.564  27.950  29.141  1.00  0.00     0.023 A 
ATOM     75  C   UNL A   1      39.772  26.789  29.055  1.00  0.00     0.012 A 
ATOM     76  C   UNL A   1      41.467  28.243  28.101  1.00  0.00     0.148 A 
ATOM     77  C   UNL A   1      39.902  25.918  27.972  1.00  0.00     0.002 A 
ATOM     78  C   UNL A   1      41.550  27.403  26.998  1.00  0.00     0.091 A 
ATOM     79  F   UNL A   1      42.219  29.349  28.206  1.00  0.00    -0.205 F 
ATOM     80  C   UNL A   1      40.782  26.229  26.940  1.00  0.00     0.022 A 
BRANCH  78  81
ATOM     81  S   UNL A   1      42.557  27.793  25.563  1.00  0.00     0.127 S 
ATOM     82  O   UNL A   1      43.892  27.888  26.150  1.00  0.00    -0.237 OA
ATOM     83  O   UNL A   1      42.340  26.620  24.714  1.00  0.00    -0.237 OA
ATOM     84  O   UNL A   1      42.015  29.032  25.024  1.00  0.00    -0.744 OA
ENDBRANCH  78  81
ENDBRANCH  50  74
BRANCH  62  85
ATOM     85  C   UNL A   1      43.952  28.538  35.222  1.00  0.00     0.023 A 
ATOM     86  C   UNL A   1      45.279  28.845  34.861  1.00  0.00     0.012 A 
ATOM     87  C   UNL A   1      43.711  27.571  36.218  1.00  0.00     0.148 A 
ATOM     88  C   UNL A   1      46.347  28.180  35.462  1.00  0.00     0.002 A 
ATOM     89  C   UNL A   1      44.783  26.950  36.849  1.00  0.00     0.091 A 
ATOM     90  F   UNL A   1      42.441  27.283  36.534  1.00  0.00    -0.205 F 
ATOM     91  C   UNL A   1      46.100  27.244  36.463  1.00  0.00     0.022 A 
BRANCH  89  92
ATOM     92  S   UNL A   1      44.567  25.804  38.216  1.00  0.00     0.127 S 
ATOM     93  O   UNL A   1      43.658  24.817  37.635  1.00  0.00    -0.237 OA
ATOM     94  O   UNL A   1      45.931  25.324  38.432  1.00  0.00    -0.237 OA
ATOM     95  O   UNL A   1      44.017  26.585  39.315  1.00  0.00    -0.744 OA
ENDBRANCH  89  92
ENDBRANCH  62  85
ENDBRANCH  36  37
ENDBRANCH  28  31
ENDBRANCH  26  27
ENDBRANCH  25  26
ENDBRANCH  24  25
ENDBRANCH   1  24
TORSDOF 20
ENDMDL
MODEL 3
REMARK VINA RESULT:     -10.5      5.899     10.714
REMARK SMILES CC[C@H](C(=O)NCCCCCCNC(=O)c1ccc(-c2c3nc(c(-c4cccc(S(=O)(=O)[O-])c4F)c4ccc([nH]4)c(-c4cccc(S(=O)(=O)[O-])c4F)c4nc(c(-c5cccc(S(=O)(=O)[O-])c5F)c5ccc2[nH]5)C=C4)C=C3)cc1)[N@H+](C)[C@H]1CC[C@H]([NH3+])CC1
REMARK SMILES IDX 9 1 8 2 7 3 6 4 4 5 5 6 3 8 2 9 1 10 79 11 80 12 81 14 82 15
REMARK SMILES IDX 87 16 83 17 86 18 84 19 85 20 10 24 11 25 12 26 13 27 14 28
REMARK SMILES IDX 15 30 16 31 17 32 78 33 18 34 77 35 19 36 20 37 21 38 71 39
REMARK SMILES IDX 22 40 76 41 70 42 72 43 23 44 75 45 69 46 68 47 24 49 56 50
REMARK SMILES IDX 36 51 55 52 37 53 40 54 54 55 73 56 38 57 39 58 53 60 74 61
REMARK SMILES IDX 41 62 25 63 26 64 34 65 27 66 29 67 35 68 28 69 30 70 31 71
REMARK SMILES IDX 32 72 33 73 57 74 58 75 66 76 59 77 61 78 67 79 60 80 62 81
REMARK SMILES IDX 63 82 64 83 65 84 42 85 43 86 51 87 44 88 46 89 52 90 45 91
REMARK SMILES IDX 47 92 48 93 49 94 50 95
REMARK H PARENT 6 7 79 13 85 21 85 22 85 23 13 29 72 48 40 59
REMARK Flexibility Score: inf
ROOT
ATOM      1  C   UNL A   1      37.556  22.398  25.273  1.00  0.00     0.002 C 
ENDROOT
BRANCH   1   2
ATOM      2  C   UNL A   1      37.007  23.498  24.357  1.00  0.00     0.021 C 
BRANCH   2   3
ATOM      3  C   UNL A   1      35.894  23.029  23.420  1.00  0.00     0.116 C 
BRANCH   3   4
ATOM      4  N   UNL A   1      34.789  23.971  23.427  1.00  0.00    -0.351 N 
ATOM      5  C   UNL A   1      33.580  23.915  24.063  1.00  0.00     0.278 C 
ATOM      6  O   UNL A   1      32.781  24.826  23.831  1.00  0.00    -0.268 OA
ATOM      7  H   UNL A   1      34.933  24.781  22.887  1.00  0.00     0.163 HD
BRANCH   5   8
ATOM      8  C   UNL A   1      33.310  22.774  25.078  1.00  0.00     0.273 C 
BRANCH   8   9
ATOM      9  C   UNL A   1      33.608  23.373  26.476  1.00  0.00     0.072 C 
ATOM     10  C   UNL A   1      34.504  22.513  27.361  1.00  0.00     0.011 C 
ENDBRANCH   8   9
BRANCH   8  11
ATOM     11  N   UNL A   1      31.955  22.157  24.914  1.00  0.00    -0.325 N 
ATOM     12  C   UNL A   1      31.089  22.508  26.045  1.00  0.00     0.333 C 
ATOM     13  H   UNL A   1      31.540  22.553  24.070  1.00  0.00     0.348 HD
BRANCH  11  14
ATOM     14  C   UNL A   1      32.005  20.688  24.656  1.00  0.00     0.184 C 
ATOM     15  C   UNL A   1      32.989  19.970  25.611  1.00  0.00     0.071 C 
ATOM     16  C   UNL A   1      32.283  20.283  23.190  1.00  0.00     0.071 C 
ATOM     17  C   UNL A   1      32.996  18.455  25.402  1.00  0.00     0.071 C 
ATOM     18  C   UNL A   1      32.307  18.765  23.005  1.00  0.00     0.071 C 
ATOM     19  C   UNL A   1      33.318  18.107  23.946  1.00  0.00     0.181 C 
BRANCH  19  20
ATOM     20  N   UNL A   1      33.316  16.659  23.750  1.00  0.00    -0.355 N 
ATOM     21  H   UNL A   1      32.802  16.431  22.900  1.00  0.00     0.344 HD
ATOM     22  H   UNL A   1      32.870  16.208  24.549  1.00  0.00     0.344 HD
ATOM     23  H   UNL A   1      34.277  16.327  23.666  1.00  0.00     0.344 HD
ENDBRANCH  19  20
ENDBRANCH  11  14
ENDBRANCH   8  11
ENDBRANCH   5   8
ENDBRANCH   3   4
ENDBRANCH   2   3
ENDBRANCH   1   2
BRANCH   1  24
ATOM     24  C   UNL A   1      37.060  20.983  24.956  1.00  0.00     0.002 C 
BRANCH  24  25
ATOM     25  C   UNL A   1      38.135  19.895  25.017  1.00  0.00     0.021 C 
BRANCH  25  26
ATOM     26  C   UNL A   1      39.418  20.311  25.731  1.00  0.00     0.116 C 
BRANCH  26  27
ATOM     27  N   UNL A   1      40.346  19.199  25.880  1.00  0.00    -0.352 N 
ATOM     28  C   UNL A   1      41.702  19.228  26.094  1.00  0.00     0.251 C 
ATOM     29  H   UNL A   1      39.946  18.301  25.820  1.00  0.00     0.163 HD
ATOM     30  O   UNL A   1      42.363  18.197  26.005  1.00  0.00    -0.269 OA
BRANCH  28  31
ATOM     31  C   UNL A   1      42.363  20.511  26.409  1.00  0.00     0.039 A 
ATOM     32  C   UNL A   1      42.931  21.256  25.372  1.00  0.00     0.014 A 
ATOM     33  C   UNL A   1      42.406  20.987  27.722  1.00  0.00     0.014 A 
ATOM     34  C   UNL A   1      43.482  22.510  25.642  1.00  0.00     0.010 A 
ATOM     35  C   UNL A   1      42.889  22.267  27.977  1.00  0.00     0.010 A 
ATOM     36  C   UNL A   1      43.432  23.043  26.942  1.00  0.00    -0.014 A 
BRANCH  36  37
ATOM     37  C   UNL A   1      43.911  24.419  27.232  1.00  0.00     0.031 A 
ATOM     38  C   UNL A   1      42.954  25.471  27.719  1.00  0.00     0.074 A 
ATOM     39  C   UNL A   1      45.192  24.744  26.965  1.00  0.00     0.049 A 
ATOM     40  N   UNL A   1      43.173  26.738  27.956  1.00  0.00    -0.248 NA
ATOM     41  C   UNL A   1      41.561  25.052  27.947  1.00  0.00     0.031 C 
ATOM     42  C   UNL A   1      46.200  23.833  26.418  1.00  0.00     0.029 A 
ATOM     43  N   UNL A   1      45.858  25.939  27.086  1.00  0.00    -0.354 N 
ATOM     44  C   UNL A   1      41.947  27.275  28.325  1.00  0.00     0.074 A 
ATOM     45  C   UNL A   1      40.978  26.203  28.251  1.00  0.00     0.031 C 
ATOM     46  C   UNL A   1      47.354  24.500  26.254  1.00  0.00     0.029 A 
ATOM     47  C   UNL A   1      47.161  25.893  26.646  1.00  0.00     0.049 A 
ATOM     48  H   UNL A   1      45.443  26.752  27.455  1.00  0.00     0.167 HD
ATOM     49  C   UNL A   1      41.656  28.539  28.716  1.00  0.00     0.034 A 
ATOM     50  C   UNL A   1      48.090  26.864  26.551  1.00  0.00     0.034 A 
ATOM     51  C   UNL A   1      42.627  29.593  28.820  1.00  0.00     0.049 A 
ATOM     52  C   UNL A   1      47.746  28.254  27.008  1.00  0.00     0.074 A 
ATOM     53  C   UNL A   1      42.449  30.882  29.292  1.00  0.00     0.029 A 
ATOM     54  N   UNL A   1      43.955  29.490  28.435  1.00  0.00    -0.354 N 
ATOM     55  N   UNL A   1      46.619  28.703  27.507  1.00  0.00    -0.248 NA
ATOM     56  C   UNL A   1      48.808  29.267  26.919  1.00  0.00     0.031 C 
ATOM     57  C   UNL A   1      43.660  31.569  29.158  1.00  0.00     0.029 A 
ATOM     58  C   UNL A   1      44.603  30.696  28.639  1.00  0.00     0.049 A 
ATOM     59  H   UNL A   1      44.375  28.678  28.070  1.00  0.00     0.167 HD
ATOM     60  C   UNL A   1      46.848  30.037  27.823  1.00  0.00     0.074 A 
ATOM     61  C   UNL A   1      48.226  30.319  27.479  1.00  0.00     0.031 C 
ATOM     62  C   UNL A   1      45.988  30.952  28.338  1.00  0.00     0.034 A 
BRANCH  49  63
ATOM     63  C   UNL A   1      40.231  28.844  29.102  1.00  0.00     0.023 A 
ATOM     64  C   UNL A   1      39.264  29.050  28.097  1.00  0.00     0.012 A 
ATOM     65  C   UNL A   1      39.836  28.863  30.455  1.00  0.00     0.148 A 
ATOM     66  C   UNL A   1      37.935  29.305  28.430  1.00  0.00     0.002 A 
ATOM     67  C   UNL A   1      38.499  29.070  30.778  1.00  0.00     0.091 A 
ATOM     68  F   UNL A   1      40.772  28.685  31.397  1.00  0.00    -0.205 F 
ATOM     69  C   UNL A   1      37.551  29.303  29.769  1.00  0.00     0.022 A 
BRANCH  67  70
ATOM     70  S   UNL A   1      37.888  29.008  32.465  1.00  0.00     0.127 S 
ATOM     71  O   UNL A   1      38.001  27.580  32.766  1.00  0.00    -0.237 OA
ATOM     72  O   UNL A   1      38.849  29.857  33.171  1.00  0.00    -0.237 OA
ATOM     73  O   UNL A   1      36.530  29.531  32.422  1.00  0.00    -0.744 OA
ENDBRANCH  67  70
ENDBRANCH  49  63
BRANCH  50  74
ATOM     74  C   UNL A   1      49.454  26.543  26.040  1.00  0.00     0.023 A 
ATOM     75  C   UNL A   1      50.322  25.760  26.826  1.00  0.00     0.012 A 
ATOM     76  C   UNL A   1      49.887  26.989  24.777  1.00  0.00     0.148 A 
ATOM     77  C   UNL A   1      51.608  25.457  26.378  1.00  0.00     0.002 A 
ATOM     78  C   UNL A   1      51.147  26.635  24.311  1.00  0.00     0.091 A 
ATOM     79  F   UNL A   1      49.049  27.741  24.048  1.00  0.00    -0.205 F 
ATOM     80  C   UNL A   1      52.017  25.885  25.118  1.00  0.00     0.022 A 
BRANCH  78  81
ATOM     81  S   UNL A   1      51.707  27.030  22.651  1.00  0.00     0.127 S 
ATOM     82  O   UNL A   1      52.126  28.421  22.799  1.00  0.00    -0.237 OA
ATOM     83  O   UNL A   1      52.799  26.073  22.465  1.00  0.00    -0.237 OA
ATOM     84  O   UNL A   1      50.559  26.805  21.783  1.00  0.00    -0.744 OA
ENDBRANCH  78  81
ENDBRANCH  50  74
BRANCH  62  85
ATOM     85  C   UNL A   1      46.513  32.340  28.599  1.00  0.00     0.023 A 
ATOM     86  C   UNL A   1      47.006  32.677  29.876  1.00  0.00     0.012 A 
ATOM     87  C   UNL A   1      46.592  33.283  27.555  1.00  0.00     0.148 A 
ATOM     88  C   UNL A   1      47.543  33.941  30.116  1.00  0.00     0.002 A 
ATOM     89  C   UNL A   1      47.176  34.523  27.789  1.00  0.00     0.091 A 
ATOM     90  F   UNL A   1      46.102  32.948  26.353  1.00  0.00    -0.205 F 
ATOM     91  C   UNL A   1      47.639  34.857  29.072  1.00  0.00     0.022 A 
BRANCH  89  92
ATOM     92  S   UNL A   1      47.433  35.731  26.485  1.00  0.00     0.127 S 
ATOM     93  O   UNL A   1      48.236  36.743  27.171  1.00  0.00    -0.237 OA
ATOM     94  O   UNL A   1      48.160  34.952  25.483  1.00  0.00    -0.237 OA
ATOM     95  O   UNL A   1      46.106  36.166  26.071  1.00  0.00    -0.744 OA
ENDBRANCH  89  92
ENDBRANCH  62  85
ENDBRANCH  36  37
ENDBRANCH  28  31
ENDBRANCH  26  27
ENDBRANCH  25  26
ENDBRANCH  24  25
ENDBRANCH   1  24
TORSDOF 20
ENDMDL
