MODEL 1
REMARK VINA RESULT:     -12.0      0.000      0.000
REMARK SMILES C[C@@H](Nc1ccc(C(=O)NCCCCCCNC(=O)c2ccc(-c3c4nc(c(-c5cccc(S(=O)(=O)[O-])c5F)c5ccc([nH]5)c(-c5cccc(S(=O)(=O)[O-])c5F)c5nc(c(-c6cccc(S(=O)(=O)[O-])c6F)c6ccc3[nH]6)C=C5)C=C4)cc2)cc1)C1CC[NH+](C)CC1
REMARK SMILES IDX 13 1 12 2 11 3 10 4 8 5 9 6 7 8 4 9 5 10 84 11 6 12 83 13
REMARK SMILES IDX 3 14 2 16 1 17 85 18 86 19 91 20 87 21 90 22 88 23 89 24
REMARK SMILES IDX 14 26 15 27 16 28 17 29 18 30 19 32 20 33 21 34 82 35 22 36
REMARK SMILES IDX 81 37 23 38 24 39 25 40 75 41 26 42 80 43 74 44 76 45 27 46
REMARK SMILES IDX 79 47 73 48 72 49 28 51 60 52 40 53 59 54 41 55 44 56 58 57
REMARK SMILES IDX 77 58 42 59 43 60 57 62 78 63 45 64 29 65 30 66 38 67 31 68
REMARK SMILES IDX 33 69 39 70 32 71 34 72 35 73 36 74 37 75 61 76 62 77 70 78
REMARK SMILES IDX 63 79 65 80 71 81 64 82 66 83 67 84 68 85 69 86 46 87 47 88
REMARK SMILES IDX 55 89 48 90 50 91 56 92 49 93 51 94 52 95 53 96 54 97
REMARK H PARENT 10 7 3 15 88 25 17 31 76 50 44 61
REMARK Flexibility Score: inf
ROOT
ATOM      1  C   UNL A   1      34.676  23.552  26.130  1.00  0.00     0.002 C 
ENDROOT
BRANCH   1   2
ATOM      2  C   UNL A   1      35.012  22.222  26.817  1.00  0.00     0.021 C 
BRANCH   2   3
ATOM      3  C   UNL A   1      33.824  21.589  27.532  1.00  0.00     0.116 C 
BRANCH   3   4
ATOM      4  N   UNL A   1      33.465  20.321  26.911  1.00  0.00    -0.352 N 
ATOM      5  C   UNL A   1      32.680  19.996  25.832  1.00  0.00     0.251 C 
ATOM      6  O   UNL A   1      32.586  18.809  25.520  1.00  0.00    -0.269 OA
ATOM      7  H   UNL A   1      33.867  19.539  27.356  1.00  0.00     0.163 HD
BRANCH   5   8
ATOM      8  C   UNL A   1      32.085  21.028  24.942  1.00  0.00     0.039 A 
ATOM      9  C   UNL A   1      31.770  23.216  23.195  1.00  0.00     0.034 A 
ATOM     10  C   UNL A   1      32.179  21.960  22.721  1.00  0.00     0.026 A 
ATOM     11  C   UNL A   1      31.243  23.264  24.486  1.00  0.00     0.026 A 
ATOM     12  C   UNL A   1      32.343  20.875  23.581  1.00  0.00     0.016 A 
ATOM     13  C   UNL A   1      31.404  22.170  25.367  1.00  0.00     0.016 A 
BRANCH   9  14
ATOM     14  N   UNL A   1      32.082  24.300  22.405  1.00  0.00    -0.382 N 
ATOM     15  H   UNL A   1      32.439  24.048  21.523  1.00  0.00     0.160 HD
BRANCH  14  16
ATOM     16  C   UNL A   1      31.995  25.750  22.603  1.00  0.00     0.079 C 
ATOM     17  C   UNL A   1      31.780  26.324  21.179  1.00  0.00     0.031 C 
BRANCH  16  18
ATOM     18  C   UNL A   1      33.223  26.506  23.225  1.00  0.00     0.022 C 
ATOM     19  C   UNL A   1      33.287  26.647  24.751  1.00  0.00     0.067 C 
ATOM     20  C   UNL A   1      33.576  27.870  22.631  1.00  0.00     0.067 C 
ATOM     21  C   UNL A   1      32.330  27.707  25.266  1.00  0.00     0.262 C 
ATOM     22  C   UNL A   1      32.795  29.035  23.229  1.00  0.00     0.262 C 
ATOM     23  N   UNL A   1      32.550  29.028  24.673  1.00  0.00    -0.337 N 
ATOM     24  C   UNL A   1      31.410  29.886  25.009  1.00  0.00     0.332 C 
ATOM     25  H   UNL A   1      33.419  29.383  25.074  1.00  0.00     0.347 HD
ENDBRANCH  16  18
ENDBRANCH  14  16
ENDBRANCH   9  14
ENDBRANCH   5   8
ENDBRANCH   3   4
ENDBRANCH   2   3
ENDBRANCH   1   2
BRANCH   1  26
ATOM     26  C   UNL A   1      35.129  23.672  24.669  1.00  0.00     0.002 C 
BRANCH  26  27
ATOM     27  C   UNL A   1      35.567  22.366  24.000  1.00  0.00     0.021 C 
BRANCH  27  28
ATOM     28  C   UNL A   1      37.075  22.169  23.881  1.00  0.00     0.116 C 
BRANCH  28  29
ATOM     29  N   UNL A   1      37.540  20.985  24.585  1.00  0.00    -0.352 N 
ATOM     30  C   UNL A   1      38.555  20.860  25.505  1.00  0.00     0.251 C 
ATOM     31  H   UNL A   1      37.061  20.152  24.373  1.00  0.00     0.163 HD
ATOM     32  O   UNL A   1      38.919  19.749  25.870  1.00  0.00    -0.269 OA
BRANCH  30  33
ATOM     33  C   UNL A   1      39.221  22.072  26.036  1.00  0.00     0.039 A 
ATOM     34  C   UNL A   1      40.537  21.972  26.497  1.00  0.00     0.014 A 
ATOM     35  C   UNL A   1      38.553  23.298  26.083  1.00  0.00     0.014 A 
ATOM     36  C   UNL A   1      41.201  23.116  26.949  1.00  0.00     0.010 A 
ATOM     37  C   UNL A   1      39.241  24.448  26.462  1.00  0.00     0.010 A 
ATOM     38  C   UNL A   1      40.571  24.370  26.903  1.00  0.00    -0.014 A 
BRANCH  38  39
ATOM     39  C   UNL A   1      41.290  25.610  27.300  1.00  0.00     0.031 A 
ATOM     40  C   UNL A   1      40.586  26.674  28.100  1.00  0.00     0.074 A 
ATOM     41  C   UNL A   1      42.552  25.813  26.874  1.00  0.00     0.049 A 
ATOM     42  N   UNL A   1      41.030  27.841  28.489  1.00  0.00    -0.248 NA
ATOM     43  C   UNL A   1      39.195  26.402  28.496  1.00  0.00     0.031 C 
ATOM     44  C   UNL A   1      43.320  24.891  26.033  1.00  0.00     0.029 A 
ATOM     45  N   UNL A   1      43.405  26.872  27.066  1.00  0.00    -0.354 N 
ATOM     46  C   UNL A   1      39.969  28.453  29.147  1.00  0.00     0.074 A 
ATOM     47  C   UNL A   1      38.846  27.545  29.069  1.00  0.00     0.031 C 
ATOM     48  C   UNL A   1      44.530  25.420  25.790  1.00  0.00     0.029 A 
ATOM     49  C   UNL A   1      44.613  26.732  26.421  1.00  0.00     0.049 A 
ATOM     50  H   UNL A   1      43.174  27.658  27.613  1.00  0.00     0.167 HD
ATOM     51  C   UNL A   1      39.938  29.648  29.785  1.00  0.00     0.034 A 
ATOM     52  C   UNL A   1      45.664  27.571  26.340  1.00  0.00     0.034 A 
ATOM     53  C   UNL A   1      41.064  30.537  29.885  1.00  0.00     0.049 A 
ATOM     54  C   UNL A   1      45.607  28.889  27.065  1.00  0.00     0.074 A 
ATOM     55  C   UNL A   1      41.155  31.736  30.567  1.00  0.00     0.029 A 
ATOM     56  N   UNL A   1      42.292  30.330  29.276  1.00  0.00    -0.354 N 
ATOM     57  N   UNL A   1      44.644  29.384  27.804  1.00  0.00    -0.248 NA
ATOM     58  C   UNL A   1      46.795  29.750  26.972  1.00  0.00     0.031 C 
ATOM     59  C   UNL A   1      42.429  32.271  30.346  1.00  0.00     0.029 A 
ATOM     60  C   UNL A   1      43.144  31.385  29.558  1.00  0.00     0.049 A 
ATOM     61  H   UNL A   1      42.525  29.548  28.726  1.00  0.00     0.167 HD
ATOM     62  C   UNL A   1      45.124  30.591  28.297  1.00  0.00     0.074 A 
ATOM     63  C   UNL A   1      46.471  30.743  27.789  1.00  0.00     0.031 C 
ATOM     64  C   UNL A   1      44.502  31.500  29.088  1.00  0.00     0.034 A 
BRANCH  51  65
ATOM     65  C   UNL A   1      38.654  30.045  30.468  1.00  0.00     0.023 A 
ATOM     66  C   UNL A   1      38.410  29.621  31.791  1.00  0.00     0.012 A 
ATOM     67  C   UNL A   1      37.718  30.881  29.829  1.00  0.00     0.148 A 
ATOM     68  C   UNL A   1      37.238  29.989  32.453  1.00  0.00     0.002 A 
ATOM     69  C   UNL A   1      36.576  31.285  30.512  1.00  0.00     0.091 A 
ATOM     70  F   UNL A   1      37.957  31.261  28.566  1.00  0.00    -0.205 F 
ATOM     71  C   UNL A   1      36.328  30.829  31.818  1.00  0.00     0.022 A 
BRANCH  69  72
ATOM     72  S   UNL A   1      35.380  32.429  29.815  1.00  0.00     0.127 S 
ATOM     73  O   UNL A   1      34.904  31.684  28.650  1.00  0.00    -0.237 OA
ATOM     74  O   UNL A   1      34.405  32.552  30.898  1.00  0.00    -0.237 OA
ATOM     75  O   UNL A   1      36.116  33.649  29.516  1.00  0.00    -0.744 OA
ENDBRANCH  69  72
ENDBRANCH  51  65
BRANCH  52  76
ATOM     76  C   UNL A   1      46.886  27.174  25.582  1.00  0.00     0.023 A 
ATOM     77  C   UNL A   1      47.839  26.336  26.193  1.00  0.00     0.012 A 
ATOM     78  C   UNL A   1      47.105  27.615  24.263  1.00  0.00     0.148 A 
ATOM     79  C   UNL A   1      49.009  25.980  25.521  1.00  0.00     0.002 A 
ATOM     80  C   UNL A   1      48.245  27.209  23.578  1.00  0.00     0.091 A 
ATOM     81  F   UNL A   1      46.192  28.419  23.701  1.00  0.00    -0.205 F 
ATOM     82  C   UNL A   1      49.207  26.408  24.212  1.00  0.00     0.022 A 
BRANCH  80  83
ATOM     83  S   UNL A   1      48.523  27.608  21.850  1.00  0.00     0.127 S 
ATOM     84  O   UNL A   1      48.832  26.298  21.284  1.00  0.00    -0.237 OA
ATOM     85  O   UNL A   1      47.227  28.160  21.455  1.00  0.00    -0.237 OA
ATOM     86  O   UNL A   1      49.615  28.574  21.839  1.00  0.00    -0.744 OA
ENDBRANCH  80  83
ENDBRANCH  52  76
BRANCH  64  87
ATOM     87  C   UNL A   1      45.282  32.722  29.498  1.00  0.00     0.023 A 
ATOM     88  C   UNL A   1      46.002  32.727  30.709  1.00  0.00     0.012 A 
ATOM     89  C   UNL A   1      45.354  33.843  28.646  1.00  0.00     0.148 A 
ATOM     90  C   UNL A   1      46.752  33.842  31.084  1.00  0.00     0.002 A 
ATOM     91  C   UNL A   1      46.147  34.928  29.000  1.00  0.00     0.091 A 
ATOM     92  F   UNL A   1      44.648  33.826  27.506  1.00  0.00    -0.205 F 
ATOM     93  C   UNL A   1      46.833  34.936  30.225  1.00  0.00     0.022 A 
BRANCH  91  94
ATOM     94  S   UNL A   1      46.393  36.338  27.915  1.00  0.00     0.127 S 
ATOM     95  O   UNL A   1      45.089  36.998  27.983  1.00  0.00    -0.237 OA
ATOM     96  O   UNL A   1      47.476  37.057  28.584  1.00  0.00    -0.237 OA
ATOM     97  O   UNL A   1      46.745  35.788  26.613  1.00  0.00    -0.744 OA
ENDBRANCH  91  94
ENDBRANCH  64  87
ENDBRANCH  38  39
ENDBRANCH  30  33
ENDBRANCH  28  29
ENDBRANCH  27  28
ENDBRANCH  26  27
ENDBRANCH   1  26
TORSDOF 19
ENDMDL
MODEL 2
REMARK VINA RESULT:     -11.7      5.797     11.076
REMARK SMILES C[C@@H](Nc1ccc(C(=O)NCCCCCCNC(=O)c2ccc(-c3c4nc(c(-c5cccc(S(=O)(=O)[O-])c5F)c5ccc([nH]5)c(-c5cccc(S(=O)(=O)[O-])c5F)c5nc(c(-c6cccc(S(=O)(=O)[O-])c6F)c6ccc3[nH]6)C=C5)C=C4)cc2)cc1)C1CC[NH+](C)CC1
REMARK SMILES IDX 13 1 12 2 11 3 10 4 8 5 9 6 7 8 4 9 5 10 84 11 6 12 83 13
REMARK SMILES IDX 3 14 2 16 1 17 85 18 86 19 91 20 87 21 90 22 88 23 89 24
REMARK SMILES IDX 14 26 15 27 16 28 17 29 18 30 19 32 20 33 21 34 82 35 22 36
REMARK SMILES IDX 81 37 23 38 24 39 25 40 75 41 26 42 80 43 74 44 76 45 27 46
REMARK SMILES IDX 79 47 73 48 72 49 28 51 60 52 40 53 59 54 41 55 44 56 58 57
REMARK SMILES IDX 77 58 42 59 43 60 57 62 78 63 45 64 29 65 30 66 38 67 31 68
REMARK SMILES IDX 33 69 39 70 32 71 34 72 35 73 36 74 37 75 61 76 62 77 70 78
REMARK SMILES IDX 63 79 65 80 71 81 64 82 66 83 67 84 68 85 69 86 46 87 47 88
REMARK SMILES IDX 55 89 48 90 50 91 56 92 49 93 51 94 52 95 53 96 54 97
REMARK H PARENT 10 7 3 15 88 25 17 31 76 50 44 61
REMARK Flexibility Score: inf
ROOT
ATOM      1  C   UNL A   1      31.938  29.175  26.050  1.00  0.00     0.002 C 
ENDROOT
BRANCH   1   2
ATOM      2  C   UNL A   1      33.275  29.365  25.323  1.00  0.00     0.021 C 
BRANCH   2   3
ATOM      3  C   UNL A   1      33.270  28.841  23.891  1.00  0.00     0.116 C 
BRANCH   3   4
ATOM      4  N   UNL A   1      32.134  29.376  23.151  1.00  0.00    -0.352 N 
ATOM      5  C   UNL A   1      31.030  28.790  22.581  1.00  0.00     0.251 C 
ATOM      6  O   UNL A   1      30.205  29.521  22.033  1.00  0.00    -0.269 OA
ATOM      7  H   UNL A   1      32.165  30.354  23.038  1.00  0.00     0.163 HD
BRANCH   5   8
ATOM      8  C   UNL A   1      30.721  27.345  22.746  1.00  0.00     0.039 A 
ATOM      9  C   UNL A   1      30.568  24.727  23.778  1.00  0.00     0.034 A 
ATOM     10  C   UNL A   1      29.702  25.738  24.226  1.00  0.00     0.026 A 
ATOM     11  C   UNL A   1      31.289  24.984  22.612  1.00  0.00     0.026 A 
ATOM     12  C   UNL A   1      29.777  27.037  23.724  1.00  0.00     0.016 A 
ATOM     13  C   UNL A   1      31.373  26.297  22.095  1.00  0.00     0.016 A 
BRANCH   9  14
ATOM     14  N   UNL A   1      30.745  23.655  24.623  1.00  0.00    -0.382 N 
ATOM     15  H   UNL A   1      29.900  23.223  24.886  1.00  0.00     0.160 HD
BRANCH  14  16
ATOM     16  C   UNL A   1      31.928  23.022  25.214  1.00  0.00     0.079 C 
ATOM     17  C   UNL A   1      32.575  24.136  26.077  1.00  0.00     0.031 C 
BRANCH  16  18
ATOM     18  C   UNL A   1      33.048  22.469  24.262  1.00  0.00     0.022 C 
ATOM     19  C   UNL A   1      32.626  21.543  23.115  1.00  0.00     0.067 C 
ATOM     20  C   UNL A   1      34.276  21.840  24.921  1.00  0.00     0.067 C 
ATOM     21  C   UNL A   1      32.301  20.142  23.602  1.00  0.00     0.262 C 
ATOM     22  C   UNL A   1      34.112  20.366  25.276  1.00  0.00     0.262 C 
ATOM     23  N   UNL A   1      33.405  19.506  24.324  1.00  0.00    -0.337 N 
ATOM     24  C   UNL A   1      32.895  18.305  24.992  1.00  0.00     0.332 C 
ATOM     25  H   UNL A   1      34.112  19.275  23.625  1.00  0.00     0.347 HD
ENDBRANCH  16  18
ENDBRANCH  14  16
ENDBRANCH   9  14
ENDBRANCH   5   8
ENDBRANCH   3   4
ENDBRANCH   2   3
ENDBRANCH   1   2
BRANCH   1  26
ATOM     26  C   UNL A   1      31.603  30.241  27.102  1.00  0.00     0.002 C 
BRANCH  26  27
ATOM     27  C   UNL A   1      31.704  31.694  26.630  1.00  0.00     0.021 C 
BRANCH  27  28
ATOM     28  C   UNL A   1      32.913  32.464  27.152  1.00  0.00     0.116 C 
BRANCH  28  29
ATOM     29  N   UNL A   1      32.583  33.829  27.530  1.00  0.00    -0.352 N 
ATOM     30  C   UNL A   1      33.093  34.598  28.551  1.00  0.00     0.251 C 
ATOM     31  H   UNL A   1      31.896  34.266  26.977  1.00  0.00     0.163 HD
ATOM     32  O   UNL A   1      32.574  35.673  28.826  1.00  0.00    -0.269 OA
BRANCH  30  33
ATOM     33  C   UNL A   1      34.257  34.113  29.329  1.00  0.00     0.039 A 
ATOM     34  C   UNL A   1      34.029  33.394  30.505  1.00  0.00     0.014 A 
ATOM     35  C   UNL A   1      35.563  34.369  28.904  1.00  0.00     0.014 A 
ATOM     36  C   UNL A   1      35.114  32.879  31.221  1.00  0.00     0.010 A 
ATOM     37  C   UNL A   1      36.636  33.791  29.578  1.00  0.00     0.010 A 
ATOM     38  C   UNL A   1      36.425  33.044  30.746  1.00  0.00    -0.014 A 
BRANCH  38  39
ATOM     39  C   UNL A   1      37.584  32.432  31.450  1.00  0.00     0.031 A 
ATOM     40  C   UNL A   1      38.331  31.282  30.826  1.00  0.00     0.074 A 
ATOM     41  C   UNL A   1      37.914  32.859  32.684  1.00  0.00     0.049 A 
ATOM     42  N   UNL A   1      39.326  30.586  31.312  1.00  0.00    -0.248 NA
ATOM     43  C   UNL A   1      37.887  30.841  29.494  1.00  0.00     0.031 C 
ATOM     44  C   UNL A   1      37.224  33.917  33.427  1.00  0.00     0.029 A 
ATOM     45  N   UNL A   1      38.898  32.441  33.545  1.00  0.00    -0.354 N 
ATOM     46  C   UNL A   1      39.609  29.611  30.363  1.00  0.00     0.074 A 
ATOM     47  C   UNL A   1      38.653  29.778  29.291  1.00  0.00     0.031 C 
ATOM     48  C   UNL A   1      37.810  34.069  34.625  1.00  0.00     0.029 A 
ATOM     49  C   UNL A   1      38.890  33.098  34.754  1.00  0.00     0.049 A 
ATOM     50  H   UNL A   1      39.548  31.736  33.319  1.00  0.00     0.167 HD
ATOM     51  C   UNL A   1      40.593  28.680  30.367  1.00  0.00     0.034 A 
ATOM     52  C   UNL A   1      39.660  32.929  35.848  1.00  0.00     0.034 A 
ATOM     53  C   UNL A   1      41.560  28.533  31.422  1.00  0.00     0.049 A 
ATOM     54  C   UNL A   1      40.751  31.893  35.822  1.00  0.00     0.074 A 
ATOM     55  C   UNL A   1      42.637  27.668  31.488  1.00  0.00     0.029 A 
ATOM     56  N   UNL A   1      41.561  29.263  32.601  1.00  0.00    -0.354 N 
ATOM     57  N   UNL A   1      41.094  31.078  34.854  1.00  0.00    -0.248 NA
ATOM     58  C   UNL A   1      41.583  31.775  37.028  1.00  0.00     0.031 C 
ATOM     59  C   UNL A   1      43.272  27.852  32.720  1.00  0.00     0.029 A 
ATOM     60  C   UNL A   1      42.613  28.859  33.406  1.00  0.00     0.049 A 
ATOM     61  H   UNL A   1      40.911  29.964  32.831  1.00  0.00     0.167 HD
ATOM     62  C   UNL A   1      42.205  30.383  35.317  1.00  0.00     0.074 A 
ATOM     63  C   UNL A   1      42.489  30.886  36.644  1.00  0.00     0.031 C 
ATOM     64  C   UNL A   1      42.917  29.405  34.704  1.00  0.00     0.034 A 
BRANCH  51  65
ATOM     65  C   UNL A   1      40.703  27.772  29.168  1.00  0.00     0.023 A 
ATOM     66  C   UNL A   1      39.890  26.623  29.089  1.00  0.00     0.012 A 
ATOM     67  C   UNL A   1      41.562  28.084  28.095  1.00  0.00     0.148 A 
ATOM     68  C   UNL A   1      39.958  25.777  27.982  1.00  0.00     0.002 A 
ATOM     69  C   UNL A   1      41.588  27.262  26.974  1.00  0.00     0.091 A 
ATOM     70  F   UNL A   1      42.340  29.171  28.194  1.00  0.00    -0.205 F 
ATOM     71  C   UNL A   1      40.797  26.102  26.921  1.00  0.00     0.022 A 
BRANCH  69  72
ATOM     72  S   UNL A   1      42.574  27.636  25.519  1.00  0.00     0.127 S 
ATOM     73  O   UNL A   1      42.321  26.462  24.684  1.00  0.00    -0.237 OA
ATOM     74  O   UNL A   1      41.955  28.871  25.038  1.00  0.00    -0.237 OA
ATOM     75  O   UNL A   1      43.944  27.783  25.989  1.00  0.00    -0.744 OA
ENDBRANCH  69  72
ENDBRANCH  51  65
BRANCH  52  76
ATOM     76  C   UNL A   1      39.461  33.794  37.047  1.00  0.00     0.023 A 
ATOM     77  C   UNL A   1      39.902  35.132  37.018  1.00  0.00     0.012 A 
ATOM     78  C   UNL A   1      38.837  33.303  38.209  1.00  0.00     0.148 A 
ATOM     79  C   UNL A   1      39.764  35.951  38.138  1.00  0.00     0.002 A 
ATOM     80  C   UNL A   1      38.650  34.142  39.302  1.00  0.00     0.091 A 
ATOM     81  F   UNL A   1      38.432  32.025  38.222  1.00  0.00    -0.205 F 
ATOM     82  C   UNL A   1      39.131  35.460  39.276  1.00  0.00     0.022 A 
BRANCH  80  83
ATOM     83  S   UNL A   1      37.734  33.634  40.761  1.00  0.00     0.127 S 
ATOM     84  O   UNL A   1      37.658  34.881  41.517  1.00  0.00    -0.237 OA
ATOM     85  O   UNL A   1      36.468  33.186  40.181  1.00  0.00    -0.237 OA
ATOM     86  O   UNL A   1      38.524  32.573  41.372  1.00  0.00    -0.744 OA
ENDBRANCH  80  83
ENDBRANCH  52  76
BRANCH  64  87
ATOM     87  C   UNL A   1      44.107  28.842  35.438  1.00  0.00     0.023 A 
ATOM     88  C   UNL A   1      45.380  29.421  35.269  1.00  0.00     0.012 A 
ATOM     89  C   UNL A   1      43.947  27.778  36.349  1.00  0.00     0.148 A 
ATOM     90  C   UNL A   1      46.482  28.926  35.966  1.00  0.00     0.002 A 
ATOM     91  C   UNL A   1      45.038  27.326  37.081  1.00  0.00     0.091 A 
ATOM     92  F   UNL A   1      42.731  27.229  36.483  1.00  0.00    -0.205 F 
ATOM     93  C   UNL A   1      46.309  27.888  36.879  1.00  0.00     0.022 A 
BRANCH  91  94
ATOM     94  S   UNL A   1      44.894  26.064  38.350  1.00  0.00     0.127 S 
ATOM     95  O   UNL A   1      44.311  26.821  39.457  1.00  0.00    -0.237 OA
ATOM     96  O   UNL A   1      43.988  25.100  37.726  1.00  0.00    -0.237 OA
ATOM     97  O   UNL A   1      46.243  25.566  38.578  1.00  0.00    -0.744 OA
ENDBRANCH  91  94
ENDBRANCH  64  87
ENDBRANCH  38  39
ENDBRANCH  30  33
ENDBRANCH  28  29
ENDBRANCH  27  28
ENDBRANCH  26  27
ENDBRANCH   1  26
TORSDOF 19
ENDMDL
MODEL 3
REMARK VINA RESULT:     -11.5      4.601      7.615
REMARK SMILES C[C@@H](Nc1ccc(C(=O)NCCCCCCNC(=O)c2ccc(-c3c4nc(c(-c5cccc(S(=O)(=O)[O-])c5F)c5ccc([nH]5)c(-c5cccc(S(=O)(=O)[O-])c5F)c5nc(c(-c6cccc(S(=O)(=O)[O-])c6F)c6ccc3[nH]6)C=C5)C=C4)cc2)cc1)C1CC[NH+](C)CC1
REMARK SMILES IDX 13 1 12 2 11 3 10 4 8 5 9 6 7 8 4 9 5 10 84 11 6 12 83 13
REMARK SMILES IDX 3 14 2 16 1 17 85 18 86 19 91 20 87 21 90 22 88 23 89 24
REMARK SMILES IDX 14 26 15 27 16 28 17 29 18 30 19 32 20 33 21 34 82 35 22 36
REMARK SMILES IDX 81 37 23 38 24 39 25 40 75 41 26 42 80 43 74 44 76 45 27 46
REMARK SMILES IDX 79 47 73 48 72 49 28 51 60 52 40 53 59 54 41 55 44 56 58 57
REMARK SMILES IDX 77 58 42 59 43 60 57 62 78 63 45 64 29 65 30 66 38 67 31 68
REMARK SMILES IDX 33 69 39 70 32 71 34 72 35 73 36 74 37 75 61 76 62 77 70 78
REMARK SMILES IDX 63 79 65 80 71 81 64 82 66 83 67 84 68 85 69 86 46 87 47 88
REMARK SMILES IDX 55 89 48 90 50 91 56 92 49 93 51 94 52 95 53 96 54 97
REMARK H PARENT 10 7 3 15 88 25 17 31 76 50 44 61
REMARK Flexibility Score: inf
ROOT
ATOM      1  C   UNL A   1      33.819  28.030  24.325  1.00  0.00     0.002 C 
ENDROOT
BRANCH   1   2
ATOM      2  C   UNL A   1      32.952  29.235  23.940  1.00  0.00     0.021 C 
BRANCH   2   3
ATOM      3  C   UNL A   1      32.040  28.972  22.746  1.00  0.00     0.116 C 
BRANCH   3   4
ATOM      4  N   UNL A   1      30.756  28.442  23.184  1.00  0.00    -0.352 N 
ATOM      5  C   UNL A   1      30.231  27.173  23.219  1.00  0.00     0.251 C 
ATOM      6  O   UNL A   1      29.099  27.028  23.683  1.00  0.00    -0.269 OA
ATOM      7  H   UNL A   1      30.141  29.134  23.523  1.00  0.00     0.163 HD
BRANCH   5   8
ATOM      8  C   UNL A   1      31.034  25.970  22.877  1.00  0.00     0.039 A 
ATOM      9  C   UNL A   1      32.979  23.931  22.922  1.00  0.00     0.034 A 
ATOM     10  C   UNL A   1      31.839  23.868  23.740  1.00  0.00     0.026 A 
ATOM     11  C   UNL A   1      32.964  24.868  21.889  1.00  0.00     0.026 A 
ATOM     12  C   UNL A   1      30.876  24.876  23.727  1.00  0.00     0.016 A 
ATOM     13  C   UNL A   1      31.993  25.896  21.866  1.00  0.00     0.016 A 
BRANCH   9  14
ATOM     14  N   UNL A   1      34.062  23.182  23.323  1.00  0.00    -0.382 N 
ATOM     15  H   UNL A   1      33.984  22.229  23.088  1.00  0.00     0.160 HD
BRANCH  14  16
ATOM     16  C   UNL A   1      35.307  23.506  24.027  1.00  0.00     0.079 C 
ATOM     17  C   UNL A   1      36.429  22.991  23.089  1.00  0.00     0.031 C 
BRANCH  16  18
ATOM     18  C   UNL A   1      35.564  22.878  25.442  1.00  0.00     0.022 C 
ATOM     19  C   UNL A   1      36.200  21.484  25.507  1.00  0.00     0.067 C 
ATOM     20  C   UNL A   1      34.401  22.890  26.434  1.00  0.00     0.067 C 
ATOM     21  C   UNL A   1      35.207  20.388  25.165  1.00  0.00     0.262 C 
ATOM     22  C   UNL A   1      33.444  21.711  26.292  1.00  0.00     0.262 C 
ATOM     23  N   UNL A   1      34.018  20.391  26.019  1.00  0.00    -0.337 N 
ATOM     24  C   UNL A   1      33.014  19.503  25.425  1.00  0.00     0.332 C 
ATOM     25  H   UNL A   1      34.319  20.057  26.934  1.00  0.00     0.347 HD
ENDBRANCH  16  18
ENDBRANCH  14  16
ENDBRANCH   9  14
ENDBRANCH   5   8
ENDBRANCH   3   4
ENDBRANCH   2   3
ENDBRANCH   1   2
BRANCH   1  26
ATOM     26  C   UNL A   1      33.314  27.208  25.518  1.00  0.00     0.002 C 
BRANCH  26  27
ATOM     27  C   UNL A   1      32.437  27.964  26.520  1.00  0.00     0.021 C 
BRANCH  27  28
ATOM     28  C   UNL A   1      33.187  28.618  27.677  1.00  0.00     0.116 C 
BRANCH  28  29
ATOM     29  N   UNL A   1      33.360  30.050  27.490  1.00  0.00    -0.352 N 
ATOM     30  C   UNL A   1      34.445  30.842  27.787  1.00  0.00     0.251 C 
ATOM     31  H   UNL A   1      32.592  30.520  27.094  1.00  0.00     0.163 HD
ATOM     32  O   UNL A   1      34.351  32.061  27.716  1.00  0.00    -0.269 OA
BRANCH  30  33
ATOM     33  C   UNL A   1      35.719  30.218  28.212  1.00  0.00     0.039 A 
ATOM     34  C   UNL A   1      36.820  30.279  27.353  1.00  0.00     0.014 A 
ATOM     35  C   UNL A   1      35.828  29.573  29.447  1.00  0.00     0.014 A 
ATOM     36  C   UNL A   1      38.046  29.746  27.761  1.00  0.00     0.010 A 
ATOM     37  C   UNL A   1      37.069  29.112  29.881  1.00  0.00     0.010 A 
ATOM     38  C   UNL A   1      38.190  29.188  29.041  1.00  0.00    -0.014 A 
BRANCH  38  39
ATOM     39  C   UNL A   1      39.507  28.693  29.524  1.00  0.00     0.031 A 
ATOM     40  C   UNL A   1      40.247  29.432  30.607  1.00  0.00     0.074 A 
ATOM     41  C   UNL A   1      40.073  27.622  28.932  1.00  0.00     0.049 A 
ATOM     42  N   UNL A   1      41.427  29.185  31.116  1.00  0.00    -0.248 NA
ATOM     43  C   UNL A   1      39.587  30.617  31.178  1.00  0.00     0.031 C 
ATOM     44  C   UNL A   1      39.491  26.861  27.824  1.00  0.00     0.029 A 
ATOM     45  N   UNL A   1      41.276  27.002  29.161  1.00  0.00    -0.354 N 
ATOM     46  C   UNL A   1      41.663  30.194  32.042  1.00  0.00     0.074 A 
ATOM     47  C   UNL A   1      40.521  31.081  31.996  1.00  0.00     0.031 C 
ATOM     48  C   UNL A   1      40.331  25.874  27.477  1.00  0.00     0.029 A 
ATOM     49  C   UNL A   1      41.528  25.953  28.307  1.00  0.00     0.049 A 
ATOM     50  H   UNL A   1      41.900  27.282  29.870  1.00  0.00     0.167 HD
ATOM     51  C   UNL A   1      42.718  30.354  32.877  1.00  0.00     0.034 A 
ATOM     52  C   UNL A   1      42.606  25.151  28.198  1.00  0.00     0.034 A 
ATOM     53  C   UNL A   1      43.838  29.455  32.940  1.00  0.00     0.049 A 
ATOM     54  C   UNL A   1      43.761  25.346  29.144  1.00  0.00     0.074 A 
ATOM     55  C   UNL A   1      44.922  29.490  33.798  1.00  0.00     0.029 A 
ATOM     56  N   UNL A   1      44.026  28.365  32.105  1.00  0.00    -0.354 N 
ATOM     57  N   UNL A   1      43.898  26.220  30.112  1.00  0.00    -0.248 NA
ATOM     58  C   UNL A   1      44.896  24.421  29.005  1.00  0.00     0.031 C 
ATOM     59  C   UNL A   1      45.782  28.439  33.463  1.00  0.00     0.029 A 
ATOM     60  C   UNL A   1      45.214  27.726  32.420  1.00  0.00     0.049 A 
ATOM     61  H   UNL A   1      43.406  28.085  31.393  1.00  0.00     0.167 HD
ATOM     62  C   UNL A   1      45.112  25.924  30.722  1.00  0.00     0.074 A 
ATOM     63  C   UNL A   1      45.660  24.779  30.027  1.00  0.00     0.031 C 
ATOM     64  C   UNL A   1      45.724  26.554  31.755  1.00  0.00     0.034 A 
BRANCH  51  65
ATOM     65  C   UNL A   1      42.688  31.524  33.827  1.00  0.00     0.023 A 
ATOM     66  C   UNL A   1      43.177  32.777  33.402  1.00  0.00     0.012 A 
ATOM     67  C   UNL A   1      42.124  31.405  35.112  1.00  0.00     0.148 A 
ATOM     68  C   UNL A   1      43.144  33.881  34.254  1.00  0.00     0.002 A 
ATOM     69  C   UNL A   1      42.049  32.521  35.938  1.00  0.00     0.091 A 
ATOM     70  F   UNL A   1      41.679  30.204  35.505  1.00  0.00    -0.205 F 
ATOM     71  C   UNL A   1      42.570  33.756  35.516  1.00  0.00     0.022 A 
BRANCH  69  72
ATOM     72  S   UNL A   1      41.258  32.486  37.550  1.00  0.00     0.127 S 
ATOM     73  O   UNL A   1      42.120  31.557  38.280  1.00  0.00    -0.237 OA
ATOM     74  O   UNL A   1      41.367  33.881  37.976  1.00  0.00    -0.237 OA
ATOM     75  O   UNL A   1      39.896  32.024  37.321  1.00  0.00    -0.744 OA
ENDBRANCH  69  72
ENDBRANCH  51  65
BRANCH  52  76
ATOM     76  C   UNL A   1      42.629  24.056  27.186  1.00  0.00     0.023 A 
ATOM     77  C   UNL A   1      43.427  24.194  26.033  1.00  0.00     0.012 A 
ATOM     78  C   UNL A   1      41.872  22.882  27.359  1.00  0.00     0.148 A 
ATOM     79  C   UNL A   1      43.438  23.202  25.052  1.00  0.00     0.002 A 
ATOM     80  C   UNL A   1      41.932  21.873  26.405  1.00  0.00     0.091 A 
ATOM     81  F   UNL A   1      41.110  22.773  28.457  1.00  0.00    -0.205 F 
ATOM     82  C   UNL A   1      42.698  22.039  25.242  1.00  0.00     0.022 A 
BRANCH  80  83
ATOM     83  S   UNL A   1      41.112  20.290  26.625  1.00  0.00     0.127 S 
ATOM     84  O   UNL A   1      42.033  19.379  25.952  1.00  0.00    -0.237 OA
ATOM     85  O   UNL A   1      41.079  20.168  28.083  1.00  0.00    -0.237 OA
ATOM     86  O   UNL A   1      39.801  20.436  26.005  1.00  0.00    -0.744 OA
ENDBRANCH  80  83
ENDBRANCH  52  76
BRANCH  64  87
ATOM     87  C   UNL A   1      47.038  25.993  32.237  1.00  0.00     0.023 A 
ATOM     88  C   UNL A   1      47.074  25.146  33.361  1.00  0.00     0.012 A 
ATOM     89  C   UNL A   1      48.229  26.256  31.530  1.00  0.00     0.148 A 
ATOM     90  C   UNL A   1      48.280  24.598  33.797  1.00  0.00     0.002 A 
ATOM     91  C   UNL A   1      49.417  25.663  31.937  1.00  0.00     0.091 A 
ATOM     92  F   UNL A   1      48.177  27.079  30.472  1.00  0.00    -0.205 F 
ATOM     93  C   UNL A   1      49.448  24.846  33.079  1.00  0.00     0.022 A 
BRANCH  91  94
ATOM     94  S   UNL A   1      50.951  25.843  31.019  1.00  0.00     0.127 S 
ATOM     95  O   UNL A   1      51.873  25.038  31.819  1.00  0.00    -0.237 OA
ATOM     96  O   UNL A   1      50.604  25.264  29.722  1.00  0.00    -0.237 OA
ATOM     97  O   UNL A   1      51.236  27.271  30.988  1.00  0.00    -0.744 OA
ENDBRANCH  91  94
ENDBRANCH  64  87
ENDBRANCH  38  39
ENDBRANCH  30  33
ENDBRANCH  28  29
ENDBRANCH  27  28
ENDBRANCH  26  27
ENDBRANCH   1  26
TORSDOF 19
ENDMDL
