MODEL 1
REMARK VINA RESULT:     -10.9      0.000      0.000
REMARK SMILES O=C(NCCCCCCNC(=O)[C@H]1C[C@H]1c1ccc(C2CC2)cc1)c1ccc(-c2c3nc(c(-c4cccc(S(=O)(=O)[O-])c4F)c4ccc([nH]4)c(-c4cccc(S(=O)(=O)[O-])c4F)c4nc(c(-c5cccc(S(=O)(=O)[O-])c5F)c5ccc2[nH]5)C=C4)C=C3)cc1
REMARK SMILES IDX 6 1 5 2 4 3 3 4 1 5 2 6 25 8 26 9 87 10 27 11 86 12 28 13
REMARK SMILES IDX 29 14 30 15 80 16 31 17 85 18 79 19 81 20 32 21 84 22 78 23
REMARK SMILES IDX 77 24 33 26 65 27 45 28 64 29 46 30 49 31 63 32 82 33 47 34
REMARK SMILES IDX 48 35 62 37 83 38 50 39 34 40 35 41 43 42 36 43 38 44 44 45
REMARK SMILES IDX 37 46 39 47 40 48 41 49 42 50 66 51 67 52 75 53 68 54 70 55
REMARK SMILES IDX 76 56 69 57 71 58 72 59 73 60 74 61 51 62 52 63 60 64 53 65
REMARK SMILES IDX 55 66 61 67 54 68 56 69 57 70 58 71 59 72 7 73 8 74 9 75
REMARK SMILES IDX 10 76 11 77 12 79 13 80 14 81 15 82 16 83 17 84 24 85 18 86
REMARK SMILES IDX 23 87 19 88 20 89 21 90 22 91
REMARK H PARENT 3 7 81 25 49 36 10 78
REMARK Flexibility Score: inf
ROOT
ATOM      1  C   UNL A   1      36.939  20.643  24.538  1.00  0.00     0.002 C 
ENDROOT
BRANCH   1   2
ATOM      2  C   UNL A   1      37.892  19.515  24.930  1.00  0.00     0.021 C 
BRANCH   2   3
ATOM      3  C   UNL A   1      38.784  19.776  26.137  1.00  0.00     0.116 C 
BRANCH   3   4
ATOM      4  N   UNL A   1      40.035  19.041  26.098  1.00  0.00    -0.352 N 
ATOM      5  O   UNL A   1      42.264  18.731  26.030  1.00  0.00    -0.269 OA
ATOM      6  C   UNL A   1      41.327  19.504  26.204  1.00  0.00     0.251 C 
ATOM      7  H   UNL A   1      39.947  18.067  25.978  1.00  0.00     0.163 HD
BRANCH   6   8
ATOM      8  C   UNL A   1      41.587  20.938  26.485  1.00  0.00     0.039 A 
ATOM      9  C   UNL A   1      41.109  21.940  25.637  1.00  0.00     0.014 A 
ATOM     10  C   UNL A   1      42.327  21.284  27.620  1.00  0.00     0.014 A 
ATOM     11  C   UNL A   1      41.513  23.260  25.828  1.00  0.00     0.010 A 
ATOM     12  C   UNL A   1      42.660  22.623  27.857  1.00  0.00     0.010 A 
ATOM     13  C   UNL A   1      42.298  23.618  26.937  1.00  0.00    -0.014 A 
BRANCH  13  14
ATOM     14  C   UNL A   1      42.695  25.040  27.122  1.00  0.00     0.031 A 
ATOM     15  C   UNL A   1      41.802  26.017  27.841  1.00  0.00     0.074 A 
ATOM     16  C   UNL A   1      43.891  25.449  26.654  1.00  0.00     0.049 A 
ATOM     17  N   UNL A   1      42.037  27.266  28.157  1.00  0.00    -0.248 NA
ATOM     18  C   UNL A   1      40.471  25.541  28.251  1.00  0.00     0.031 C 
ATOM     19  C   UNL A   1      44.825  24.616  25.893  1.00  0.00     0.029 A 
ATOM     20  N   UNL A   1      44.532  26.658  26.755  1.00  0.00    -0.354 N 
ATOM     21  C   UNL A   1      40.875  27.737  28.759  1.00  0.00     0.074 A 
ATOM     22  C   UNL A   1      39.931  26.641  28.760  1.00  0.00     0.031 C 
ATOM     23  C   UNL A   1      45.934  25.324  25.630  1.00  0.00     0.029 A 
ATOM     24  C   UNL A   1      45.778  26.671  26.170  1.00  0.00     0.049 A 
ATOM     25  H   UNL A   1      44.139  27.443  27.202  1.00  0.00     0.167 HD
ATOM     26  C   UNL A   1      40.624  28.962  29.281  1.00  0.00     0.034 A 
ATOM     27  C   UNL A   1      46.697  27.651  26.084  1.00  0.00     0.034 A 
ATOM     28  C   UNL A   1      41.582  30.034  29.331  1.00  0.00     0.049 A 
ATOM     29  C   UNL A   1      46.415  28.978  26.728  1.00  0.00     0.074 A 
ATOM     30  C   UNL A   1      41.446  31.284  29.912  1.00  0.00     0.029 A 
ATOM     31  N   UNL A   1      42.854  29.988  28.782  1.00  0.00    -0.354 N 
ATOM     32  N   UNL A   1      45.368  29.350  27.424  1.00  0.00    -0.248 NA
ATOM     33  C   UNL A   1      47.454  30.011  26.604  1.00  0.00     0.031 C 
ATOM     34  C   UNL A   1      42.633  31.996  29.705  1.00  0.00     0.029 A 
ATOM     35  C   UNL A   1      43.512  31.186  29.004  1.00  0.00     0.049 A 
ATOM     36  H   UNL A   1      43.234  29.216  28.302  1.00  0.00     0.167 HD
ATOM     37  C   UNL A   1      45.633  30.649  27.842  1.00  0.00     0.074 A 
ATOM     38  C   UNL A   1      46.950  30.988  27.346  1.00  0.00     0.031 C 
ATOM     39  C   UNL A   1      44.846  31.491  28.557  1.00  0.00     0.034 A 
BRANCH  26  40
ATOM     40  C   UNL A   1      39.269  29.200  29.897  1.00  0.00     0.023 A 
ATOM     41  C   UNL A   1      38.999  28.706  31.189  1.00  0.00     0.012 A 
ATOM     42  C   UNL A   1      38.294  29.973  29.235  1.00  0.00     0.148 A 
ATOM     43  C   UNL A   1      37.772  28.956  31.802  1.00  0.00     0.002 A 
ATOM     44  C   UNL A   1      37.086  30.248  29.868  1.00  0.00     0.091 A 
ATOM     45  F   UNL A   1      38.559  30.416  27.998  1.00  0.00    -0.205 F 
ATOM     46  C   UNL A   1      36.821  29.734  31.147  1.00  0.00     0.022 A 
BRANCH  44  47
ATOM     47  S   UNL A   1      35.833  31.302  29.130  1.00  0.00     0.127 S 
ATOM     48  O   UNL A   1      36.651  32.327  28.485  1.00  0.00    -0.237 OA
ATOM     49  O   UNL A   1      35.159  30.389  28.205  1.00  0.00    -0.237 OA
ATOM     50  O   UNL A   1      35.001  31.761  30.235  1.00  0.00    -0.744 OA
ENDBRANCH  44  47
ENDBRANCH  26  40
BRANCH  27  51
ATOM     51  C   UNL A   1      48.007  27.376  25.430  1.00  0.00     0.023 A 
ATOM     52  C   UNL A   1      49.064  26.852  26.199  1.00  0.00     0.012 A 
ATOM     53  C   UNL A   1      48.195  27.574  24.049  1.00  0.00     0.148 A 
ATOM     54  C   UNL A   1      50.291  26.548  25.609  1.00  0.00     0.002 A 
ATOM     55  C   UNL A   1      49.400  27.215  23.456  1.00  0.00     0.091 A 
ATOM     56  F   UNL A   1      47.186  28.094  23.337  1.00  0.00    -0.205 F 
ATOM     57  C   UNL A   1      50.454  26.716  24.237  1.00  0.00     0.022 A 
BRANCH  55  58
ATOM     58  S   UNL A   1      49.634  27.265  21.676  1.00  0.00     0.127 S 
ATOM     59  O   UNL A   1      49.414  28.678  21.383  1.00  0.00    -0.237 OA
ATOM     60  O   UNL A   1      51.020  26.814  21.534  1.00  0.00    -0.237 OA
ATOM     61  O   UNL A   1      48.650  26.337  21.134  1.00  0.00    -0.744 OA
ENDBRANCH  55  58
ENDBRANCH  27  51
BRANCH  39  62
ATOM     62  C   UNL A   1      45.394  32.858  28.864  1.00  0.00     0.023 A 
ATOM     63  C   UNL A   1      46.112  33.065  30.059  1.00  0.00     0.012 A 
ATOM     64  C   UNL A   1      45.254  33.918  27.949  1.00  0.00     0.148 A 
ATOM     65  C   UNL A   1      46.657  34.315  30.351  1.00  0.00     0.002 A 
ATOM     66  C   UNL A   1      45.834  35.151  28.227  1.00  0.00     0.091 A 
ATOM     67  F   UNL A   1      44.544  33.711  26.829  1.00  0.00    -0.205 F 
ATOM     68  C   UNL A   1      46.527  35.354  29.431  1.00  0.00     0.022 A 
BRANCH  66  69
ATOM     69  S   UNL A   1      45.783  36.507  27.052  1.00  0.00     0.127 S 
ATOM     70  O   UNL A   1      44.349  36.775  26.963  1.00  0.00    -0.237 OA
ATOM     71  O   UNL A   1      46.556  37.547  27.731  1.00  0.00    -0.237 OA
ATOM     72  O   UNL A   1      46.408  35.996  25.838  1.00  0.00    -0.744 OA
ENDBRANCH  66  69
ENDBRANCH  39  62
ENDBRANCH  13  14
ENDBRANCH   6   8
ENDBRANCH   3   4
ENDBRANCH   2   3
ENDBRANCH   1   2
BRANCH   1  73
ATOM     73  C   UNL A   1      37.330  22.058  24.975  1.00  0.00     0.002 C 
BRANCH  73  74
ATOM     74  C   UNL A   1      36.329  22.821  25.846  1.00  0.00     0.021 C 
BRANCH  74  75
ATOM     75  C   UNL A   1      35.668  24.046  25.223  1.00  0.00     0.116 C 
BRANCH  75  76
ATOM     76  N   UNL A   1      35.304  23.863  23.837  1.00  0.00    -0.356 N 
ATOM     77  C   UNL A   1      34.109  24.059  23.202  1.00  0.00     0.223 C 
ATOM     78  H   UNL A   1      36.034  23.546  23.257  1.00  0.00     0.163 HD
ATOM     79  O   UNL A   1      34.028  23.838  21.997  1.00  0.00    -0.275 OA
BRANCH  77  80
ATOM     80  C   UNL A   1      32.880  24.408  23.954  1.00  0.00     0.086 C 
ATOM     81  C   UNL A   1      31.466  24.029  23.622  1.00  0.00     0.023 C 
ATOM     82  C   UNL A   1      32.152  23.351  24.778  1.00  0.00     0.032 C 
BRANCH  82  83
ATOM     83  C   UNL A   1      32.406  21.861  24.677  1.00  0.00    -0.044 A 
ATOM     84  C   UNL A   1      32.982  21.141  25.734  1.00  0.00     0.004 A 
ATOM     85  C   UNL A   1      32.148  21.147  23.501  1.00  0.00     0.004 A 
ATOM     86  C   UNL A   1      33.286  19.780  25.620  1.00  0.00     0.004 A 
ATOM     87  C   UNL A   1      32.455  19.782  23.386  1.00  0.00     0.004 A 
ATOM     88  C   UNL A   1      33.045  19.066  24.438  1.00  0.00    -0.045 A 
BRANCH  88  89
ATOM     89  C   UNL A   1      33.453  17.610  24.357  1.00  0.00     0.019 C 
ATOM     90  C   UNL A   1      34.030  16.954  23.129  1.00  0.00     0.009 C 
ATOM     91  C   UNL A   1      34.931  17.294  24.277  1.00  0.00     0.009 C 
ENDBRANCH  88  89
ENDBRANCH  82  83
ENDBRANCH  77  80
ENDBRANCH  75  76
ENDBRANCH  74  75
ENDBRANCH  73  74
ENDBRANCH   1  73
TORSDOF 18
ENDMDL
MODEL 2
REMARK VINA RESULT:     -10.9      5.498      8.441
REMARK SMILES O=C(NCCCCCCNC(=O)[C@H]1C[C@H]1c1ccc(C2CC2)cc1)c1ccc(-c2c3nc(c(-c4cccc(S(=O)(=O)[O-])c4F)c4ccc([nH]4)c(-c4cccc(S(=O)(=O)[O-])c4F)c4nc(c(-c5cccc(S(=O)(=O)[O-])c5F)c5ccc2[nH]5)C=C4)C=C3)cc1
REMARK SMILES IDX 6 1 5 2 4 3 3 4 1 5 2 6 25 8 26 9 87 10 27 11 86 12 28 13
REMARK SMILES IDX 29 14 30 15 80 16 31 17 85 18 79 19 81 20 32 21 84 22 78 23
REMARK SMILES IDX 77 24 33 26 65 27 45 28 64 29 46 30 49 31 63 32 82 33 47 34
REMARK SMILES IDX 48 35 62 37 83 38 50 39 34 40 35 41 43 42 36 43 38 44 44 45
REMARK SMILES IDX 37 46 39 47 40 48 41 49 42 50 66 51 67 52 75 53 68 54 70 55
REMARK SMILES IDX 76 56 69 57 71 58 72 59 73 60 74 61 51 62 52 63 60 64 53 65
REMARK SMILES IDX 55 66 61 67 54 68 56 69 57 70 58 71 59 72 7 73 8 74 9 75
REMARK SMILES IDX 10 76 11 77 12 79 13 80 14 81 15 82 16 83 17 84 24 85 18 86
REMARK SMILES IDX 23 87 19 88 20 89 21 90 22 91
REMARK H PARENT 3 7 81 25 49 36 10 78
REMARK Flexibility Score: inf
ROOT
ATOM      1  C   UNL A   1      31.340  27.893  26.088  1.00  0.00     0.002 C 
ENDROOT
BRANCH   1   2
ATOM      2  C   UNL A   1      32.825  28.248  26.142  1.00  0.00     0.021 C 
BRANCH   2   3
ATOM      3  C   UNL A   1      33.241  29.515  25.406  1.00  0.00     0.116 C 
BRANCH   3   4
ATOM      4  N   UNL A   1      32.743  30.730  26.026  1.00  0.00    -0.352 N 
ATOM      5  O   UNL A   1      32.619  32.392  27.540  1.00  0.00    -0.269 OA
ATOM      6  C   UNL A   1      33.254  31.446  27.086  1.00  0.00     0.251 C 
ATOM      7  H   UNL A   1      31.919  31.097  25.631  1.00  0.00     0.163 HD
BRANCH   6   8
ATOM      8  C   UNL A   1      34.543  31.050  27.703  1.00  0.00     0.039 A 
ATOM      9  C   UNL A   1      34.730  29.771  28.235  1.00  0.00     0.014 A 
ATOM     10  C   UNL A   1      35.586  31.980  27.753  1.00  0.00     0.014 A 
ATOM     11  C   UNL A   1      35.884  29.484  28.960  1.00  0.00     0.010 A 
ATOM     12  C   UNL A   1      36.780  31.659  28.409  1.00  0.00     0.010 A 
ATOM     13  C   UNL A   1      36.922  30.425  29.062  1.00  0.00    -0.014 A 
BRANCH  13  14
ATOM     14  C   UNL A   1      38.150  30.079  29.827  1.00  0.00     0.031 A 
ATOM     15  C   UNL A   1      38.360  30.568  31.237  1.00  0.00     0.074 A 
ATOM     16  C   UNL A   1      39.079  29.293  29.248  1.00  0.00     0.049 A 
ATOM     17  N   UNL A   1      39.334  30.289  32.067  1.00  0.00    -0.248 NA
ATOM     18  C   UNL A   1      37.358  31.496  31.787  1.00  0.00     0.031 C 
ATOM     19  C   UNL A   1      39.022  28.799  27.871  1.00  0.00     0.029 A 
ATOM     20  N   UNL A   1      40.245  28.763  29.742  1.00  0.00    -0.354 N 
ATOM     21  C   UNL A   1      39.090  31.036  33.214  1.00  0.00     0.074 A 
ATOM     22  C   UNL A   1      37.877  31.787  32.973  1.00  0.00     0.031 C 
ATOM     23  C   UNL A   1      40.080  28.008  27.641  1.00  0.00     0.029 A 
ATOM     24  C   UNL A   1      40.912  27.966  28.840  1.00  0.00     0.049 A 
ATOM     25  H   UNL A   1      40.574  28.937  30.653  1.00  0.00     0.167 HD
ATOM     26  C   UNL A   1      39.797  31.078  34.369  1.00  0.00     0.034 A 
ATOM     27  C   UNL A   1      42.058  27.270  28.963  1.00  0.00     0.034 A 
ATOM     28  C   UNL A   1      40.972  30.288  34.629  1.00  0.00     0.049 A 
ATOM     29  C   UNL A   1      42.786  27.286  30.277  1.00  0.00     0.074 A 
ATOM     30  C   UNL A   1      41.710  30.203  35.797  1.00  0.00     0.029 A 
ATOM     31  N   UNL A   1      41.581  29.446  33.711  1.00  0.00    -0.354 N 
ATOM     32  N   UNL A   1      42.454  27.881  31.397  1.00  0.00    -0.248 NA
ATOM     33  C   UNL A   1      44.032  26.508  30.355  1.00  0.00     0.031 C 
ATOM     34  C   UNL A   1      42.771  29.316  35.583  1.00  0.00     0.029 A 
ATOM     35  C   UNL A   1      42.688  28.842  34.284  1.00  0.00     0.049 A 
ATOM     36  H   UNL A   1      41.273  29.301  32.788  1.00  0.00     0.167 HD
ATOM     37  C   UNL A   1      43.432  27.530  32.319  1.00  0.00     0.074 A 
ATOM     38  C   UNL A   1      44.354  26.647  31.634  1.00  0.00     0.031 C 
ATOM     39  C   UNL A   1      43.565  27.919  33.610  1.00  0.00     0.034 A 
BRANCH  26  40
ATOM     40  C   UNL A   1      39.292  31.971  35.472  1.00  0.00     0.023 A 
ATOM     41  C   UNL A   1      38.369  31.463  36.408  1.00  0.00     0.012 A 
ATOM     42  C   UNL A   1      39.783  33.283  35.629  1.00  0.00     0.148 A 
ATOM     43  C   UNL A   1      37.924  32.252  37.467  1.00  0.00     0.002 A 
ATOM     44  C   UNL A   1      39.361  34.052  36.709  1.00  0.00     0.091 A 
ATOM     45  F   UNL A   1      40.643  33.759  34.718  1.00  0.00    -0.205 F 
ATOM     46  C   UNL A   1      38.427  33.541  37.624  1.00  0.00     0.022 A 
BRANCH  44  47
ATOM     47  S   UNL A   1      40.012  35.695  37.032  1.00  0.00     0.127 S 
ATOM     48  O   UNL A   1      41.437  35.421  37.202  1.00  0.00    -0.237 OA
ATOM     49  O   UNL A   1      39.672  36.414  35.802  1.00  0.00    -0.237 OA
ATOM     50  O   UNL A   1      39.314  36.171  38.219  1.00  0.00    -0.744 OA
ENDBRANCH  44  47
ENDBRANCH  26  40
BRANCH  27  51
ATOM     51  C   UNL A   1      42.536  26.432  27.828  1.00  0.00     0.023 A 
ATOM     52  C   UNL A   1      43.538  26.936  26.975  1.00  0.00     0.012 A 
ATOM     53  C   UNL A   1      42.052  25.127  27.623  1.00  0.00     0.148 A 
ATOM     54  C   UNL A   1      44.034  26.162  25.926  1.00  0.00     0.002 A 
ATOM     55  C   UNL A   1      42.591  24.340  26.612  1.00  0.00     0.091 A 
ATOM     56  F   UNL A   1      41.083  24.672  28.430  1.00  0.00    -0.205 F 
ATOM     57  C   UNL A   1      43.571  24.860  25.753  1.00  0.00     0.022 A 
BRANCH  55  58
ATOM     58  S   UNL A   1      42.152  22.608  26.421  1.00  0.00     0.127 S 
ATOM     59  O   UNL A   1      42.628  22.038  27.678  1.00  0.00    -0.237 OA
ATOM     60  O   UNL A   1      40.696  22.672  26.283  1.00  0.00    -0.237 OA
ATOM     61  O   UNL A   1      42.844  22.168  25.216  1.00  0.00    -0.744 OA
ENDBRANCH  55  58
ENDBRANCH  27  51
BRANCH  39  62
ATOM     62  C   UNL A   1      44.740  27.379  34.380  1.00  0.00     0.023 A 
ATOM     63  C   UNL A   1      45.967  28.069  34.348  1.00  0.00     0.012 A 
ATOM     64  C   UNL A   1      44.614  26.228  35.180  1.00  0.00     0.148 A 
ATOM     65  C   UNL A   1      47.061  27.605  35.077  1.00  0.00     0.002 A 
ATOM     66  C   UNL A   1      45.696  25.793  35.938  1.00  0.00     0.091 A 
ATOM     67  F   UNL A   1      43.446  25.568  35.179  1.00  0.00    -0.205 F 
ATOM     68  C   UNL A   1      46.923  26.474  35.880  1.00  0.00     0.022 A 
BRANCH  66  69
ATOM     69  S   UNL A   1      45.566  24.398  37.060  1.00  0.00     0.127 S 
ATOM     70  O   UNL A   1      46.892  24.380  37.674  1.00  0.00    -0.237 OA
ATOM     71  O   UNL A   1      44.485  24.809  37.957  1.00  0.00    -0.237 OA
ATOM     72  O   UNL A   1      45.240  23.251  36.221  1.00  0.00    -0.744 OA
ENDBRANCH  66  69
ENDBRANCH  39  62
ENDBRANCH  13  14
ENDBRANCH   6   8
ENDBRANCH   3   4
ENDBRANCH   2   3
ENDBRANCH   1   2
BRANCH   1  73
ATOM     73  C   UNL A   1      30.777  27.492  24.722  1.00  0.00     0.002 C 
BRANCH  73  74
ATOM     74  C   UNL A   1      29.775  26.335  24.693  1.00  0.00     0.021 C 
BRANCH  74  75
ATOM     75  C   UNL A   1      30.347  24.933  24.511  1.00  0.00     0.116 C 
BRANCH  75  76
ATOM     76  N   UNL A   1      30.959  24.399  25.707  1.00  0.00    -0.356 N 
ATOM     77  C   UNL A   1      32.275  24.336  26.074  1.00  0.00     0.223 C 
ATOM     78  H   UNL A   1      30.328  24.021  26.360  1.00  0.00     0.163 HD
ATOM     79  O   UNL A   1      32.570  23.833  27.156  1.00  0.00    -0.275 OA
BRANCH  77  80
ATOM     80  C   UNL A   1      33.359  24.743  25.149  1.00  0.00     0.086 C 
ATOM     81  C   UNL A   1      34.822  24.420  25.256  1.00  0.00     0.023 C 
ATOM     82  C   UNL A   1      33.993  23.724  24.208  1.00  0.00     0.032 C 
BRANCH  82  83
ATOM     83  C   UNL A   1      33.817  22.224  24.324  1.00  0.00    -0.044 A 
ATOM     84  C   UNL A   1      34.789  21.417  24.934  1.00  0.00     0.004 A 
ATOM     85  C   UNL A   1      32.717  21.565  23.764  1.00  0.00     0.004 A 
ATOM     86  C   UNL A   1      34.667  20.024  24.980  1.00  0.00     0.004 A 
ATOM     87  C   UNL A   1      32.596  20.167  23.808  1.00  0.00     0.004 A 
ATOM     88  C   UNL A   1      33.575  19.359  24.405  1.00  0.00    -0.045 A 
BRANCH  88  89
ATOM     89  C   UNL A   1      33.531  17.845  24.434  1.00  0.00     0.019 C 
ATOM     90  C   UNL A   1      33.301  16.976  23.224  1.00  0.00     0.009 C 
ATOM     91  C   UNL A   1      34.681  17.094  23.798  1.00  0.00     0.009 C 
ENDBRANCH  88  89
ENDBRANCH  82  83
ENDBRANCH  77  80
ENDBRANCH  75  76
ENDBRANCH  74  75
ENDBRANCH  73  74
ENDBRANCH   1  73
TORSDOF 18
ENDMDL
MODEL 3
REMARK VINA RESULT:     -10.6      2.325      8.434
REMARK SMILES O=C(NCCCCCCNC(=O)[C@H]1C[C@H]1c1ccc(C2CC2)cc1)c1ccc(-c2c3nc(c(-c4cccc(S(=O)(=O)[O-])c4F)c4ccc([nH]4)c(-c4cccc(S(=O)(=O)[O-])c4F)c4nc(c(-c5cccc(S(=O)(=O)[O-])c5F)c5ccc2[nH]5)C=C4)C=C3)cc1
REMARK SMILES IDX 6 1 5 2 4 3 3 4 1 5 2 6 25 8 26 9 87 10 27 11 86 12 28 13
REMARK SMILES IDX 29 14 30 15 80 16 31 17 85 18 79 19 81 20 32 21 84 22 78 23
REMARK SMILES IDX 77 24 33 26 65 27 45 28 64 29 46 30 49 31 63 32 82 33 47 34
REMARK SMILES IDX 48 35 62 37 83 38 50 39 34 40 35 41 43 42 36 43 38 44 44 45
REMARK SMILES IDX 37 46 39 47 40 48 41 49 42 50 66 51 67 52 75 53 68 54 70 55
REMARK SMILES IDX 76 56 69 57 71 58 72 59 73 60 74 61 51 62 52 63 60 64 53 65
REMARK SMILES IDX 55 66 61 67 54 68 56 69 57 70 58 71 59 72 7 73 8 74 9 75
REMARK SMILES IDX 10 76 11 77 12 79 13 80 14 81 15 82 16 83 17 84 24 85 18 86
REMARK SMILES IDX 23 87 19 88 20 89 21 90 22 91
REMARK H PARENT 3 7 81 25 49 36 10 78
REMARK Flexibility Score: inf
ROOT
ATOM      1  C   UNL A   1      36.177  23.358  23.578  1.00  0.00     0.002 C 
ENDROOT
BRANCH   1   2
ATOM      2  C   UNL A   1      36.831  22.010  23.876  1.00  0.00     0.021 C 
BRANCH   2   3
ATOM      3  C   UNL A   1      36.961  21.636  25.347  1.00  0.00     0.116 C 
BRANCH   3   4
ATOM      4  N   UNL A   1      37.940  20.592  25.590  1.00  0.00    -0.352 N 
ATOM      5  O   UNL A   1      39.932  19.695  26.133  1.00  0.00    -0.269 OA
ATOM      6  C   UNL A   1      39.210  20.687  26.112  1.00  0.00     0.251 C 
ATOM      7  H   UNL A   1      37.653  19.681  25.347  1.00  0.00     0.163 HD
BRANCH   6   8
ATOM      8  C   UNL A   1      39.720  21.989  26.608  1.00  0.00     0.039 A 
ATOM      9  C   UNL A   1      39.217  23.197  26.119  1.00  0.00     0.014 A 
ATOM     10  C   UNL A   1      40.725  22.000  27.579  1.00  0.00     0.014 A 
ATOM     11  C   UNL A   1      39.830  24.397  26.471  1.00  0.00     0.010 A 
ATOM     12  C   UNL A   1      41.283  23.214  27.996  1.00  0.00     0.010 A 
ATOM     13  C   UNL A   1      40.875  24.421  27.410  1.00  0.00    -0.014 A 
BRANCH  13  14
ATOM     14  C   UNL A   1      41.496  25.722  27.779  1.00  0.00     0.031 A 
ATOM     15  C   UNL A   1      42.882  26.089  27.316  1.00  0.00     0.074 A 
ATOM     16  C   UNL A   1      40.788  26.593  28.525  1.00  0.00     0.049 A 
ATOM     17  N   UNL A   1      43.532  27.214  27.483  1.00  0.00    -0.248 NA
ATOM     18  C   UNL A   1      43.643  25.066  26.582  1.00  0.00     0.031 C 
ATOM     19  C   UNL A   1      39.459  26.336  29.082  1.00  0.00     0.029 A 
ATOM     20  N   UNL A   1      41.079  27.871  28.936  1.00  0.00    -0.354 N 
ATOM     21  C   UNL A   1      44.788  27.021  26.917  1.00  0.00     0.074 A 
ATOM     22  C   UNL A   1      44.813  25.667  26.407  1.00  0.00     0.031 C 
ATOM     23  C   UNL A   1      39.031  27.432  29.727  1.00  0.00     0.029 A 
ATOM     24  C   UNL A   1      40.068  28.457  29.662  1.00  0.00     0.049 A 
ATOM     25  H   UNL A   1      41.929  28.323  28.732  1.00  0.00     0.167 HD
ATOM     26  C   UNL A   1      45.818  27.895  26.814  1.00  0.00     0.034 A 
ATOM     27  C   UNL A   1      39.978  29.685  30.209  1.00  0.00     0.034 A 
ATOM     28  C   UNL A   1      45.773  29.259  27.271  1.00  0.00     0.049 A 
ATOM     29  C   UNL A   1      41.111  30.653  30.022  1.00  0.00     0.074 A 
ATOM     30  C   UNL A   1      46.738  30.243  27.139  1.00  0.00     0.029 A 
ATOM     31  N   UNL A   1      44.709  29.834  27.949  1.00  0.00    -0.354 N 
ATOM     32  N   UNL A   1      42.227  30.497  29.353  1.00  0.00    -0.248 NA
ATOM     33  C   UNL A   1      40.959  31.979  30.639  1.00  0.00     0.031 C 
ATOM     34  C   UNL A   1      46.259  31.411  27.744  1.00  0.00     0.029 A 
ATOM     35  C   UNL A   1      44.993  31.156  28.245  1.00  0.00     0.049 A 
ATOM     36  H   UNL A   1      43.873  29.370  28.185  1.00  0.00     0.167 HD
ATOM     37  C   UNL A   1      42.899  31.711  29.445  1.00  0.00     0.074 A 
ATOM     38  C   UNL A   1      42.050  32.600  30.211  1.00  0.00     0.031 C 
ATOM     39  C   UNL A   1      44.117  32.050  28.956  1.00  0.00     0.034 A 
BRANCH  26  40
ATOM     40  C   UNL A   1      47.075  27.424  26.129  1.00  0.00     0.023 A 
ATOM     41  C   UNL A   1      47.275  27.722  24.766  1.00  0.00     0.012 A 
ATOM     42  C   UNL A   1      48.088  26.756  26.846  1.00  0.00     0.148 A 
ATOM     43  C   UNL A   1      48.451  27.342  24.121  1.00  0.00     0.002 A 
ATOM     44  C   UNL A   1      49.274  26.412  26.204  1.00  0.00     0.091 A 
ATOM     45  F   UNL A   1      47.873  26.460  28.135  1.00  0.00    -0.205 F 
ATOM     46  C   UNL A   1      49.453  26.698  24.841  1.00  0.00     0.022 A 
BRANCH  44  47
ATOM     47  S   UNL A   1      50.648  25.646  27.071  1.00  0.00     0.127 S 
ATOM     48  O   UNL A   1      50.020  24.448  27.621  1.00  0.00    -0.237 OA
ATOM     49  O   UNL A   1      51.600  25.391  25.987  1.00  0.00    -0.237 OA
ATOM     50  O   UNL A   1      51.098  26.630  28.047  1.00  0.00    -0.744 OA
ENDBRANCH  44  47
ENDBRANCH  26  40
BRANCH  27  51
ATOM     51  C   UNL A   1      38.728  30.089  30.911  1.00  0.00     0.023 A 
ATOM     52  C   UNL A   1      38.546  29.721  32.258  1.00  0.00     0.012 A 
ATOM     53  C   UNL A   1      37.750  30.878  30.276  1.00  0.00     0.148 A 
ATOM     54  C   UNL A   1      37.403  30.115  32.954  1.00  0.00     0.002 A 
ATOM     55  C   UNL A   1      36.643  31.316  30.992  1.00  0.00     0.091 A 
ATOM     56  F   UNL A   1      37.930  31.200  28.987  1.00  0.00    -0.205 F 
ATOM     57  C   UNL A   1      36.460  30.924  32.327  1.00  0.00     0.022 A 
BRANCH  55  58
ATOM     58  S   UNL A   1      35.462  32.478  30.298  1.00  0.00     0.127 S 
ATOM     59  O   UNL A   1      36.297  33.655  30.072  1.00  0.00    -0.237 OA
ATOM     60  O   UNL A   1      35.028  31.788  29.082  1.00  0.00    -0.237 OA
ATOM     61  O   UNL A   1      34.420  32.616  31.307  1.00  0.00    -0.744 OA
ENDBRANCH  55  58
ENDBRANCH  27  51
BRANCH  39  62
ATOM     62  C   UNL A   1      44.602  33.451  29.215  1.00  0.00     0.023 A 
ATOM     63  C   UNL A   1      45.275  33.741  30.419  1.00  0.00     0.012 A 
ATOM     64  C   UNL A   1      44.448  34.461  28.248  1.00  0.00     0.148 A 
ATOM     65  C   UNL A   1      45.761  35.024  30.668  1.00  0.00     0.002 A 
ATOM     66  C   UNL A   1      44.970  35.728  28.485  1.00  0.00     0.091 A 
ATOM     67  F   UNL A   1      43.781  34.175  27.119  1.00  0.00    -0.205 F 
ATOM     68  C   UNL A   1      45.618  36.014  29.697  1.00  0.00     0.022 A 
BRANCH  66  69
ATOM     69  S   UNL A   1      44.901  37.026  27.246  1.00  0.00     0.127 S 
ATOM     70  O   UNL A   1      45.800  36.509  26.216  1.00  0.00    -0.237 OA
ATOM     71  O   UNL A   1      43.487  37.036  26.872  1.00  0.00    -0.237 OA
ATOM     72  O   UNL A   1      45.347  38.237  27.925  1.00  0.00    -0.744 OA
ENDBRANCH  66  69
ENDBRANCH  39  62
ENDBRANCH  13  14
ENDBRANCH   6   8
ENDBRANCH   3   4
ENDBRANCH   2   3
ENDBRANCH   1   2
BRANCH   1  73
ATOM     73  C   UNL A   1      34.678  23.476  23.867  1.00  0.00     0.002 C 
BRANCH  73  74
ATOM     74  C   UNL A   1      33.791  22.303  23.442  1.00  0.00     0.021 C 
BRANCH  74  75
ATOM     75  C   UNL A   1      33.221  21.432  24.556  1.00  0.00     0.116 C 
BRANCH  75  76
ATOM     76  N   UNL A   1      33.308  22.039  25.865  1.00  0.00    -0.356 N 
ATOM     77  C   UNL A   1      32.325  22.524  26.682  1.00  0.00     0.223 C 
ATOM     78  H   UNL A   1      34.221  22.115  26.225  1.00  0.00     0.163 HD
ATOM     79  O   UNL A   1      32.633  23.002  27.771  1.00  0.00    -0.275 OA
BRANCH  77  80
ATOM     80  C   UNL A   1      30.913  22.602  26.235  1.00  0.00     0.086 C 
ATOM     81  C   UNL A   1      29.792  23.369  26.876  1.00  0.00     0.023 C 
ATOM     82  C   UNL A   1      30.379  23.873  25.583  1.00  0.00     0.032 C 
BRANCH  82  83
ATOM     83  C   UNL A   1      31.091  25.210  25.602  1.00  0.00    -0.044 A 
ATOM     84  C   UNL A   1      32.213  25.455  24.797  1.00  0.00     0.004 A 
ATOM     85  C   UNL A   1      30.711  26.236  26.475  1.00  0.00     0.004 A 
ATOM     86  C   UNL A   1      32.919  26.661  24.863  1.00  0.00     0.004 A 
ATOM     87  C   UNL A   1      31.421  27.445  26.543  1.00  0.00     0.004 A 
ATOM     88  C   UNL A   1      32.552  27.684  25.749  1.00  0.00    -0.045 A 
BRANCH  88  89
ATOM     89  C   UNL A   1      33.393  28.942  25.817  1.00  0.00     0.019 C 
ATOM     90  C   UNL A   1      33.295  29.974  26.910  1.00  0.00     0.009 C 
ATOM     91  C   UNL A   1      34.454  29.024  26.892  1.00  0.00     0.009 C 
ENDBRANCH  88  89
ENDBRANCH  82  83
ENDBRANCH  77  80
ENDBRANCH  75  76
ENDBRANCH  74  75
ENDBRANCH  73  74
ENDBRANCH   1  73
TORSDOF 18
ENDMDL
