MODEL 1
REMARK VINA RESULT:     -11.5      0.000      0.000
REMARK SMILES CCOC(=O)c1ccc(NC(=O)[C@H]2CC=CC[C@@]2(C)C(=O)NCCCCCCNC(=O)c2ccc(-c3c4nc(c(-c5cccc(S(=O)(=O)[O-])c5F)c5ccc([nH]5)c(-c5cccc(S(=O)(=O)[O-])c5F)c5nc(c(-c6cccc(S(=O)(=O)[O-])c6F)c6ccc3[nH]6)C=C5)C=C4)cc2)cc1
REMARK SMILES IDX 24 1 23 2 22 3 20 4 21 5 18 7 13 8 14 9 15 10 17 11 19 12
REMARK SMILES IDX 16 13 11 14 10 15 12 17 9 18 6 19 7 20 96 21 8 22 95 23 4 24
REMARK SMILES IDX 5 25 3 26 2 27 1 28 25 29 26 30 27 31 28 32 29 33 30 34
REMARK SMILES IDX 31 36 32 37 33 38 94 39 34 40 93 41 35 42 36 43 37 44 87 45
REMARK SMILES IDX 38 46 92 47 86 48 88 49 39 50 91 51 85 52 84 53 40 55 72 56
REMARK SMILES IDX 52 57 71 58 53 59 56 60 70 61 89 62 54 63 55 64 69 66 90 67
REMARK SMILES IDX 57 68 41 69 42 70 50 71 43 72 45 73 51 74 44 75 46 76 47 77
REMARK SMILES IDX 48 78 49 79 73 80 74 81 82 82 75 83 77 84 83 85 76 86 78 87
REMARK SMILES IDX 79 88 80 89 81 90 58 91 59 92 67 93 60 94 62 95 68 96 61 97
REMARK SMILES IDX 63 98 64 99 65 100 66 101
REMARK H PARENT 22 6 10 16 29 35 88 54 56 65
REMARK Flexibility Score: inf
ROOT
ATOM      1  C   UNL A   1      31.531  24.693  26.540  1.00  0.00     0.021 C 
ENDROOT
BRANCH   1   2
ATOM      2  C   UNL A   1      32.269  23.463  27.061  1.00  0.00     0.116 C 
BRANCH   2   3
ATOM      3  N   UNL A   1      31.818  22.246  26.425  1.00  0.00    -0.356 N 
ATOM      4  C   UNL A   1      32.424  21.360  25.594  1.00  0.00     0.227 C 
ATOM      5  O   UNL A   1      31.809  20.296  25.443  1.00  0.00    -0.274 OA
ATOM      6  H   UNL A   1      30.885  22.014  26.635  1.00  0.00     0.163 HD
BRANCH   4   7
ATOM      7  C   UNL A   1      33.822  21.587  24.938  1.00  0.00     0.062 C 
ATOM      8  C   UNL A   1      33.818  22.478  23.617  1.00  0.00     0.098 C 
ATOM      9  C   UNL A   1      34.232  23.943  23.840  1.00  0.00     0.041 C 
ATOM     10  C   UNL A   1      35.123  24.253  24.996  1.00  0.00    -0.030 C 
ATOM     11  C   UNL A   1      34.809  22.025  26.061  1.00  0.00     0.044 C 
ATOM     12  C   UNL A   1      34.323  20.162  24.511  1.00  0.00     0.023 C 
ATOM     13  C   UNL A   1      35.384  23.397  25.983  1.00  0.00    -0.030 C 
BRANCH   8  14
ATOM     14  C   UNL A   1      32.514  22.235  22.807  1.00  0.00     0.228 C 
ATOM     15  N   UNL A   1      31.502  23.110  22.582  1.00  0.00    -0.326 N 
ATOM     16  H   UNL A   1      30.697  22.657  22.242  1.00  0.00     0.169 HD
ATOM     17  O   UNL A   1      32.315  21.131  22.278  1.00  0.00    -0.274 OA
BRANCH  15  18
ATOM     18  C   UNL A   1      31.308  24.485  22.709  1.00  0.00     0.041 A 
ATOM     19  C   UNL A   1      30.848  27.208  23.210  1.00  0.00     0.060 A 
ATOM     20  C   UNL A   1      31.931  26.802  22.421  1.00  0.00     0.018 A 
ATOM     21  C   UNL A   1      29.937  26.252  23.667  1.00  0.00     0.018 A 
ATOM     22  C   UNL A   1      32.141  25.446  22.150  1.00  0.00     0.027 A 
ATOM     23  C   UNL A   1      30.162  24.898  23.402  1.00  0.00     0.027 A 
BRANCH  19  24
ATOM     24  C   UNL A   1      30.698  28.648  23.523  1.00  0.00     0.338 C 
ATOM     25  O   UNL A   1      31.633  29.353  23.880  1.00  0.00    -0.246 OA
BRANCH  24  26
ATOM     26  O   UNL A   1      29.398  29.010  23.421  1.00  0.00    -0.462 OA
BRANCH  26  27
ATOM     27  C   UNL A   1      29.156  30.384  23.069  1.00  0.00     0.230 C 
ATOM     28  C   UNL A   1      28.798  30.504  21.599  1.00  0.00     0.049 C 
ENDBRANCH  26  27
ENDBRANCH  24  26
ENDBRANCH  19  24
ENDBRANCH  15  18
ENDBRANCH   8  14
ENDBRANCH   4   7
ENDBRANCH   2   3
ENDBRANCH   1   2
BRANCH   1  29
ATOM     29  C   UNL A   1      32.426  25.912  26.308  1.00  0.00     0.002 C 
BRANCH  29  30
ATOM     30  C   UNL A   1      31.851  27.245  26.800  1.00  0.00     0.002 C 
BRANCH  30  31
ATOM     31  C   UNL A   1      32.861  28.197  27.448  1.00  0.00     0.021 C 
BRANCH  31  32
ATOM     32  C   UNL A   1      33.769  28.936  26.468  1.00  0.00     0.116 C 
BRANCH  32  33
ATOM     33  N   UNL A   1      33.822  30.363  26.748  1.00  0.00    -0.352 N 
ATOM     34  C   UNL A   1      34.685  31.066  27.551  1.00  0.00     0.251 C 
ATOM     35  H   UNL A   1      33.138  30.905  26.293  1.00  0.00     0.163 HD
ATOM     36  O   UNL A   1      34.444  32.237  27.829  1.00  0.00    -0.269 OA
BRANCH  34  37
ATOM     37  C   UNL A   1      35.899  30.413  28.087  1.00  0.00     0.039 A 
ATOM     38  C   UNL A   1      37.059  30.395  27.307  1.00  0.00     0.014 A 
ATOM     39  C   UNL A   1      35.887  29.795  29.341  1.00  0.00     0.014 A 
ATOM     40  C   UNL A   1      38.221  29.800  27.805  1.00  0.00     0.010 A 
ATOM     41  C   UNL A   1      37.062  29.260  29.861  1.00  0.00     0.010 A 
ATOM     42  C   UNL A   1      38.238  29.248  29.097  1.00  0.00    -0.014 A 
BRANCH  42  43
ATOM     43  C   UNL A   1      39.476  28.664  29.669  1.00  0.00     0.031 A 
ATOM     44  C   UNL A   1      40.105  29.267  30.895  1.00  0.00     0.074 A 
ATOM     45  C   UNL A   1      40.086  27.646  29.031  1.00  0.00     0.049 A 
ATOM     46  N   UNL A   1      41.209  28.928  31.507  1.00  0.00    -0.248 NA
ATOM     47  C   UNL A   1      39.417  30.422  31.496  1.00  0.00     0.031 C 
ATOM     48  C   UNL A   1      39.618  27.027  27.791  1.00  0.00     0.029 A 
ATOM     49  N   UNL A   1      41.244  26.971  29.325  1.00  0.00    -0.354 N 
ATOM     50  C   UNL A   1      41.370  29.845  32.539  1.00  0.00     0.074 A 
ATOM     51  C   UNL A   1      40.266  30.777  32.449  1.00  0.00     0.031 C 
ATOM     52  C   UNL A   1      40.476  26.058  27.432  1.00  0.00     0.029 A 
ATOM     53  C   UNL A   1      41.566  26.004  28.402  1.00  0.00     0.049 A 
ATOM     54  H   UNL A   1      41.792  27.161  30.120  1.00  0.00     0.167 HD
ATOM     55  C   UNL A   1      42.330  29.891  33.493  1.00  0.00     0.034 A 
ATOM     56  C   UNL A   1      42.619  25.166  28.345  1.00  0.00     0.034 A 
ATOM     57  C   UNL A   1      43.396  28.932  33.610  1.00  0.00     0.049 A 
ATOM     58  C   UNL A   1      43.647  25.203  29.443  1.00  0.00     0.074 A 
ATOM     59  C   UNL A   1      44.359  28.831  34.598  1.00  0.00     0.029 A 
ATOM     60  N   UNL A   1      43.644  27.911  32.704  1.00  0.00    -0.354 N 
ATOM     61  N   UNL A   1      43.691  25.972  30.504  1.00  0.00    -0.248 NA
ATOM     62  C   UNL A   1      44.750  24.236  29.355  1.00  0.00     0.031 C 
ATOM     63  C   UNL A   1      45.199  27.756  34.282  1.00  0.00     0.029 A 
ATOM     64  C   UNL A   1      44.749  27.180  33.104  1.00  0.00     0.049 A 
ATOM     65  H   UNL A   1      43.111  27.732  31.896  1.00  0.00     0.167 HD
ATOM     66  C   UNL A   1      44.804  25.561  31.228  1.00  0.00     0.074 A 
ATOM     67  C   UNL A   1      45.395  24.461  30.492  1.00  0.00     0.031 C 
ATOM     68  C   UNL A   1      45.299  26.056  32.389  1.00  0.00     0.034 A 
BRANCH  55  69
ATOM     69  C   UNL A   1      42.233  30.986  34.522  1.00  0.00     0.023 A 
ATOM     70  C   UNL A   1      41.537  30.748  35.725  1.00  0.00     0.012 A 
ATOM     71  C   UNL A   1      42.853  32.234  34.320  1.00  0.00     0.148 A 
ATOM     72  C   UNL A   1      41.422  31.747  36.692  1.00  0.00     0.002 A 
ATOM     73  C   UNL A   1      42.769  33.211  35.306  1.00  0.00     0.091 A 
ATOM     74  F   UNL A   1      43.487  32.457  33.160  1.00  0.00    -0.205 F 
ATOM     75  C   UNL A   1      42.047  32.974  36.487  1.00  0.00     0.022 A 
BRANCH  73  76
ATOM     76  S   UNL A   1      43.603  34.796  35.157  1.00  0.00     0.127 S 
ATOM     77  O   UNL A   1      44.983  34.380  34.912  1.00  0.00    -0.237 OA
ATOM     78  O   UNL A   1      42.933  35.395  34.002  1.00  0.00    -0.237 OA
ATOM     79  O   UNL A   1      43.364  35.487  36.417  1.00  0.00    -0.744 OA
ENDBRANCH  73  76
ENDBRANCH  55  69
BRANCH  56  80
ATOM     80  C   UNL A   1      42.697  24.157  27.251  1.00  0.00     0.023 A 
ATOM     81  C   UNL A   1      43.466  24.448  26.107  1.00  0.00     0.012 A 
ATOM     82  C   UNL A   1      42.073  22.899  27.359  1.00  0.00     0.148 A 
ATOM     83  C   UNL A   1      43.594  23.513  25.080  1.00  0.00     0.002 A 
ATOM     84  C   UNL A   1      42.246  21.954  26.355  1.00  0.00     0.091 A 
ATOM     85  F   UNL A   1      41.339  22.647  28.452  1.00  0.00    -0.205 F 
ATOM     86  C   UNL A   1      42.994  22.263  25.209  1.00  0.00     0.022 A 
BRANCH  84  87
ATOM     87  S   UNL A   1      41.623  20.274  26.493  1.00  0.00     0.127 S 
ATOM     88  O   UNL A   1      40.180  20.482  26.391  1.00  0.00    -0.237 OA
ATOM     89  O   UNL A   1      42.237  19.629  25.332  1.00  0.00    -0.237 OA
ATOM     90  O   UNL A   1      42.100  19.780  27.778  1.00  0.00    -0.744 OA
ENDBRANCH  84  87
ENDBRANCH  56  80
BRANCH  68  91
ATOM     91  C   UNL A   1      46.533  25.405  32.955  1.00  0.00     0.023 A 
ATOM     92  C   UNL A   1      46.407  24.418  33.952  1.00  0.00     0.012 A 
ATOM     93  C   UNL A   1      47.810  25.716  32.447  1.00  0.00     0.148 A 
ATOM     94  C   UNL A   1      47.534  23.770  34.455  1.00  0.00     0.002 A 
ATOM     95  C   UNL A   1      48.925  25.033  32.920  1.00  0.00     0.091 A 
ATOM     96  F   UNL A   1      47.913  26.673  31.513  1.00  0.00    -0.205 F 
ATOM     97  C   UNL A   1      48.790  24.068  33.931  1.00  0.00     0.022 A 
BRANCH  95  98
ATOM     98  S   UNL A   1      50.567  25.286  32.236  1.00  0.00     0.127 S 
ATOM     99  O   UNL A   1      50.804  26.695  32.544  1.00  0.00    -0.237 OA
ATOM    100  O   UNL A   1      51.378  24.347  33.013  1.00  0.00    -0.237 OA
ATOM    101  O   UNL A   1      50.462  24.961  30.820  1.00  0.00    -0.744 OA
ENDBRANCH  95  98
ENDBRANCH  68  91
ENDBRANCH  42  43
ENDBRANCH  34  37
ENDBRANCH  32  33
ENDBRANCH  31  32
ENDBRANCH  30  31
ENDBRANCH  29  30
ENDBRANCH   1  29
TORSDOF 21
ENDMDL
MODEL 2
REMARK VINA RESULT:     -11.0      4.771      7.466
REMARK SMILES CCOC(=O)c1ccc(NC(=O)[C@H]2CC=CC[C@@]2(C)C(=O)NCCCCCCNC(=O)c2ccc(-c3c4nc(c(-c5cccc(S(=O)(=O)[O-])c5F)c5ccc([nH]5)c(-c5cccc(S(=O)(=O)[O-])c5F)c5nc(c(-c6cccc(S(=O)(=O)[O-])c6F)c6ccc3[nH]6)C=C5)C=C4)cc2)cc1
REMARK SMILES IDX 24 1 23 2 22 3 20 4 21 5 18 7 13 8 14 9 15 10 17 11 19 12
REMARK SMILES IDX 16 13 11 14 10 15 12 17 9 18 6 19 7 20 96 21 8 22 95 23 4 24
REMARK SMILES IDX 5 25 3 26 2 27 1 28 25 29 26 30 27 31 28 32 29 33 30 34
REMARK SMILES IDX 31 36 32 37 33 38 94 39 34 40 93 41 35 42 36 43 37 44 87 45
REMARK SMILES IDX 38 46 92 47 86 48 88 49 39 50 91 51 85 52 84 53 40 55 72 56
REMARK SMILES IDX 52 57 71 58 53 59 56 60 70 61 89 62 54 63 55 64 69 66 90 67
REMARK SMILES IDX 57 68 41 69 42 70 50 71 43 72 45 73 51 74 44 75 46 76 47 77
REMARK SMILES IDX 48 78 49 79 73 80 74 81 82 82 75 83 77 84 83 85 76 86 78 87
REMARK SMILES IDX 79 88 80 89 81 90 58 91 59 92 67 93 60 94 62 95 68 96 61 97
REMARK SMILES IDX 63 98 64 99 65 100 66 101
REMARK H PARENT 22 6 10 16 29 35 88 54 56 65
REMARK Flexibility Score: inf
ROOT
ATOM      1  C   UNL A   1      32.281  21.500  24.192  1.00  0.00     0.021 C 
ENDROOT
BRANCH   1   2
ATOM      2  C   UNL A   1      32.683  22.931  23.847  1.00  0.00     0.116 C 
BRANCH   2   3
ATOM      3  N   UNL A   1      31.868  23.907  24.533  1.00  0.00    -0.356 N 
ATOM      4  C   UNL A   1      32.094  25.188  24.923  1.00  0.00     0.227 C 
ATOM      5  O   UNL A   1      31.077  25.805  25.269  1.00  0.00    -0.274 OA
ATOM      6  H   UNL A   1      30.970  23.577  24.766  1.00  0.00     0.163 HD
BRANCH   4   7
ATOM      7  C   UNL A   1      33.487  25.890  24.868  1.00  0.00     0.062 C 
ATOM      8  C   UNL A   1      33.698  26.889  23.645  1.00  0.00     0.098 C 
ATOM      9  C   UNL A   1      33.513  28.375  24.001  1.00  0.00     0.041 C 
ATOM     10  C   UNL A   1      33.759  28.794  25.412  1.00  0.00    -0.030 C 
ATOM     11  C   UNL A   1      33.787  26.463  26.285  1.00  0.00     0.044 C 
ATOM     12  C   UNL A   1      34.533  24.735  24.683  1.00  0.00     0.023 C 
ATOM     13  C   UNL A   1      33.885  27.942  26.429  1.00  0.00    -0.030 C 
BRANCH   8  14
ATOM     14  C   UNL A   1      32.942  26.372  22.389  1.00  0.00     0.228 C 
ATOM     15  N   UNL A   1      31.688  26.692  21.986  1.00  0.00    -0.326 N 
ATOM     16  H   UNL A   1      31.355  26.071  21.299  1.00  0.00     0.169 HD
ATOM     17  O   UNL A   1      33.498  25.568  21.624  1.00  0.00    -0.274 OA
BRANCH  15  18
ATOM     18  C   UNL A   1      30.747  27.675  22.293  1.00  0.00     0.041 A 
ATOM     19  C   UNL A   1      28.881  29.737  22.666  1.00  0.00     0.060 A 
ATOM     20  C   UNL A   1      28.672  28.476  23.237  1.00  0.00     0.018 A 
ATOM     21  C   UNL A   1      30.076  29.994  21.989  1.00  0.00     0.018 A 
ATOM     22  C   UNL A   1      29.618  27.459  23.072  1.00  0.00     0.027 A 
ATOM     23  C   UNL A   1      31.010  28.968  21.818  1.00  0.00     0.027 A 
BRANCH  19  24
ATOM     24  C   UNL A   1      27.825  30.766  22.813  1.00  0.00     0.338 C 
ATOM     25  O   UNL A   1      27.111  30.851  23.803  1.00  0.00    -0.246 OA
BRANCH  24  26
ATOM     26  O   UNL A   1      27.746  31.511  21.685  1.00  0.00    -0.462 OA
BRANCH  26  27
ATOM     27  C   UNL A   1      28.030  32.912  21.838  1.00  0.00     0.230 C 
ATOM     28  C   UNL A   1      28.938  33.147  23.032  1.00  0.00     0.049 C 
ENDBRANCH  26  27
ENDBRANCH  24  26
ENDBRANCH  19  24
ENDBRANCH  15  18
ENDBRANCH   8  14
ENDBRANCH   4   7
ENDBRANCH   2   3
ENDBRANCH   1   2
BRANCH   1  29
ATOM     29  C   UNL A   1      33.253  20.784  25.134  1.00  0.00     0.002 C 
BRANCH  29  30
ATOM     30  C   UNL A   1      34.701  20.705  24.638  1.00  0.00     0.002 C 
BRANCH  30  31
ATOM     31  C   UNL A   1      35.753  21.289  25.585  1.00  0.00     0.021 C 
BRANCH  31  32
ATOM     32  C   UNL A   1      37.145  21.452  24.978  1.00  0.00     0.116 C 
BRANCH  32  33
ATOM     33  N   UNL A   1      38.032  20.362  25.353  1.00  0.00    -0.352 N 
ATOM     34  C   UNL A   1      39.328  20.403  25.803  1.00  0.00     0.251 C 
ATOM     35  H   UNL A   1      37.645  19.460  25.273  1.00  0.00     0.163 HD
ATOM     36  O   UNL A   1      39.985  19.368  25.868  1.00  0.00    -0.269 OA
BRANCH  34  37
ATOM     37  C   UNL A   1      39.935  21.691  26.202  1.00  0.00     0.039 A 
ATOM     38  C   UNL A   1      41.252  21.703  26.669  1.00  0.00     0.014 A 
ATOM     39  C   UNL A   1      39.199  22.879  26.144  1.00  0.00     0.014 A 
ATOM     40  C   UNL A   1      41.848  22.914  27.032  1.00  0.00     0.010 A 
ATOM     41  C   UNL A   1      39.815  24.090  26.445  1.00  0.00     0.010 A 
ATOM     42  C   UNL A   1      41.142  24.120  26.900  1.00  0.00    -0.014 A 
BRANCH  42  43
ATOM     43  C   UNL A   1      41.774  25.423  27.224  1.00  0.00     0.031 A 
ATOM     44  C   UNL A   1      41.015  26.464  27.999  1.00  0.00     0.074 A 
ATOM     45  C   UNL A   1      43.000  25.704  26.741  1.00  0.00     0.049 A 
ATOM     46  N   UNL A   1      41.381  27.675  28.332  1.00  0.00    -0.248 NA
ATOM     47  C   UNL A   1      39.654  26.110  28.434  1.00  0.00     0.031 C 
ATOM     48  C   UNL A   1      43.805  24.808  25.910  1.00  0.00     0.029 A 
ATOM     49  N   UNL A   1      43.771  26.833  26.858  1.00  0.00    -0.354 N 
ATOM     50  C   UNL A   1      40.288  28.239  28.979  1.00  0.00     0.074 A 
ATOM     51  C   UNL A   1      39.233  27.249  28.963  1.00  0.00     0.031 C 
ATOM     52  C   UNL A   1      44.959  25.418  25.598  1.00  0.00     0.029 A 
ATOM     53  C   UNL A   1      44.967  26.755  26.184  1.00  0.00     0.049 A 
ATOM     54  H   UNL A   1      43.494  27.624  27.375  1.00  0.00     0.167 HD
ATOM     55  C   UNL A   1      40.181  29.457  29.562  1.00  0.00     0.034 A 
ATOM     56  C   UNL A   1      45.959  27.658  26.055  1.00  0.00     0.034 A 
ATOM     57  C   UNL A   1      41.250  30.418  29.620  1.00  0.00     0.049 A 
ATOM     58  C   UNL A   1      45.837  28.985  26.751  1.00  0.00     0.074 A 
ATOM     59  C   UNL A   1      41.277  31.637  30.274  1.00  0.00     0.029 A 
ATOM     60  N   UNL A   1      42.481  30.271  28.998  1.00  0.00    -0.354 N 
ATOM     61  N   UNL A   1      44.861  29.436  27.500  1.00  0.00    -0.248 NA
ATOM     62  C   UNL A   1      46.968  29.914  26.614  1.00  0.00     0.031 C 
ATOM     63  C   UNL A   1      42.520  32.235  30.034  1.00  0.00     0.029 A 
ATOM     64  C   UNL A   1      43.272  31.380  29.243  1.00  0.00     0.049 A 
ATOM     65  H   UNL A   1      42.753  29.491  28.462  1.00  0.00     0.167 HD
ATOM     66  C   UNL A   1      45.271  30.685  27.951  1.00  0.00     0.074 A 
ATOM     67  C   UNL A   1      46.595  30.910  27.407  1.00  0.00     0.031 C 
ATOM     68  C   UNL A   1      44.607  31.570  28.736  1.00  0.00     0.034 A 
BRANCH  55  69
ATOM     69  C   UNL A   1      38.875  29.793  30.232  1.00  0.00     0.023 A 
ATOM     70  C   UNL A   1      38.613  29.298  31.527  1.00  0.00     0.012 A 
ATOM     71  C   UNL A   1      37.923  30.619  29.605  1.00  0.00     0.148 A 
ATOM     72  C   UNL A   1      37.409  29.584  32.169  1.00  0.00     0.002 A 
ATOM     73  C   UNL A   1      36.742  30.934  30.268  1.00  0.00     0.091 A 
ATOM     74  F   UNL A   1      38.173  31.058  28.363  1.00  0.00    -0.205 F 
ATOM     75  C   UNL A   1      36.478  30.410  31.544  1.00  0.00     0.022 A 
BRANCH  73  76
ATOM     76  S   UNL A   1      35.519  32.047  29.567  1.00  0.00     0.127 S 
ATOM     77  O   UNL A   1      36.332  33.222  29.260  1.00  0.00    -0.237 OA
ATOM     78  O   UNL A   1      35.054  31.305  28.394  1.00  0.00    -0.237 OA
ATOM     79  O   UNL A   1      34.511  32.228  30.603  1.00  0.00    -0.744 OA
ENDBRANCH  73  76
ENDBRANCH  55  69
BRANCH  56  80
ATOM     80  C   UNL A   1      47.193  27.291  25.306  1.00  0.00     0.023 A 
ATOM     81  C   UNL A   1      48.134  26.437  25.916  1.00  0.00     0.012 A 
ATOM     82  C   UNL A   1      47.414  27.726  23.985  1.00  0.00     0.148 A 
ATOM     83  C   UNL A   1      49.283  26.040  25.231  1.00  0.00     0.002 A 
ATOM     84  C   UNL A   1      48.535  27.286  23.291  1.00  0.00     0.091 A 
ATOM     85  F   UNL A   1      46.510  28.544  23.428  1.00  0.00    -0.205 F 
ATOM     86  C   UNL A   1      49.477  26.456  23.916  1.00  0.00     0.022 A 
BRANCH  84  87
ATOM     87  S   UNL A   1      48.803  27.660  21.554  1.00  0.00     0.127 S 
ATOM     88  O   UNL A   1      49.379  29.001  21.623  1.00  0.00    -0.237 OA
ATOM     89  O   UNL A   1      49.739  26.606  21.160  1.00  0.00    -0.237 OA
ATOM     90  O   UNL A   1      47.494  27.566  20.923  1.00  0.00    -0.744 OA
ENDBRANCH  84  87
ENDBRANCH  56  80
BRANCH  68  91
ATOM     91  C   UNL A   1      45.304  32.862  29.073  1.00  0.00     0.023 A 
ATOM     92  C   UNL A   1      46.123  32.935  30.218  1.00  0.00     0.012 A 
ATOM     93  C   UNL A   1      45.211  33.978  28.218  1.00  0.00     0.148 A 
ATOM     94  C   UNL A   1      46.814  34.107  30.522  1.00  0.00     0.002 A 
ATOM     95  C   UNL A   1      45.939  35.127  28.502  1.00  0.00     0.091 A 
ATOM     96  F   UNL A   1      44.410  33.896  27.145  1.00  0.00    -0.205 F 
ATOM     97  C   UNL A   1      46.732  35.197  29.658  1.00  0.00     0.022 A 
BRANCH  95  98
ATOM     98  S   UNL A   1      45.966  36.544  27.397  1.00  0.00     0.127 S 
ATOM     99  O   UNL A   1      46.442  35.943  26.153  1.00  0.00    -0.237 OA
ATOM    100  O   UNL A   1      44.560  36.953  27.378  1.00  0.00    -0.237 OA
ATOM    101  O   UNL A   1      46.865  37.511  28.013  1.00  0.00    -0.744 OA
ENDBRANCH  95  98
ENDBRANCH  68  91
ENDBRANCH  42  43
ENDBRANCH  34  37
ENDBRANCH  32  33
ENDBRANCH  31  32
ENDBRANCH  30  31
ENDBRANCH  29  30
ENDBRANCH   1  29
TORSDOF 21
ENDMDL
MODEL 3
REMARK VINA RESULT:     -10.9      4.482      9.001
REMARK SMILES CCOC(=O)c1ccc(NC(=O)[C@H]2CC=CC[C@@]2(C)C(=O)NCCCCCCNC(=O)c2ccc(-c3c4nc(c(-c5cccc(S(=O)(=O)[O-])c5F)c5ccc([nH]5)c(-c5cccc(S(=O)(=O)[O-])c5F)c5nc(c(-c6cccc(S(=O)(=O)[O-])c6F)c6ccc3[nH]6)C=C5)C=C4)cc2)cc1
REMARK SMILES IDX 24 1 23 2 22 3 20 4 21 5 18 7 13 8 14 9 15 10 17 11 19 12
REMARK SMILES IDX 16 13 11 14 10 15 12 17 9 18 6 19 7 20 96 21 8 22 95 23 4 24
REMARK SMILES IDX 5 25 3 26 2 27 1 28 25 29 26 30 27 31 28 32 29 33 30 34
REMARK SMILES IDX 31 36 32 37 33 38 94 39 34 40 93 41 35 42 36 43 37 44 87 45
REMARK SMILES IDX 38 46 92 47 86 48 88 49 39 50 91 51 85 52 84 53 40 55 72 56
REMARK SMILES IDX 52 57 71 58 53 59 56 60 70 61 89 62 54 63 55 64 69 66 90 67
REMARK SMILES IDX 57 68 41 69 42 70 50 71 43 72 45 73 51 74 44 75 46 76 47 77
REMARK SMILES IDX 48 78 49 79 73 80 74 81 82 82 75 83 77 84 83 85 76 86 78 87
REMARK SMILES IDX 79 88 80 89 81 90 58 91 59 92 67 93 60 94 62 95 68 96 61 97
REMARK SMILES IDX 63 98 64 99 65 100 66 101
REMARK H PARENT 22 6 10 16 29 35 88 54 56 65
REMARK Flexibility Score: inf
ROOT
ATOM      1  C   UNL A   1      32.377  21.315  24.066  1.00  0.00     0.021 C 
ENDROOT
BRANCH   1   2
ATOM      2  C   UNL A   1      32.765  22.734  23.661  1.00  0.00     0.116 C 
BRANCH   2   3
ATOM      3  N   UNL A   1      31.948  23.730  24.316  1.00  0.00    -0.356 N 
ATOM      4  C   UNL A   1      32.176  25.019  24.678  1.00  0.00     0.227 C 
ATOM      5  O   UNL A   1      31.159  25.649  24.998  1.00  0.00    -0.274 OA
ATOM      6  H   UNL A   1      31.046  23.411  24.546  1.00  0.00     0.163 HD
BRANCH   4   7
ATOM      7  C   UNL A   1      33.574  25.712  24.622  1.00  0.00     0.062 C 
ATOM      8  C   UNL A   1      33.743  26.812  23.481  1.00  0.00     0.098 C 
ATOM      9  C   UNL A   1      33.592  28.262  23.973  1.00  0.00     0.041 C 
ATOM     10  C   UNL A   1      33.903  28.555  25.403  1.00  0.00    -0.030 C 
ATOM     11  C   UNL A   1      33.942  26.157  26.069  1.00  0.00     0.044 C 
ATOM     12  C   UNL A   1      34.597  24.569  24.292  1.00  0.00     0.023 C 
ATOM     13  C   UNL A   1      34.063  27.617  26.336  1.00  0.00    -0.030 C 
BRANCH   8  14
ATOM     14  C   UNL A   1      32.928  26.411  22.220  1.00  0.00     0.228 C 
ATOM     15  N   UNL A   1      31.679  26.815  21.878  1.00  0.00    -0.326 N 
ATOM     16  H   UNL A   1      31.298  26.255  21.165  1.00  0.00     0.169 HD
ATOM     17  O   UNL A   1      33.422  25.634  21.390  1.00  0.00    -0.274 OA
BRANCH  15  18
ATOM     18  C   UNL A   1      30.796  27.818  22.276  1.00  0.00     0.041 A 
ATOM     19  C   UNL A   1      29.061  29.949  22.845  1.00  0.00     0.060 A 
ATOM     20  C   UNL A   1      28.745  28.646  23.248  1.00  0.00     0.018 A 
ATOM     21  C   UNL A   1      30.296  30.200  22.242  1.00  0.00     0.018 A 
ATOM     22  C   UNL A   1      29.625  27.591  22.987  1.00  0.00     0.027 A 
ATOM     23  C   UNL A   1      31.164  29.137  21.974  1.00  0.00     0.027 A 
BRANCH  19  24
ATOM     24  C   UNL A   1      28.073  31.026  23.086  1.00  0.00     0.338 C 
ATOM     25  O   UNL A   1      26.955  30.816  23.539  1.00  0.00    -0.246 OA
BRANCH  24  26
ATOM     26  O   UNL A   1      28.572  32.213  22.669  1.00  0.00    -0.462 OA
BRANCH  26  27
ATOM     27  C   UNL A   1      27.814  32.889  21.650  1.00  0.00     0.230 C 
ATOM     28  C   UNL A   1      28.010  32.217  20.304  1.00  0.00     0.049 C 
ENDBRANCH  26  27
ENDBRANCH  24  26
ENDBRANCH  19  24
ENDBRANCH  15  18
ENDBRANCH   8  14
ENDBRANCH   4   7
ENDBRANCH   2   3
ENDBRANCH   1   2
BRANCH   1  29
ATOM     29  C   UNL A   1      33.423  20.597  24.922  1.00  0.00     0.002 C 
BRANCH  29  30
ATOM     30  C   UNL A   1      34.862  21.090  24.740  1.00  0.00     0.002 C 
BRANCH  30  31
ATOM     31  C   UNL A   1      35.522  21.667  25.996  1.00  0.00     0.021 C 
BRANCH  31  32
ATOM     32  C   UNL A   1      36.949  22.174  25.798  1.00  0.00     0.116 C 
BRANCH  32  33
ATOM     33  N   UNL A   1      37.934  21.135  26.055  1.00  0.00    -0.352 N 
ATOM     34  C   UNL A   1      39.273  21.249  26.337  1.00  0.00     0.251 C 
ATOM     35  H   UNL A   1      37.590  20.213  26.022  1.00  0.00     0.163 HD
ATOM     36  O   UNL A   1      39.988  20.252  26.316  1.00  0.00    -0.269 OA
BRANCH  34  37
ATOM     37  C   UNL A   1      39.855  22.570  26.658  1.00  0.00     0.039 A 
ATOM     38  C   UNL A   1      39.455  23.685  25.916  1.00  0.00     0.014 A 
ATOM     39  C   UNL A   1      40.812  22.705  27.668  1.00  0.00     0.014 A 
ATOM     40  C   UNL A   1      39.980  24.944  26.219  1.00  0.00     0.010 A 
ATOM     41  C   UNL A   1      41.285  23.969  28.010  1.00  0.00     0.010 A 
ATOM     42  C   UNL A   1      40.881  25.100  27.284  1.00  0.00    -0.014 A 
BRANCH  42  43
ATOM     43  C   UNL A   1      41.406  26.436  27.661  1.00  0.00     0.031 A 
ATOM     44  C   UNL A   1      42.820  26.820  27.322  1.00  0.00     0.074 A 
ATOM     45  C   UNL A   1      40.638  27.269  28.388  1.00  0.00     0.049 A 
ATOM     46  N   UNL A   1      43.468  27.917  27.612  1.00  0.00    -0.248 NA
ATOM     47  C   UNL A   1      43.621  25.828  26.586  1.00  0.00     0.031 C 
ATOM     48  C   UNL A   1      39.279  26.980  28.846  1.00  0.00     0.029 A 
ATOM     49  N   UNL A   1      40.901  28.519  28.892  1.00  0.00    -0.354 N 
ATOM     50  C   UNL A   1      44.759  27.736  27.129  1.00  0.00     0.074 A 
ATOM     51  C   UNL A   1      44.812  26.408  26.557  1.00  0.00     0.031 C 
ATOM     52  C   UNL A   1      38.823  28.024  29.557  1.00  0.00     0.029 A 
ATOM     53  C   UNL A   1      39.865  29.045  29.627  1.00  0.00     0.049 A 
ATOM     54  H   UNL A   1      41.750  28.993  28.741  1.00  0.00     0.167 HD
ATOM     55  C   UNL A   1      45.798  28.606  27.133  1.00  0.00     0.034 A 
ATOM     56  C   UNL A   1      39.764  30.219  30.280  1.00  0.00     0.034 A 
ATOM     57  C   UNL A   1      45.726  29.943  27.657  1.00  0.00     0.049 A 
ATOM     58  C   UNL A   1      40.913  31.188  30.229  1.00  0.00     0.074 A 
ATOM     59  C   UNL A   1      46.689  30.936  27.617  1.00  0.00     0.029 A 
ATOM     60  N   UNL A   1      44.630  30.475  28.320  1.00  0.00    -0.354 N 
ATOM     61  N   UNL A   1      42.069  31.064  29.623  1.00  0.00    -0.248 NA
ATOM     62  C   UNL A   1      40.732  32.472  30.921  1.00  0.00     0.031 C 
ATOM     63  C   UNL A   1      46.179  32.065  28.271  1.00  0.00     0.029 A 
ATOM     64  C   UNL A   1      44.894  31.778  28.704  1.00  0.00     0.049 A 
ATOM     65  H   UNL A   1      43.787  29.997  28.492  1.00  0.00     0.167 HD
ATOM     66  C   UNL A   1      42.740  32.263  29.831  1.00  0.00     0.074 A 
ATOM     67  C   UNL A   1      41.851  33.109  30.603  1.00  0.00     0.031 C 
ATOM     68  C   UNL A   1      43.983  32.627  29.429  1.00  0.00     0.034 A 
BRANCH  55  69
ATOM     69  C   UNL A   1      47.085  28.151  26.499  1.00  0.00     0.023 A 
ATOM     70  C   UNL A   1      48.154  27.735  27.320  1.00  0.00     0.012 A 
ATOM     71  C   UNL A   1      47.232  28.100  25.099  1.00  0.00     0.148 A 
ATOM     72  C   UNL A   1      49.361  27.318  26.762  1.00  0.00     0.002 A 
ATOM     73  C   UNL A   1      48.425  27.644  24.549  1.00  0.00     0.091 A 
ATOM     74  F   UNL A   1      46.219  28.525  24.331  1.00  0.00    -0.205 F 
ATOM     75  C   UNL A   1      49.494  27.263  25.377  1.00  0.00     0.022 A 
BRANCH  73  76
ATOM     76  S   UNL A   1      48.657  27.473  22.776  1.00  0.00     0.127 S 
ATOM     77  O   UNL A   1      47.546  28.268  22.256  1.00  0.00    -0.237 OA
ATOM     78  O   UNL A   1      49.979  28.069  22.573  1.00  0.00    -0.237 OA
ATOM     79  O   UNL A   1      48.593  26.043  22.506  1.00  0.00    -0.744 OA
ENDBRANCH  73  76
ENDBRANCH  55  69
BRANCH  56  80
ATOM     80  C   UNL A   1      38.486  30.574  30.960  1.00  0.00     0.023 A 
ATOM     81  C   UNL A   1      38.306  30.210  32.309  1.00  0.00     0.012 A 
ATOM     82  C   UNL A   1      37.482  31.314  30.307  1.00  0.00     0.148 A 
ATOM     83  C   UNL A   1      37.140  30.560  32.990  1.00  0.00     0.002 A 
ATOM     84  C   UNL A   1      36.345  31.702  31.005  1.00  0.00     0.091 A 
ATOM     85  F   UNL A   1      37.671  31.641  29.021  1.00  0.00    -0.205 F 
ATOM     86  C   UNL A   1      36.165  31.314  32.342  1.00  0.00     0.022 A 
BRANCH  84  87
ATOM     87  S   UNL A   1      35.099  32.784  30.296  1.00  0.00     0.127 S 
ATOM     88  O   UNL A   1      35.902  33.933  29.883  1.00  0.00    -0.237 OA
ATOM     89  O   UNL A   1      34.579  31.968  29.199  1.00  0.00    -0.237 OA
ATOM     90  O   UNL A   1      34.140  33.036  31.364  1.00  0.00    -0.744 OA
ENDBRANCH  84  87
ENDBRANCH  56  80
BRANCH  68  91
ATOM     91  C   UNL A   1      44.458  34.008  29.798  1.00  0.00     0.023 A 
ATOM     92  C   UNL A   1      45.230  34.193  30.962  1.00  0.00     0.012 A 
ATOM     93  C   UNL A   1      44.206  35.107  28.953  1.00  0.00     0.148 A 
ATOM     94  C   UNL A   1      45.719  35.455  31.295  1.00  0.00     0.002 A 
ATOM     95  C   UNL A   1      44.736  36.353  29.267  1.00  0.00     0.091 A 
ATOM     96  F   UNL A   1      43.452  34.916  27.861  1.00  0.00    -0.205 F 
ATOM     97  C   UNL A   1      45.484  36.531  30.442  1.00  0.00     0.022 A 
BRANCH  95  98
ATOM     98  S   UNL A   1      44.561  37.772  28.179  1.00  0.00     0.127 S 
ATOM     99  O   UNL A   1      43.117  37.996  28.210  1.00  0.00    -0.237 OA
ATOM    100  O   UNL A   1      45.352  38.794  28.867  1.00  0.00    -0.237 OA
ATOM    101  O   UNL A   1      45.106  37.356  26.893  1.00  0.00    -0.744 OA
ENDBRANCH  95  98
ENDBRANCH  68  91
ENDBRANCH  42  43
ENDBRANCH  34  37
ENDBRANCH  32  33
ENDBRANCH  31  32
ENDBRANCH  30  31
ENDBRANCH  29  30
ENDBRANCH   1  29
TORSDOF 21
ENDMDL
