MODEL 1
REMARK VINA RESULT:     -11.6      0.000      0.000
REMARK SMILES O=C(Cc1cn2ccsc2n1)N[C@@H]1C=C[C@H](C(=O)NCCCCCCNC(=O)c2ccc(-c3c4nc(c(-c5cccc(S(=O)(=O)[O-])c5F)c5ccc([nH]5)c(-c5cccc(S(=O)(=O)[O-])c5F)c5nc(c(-c6cccc(S(=O)(=O)[O-])c6F)c6ccc3[nH]6)C=C5)C=C4)cc2)C1
REMARK SMILES IDX 22 1 21 2 20 3 19 4 17 5 18 6 16 8 13 9 14 10 92 11 15 12
REMARK SMILES IDX 12 13 1 14 2 15 3 17 4 18 5 19 11 20 6 21 10 22 7 23 9 24
REMARK SMILES IDX 8 25 23 26 24 27 25 28 26 29 27 30 28 32 29 33 30 34 91 35
REMARK SMILES IDX 31 36 90 37 32 38 33 39 34 40 84 41 35 42 89 43 83 44 85 45
REMARK SMILES IDX 36 46 88 47 82 48 81 49 37 51 69 52 49 53 68 54 50 55 53 56
REMARK SMILES IDX 67 57 86 58 51 59 52 60 66 62 87 63 54 64 38 65 39 66 47 67
REMARK SMILES IDX 40 68 42 69 48 70 41 71 43 72 44 73 45 74 46 75 70 76 71 77
REMARK SMILES IDX 79 78 72 79 74 80 80 81 73 82 75 83 76 84 77 85 78 86 55 87
REMARK SMILES IDX 56 88 64 89 57 90 59 91 65 92 58 93 60 94 61 95 62 96 63 97
REMARK H PARENT 19 7 12 16 26 31 85 50 53 61
REMARK Flexibility Score: inf
ROOT
ATOM      1  C   UNL A   1      35.415  23.003  23.702  1.00  0.00     0.002 C 
ENDROOT
BRANCH   1   2
ATOM      2  C   UNL A   1      35.144  24.196  24.619  1.00  0.00     0.021 C 
BRANCH   2   3
ATOM      3  C   UNL A   1      33.893  24.997  24.286  1.00  0.00     0.116 C 
BRANCH   3   4
ATOM      4  N   UNL A   1      33.769  25.197  22.863  1.00  0.00    -0.356 N 
ATOM      5  C   UNL A   1      33.209  26.158  22.096  1.00  0.00     0.227 C 
ATOM      6  O   UNL A   1      33.278  25.947  20.874  1.00  0.00    -0.274 OA
ATOM      7  H   UNL A   1      34.183  24.477  22.335  1.00  0.00     0.163 HD
BRANCH   5   8
ATOM      8  C   UNL A   1      32.498  27.430  22.583  1.00  0.00     0.103 C 
ATOM      9  C   UNL A   1      30.739  27.463  24.315  1.00  0.00     0.106 C 
ATOM     10  C   UNL A   1      30.164  27.479  22.936  1.00  0.00    -0.006 C 
ATOM     11  C   UNL A   1      32.219  27.794  24.043  1.00  0.00     0.047 C 
ATOM     12  C   UNL A   1      31.113  27.460  21.994  1.00  0.00    -0.016 C 
BRANCH   9  13
ATOM     13  N   UNL A   1      30.479  26.143  24.849  1.00  0.00    -0.350 N 
ATOM     14  O   UNL A   1      31.057  26.698  26.987  1.00  0.00    -0.275 OA
ATOM     15  C   UNL A   1      30.583  25.880  26.200  1.00  0.00     0.226 C 
ATOM     16  H   UNL A   1      30.222  25.418  24.235  1.00  0.00     0.164 HD
BRANCH  15  17
ATOM     17  C   UNL A   1      30.213  24.476  26.656  1.00  0.00     0.157 C 
BRANCH  17  18
ATOM     18  C   UNL A   1      31.182  23.405  26.272  1.00  0.00     0.070 A 
ATOM     19  C   UNL A   1      32.241  22.889  27.017  1.00  0.00     0.118 A 
ATOM     20  N   UNL A   1      31.051  22.724  25.069  1.00  0.00    -0.223 NA
ATOM     21  N   UNL A   1      32.743  21.879  26.252  1.00  0.00    -0.297 N 
ATOM     22  C   UNL A   1      31.990  21.820  25.120  1.00  0.00     0.193 A 
ATOM     23  C   UNL A   1      33.759  20.957  26.343  1.00  0.00     0.104 A 
ATOM     24  S   UNL A   1      32.529  20.540  24.078  1.00  0.00    -0.105 S 
ATOM     25  C   UNL A   1      33.790  20.154  25.265  1.00  0.00     0.087 A 
ENDBRANCH  17  18
ENDBRANCH  15  17
ENDBRANCH   9  13
ENDBRANCH   5   8
ENDBRANCH   3   4
ENDBRANCH   2   3
ENDBRANCH   1   2
BRANCH   1  26
ATOM     26  C   UNL A   1      36.879  22.553  23.637  1.00  0.00     0.002 C 
BRANCH  26  27
ATOM     27  C   UNL A   1      37.188  21.215  24.316  1.00  0.00     0.021 C 
BRANCH  27  28
ATOM     28  C   UNL A   1      38.026  21.315  25.587  1.00  0.00     0.116 C 
BRANCH  28  29
ATOM     29  N   UNL A   1      38.899  20.165  25.758  1.00  0.00    -0.352 N 
ATOM     30  C   UNL A   1      40.242  20.138  26.037  1.00  0.00     0.251 C 
ATOM     31  H   UNL A   1      38.468  19.285  25.661  1.00  0.00     0.163 HD
ATOM     32  O   UNL A   1      40.870  19.085  25.954  1.00  0.00    -0.269 OA
BRANCH  30  33
ATOM     33  C   UNL A   1      40.927  21.388  26.424  1.00  0.00     0.039 A 
ATOM     34  C   UNL A   1      41.526  22.172  25.435  1.00  0.00     0.014 A 
ATOM     35  C   UNL A   1      40.952  21.793  27.760  1.00  0.00     0.014 A 
ATOM     36  C   UNL A   1      42.098  23.399  25.780  1.00  0.00     0.010 A 
ATOM     37  C   UNL A   1      41.459  23.046  28.090  1.00  0.00     0.010 A 
ATOM     38  C   UNL A   1      42.039  23.861  27.105  1.00  0.00    -0.014 A 
BRANCH  38  39
ATOM     39  C   UNL A   1      42.569  25.192  27.496  1.00  0.00     0.031 A 
ATOM     40  C   UNL A   1      41.659  26.191  28.161  1.00  0.00     0.074 A 
ATOM     41  C   UNL A   1      43.823  25.544  27.146  1.00  0.00     0.049 A 
ATOM     42  N   UNL A   1      41.884  27.445  28.449  1.00  0.00    -0.248 NA
ATOM     43  C   UNL A   1      40.307  25.726  28.520  1.00  0.00     0.031 C 
ATOM     44  C   UNL A   1      44.781  24.684  26.447  1.00  0.00     0.029 A 
ATOM     45  N   UNL A   1      44.493  26.735  27.291  1.00  0.00    -0.354 N 
ATOM     46  C   UNL A   1      40.692  27.934  28.968  1.00  0.00     0.074 A 
ATOM     47  C   UNL A   1      39.741  26.845  28.949  1.00  0.00     0.031 C 
ATOM     48  C   UNL A   1      45.907  25.379  26.212  1.00  0.00     0.029 A 
ATOM     49  C   UNL A   1      45.737  26.743  26.699  1.00  0.00     0.049 A 
ATOM     50  H   UNL A   1      44.119  27.509  27.769  1.00  0.00     0.167 HD
ATOM     51  C   UNL A   1      40.418  29.176  29.431  1.00  0.00     0.034 A 
ATOM     52  C   UNL A   1      46.627  27.744  26.542  1.00  0.00     0.034 A 
ATOM     53  C   UNL A   1      41.383  30.238  29.498  1.00  0.00     0.049 A 
ATOM     54  C   UNL A   1      46.300  29.107  27.094  1.00  0.00     0.074 A 
ATOM     55  C   UNL A   1      41.234  31.495  30.058  1.00  0.00     0.029 A 
ATOM     56  N   UNL A   1      42.664  30.180  28.975  1.00  0.00    -0.354 N 
ATOM     57  N   UNL A   1      45.227  29.502  27.735  1.00  0.00    -0.248 NA
ATOM     58  C   UNL A   1      47.316  30.158  26.926  1.00  0.00     0.031 C 
ATOM     59  C   UNL A   1      42.412  32.213  29.833  1.00  0.00     0.029 A 
ATOM     60  C   UNL A   1      43.309  31.386  29.178  1.00  0.00     0.049 A 
ATOM     61  H   UNL A   1      43.056  29.396  28.527  1.00  0.00     0.167 HD
ATOM     62  C   UNL A   1      45.460  30.826  28.090  1.00  0.00     0.074 A 
ATOM     63  C   UNL A   1      46.780  31.165  27.603  1.00  0.00     0.031 C 
ATOM     64  C   UNL A   1      44.651  31.686  28.753  1.00  0.00     0.034 A 
BRANCH  51  65
ATOM     65  C   UNL A   1      39.029  29.463  29.932  1.00  0.00     0.023 A 
ATOM     66  C   UNL A   1      38.684  29.162  31.264  1.00  0.00     0.012 A 
ATOM     67  C   UNL A   1      38.101  30.134  29.110  1.00  0.00     0.148 A 
ATOM     68  C   UNL A   1      37.428  29.504  31.765  1.00  0.00     0.002 A 
ATOM     69  C   UNL A   1      36.871  30.514  29.630  1.00  0.00     0.091 A 
ATOM     70  F   UNL A   1      38.444  30.393  27.841  1.00  0.00    -0.205 F 
ATOM     71  C   UNL A   1      36.528  30.191  30.954  1.00  0.00     0.022 A 
BRANCH  69  72
ATOM     72  S   UNL A   1      35.678  31.478  28.696  1.00  0.00     0.127 S 
ATOM     73  O   UNL A   1      35.104  30.462  27.814  1.00  0.00    -0.237 OA
ATOM     74  O   UNL A   1      34.778  31.952  29.748  1.00  0.00    -0.237 OA
ATOM     75  O   UNL A   1      36.439  32.523  28.026  1.00  0.00    -0.744 OA
ENDBRANCH  69  72
ENDBRANCH  51  65
BRANCH  52  76
ATOM     76  C   UNL A   1      47.929  27.500  25.857  1.00  0.00     0.023 A 
ATOM     77  C   UNL A   1      49.073  27.202  26.625  1.00  0.00     0.012 A 
ATOM     78  C   UNL A   1      48.049  27.577  24.456  1.00  0.00     0.148 A 
ATOM     79  C   UNL A   1      50.317  27.038  26.018  1.00  0.00     0.002 A 
ATOM     80  C   UNL A   1      49.280  27.353  23.851  1.00  0.00     0.091 A 
ATOM     81  F   UNL A   1      46.955  27.873  23.739  1.00  0.00    -0.205 F 
ATOM     82  C   UNL A   1      50.420  27.106  24.631  1.00  0.00     0.022 A 
BRANCH  80  83
ATOM     83  S   UNL A   1      49.476  27.288  22.067  1.00  0.00     0.127 S 
ATOM     84  O   UNL A   1      48.657  26.131  21.718  1.00  0.00    -0.237 OA
ATOM     85  O   UNL A   1      48.927  28.580  21.654  1.00  0.00    -0.237 OA
ATOM     86  O   UNL A   1      50.908  27.148  21.837  1.00  0.00    -0.744 OA
ENDBRANCH  80  83
ENDBRANCH  52  76
BRANCH  64  87
ATOM     87  C   UNL A   1      45.177  33.060  29.068  1.00  0.00     0.023 A 
ATOM     88  C   UNL A   1      45.905  33.288  30.250  1.00  0.00     0.012 A 
ATOM     89  C   UNL A   1      45.045  34.099  28.123  1.00  0.00     0.148 A 
ATOM     90  C   UNL A   1      46.478  34.536  30.499  1.00  0.00     0.002 A 
ATOM     91  C   UNL A   1      45.664  35.320  28.351  1.00  0.00     0.091 A 
ATOM     92  F   UNL A   1      44.335  33.862  27.010  1.00  0.00    -0.205 F 
ATOM     93  C   UNL A   1      46.370  35.545  29.544  1.00  0.00     0.022 A 
BRANCH  91  94
ATOM     94  S   UNL A   1      45.671  36.641  27.133  1.00  0.00     0.127 S 
ATOM     95  O   UNL A   1      46.288  35.982  25.983  1.00  0.00    -0.237 OA
ATOM     96  O   UNL A   1      44.244  36.926  26.980  1.00  0.00    -0.237 OA
ATOM     97  O   UNL A   1      46.448  37.726  27.716  1.00  0.00    -0.744 OA
ENDBRANCH  91  94
ENDBRANCH  64  87
ENDBRANCH  38  39
ENDBRANCH  30  33
ENDBRANCH  28  29
ENDBRANCH  27  28
ENDBRANCH  26  27
ENDBRANCH   1  26
TORSDOF 19
ENDMDL
MODEL 2
REMARK VINA RESULT:     -11.4      6.122     11.141
REMARK SMILES O=C(Cc1cn2ccsc2n1)N[C@@H]1C=C[C@H](C(=O)NCCCCCCNC(=O)c2ccc(-c3c4nc(c(-c5cccc(S(=O)(=O)[O-])c5F)c5ccc([nH]5)c(-c5cccc(S(=O)(=O)[O-])c5F)c5nc(c(-c6cccc(S(=O)(=O)[O-])c6F)c6ccc3[nH]6)C=C5)C=C4)cc2)C1
REMARK SMILES IDX 22 1 21 2 20 3 19 4 17 5 18 6 16 8 13 9 14 10 92 11 15 12
REMARK SMILES IDX 12 13 1 14 2 15 3 17 4 18 5 19 11 20 6 21 10 22 7 23 9 24
REMARK SMILES IDX 8 25 23 26 24 27 25 28 26 29 27 30 28 32 29 33 30 34 91 35
REMARK SMILES IDX 31 36 90 37 32 38 33 39 34 40 84 41 35 42 89 43 83 44 85 45
REMARK SMILES IDX 36 46 88 47 82 48 81 49 37 51 69 52 49 53 68 54 50 55 53 56
REMARK SMILES IDX 67 57 86 58 51 59 52 60 66 62 87 63 54 64 38 65 39 66 47 67
REMARK SMILES IDX 40 68 42 69 48 70 41 71 43 72 44 73 45 74 46 75 70 76 71 77
REMARK SMILES IDX 79 78 72 79 74 80 80 81 73 82 75 83 76 84 77 85 78 86 55 87
REMARK SMILES IDX 56 88 64 89 57 90 59 91 65 92 58 93 60 94 61 95 62 96 63 97
REMARK H PARENT 19 7 12 16 26 31 85 50 53 61
REMARK Flexibility Score: inf
ROOT
ATOM      1  C   UNL A   1      31.853  28.856  26.461  1.00  0.00     0.002 C 
ENDROOT
BRANCH   1   2
ATOM      2  C   UNL A   1      33.094  27.964  26.442  1.00  0.00     0.021 C 
BRANCH   2   3
ATOM      3  C   UNL A   1      32.845  26.517  26.035  1.00  0.00     0.116 C 
BRANCH   3   4
ATOM      4  N   UNL A   1      31.459  26.159  26.216  1.00  0.00    -0.356 N 
ATOM      5  C   UNL A   1      30.823  25.022  26.572  1.00  0.00     0.227 C 
ATOM      6  O   UNL A   1      29.584  25.105  26.580  1.00  0.00    -0.274 OA
ATOM      7  H   UNL A   1      30.842  26.906  26.042  1.00  0.00     0.163 HD
BRANCH   5   8
ATOM      8  C   UNL A   1      31.471  23.676  26.934  1.00  0.00     0.103 C 
ATOM      9  C   UNL A   1      32.944  22.394  25.423  1.00  0.00     0.106 C 
ATOM     10  C   UNL A   1      31.539  21.889  25.393  1.00  0.00    -0.006 C 
ATOM     11  C   UNL A   1      32.929  23.289  26.677  1.00  0.00     0.047 C 
ATOM     12  C   UNL A   1      30.736  22.581  26.207  1.00  0.00    -0.016 C 
BRANCH   9  13
ATOM     13  N   UNL A   1      33.160  23.077  24.166  1.00  0.00    -0.350 N 
ATOM     14  O   UNL A   1      32.629  21.263  22.884  1.00  0.00    -0.275 OA
ATOM     15  C   UNL A   1      32.897  22.462  22.958  1.00  0.00     0.226 C 
ATOM     16  H   UNL A   1      33.501  23.999  24.173  1.00  0.00     0.164 HD
BRANCH  15  17
ATOM     17  C   UNL A   1      33.090  23.303  21.704  1.00  0.00     0.157 C 
BRANCH  17  18
ATOM     18  C   UNL A   1      32.871  24.770  21.881  1.00  0.00     0.070 A 
ATOM     19  C   UNL A   1      31.670  25.449  22.079  1.00  0.00     0.118 A 
ATOM     20  N   UNL A   1      33.946  25.648  21.943  1.00  0.00    -0.223 NA
ATOM     21  N   UNL A   1      32.034  26.748  22.273  1.00  0.00    -0.297 N 
ATOM     22  C   UNL A   1      33.391  26.801  22.195  1.00  0.00     0.193 A 
ATOM     23  C   UNL A   1      31.401  27.943  22.519  1.00  0.00     0.104 A 
ATOM     24  S   UNL A   1      33.968  28.417  22.457  1.00  0.00    -0.105 S 
ATOM     25  C   UNL A   1      32.286  28.948  22.649  1.00  0.00     0.087 A 
ENDBRANCH  17  18
ENDBRANCH  15  17
ENDBRANCH   9  13
ENDBRANCH   5   8
ENDBRANCH   3   4
ENDBRANCH   2   3
ENDBRANCH   1   2
BRANCH   1  26
ATOM     26  C   UNL A   1      32.056  30.264  25.891  1.00  0.00     0.002 C 
BRANCH  26  27
ATOM     27  C   UNL A   1      31.778  31.415  26.862  1.00  0.00     0.021 C 
BRANCH  27  28
ATOM     28  C   UNL A   1      33.001  32.234  27.260  1.00  0.00     0.116 C 
BRANCH  28  29
ATOM     29  N   UNL A   1      32.665  33.622  27.534  1.00  0.00    -0.352 N 
ATOM     30  C   UNL A   1      33.169  34.454  28.502  1.00  0.00     0.251 C 
ATOM     31  H   UNL A   1      31.984  34.019  26.946  1.00  0.00     0.163 HD
ATOM     32  O   UNL A   1      32.635  35.539  28.724  1.00  0.00    -0.269 OA
BRANCH  30  33
ATOM     33  C   UNL A   1      34.349  34.028  29.282  1.00  0.00     0.039 A 
ATOM     34  C   UNL A   1      34.166  33.239  30.420  1.00  0.00     0.014 A 
ATOM     35  C   UNL A   1      35.633  34.390  28.870  1.00  0.00     0.014 A 
ATOM     36  C   UNL A   1      35.280  32.759  31.112  1.00  0.00     0.010 A 
ATOM     37  C   UNL A   1      36.740  33.852  29.518  1.00  0.00     0.010 A 
ATOM     38  C   UNL A   1      36.577  33.033  30.647  1.00  0.00    -0.014 A 
BRANCH  38  39
ATOM     39  C   UNL A   1      37.783  32.479  31.311  1.00  0.00     0.031 A 
ATOM     40  C   UNL A   1      38.530  31.340  30.671  1.00  0.00     0.074 A 
ATOM     41  C   UNL A   1      38.131  32.913  32.541  1.00  0.00     0.049 A 
ATOM     42  N   UNL A   1      39.513  30.625  31.151  1.00  0.00    -0.248 NA
ATOM     43  C   UNL A   1      38.094  30.929  29.324  1.00  0.00     0.031 C 
ATOM     44  C   UNL A   1      37.450  33.971  33.290  1.00  0.00     0.029 A 
ATOM     45  N   UNL A   1      39.120  32.487  33.395  1.00  0.00    -0.354 N 
ATOM     46  C   UNL A   1      39.775  29.650  30.197  1.00  0.00     0.074 A 
ATOM     47  C   UNL A   1      38.843  29.856  29.111  1.00  0.00     0.031 C 
ATOM     48  C   UNL A   1      38.031  34.101  34.495  1.00  0.00     0.029 A 
ATOM     49  C   UNL A   1      39.092  33.109  34.623  1.00  0.00     0.049 A 
ATOM     50  H   UNL A   1      39.783  31.802  33.152  1.00  0.00     0.167 HD
ATOM     51  C   UNL A   1      40.715  28.677  30.219  1.00  0.00     0.034 A 
ATOM     52  C   UNL A   1      39.819  32.884  35.736  1.00  0.00     0.034 A 
ATOM     53  C   UNL A   1      41.674  28.511  31.276  1.00  0.00     0.049 A 
ATOM     54  C   UNL A   1      40.877  31.811  35.716  1.00  0.00     0.074 A 
ATOM     55  C   UNL A   1      42.739  27.630  31.334  1.00  0.00     0.029 A 
ATOM     56  N   UNL A   1      41.674  29.222  32.464  1.00  0.00    -0.354 N 
ATOM     57  N   UNL A   1      41.221  31.011  34.736  1.00  0.00    -0.248 NA
ATOM     58  C   UNL A   1      41.667  31.627  36.943  1.00  0.00     0.031 C 
ATOM     59  C   UNL A   1      43.358  27.778  32.578  1.00  0.00     0.029 A 
ATOM     60  C   UNL A   1      42.707  28.784  33.273  1.00  0.00     0.049 A 
ATOM     61  H   UNL A   1      41.035  29.933  32.697  1.00  0.00     0.167 HD
ATOM     62  C   UNL A   1      42.296  30.268  35.211  1.00  0.00     0.074 A 
ATOM     63  C   UNL A   1      42.554  30.718  36.561  1.00  0.00     0.031 C 
ATOM     64  C   UNL A   1      43.000  29.293  34.587  1.00  0.00     0.034 A 
BRANCH  51  65
ATOM     65  C   UNL A   1      40.786  27.724  29.057  1.00  0.00     0.023 A 
ATOM     66  C   UNL A   1      39.846  26.682  28.942  1.00  0.00     0.012 A 
ATOM     67  C   UNL A   1      41.721  27.932  28.023  1.00  0.00     0.148 A 
ATOM     68  C   UNL A   1      39.847  25.846  27.826  1.00  0.00     0.002 A 
ATOM     69  C   UNL A   1      41.686  27.126  26.892  1.00  0.00     0.091 A 
ATOM     70  F   UNL A   1      42.619  28.917  28.163  1.00  0.00    -0.205 F 
ATOM     71  C   UNL A   1      40.758  26.077  26.796  1.00  0.00     0.022 A 
BRANCH  69  72
ATOM     72  S   UNL A   1      42.755  27.396  25.475  1.00  0.00     0.127 S 
ATOM     73  O   UNL A   1      44.044  27.642  26.121  1.00  0.00    -0.237 OA
ATOM     74  O   UNL A   1      42.659  26.117  24.772  1.00  0.00    -0.237 OA
ATOM     75  O   UNL A   1      42.195  28.532  24.756  1.00  0.00    -0.744 OA
ENDBRANCH  69  72
ENDBRANCH  51  65
BRANCH  52  76
ATOM     76  C   UNL A   1      39.601  33.705  36.962  1.00  0.00     0.023 A 
ATOM     77  C   UNL A   1      40.115  35.017  37.020  1.00  0.00     0.012 A 
ATOM     78  C   UNL A   1      38.908  33.195  38.077  1.00  0.00     0.148 A 
ATOM     79  C   UNL A   1      39.988  35.783  38.178  1.00  0.00     0.002 A 
ATOM     80  C   UNL A   1      38.732  33.985  39.206  1.00  0.00     0.091 A 
ATOM     81  F   UNL A   1      38.435  31.942  38.011  1.00  0.00    -0.205 F 
ATOM     82  C   UNL A   1      39.290  35.270  39.269  1.00  0.00     0.022 A 
BRANCH  80  83
ATOM     83  S   UNL A   1      37.732  33.455  40.601  1.00  0.00     0.127 S 
ATOM     84  O   UNL A   1      38.439  32.254  41.037  1.00  0.00    -0.237 OA
ATOM     85  O   UNL A   1      37.844  34.600  41.507  1.00  0.00    -0.237 OA
ATOM     86  O   UNL A   1      36.394  33.248  40.066  1.00  0.00    -0.744 OA
ENDBRANCH  80  83
ENDBRANCH  52  76
BRANCH  64  87
ATOM     87  C   UNL A   1      44.170  28.685  35.311  1.00  0.00     0.023 A 
ATOM     88  C   UNL A   1      45.459  29.230  35.162  1.00  0.00     0.012 A 
ATOM     89  C   UNL A   1      43.961  27.640  36.235  1.00  0.00     0.148 A 
ATOM     90  C   UNL A   1      46.528  28.731  35.906  1.00  0.00     0.002 A 
ATOM     91  C   UNL A   1      45.018  27.185  37.012  1.00  0.00     0.091 A 
ATOM     92  F   UNL A   1      42.727  27.126  36.348  1.00  0.00    -0.205 F 
ATOM     93  C   UNL A   1      46.304  27.721  36.840  1.00  0.00     0.022 A 
BRANCH  91  94
ATOM     94  S   UNL A   1      44.804  25.966  38.313  1.00  0.00     0.127 S 
ATOM     95  O   UNL A   1      46.165  25.847  38.835  1.00  0.00    -0.237 OA
ATOM     96  O   UNL A   1      43.862  26.634  39.210  1.00  0.00    -0.237 OA
ATOM     97  O   UNL A   1      44.283  24.769  37.666  1.00  0.00    -0.744 OA
ENDBRANCH  91  94
ENDBRANCH  64  87
ENDBRANCH  38  39
ENDBRANCH  30  33
ENDBRANCH  28  29
ENDBRANCH  27  28
ENDBRANCH  26  27
ENDBRANCH   1  26
TORSDOF 19
ENDMDL
MODEL 3
REMARK VINA RESULT:     -11.3      1.490      3.194
REMARK SMILES O=C(Cc1cn2ccsc2n1)N[C@@H]1C=C[C@H](C(=O)NCCCCCCNC(=O)c2ccc(-c3c4nc(c(-c5cccc(S(=O)(=O)[O-])c5F)c5ccc([nH]5)c(-c5cccc(S(=O)(=O)[O-])c5F)c5nc(c(-c6cccc(S(=O)(=O)[O-])c6F)c6ccc3[nH]6)C=C5)C=C4)cc2)C1
REMARK SMILES IDX 22 1 21 2 20 3 19 4 17 5 18 6 16 8 13 9 14 10 92 11 15 12
REMARK SMILES IDX 12 13 1 14 2 15 3 17 4 18 5 19 11 20 6 21 10 22 7 23 9 24
REMARK SMILES IDX 8 25 23 26 24 27 25 28 26 29 27 30 28 32 29 33 30 34 91 35
REMARK SMILES IDX 31 36 90 37 32 38 33 39 34 40 84 41 35 42 89 43 83 44 85 45
REMARK SMILES IDX 36 46 88 47 82 48 81 49 37 51 69 52 49 53 68 54 50 55 53 56
REMARK SMILES IDX 67 57 86 58 51 59 52 60 66 62 87 63 54 64 38 65 39 66 47 67
REMARK SMILES IDX 40 68 42 69 48 70 41 71 43 72 44 73 45 74 46 75 70 76 71 77
REMARK SMILES IDX 79 78 72 79 74 80 80 81 73 82 75 83 76 84 77 85 78 86 55 87
REMARK SMILES IDX 56 88 64 89 57 90 59 91 65 92 58 93 60 94 61 95 62 96 63 97
REMARK H PARENT 19 7 12 16 26 31 85 50 53 61
REMARK Flexibility Score: inf
ROOT
ATOM      1  C   UNL A   1      36.719  22.028  25.651  1.00  0.00     0.002 C 
ENDROOT
BRANCH   1   2
ATOM      2  C   UNL A   1      35.517  21.472  26.413  1.00  0.00     0.021 C 
BRANCH   2   3
ATOM      3  C   UNL A   1      34.486  22.507  26.840  1.00  0.00     0.116 C 
BRANCH   3   4
ATOM      4  N   UNL A   1      33.151  22.085  26.490  1.00  0.00    -0.356 N 
ATOM      5  C   UNL A   1      32.574  21.648  25.350  1.00  0.00     0.227 C 
ATOM      6  O   UNL A   1      31.358  21.411  25.446  1.00  0.00    -0.274 OA
ATOM      7  H   UNL A   1      32.524  22.124  27.248  1.00  0.00     0.163 HD
BRANCH   5   8
ATOM      8  C   UNL A   1      33.257  21.446  23.988  1.00  0.00     0.103 C 
ATOM      9  C   UNL A   1      32.956  22.943  22.048  1.00  0.00     0.106 C 
ATOM     10  C   UNL A   1      32.077  21.739  21.964  1.00  0.00    -0.006 C 
ATOM     11  C   UNL A   1      33.941  22.537  23.162  1.00  0.00     0.047 C 
ATOM     12  C   UNL A   1      32.233  20.925  23.013  1.00  0.00    -0.016 C 
BRANCH   9  13
ATOM     13  N   UNL A   1      32.090  24.061  22.354  1.00  0.00    -0.350 N 
ATOM     14  O   UNL A   1      33.590  25.643  21.675  1.00  0.00    -0.275 OA
ATOM     15  C   UNL A   1      32.455  25.359  22.056  1.00  0.00     0.226 C 
ATOM     16  H   UNL A   1      31.221  23.892  22.783  1.00  0.00     0.164 HD
BRANCH  15  17
ATOM     17  C   UNL A   1      31.432  26.445  22.355  1.00  0.00     0.157 C 
BRANCH  17  18
ATOM     18  C   UNL A   1      31.725  27.284  23.556  1.00  0.00     0.070 A 
ATOM     19  C   UNL A   1      32.292  28.556  23.606  1.00  0.00     0.118 A 
ATOM     20  N   UNL A   1      31.356  26.862  24.826  1.00  0.00    -0.223 NA
ATOM     21  N   UNL A   1      32.252  28.902  24.923  1.00  0.00    -0.297 N 
ATOM     22  C   UNL A   1      31.675  27.868  25.593  1.00  0.00     0.193 A 
ATOM     23  C   UNL A   1      32.623  29.980  25.692  1.00  0.00     0.104 A 
ATOM     24  S   UNL A   1      31.548  28.216  27.289  1.00  0.00    -0.105 S 
ATOM     25  C   UNL A   1      32.318  29.786  26.988  1.00  0.00     0.087 A 
ENDBRANCH  17  18
ENDBRANCH  15  17
ENDBRANCH   9  13
ENDBRANCH   5   8
ENDBRANCH   3   4
ENDBRANCH   2   3
ENDBRANCH   1   2
BRANCH   1  26
ATOM     26  C   UNL A   1      37.217  21.155  24.494  1.00  0.00     0.002 C 
BRANCH  26  27
ATOM     27  C   UNL A   1      37.997  19.901  24.902  1.00  0.00     0.021 C 
BRANCH  27  28
ATOM     28  C   UNL A   1      38.958  20.091  26.072  1.00  0.00     0.116 C 
BRANCH  28  29
ATOM     29  N   UNL A   1      40.165  19.295  25.923  1.00  0.00    -0.352 N 
ATOM     30  C   UNL A   1      41.475  19.704  25.962  1.00  0.00     0.251 C 
ATOM     31  H   UNL A   1      40.025  18.333  25.773  1.00  0.00     0.163 HD
ATOM     32  O   UNL A   1      42.372  18.936  25.621  1.00  0.00    -0.269 OA
BRANCH  30  33
ATOM     33  C   UNL A   1      41.792  21.077  26.404  1.00  0.00     0.039 A 
ATOM     34  C   UNL A   1      42.108  21.306  27.746  1.00  0.00     0.014 A 
ATOM     35  C   UNL A   1      41.799  22.128  25.485  1.00  0.00     0.014 A 
ATOM     36  C   UNL A   1      42.495  22.585  28.154  1.00  0.00     0.010 A 
ATOM     37  C   UNL A   1      42.253  23.383  25.879  1.00  0.00     0.010 A 
ATOM     38  C   UNL A   1      42.603  23.626  27.217  1.00  0.00    -0.014 A 
BRANCH  38  39
ATOM     39  C   UNL A   1      43.082  24.978  27.598  1.00  0.00     0.031 A 
ATOM     40  C   UNL A   1      42.133  25.952  28.244  1.00  0.00     0.074 A 
ATOM     41  C   UNL A   1      44.327  25.370  27.254  1.00  0.00     0.049 A 
ATOM     42  N   UNL A   1      42.311  27.216  28.520  1.00  0.00    -0.248 NA
ATOM     43  C   UNL A   1      40.795  25.445  28.596  1.00  0.00     0.031 C 
ATOM     44  C   UNL A   1      45.320  24.537  26.573  1.00  0.00     0.029 A 
ATOM     45  N   UNL A   1      44.953  26.586  27.392  1.00  0.00    -0.354 N 
ATOM     46  C   UNL A   1      41.098  27.669  29.024  1.00  0.00     0.074 A 
ATOM     47  C   UNL A   1      40.186  26.548  29.008  1.00  0.00     0.031 C 
ATOM     48  C   UNL A   1      46.423  25.268  26.340  1.00  0.00     0.029 A 
ATOM     49  C   UNL A   1      46.202  26.630  26.811  1.00  0.00     0.049 A 
ATOM     50  H   UNL A   1      44.548  27.351  27.858  1.00  0.00     0.167 HD
ATOM     51  C   UNL A   1      40.777  28.906  29.469  1.00  0.00     0.034 A 
ATOM     52  C   UNL A   1      47.057  27.660  26.650  1.00  0.00     0.034 A 
ATOM     53  C   UNL A   1      41.704  30.002  29.533  1.00  0.00     0.049 A 
ATOM     54  C   UNL A   1      46.678  29.017  27.183  1.00  0.00     0.074 A 
ATOM     55  C   UNL A   1      41.507  31.259  30.077  1.00  0.00     0.029 A 
ATOM     56  N   UNL A   1      42.990  29.982  29.022  1.00  0.00    -0.354 N 
ATOM     57  N   UNL A   1      45.587  29.382  27.811  1.00  0.00    -0.248 NA
ATOM     58  C   UNL A   1      47.659  30.101  27.013  1.00  0.00     0.031 C 
ATOM     59  C   UNL A   1      42.660  32.015  29.855  1.00  0.00     0.029 A 
ATOM     60  C   UNL A   1      43.592  31.213  29.216  1.00  0.00     0.049 A 
ATOM     61  H   UNL A   1      43.413  29.208  28.585  1.00  0.00     0.167 HD
ATOM     62  C   UNL A   1      45.771  30.716  28.153  1.00  0.00     0.074 A 
ATOM     63  C   UNL A   1      47.082  31.096  27.674  1.00  0.00     0.031 C 
ATOM     64  C   UNL A   1      44.926  31.555  28.799  1.00  0.00     0.034 A 
BRANCH  51  65
ATOM     65  C   UNL A   1      39.374  29.150  29.956  1.00  0.00     0.023 A 
ATOM     66  C   UNL A   1      38.998  28.749  31.252  1.00  0.00     0.012 A 
ATOM     67  C   UNL A   1      38.464  29.877  29.163  1.00  0.00     0.148 A 
ATOM     68  C   UNL A   1      37.729  29.047  31.746  1.00  0.00     0.002 A 
ATOM     69  C   UNL A   1      37.219  30.213  29.679  1.00  0.00     0.091 A 
ATOM     70  F   UNL A   1      38.837  30.232  27.926  1.00  0.00    -0.205 F 
ATOM     71  C   UNL A   1      36.845  29.790  30.965  1.00  0.00     0.022 A 
BRANCH  69  72
ATOM     72  S   UNL A   1      36.045  31.240  28.790  1.00  0.00     0.127 S 
ATOM     73  O   UNL A   1      35.109  31.606  29.853  1.00  0.00    -0.237 OA
ATOM     74  O   UNL A   1      36.893  32.336  28.320  1.00  0.00    -0.237 OA
ATOM     75  O   UNL A   1      35.490  30.402  27.736  1.00  0.00    -0.744 OA
ENDBRANCH  69  72
ENDBRANCH  51  65
BRANCH  52  76
ATOM     76  C   UNL A   1      48.373  27.454  25.978  1.00  0.00     0.023 A 
ATOM     77  C   UNL A   1      49.506  27.134  26.754  1.00  0.00     0.012 A 
ATOM     78  C   UNL A   1      48.517  27.589  24.584  1.00  0.00     0.148 A 
ATOM     79  C   UNL A   1      50.762  27.004  26.163  1.00  0.00     0.002 A 
ATOM     80  C   UNL A   1      49.761  27.399  23.993  1.00  0.00     0.091 A 
ATOM     81  F   UNL A   1      47.433  27.905  23.861  1.00  0.00    -0.205 F 
ATOM     82  C   UNL A   1      50.889  27.129  24.782  1.00  0.00     0.022 A 
BRANCH  80  83
ATOM     83  S   UNL A   1      49.988  27.408  22.212  1.00  0.00     0.127 S 
ATOM     84  O   UNL A   1      49.983  28.838  21.916  1.00  0.00    -0.237 OA
ATOM     85  O   UNL A   1      51.290  26.753  22.069  1.00  0.00    -0.237 OA
ATOM     86  O   UNL A   1      48.873  26.642  21.672  1.00  0.00    -0.744 OA
ENDBRANCH  80  83
ENDBRANCH  52  76
BRANCH  64  87
ATOM     87  C   UNL A   1      45.401  32.950  29.103  1.00  0.00     0.023 A 
ATOM     88  C   UNL A   1      46.152  33.207  30.265  1.00  0.00     0.012 A 
ATOM     89  C   UNL A   1      45.198  33.983  28.165  1.00  0.00     0.148 A 
ATOM     90  C   UNL A   1      46.677  34.478  30.501  1.00  0.00     0.002 A 
ATOM     91  C   UNL A   1      45.769  35.230  28.379  1.00  0.00     0.091 A 
ATOM     92  F   UNL A   1      44.467  33.718  27.073  1.00  0.00    -0.205 F 
ATOM     93  C   UNL A   1      46.499  35.483  29.552  1.00  0.00     0.022 A 
BRANCH  91  94
ATOM     94  S   UNL A   1      45.685  36.551  27.166  1.00  0.00     0.127 S 
ATOM     95  O   UNL A   1      46.350  37.646  27.872  1.00  0.00    -0.237 OA
ATOM     96  O   UNL A   1      46.448  35.993  26.049  1.00  0.00    -0.237 OA
ATOM     97  O   UNL A   1      44.270  36.761  26.891  1.00  0.00    -0.744 OA
ENDBRANCH  91  94
ENDBRANCH  64  87
ENDBRANCH  38  39
ENDBRANCH  30  33
ENDBRANCH  28  29
ENDBRANCH  27  28
ENDBRANCH  26  27
ENDBRANCH   1  26
TORSDOF 19
ENDMDL
