MODEL 1
REMARK VINA RESULT:     -11.9      0.000      0.000
REMARK SMILES COc1ccc([C@@H](C(=O)NCCCCCCNC(=O)c2ccc(-c3c4nc(c(-c5cccc(S(=O)(=O)[O-])c5F)c5ccc([nH]5)c(-c5cccc(S(=O)(=O)[O-])c5F)c5nc(c(-c6cccc(S(=O)(=O)[O-])c6F)c6ccc3[nH]6)C=C5)C=C4)cc2)[NH+]2CCC(C(N)=O)CC2)c(C)c1
REMARK SMILES IDX 14 1 13 2 12 3 11 4 10 5 8 6 9 7 7 9 6 10 3 11 4 12 94 13
REMARK SMILES IDX 5 14 92 15 93 16 2 17 1 18 83 19 84 20 91 21 85 23 90 24
REMARK SMILES IDX 86 25 87 26 88 27 89 28 15 31 16 32 17 33 18 34 19 36 20 37
REMARK SMILES IDX 21 38 82 39 22 40 81 41 23 42 24 43 25 44 75 45 26 46 80 47
REMARK SMILES IDX 74 48 76 49 27 50 79 51 73 52 72 53 28 55 60 56 40 57 59 58
REMARK SMILES IDX 41 59 44 60 58 61 77 62 42 63 43 64 57 66 78 67 45 68 29 69
REMARK SMILES IDX 30 70 38 71 31 72 33 73 39 74 32 75 34 76 35 77 36 78 37 79
REMARK SMILES IDX 61 80 62 81 70 82 63 83 65 84 71 85 64 86 66 87 67 88 68 89
REMARK SMILES IDX 69 90 46 91 47 92 55 93 48 94 50 95 56 96 49 97 51 98 52 99
REMARK SMILES IDX 53 100 54 101
REMARK H PARENT 10 8 83 22 88 29 88 30 17 35 76 54 44 65
REMARK Flexibility Score: inf
ROOT
ATOM      1  C   UNL A   1      40.809  22.765  27.236  1.00  0.00     0.002 C 
ENDROOT
BRANCH   1   2
ATOM      2  C   UNL A   1      39.418  23.406  27.125  1.00  0.00     0.002 C 
BRANCH   2   3
ATOM      3  C   UNL A   1      38.410  22.693  26.214  1.00  0.00     0.021 C 
BRANCH   3   4
ATOM      4  C   UNL A   1      37.285  23.578  25.677  1.00  0.00     0.116 C 
BRANCH   4   5
ATOM      5  N   UNL A   1      37.024  23.337  24.275  1.00  0.00    -0.351 N 
ATOM      6  C   UNL A   1      35.834  23.172  23.621  1.00  0.00     0.283 C 
ATOM      7  O   UNL A   1      35.910  23.037  22.396  1.00  0.00    -0.268 OA
ATOM      8  H   UNL A   1      37.824  23.283  23.705  1.00  0.00     0.163 HD
BRANCH   6   9
ATOM      9  C   UNL A   1      34.492  23.239  24.414  1.00  0.00     0.305 C 
BRANCH   9  10
ATOM     10  C   UNL A   1      33.816  21.887  24.714  1.00  0.00     0.022 A 
ATOM     11  C   UNL A   1      32.539  19.356  24.961  1.00  0.00     0.119 A 
ATOM     12  C   UNL A   1      32.529  20.015  23.742  1.00  0.00     0.047 A 
ATOM     13  C   UNL A   1      33.151  19.968  26.054  1.00  0.00     0.050 A 
ATOM     14  C   UNL A   1      33.170  21.252  23.622  1.00  0.00     0.014 A 
ATOM     15  C   UNL A   1      33.778  21.231  25.964  1.00  0.00    -0.038 A 
ATOM     16  C   UNL A   1      34.388  21.741  27.240  1.00  0.00     0.045 C 
BRANCH  11  17
ATOM     17  O   UNL A   1      31.983  18.137  25.222  1.00  0.00    -0.497 OA
ATOM     18  C   UNL A   1      32.869  17.096  25.615  1.00  0.00     0.278 C 
ENDBRANCH  11  17
ENDBRANCH   9  10
BRANCH   9  19
ATOM     19  N   UNL A   1      33.582  24.309  23.888  1.00  0.00    -0.321 N 
ATOM     20  C   UNL A   1      32.221  24.251  24.428  1.00  0.00     0.263 C 
ATOM     21  C   UNL A   1      34.172  25.650  24.000  1.00  0.00     0.263 C 
ATOM     22  H   UNL A   1      33.484  24.110  22.893  1.00  0.00     0.349 HD
ATOM     23  C   UNL A   1      31.305  25.278  23.767  1.00  0.00     0.075 C 
ATOM     24  C   UNL A   1      33.287  26.720  23.355  1.00  0.00     0.075 C 
ATOM     25  C   UNL A   1      31.886  26.674  23.958  1.00  0.00     0.089 C 
BRANCH  25  26
ATOM     26  C   UNL A   1      30.970  27.710  23.340  1.00  0.00     0.220 C 
ATOM     27  N   UNL A   1      31.344  28.120  22.093  1.00  0.00    -0.369 N 
ATOM     28  O   UNL A   1      29.985  28.185  23.889  1.00  0.00    -0.275 OA
ATOM     29  H   UNL A   1      32.138  27.728  21.662  1.00  0.00     0.159 HD
ATOM     30  H   UNL A   1      30.818  28.807  21.622  1.00  0.00     0.159 HD
ENDBRANCH  25  26
ENDBRANCH   9  19
ENDBRANCH   6   9
ENDBRANCH   4   5
ENDBRANCH   3   4
ENDBRANCH   2   3
ENDBRANCH   1   2
BRANCH   1  31
ATOM     31  C   UNL A   1      41.193  21.785  26.127  1.00  0.00     0.021 C 
BRANCH  31  32
ATOM     32  C   UNL A   1      42.293  20.811  26.507  1.00  0.00     0.116 C 
BRANCH  32  33
ATOM     33  N   UNL A   1      43.136  20.437  25.390  1.00  0.00    -0.352 N 
ATOM     34  C   UNL A   1      44.133  21.151  24.758  1.00  0.00     0.251 C 
ATOM     35  H   UNL A   1      42.973  19.536  25.026  1.00  0.00     0.163 HD
ATOM     36  O   UNL A   1      44.554  20.731  23.682  1.00  0.00    -0.269 OA
BRANCH  34  37
ATOM     37  C   UNL A   1      44.788  22.298  25.440  1.00  0.00     0.039 A 
ATOM     38  C   UNL A   1      44.888  22.240  26.838  1.00  0.00     0.014 A 
ATOM     39  C   UNL A   1      45.068  23.492  24.781  1.00  0.00     0.014 A 
ATOM     40  C   UNL A   1      44.979  23.418  27.574  1.00  0.00     0.010 A 
ATOM     41  C   UNL A   1      45.072  24.665  25.500  1.00  0.00     0.010 A 
ATOM     42  C   UNL A   1      44.936  24.626  26.887  1.00  0.00    -0.014 A 
BRANCH  42  43
ATOM     43  C   UNL A   1      44.699  25.921  27.497  1.00  0.00     0.031 A 
ATOM     44  C   UNL A   1      43.360  26.529  27.413  1.00  0.00     0.074 A 
ATOM     45  C   UNL A   1      45.657  26.409  28.317  1.00  0.00     0.049 A 
ATOM     46  N   UNL A   1      43.084  27.736  27.766  1.00  0.00    -0.248 NA
ATOM     47  C   UNL A   1      42.213  25.802  26.887  1.00  0.00     0.031 C 
ATOM     48  C   UNL A   1      45.518  27.441  29.337  1.00  0.00     0.029 A 
ATOM     49  N   UNL A   1      47.041  26.193  28.256  1.00  0.00    -0.354 N 
ATOM     50  C   UNL A   1      41.710  27.860  27.788  1.00  0.00     0.074 A 
ATOM     51  C   UNL A   1      41.225  26.666  27.138  1.00  0.00     0.031 C 
ATOM     52  C   UNL A   1      46.729  27.969  29.580  1.00  0.00     0.029 A 
ATOM     53  C   UNL A   1      47.617  27.440  28.558  1.00  0.00     0.049 A 
ATOM     54  H   UNL A   1      47.507  25.351  28.047  1.00  0.00     0.167 HD
ATOM     55  C   UNL A   1      41.162  28.892  28.490  1.00  0.00     0.034 A 
ATOM     56  C   UNL A   1      48.295  28.200  27.640  1.00  0.00     0.034 A 
ATOM     57  C   UNL A   1      42.215  29.813  28.948  1.00  0.00     0.049 A 
ATOM     58  C   UNL A   1      47.719  29.602  27.480  1.00  0.00     0.074 A 
ATOM     59  C   UNL A   1      42.894  29.955  30.148  1.00  0.00     0.029 A 
ATOM     60  N   UNL A   1      42.924  30.552  28.009  1.00  0.00    -0.354 N 
ATOM     61  N   UNL A   1      46.550  29.967  27.931  1.00  0.00    -0.248 NA
ATOM     62  C   UNL A   1      48.400  30.697  26.789  1.00  0.00     0.031 C 
ATOM     63  C   UNL A   1      44.081  30.696  29.894  1.00  0.00     0.029 A 
ATOM     64  C   UNL A   1      44.102  31.040  28.552  1.00  0.00     0.049 A 
ATOM     65  H   UNL A   1      42.628  30.709  27.082  1.00  0.00     0.167 HD
ATOM     66  C   UNL A   1      46.264  31.244  27.530  1.00  0.00     0.074 A 
ATOM     67  C   UNL A   1      47.487  31.683  26.879  1.00  0.00     0.031 C 
ATOM     68  C   UNL A   1      45.027  31.802  27.719  1.00  0.00     0.034 A 
BRANCH  55  69
ATOM     69  C   UNL A   1      39.733  28.952  29.026  1.00  0.00     0.023 A 
ATOM     70  C   UNL A   1      38.694  29.059  28.072  1.00  0.00     0.012 A 
ATOM     71  C   UNL A   1      39.322  29.002  30.379  1.00  0.00     0.148 A 
ATOM     72  C   UNL A   1      37.359  29.297  28.427  1.00  0.00     0.002 A 
ATOM     73  C   UNL A   1      38.000  29.288  30.737  1.00  0.00     0.091 A 
ATOM     74  F   UNL A   1      40.183  28.708  31.351  1.00  0.00    -0.205 F 
ATOM     75  C   UNL A   1      37.014  29.443  29.761  1.00  0.00     0.022 A 
BRANCH  73  76
ATOM     76  S   UNL A   1      37.492  29.538  32.451  1.00  0.00     0.127 S 
ATOM     77  O   UNL A   1      37.520  28.173  32.981  1.00  0.00    -0.237 OA
ATOM     78  O   UNL A   1      38.544  30.412  32.967  1.00  0.00    -0.237 OA
ATOM     79  O   UNL A   1      36.160  30.130  32.404  1.00  0.00    -0.744 OA
ENDBRANCH  73  76
ENDBRANCH  55  69
BRANCH  56  80
ATOM     80  C   UNL A   1      48.927  27.401  26.542  1.00  0.00     0.023 A 
ATOM     81  C   UNL A   1      48.374  27.544  25.244  1.00  0.00     0.012 A 
ATOM     82  C   UNL A   1      50.219  26.861  26.665  1.00  0.00     0.148 A 
ATOM     83  C   UNL A   1      49.152  27.334  24.105  1.00  0.00     0.002 A 
ATOM     84  C   UNL A   1      50.983  26.628  25.519  1.00  0.00     0.091 A 
ATOM     85  F   UNL A   1      50.710  26.632  27.891  1.00  0.00    -0.205 F 
ATOM     86  C   UNL A   1      50.471  26.918  24.245  1.00  0.00     0.022 A 
BRANCH  84  87
ATOM     87  S   UNL A   1      52.688  26.067  25.636  1.00  0.00     0.127 S 
ATOM     88  O   UNL A   1      52.524  24.762  26.268  1.00  0.00    -0.237 OA
ATOM     89  O   UNL A   1      53.110  26.023  24.236  1.00  0.00    -0.237 OA
ATOM     90  O   UNL A   1      53.356  27.093  26.423  1.00  0.00    -0.744 OA
ENDBRANCH  84  87
ENDBRANCH  56  80
BRANCH  68  91
ATOM     91  C   UNL A   1      44.539  33.103  27.109  1.00  0.00     0.023 A 
ATOM     92  C   UNL A   1      44.169  33.210  25.756  1.00  0.00     0.012 A 
ATOM     93  C   UNL A   1      44.264  34.226  27.936  1.00  0.00     0.148 A 
ATOM     94  C   UNL A   1      43.598  34.379  25.236  1.00  0.00     0.002 A 
ATOM     95  C   UNL A   1      43.588  35.336  27.442  1.00  0.00     0.091 A 
ATOM     96  F   UNL A   1      44.670  34.230  29.215  1.00  0.00    -0.205 F 
ATOM     97  C   UNL A   1      43.280  35.432  26.085  1.00  0.00     0.022 A 
BRANCH  95  98
ATOM     98  S   UNL A   1      42.940  36.589  28.561  1.00  0.00     0.127 S 
ATOM     99  O   UNL A   1      42.379  35.777  29.639  1.00  0.00    -0.237 OA
ATOM    100  O   UNL A   1      44.142  37.340  28.927  1.00  0.00    -0.237 OA
ATOM    101  O   UNL A   1      41.987  37.347  27.761  1.00  0.00    -0.744 OA
ENDBRANCH  95  98
ENDBRANCH  68  91
ENDBRANCH  42  43
ENDBRANCH  34  37
ENDBRANCH  32  33
ENDBRANCH  31  32
ENDBRANCH   1  31
TORSDOF 20
ENDMDL
MODEL 2
REMARK VINA RESULT:     -11.3      5.635     11.526
REMARK SMILES COc1ccc([C@@H](C(=O)NCCCCCCNC(=O)c2ccc(-c3c4nc(c(-c5cccc(S(=O)(=O)[O-])c5F)c5ccc([nH]5)c(-c5cccc(S(=O)(=O)[O-])c5F)c5nc(c(-c6cccc(S(=O)(=O)[O-])c6F)c6ccc3[nH]6)C=C5)C=C4)cc2)[NH+]2CCC(C(N)=O)CC2)c(C)c1
REMARK SMILES IDX 14 1 13 2 12 3 11 4 10 5 8 6 9 7 7 9 6 10 3 11 4 12 94 13
REMARK SMILES IDX 5 14 92 15 93 16 2 17 1 18 83 19 84 20 91 21 85 23 90 24
REMARK SMILES IDX 86 25 87 26 88 27 89 28 15 31 16 32 17 33 18 34 19 36 20 37
REMARK SMILES IDX 21 38 82 39 22 40 81 41 23 42 24 43 25 44 75 45 26 46 80 47
REMARK SMILES IDX 74 48 76 49 27 50 79 51 73 52 72 53 28 55 60 56 40 57 59 58
REMARK SMILES IDX 41 59 44 60 58 61 77 62 42 63 43 64 57 66 78 67 45 68 29 69
REMARK SMILES IDX 30 70 38 71 31 72 33 73 39 74 32 75 34 76 35 77 36 78 37 79
REMARK SMILES IDX 61 80 62 81 70 82 63 83 65 84 71 85 64 86 66 87 67 88 68 89
REMARK SMILES IDX 69 90 46 91 47 92 55 93 48 94 50 95 56 96 49 97 51 98 52 99
REMARK SMILES IDX 53 100 54 101
REMARK H PARENT 10 8 83 22 88 29 88 30 17 35 76 54 44 65
REMARK Flexibility Score: inf
ROOT
ATOM      1  C   UNL A   1      35.835  32.393  28.771  1.00  0.00     0.002 C 
ENDROOT
BRANCH   1   2
ATOM      2  C   UNL A   1      35.755  31.076  27.985  1.00  0.00     0.002 C 
BRANCH   2   3
ATOM      3  C   UNL A   1      34.359  30.644  27.519  1.00  0.00     0.021 C 
BRANCH   3   4
ATOM      4  C   UNL A   1      34.255  29.196  27.041  1.00  0.00     0.116 C 
BRANCH   4   5
ATOM      5  N   UNL A   1      33.049  28.552  27.510  1.00  0.00    -0.351 N 
ATOM      6  C   UNL A   1      32.241  27.643  26.884  1.00  0.00     0.283 C 
ATOM      7  O   UNL A   1      31.298  27.213  27.555  1.00  0.00    -0.268 OA
ATOM      8  H   UNL A   1      32.766  28.806  28.418  1.00  0.00     0.163 HD
BRANCH   6   9
ATOM      9  C   UNL A   1      32.585  27.156  25.442  1.00  0.00     0.305 C 
BRANCH   9  10
ATOM     10  C   UNL A   1      31.773  27.799  24.301  1.00  0.00     0.022 A 
ATOM     11  C   UNL A   1      30.020  28.908  22.353  1.00  0.00     0.119 A 
ATOM     12  C   UNL A   1      29.513  28.084  23.344  1.00  0.00     0.047 A 
ATOM     13  C   UNL A   1      31.392  29.151  22.314  1.00  0.00     0.050 A 
ATOM     14  C   UNL A   1      30.376  27.552  24.307  1.00  0.00     0.014 A 
ATOM     15  C   UNL A   1      32.288  28.600  23.258  1.00  0.00    -0.038 A 
ATOM     16  C   UNL A   1      33.733  28.967  23.067  1.00  0.00     0.045 C 
BRANCH  11  17
ATOM     17  O   UNL A   1      29.300  29.519  21.367  1.00  0.00    -0.497 OA
ATOM     18  C   UNL A   1      28.626  30.722  21.713  1.00  0.00     0.278 C 
ENDBRANCH  11  17
ENDBRANCH   9  10
BRANCH   9  19
ATOM     19  N   UNL A   1      32.722  25.664  25.371  1.00  0.00    -0.321 N 
ATOM     20  C   UNL A   1      34.051  25.208  24.955  1.00  0.00     0.263 C 
ATOM     21  C   UNL A   1      32.261  25.000  26.597  1.00  0.00     0.263 C 
ATOM     22  H   UNL A   1      32.094  25.374  24.622  1.00  0.00     0.349 HD
ATOM     23  C   UNL A   1      34.100  23.693  24.776  1.00  0.00     0.075 C 
ATOM     24  C   UNL A   1      32.296  23.475  26.471  1.00  0.00     0.075 C 
ATOM     25  C   UNL A   1      33.697  23.014  26.080  1.00  0.00     0.089 C 
BRANCH  25  26
ATOM     26  C   UNL A   1      33.776  21.509  25.930  1.00  0.00     0.220 C 
ATOM     27  N   UNL A   1      33.487  20.814  27.069  1.00  0.00    -0.369 N 
ATOM     28  O   UNL A   1      34.095  20.927  24.902  1.00  0.00    -0.275 OA
ATOM     29  H   UNL A   1      33.231  21.295  27.889  1.00  0.00     0.159 HD
ATOM     30  H   UNL A   1      33.533  19.830  27.070  1.00  0.00     0.159 HD
ENDBRANCH  25  26
ENDBRANCH   9  19
ENDBRANCH   6   9
ENDBRANCH   4   5
ENDBRANCH   3   4
ENDBRANCH   2   3
ENDBRANCH   1   2
BRANCH   1  31
ATOM     31  C   UNL A   1      34.596  32.773  29.582  1.00  0.00     0.021 C 
BRANCH  31  32
ATOM     32  C   UNL A   1      34.340  34.266  29.669  1.00  0.00     0.116 C 
BRANCH  32  33
ATOM     33  N   UNL A   1      33.464  34.633  30.763  1.00  0.00    -0.352 N 
ATOM     34  C   UNL A   1      33.622  34.450  32.122  1.00  0.00     0.251 C 
ATOM     35  H   UNL A   1      32.627  35.081  30.497  1.00  0.00     0.163 HD
ATOM     36  O   UNL A   1      32.646  34.624  32.848  1.00  0.00    -0.269 OA
BRANCH  34  37
ATOM     37  C   UNL A   1      34.971  34.211  32.698  1.00  0.00     0.039 A 
ATOM     38  C   UNL A   1      36.032  34.971  32.183  1.00  0.00     0.014 A 
ATOM     39  C   UNL A   1      35.244  33.124  33.523  1.00  0.00     0.014 A 
ATOM     40  C   UNL A   1      37.333  34.480  32.254  1.00  0.00     0.010 A 
ATOM     41  C   UNL A   1      36.511  32.589  33.524  1.00  0.00     0.010 A 
ATOM     42  C   UNL A   1      37.530  33.223  32.813  1.00  0.00    -0.014 A 
BRANCH  42  43
ATOM     43  C   UNL A   1      38.741  32.436  32.682  1.00  0.00     0.031 A 
ATOM     44  C   UNL A   1      38.698  31.151  31.963  1.00  0.00     0.074 A 
ATOM     45  C   UNL A   1      39.909  33.026  33.024  1.00  0.00     0.049 A 
ATOM     46  N   UNL A   1      39.662  30.299  31.932  1.00  0.00    -0.248 NA
ATOM     47  C   UNL A   1      37.518  30.718  31.226  1.00  0.00     0.031 C 
ATOM     48  C   UNL A   1      41.256  32.635  32.627  1.00  0.00     0.029 A 
ATOM     49  N   UNL A   1      40.127  34.017  33.990  1.00  0.00    -0.354 N 
ATOM     50  C   UNL A   1      39.359  29.360  30.967  1.00  0.00     0.074 A 
ATOM     51  C   UNL A   1      37.977  29.611  30.635  1.00  0.00     0.031 C 
ATOM     52  C   UNL A   1      42.128  33.133  33.520  1.00  0.00     0.029 A 
ATOM     53  C   UNL A   1      41.331  33.654  34.619  1.00  0.00     0.049 A 
ATOM     54  H   UNL A   1      39.559  34.798  34.186  1.00  0.00     0.167 HD
ATOM     55  C   UNL A   1      40.369  28.590  30.470  1.00  0.00     0.034 A 
ATOM     56  C   UNL A   1      41.403  33.212  35.915  1.00  0.00     0.034 A 
ATOM     57  C   UNL A   1      41.602  28.807  31.242  1.00  0.00     0.049 A 
ATOM     58  C   UNL A   1      42.058  31.842  36.046  1.00  0.00     0.074 A 
ATOM     59  C   UNL A   1      42.720  29.602  31.039  1.00  0.00     0.029 A 
ATOM     60  N   UNL A   1      41.655  28.391  32.567  1.00  0.00    -0.354 N 
ATOM     61  N   UNL A   1      42.269  31.035  35.043  1.00  0.00    -0.248 NA
ATOM     62  C   UNL A   1      42.509  31.264  37.312  1.00  0.00     0.031 C 
ATOM     63  C   UNL A   1      43.384  29.749  32.289  1.00  0.00     0.029 A 
ATOM     64  C   UNL A   1      42.696  29.012  33.238  1.00  0.00     0.049 A 
ATOM     65  H   UNL A   1      41.036  27.741  32.973  1.00  0.00     0.167 HD
ATOM     66  C   UNL A   1      42.759  29.838  35.490  1.00  0.00     0.074 A 
ATOM     67  C   UNL A   1      42.960  30.058  36.913  1.00  0.00     0.031 C 
ATOM     68  C   UNL A   1      42.900  28.757  34.661  1.00  0.00     0.034 A 
BRANCH  55  69
ATOM     69  C   UNL A   1      40.360  27.859  29.129  1.00  0.00     0.023 A 
ATOM     70  C   UNL A   1      39.499  26.742  29.013  1.00  0.00     0.012 A 
ATOM     71  C   UNL A   1      41.183  28.111  28.006  1.00  0.00     0.148 A 
ATOM     72  C   UNL A   1      39.518  25.881  27.908  1.00  0.00     0.002 A 
ATOM     73  C   UNL A   1      41.241  27.226  26.923  1.00  0.00     0.091 A 
ATOM     74  F   UNL A   1      41.876  29.244  27.925  1.00  0.00    -0.205 F 
ATOM     75  C   UNL A   1      40.413  26.104  26.873  1.00  0.00     0.022 A 
BRANCH  73  76
ATOM     76  S   UNL A   1      42.414  27.431  25.566  1.00  0.00     0.127 S 
ATOM     77  O   UNL A   1      41.943  28.668  24.938  1.00  0.00    -0.237 OA
ATOM     78  O   UNL A   1      43.690  27.555  26.270  1.00  0.00    -0.237 OA
ATOM     79  O   UNL A   1      42.281  26.248  24.724  1.00  0.00    -0.744 OA
ENDBRANCH  73  76
ENDBRANCH  55  69
BRANCH  56  80
ATOM     80  C   UNL A   1      40.301  33.724  36.791  1.00  0.00     0.023 A 
ATOM     81  C   UNL A   1      39.319  32.788  37.200  1.00  0.00     0.012 A 
ATOM     82  C   UNL A   1      40.420  34.929  37.506  1.00  0.00     0.148 A 
ATOM     83  C   UNL A   1      38.613  32.962  38.392  1.00  0.00     0.002 A 
ATOM     84  C   UNL A   1      39.690  35.108  38.683  1.00  0.00     0.091 A 
ATOM     85  F   UNL A   1      41.277  35.860  37.066  1.00  0.00    -0.205 F 
ATOM     86  C   UNL A   1      38.831  34.104  39.155  1.00  0.00     0.022 A 
BRANCH  84  87
ATOM     87  S   UNL A   1      39.912  36.575  39.701  1.00  0.00     0.127 S 
ATOM     88  O   UNL A   1      39.134  37.565  38.962  1.00  0.00    -0.237 OA
ATOM     89  O   UNL A   1      39.332  36.170  40.981  1.00  0.00    -0.237 OA
ATOM     90  O   UNL A   1      41.353  36.776  39.741  1.00  0.00    -0.744 OA
ENDBRANCH  84  87
ENDBRANCH  56  80
BRANCH  68  91
ATOM     91  C   UNL A   1      43.203  27.336  35.100  1.00  0.00     0.023 A 
ATOM     92  C   UNL A   1      42.302  26.575  35.867  1.00  0.00     0.012 A 
ATOM     93  C   UNL A   1      44.343  26.655  34.592  1.00  0.00     0.148 A 
ATOM     94  C   UNL A   1      42.535  25.223  36.154  1.00  0.00     0.002 A 
ATOM     95  C   UNL A   1      44.507  25.286  34.780  1.00  0.00     0.091 A 
ATOM     96  F   UNL A   1      45.289  27.337  33.930  1.00  0.00    -0.205 F 
ATOM     97  C   UNL A   1      43.622  24.571  35.587  1.00  0.00     0.022 A 
BRANCH  95  98
ATOM     98  S   UNL A   1      45.751  24.376  33.851  1.00  0.00     0.127 S 
ATOM     99  O   UNL A   1      46.995  24.875  34.434  1.00  0.00    -0.237 OA
ATOM    100  O   UNL A   1      45.439  22.984  34.182  1.00  0.00    -0.237 OA
ATOM    101  O   UNL A   1      45.506  24.725  32.458  1.00  0.00    -0.744 OA
ENDBRANCH  95  98
ENDBRANCH  68  91
ENDBRANCH  42  43
ENDBRANCH  34  37
ENDBRANCH  32  33
ENDBRANCH  31  32
ENDBRANCH   1  31
TORSDOF 20
ENDMDL
MODEL 3
REMARK VINA RESULT:     -11.2      5.333     11.287
REMARK SMILES COc1ccc([C@@H](C(=O)NCCCCCCNC(=O)c2ccc(-c3c4nc(c(-c5cccc(S(=O)(=O)[O-])c5F)c5ccc([nH]5)c(-c5cccc(S(=O)(=O)[O-])c5F)c5nc(c(-c6cccc(S(=O)(=O)[O-])c6F)c6ccc3[nH]6)C=C5)C=C4)cc2)[NH+]2CCC(C(N)=O)CC2)c(C)c1
REMARK SMILES IDX 14 1 13 2 12 3 11 4 10 5 8 6 9 7 7 9 6 10 3 11 4 12 94 13
REMARK SMILES IDX 5 14 92 15 93 16 2 17 1 18 83 19 84 20 91 21 85 23 90 24
REMARK SMILES IDX 86 25 87 26 88 27 89 28 15 31 16 32 17 33 18 34 19 36 20 37
REMARK SMILES IDX 21 38 82 39 22 40 81 41 23 42 24 43 25 44 75 45 26 46 80 47
REMARK SMILES IDX 74 48 76 49 27 50 79 51 73 52 72 53 28 55 60 56 40 57 59 58
REMARK SMILES IDX 41 59 44 60 58 61 77 62 42 63 43 64 57 66 78 67 45 68 29 69
REMARK SMILES IDX 30 70 38 71 31 72 33 73 39 74 32 75 34 76 35 77 36 78 37 79
REMARK SMILES IDX 61 80 62 81 70 82 63 83 65 84 71 85 64 86 66 87 67 88 68 89
REMARK SMILES IDX 69 90 46 91 47 92 55 93 48 94 50 95 56 96 49 97 51 98 52 99
REMARK SMILES IDX 53 100 54 101
REMARK H PARENT 10 8 83 22 88 29 88 30 17 35 76 54 44 65
REMARK Flexibility Score: inf
ROOT
ATOM      1  C   UNL A   1      35.000  32.452  29.834  1.00  0.00     0.002 C 
ENDROOT
BRANCH   1   2
ATOM      2  C   UNL A   1      35.371  31.552  28.646  1.00  0.00     0.002 C 
BRANCH   2   3
ATOM      3  C   UNL A   1      34.210  31.065  27.770  1.00  0.00     0.021 C 
BRANCH   3   4
ATOM      4  C   UNL A   1      34.264  29.587  27.387  1.00  0.00     0.116 C 
BRANCH   4   5
ATOM      5  N   UNL A   1      33.063  28.880  27.771  1.00  0.00    -0.351 N 
ATOM      6  C   UNL A   1      32.139  28.237  26.995  1.00  0.00     0.283 C 
ATOM      7  O   UNL A   1      31.233  27.661  27.605  1.00  0.00    -0.268 OA
ATOM      8  H   UNL A   1      32.883  28.857  28.738  1.00  0.00     0.163 HD
BRANCH   6   9
ATOM      9  C   UNL A   1      32.314  28.197  25.444  1.00  0.00     0.305 C 
BRANCH   9  10
ATOM     10  C   UNL A   1      31.176  28.831  24.621  1.00  0.00     0.022 A 
ATOM     11  C   UNL A   1      29.014  29.718  22.997  1.00  0.00     0.119 A 
ATOM     12  C   UNL A   1      29.513  28.435  22.838  1.00  0.00     0.047 A 
ATOM     13  C   UNL A   1      29.609  30.562  23.934  1.00  0.00     0.050 A 
ATOM     14  C   UNL A   1      30.566  27.999  23.647  1.00  0.00     0.014 A 
ATOM     15  C   UNL A   1      30.695  30.153  24.741  1.00  0.00    -0.038 A 
ATOM     16  C   UNL A   1      31.213  31.190  25.699  1.00  0.00     0.045 C 
BRANCH  11  17
ATOM     17  O   UNL A   1      27.977  30.271  22.304  1.00  0.00    -0.497 OA
ATOM     18  C   UNL A   1      28.278  31.388  21.477  1.00  0.00     0.278 C 
ENDBRANCH  11  17
ENDBRANCH   9  10
BRANCH   9  19
ATOM     19  N   UNL A   1      32.782  26.855  24.966  1.00  0.00    -0.321 N 
ATOM     20  C   UNL A   1      33.540  26.900  23.713  1.00  0.00     0.263 C 
ATOM     21  C   UNL A   1      33.479  26.099  26.015  1.00  0.00     0.263 C 
ATOM     22  H   UNL A   1      31.931  26.339  24.744  1.00  0.00     0.349 HD
ATOM     23  C   UNL A   1      33.882  25.502  23.205  1.00  0.00     0.075 C 
ATOM     24  C   UNL A   1      33.850  24.687  25.553  1.00  0.00     0.075 C 
ATOM     25  C   UNL A   1      34.675  24.754  24.271  1.00  0.00     0.089 C 
BRANCH  25  26
ATOM     26  C   UNL A   1      35.054  23.377  23.769  1.00  0.00     0.220 C 
ATOM     27  N   UNL A   1      34.442  22.350  24.427  1.00  0.00    -0.369 N 
ATOM     28  O   UNL A   1      35.858  23.159  22.872  1.00  0.00    -0.275 OA
ATOM     29  H   UNL A   1      33.797  22.539  25.147  1.00  0.00     0.159 HD
ATOM     30  H   UNL A   1      34.645  21.417  24.182  1.00  0.00     0.159 HD
ENDBRANCH  25  26
ENDBRANCH   9  19
ENDBRANCH   6   9
ENDBRANCH   4   5
ENDBRANCH   3   4
ENDBRANCH   2   3
ENDBRANCH   1   2
BRANCH   1  31
ATOM     31  C   UNL A   1      35.503  32.004  31.206  1.00  0.00     0.021 C 
BRANCH  31  32
ATOM     32  C   UNL A   1      34.678  32.517  32.372  1.00  0.00     0.116 C 
BRANCH  32  33
ATOM     33  N   UNL A   1      34.507  33.956  32.362  1.00  0.00    -0.352 N 
ATOM     34  C   UNL A   1      35.368  34.951  32.779  1.00  0.00     0.251 C 
ATOM     35  H   UNL A   1      33.645  34.272  32.004  1.00  0.00     0.163 HD
ATOM     36  O   UNL A   1      34.921  36.090  32.900  1.00  0.00    -0.269 OA
BRANCH  34  37
ATOM     37  C   UNL A   1      36.823  34.681  32.916  1.00  0.00     0.039 A 
ATOM     38  C   UNL A   1      37.621  34.876  31.779  1.00  0.00     0.014 A 
ATOM     39  C   UNL A   1      37.355  34.026  34.024  1.00  0.00     0.014 A 
ATOM     40  C   UNL A   1      38.818  34.178  31.647  1.00  0.00     0.010 A 
ATOM     41  C   UNL A   1      38.492  33.268  33.868  1.00  0.00     0.010 A 
ATOM     42  C   UNL A   1      39.167  33.279  32.647  1.00  0.00    -0.014 A 
BRANCH  42  43
ATOM     43  C   UNL A   1      40.189  32.255  32.526  1.00  0.00     0.031 A 
ATOM     44  C   UNL A   1      39.893  31.018  31.784  1.00  0.00     0.074 A 
ATOM     45  C   UNL A   1      41.446  32.582  32.902  1.00  0.00     0.049 A 
ATOM     46  N   UNL A   1      40.657  29.983  31.757  1.00  0.00    -0.248 NA
ATOM     47  C   UNL A   1      38.666  30.852  31.016  1.00  0.00     0.031 C 
ATOM     48  C   UNL A   1      42.690  31.922  32.524  1.00  0.00     0.029 A 
ATOM     49  N   UNL A   1      41.845  33.493  33.889  1.00  0.00    -0.354 N 
ATOM     50  C   UNL A   1      40.186  29.142  30.770  1.00  0.00     0.074 A 
ATOM     51  C   UNL A   1      38.896  29.681  30.416  1.00  0.00     0.031 C 
ATOM     52  C   UNL A   1      43.626  32.214  33.443  1.00  0.00     0.029 A 
ATOM     53  C   UNL A   1      42.932  32.877  34.535  1.00  0.00     0.049 A 
ATOM     54  H   UNL A   1      41.450  34.373  34.087  1.00  0.00     0.167 HD
ATOM     55  C   UNL A   1      41.023  28.183  30.280  1.00  0.00     0.034 A 
ATOM     56  C   UNL A   1      42.880  32.413  35.824  1.00  0.00     0.034 A 
ATOM     57  C   UNL A   1      42.256  28.126  31.080  1.00  0.00     0.049 A 
ATOM     58  C   UNL A   1      43.229  30.934  35.944  1.00  0.00     0.074 A 
ATOM     59  C   UNL A   1      43.521  28.669  30.913  1.00  0.00     0.029 A 
ATOM     60  N   UNL A   1      42.190  27.690  32.398  1.00  0.00    -0.354 N 
ATOM     61  N   UNL A   1      43.289  30.114  34.932  1.00  0.00    -0.248 NA
ATOM     62  C   UNL A   1      43.519  30.258  37.208  1.00  0.00     0.031 C 
ATOM     63  C   UNL A   1      44.172  28.658  32.178  1.00  0.00     0.029 A 
ATOM     64  C   UNL A   1      43.323  28.069  33.100  1.00  0.00     0.049 A 
ATOM     65  H   UNL A   1      41.439  27.180  32.781  1.00  0.00     0.167 HD
ATOM     66  C   UNL A   1      43.507  28.835  35.368  1.00  0.00     0.074 A 
ATOM     67  C   UNL A   1      43.716  28.990  36.798  1.00  0.00     0.031 C 
ATOM     68  C   UNL A   1      43.436  27.760  34.523  1.00  0.00     0.034 A 
BRANCH  55  69
ATOM     69  C   UNL A   1      40.892  27.487  28.927  1.00  0.00     0.023 A 
ATOM     70  C   UNL A   1      39.886  26.499  28.808  1.00  0.00     0.012 A 
ATOM     71  C   UNL A   1      41.720  27.649  27.792  1.00  0.00     0.148 A 
ATOM     72  C   UNL A   1      39.770  25.665  27.688  1.00  0.00     0.002 A 
ATOM     73  C   UNL A   1      41.639  26.787  26.692  1.00  0.00     0.091 A 
ATOM     74  F   UNL A   1      42.558  28.680  27.717  1.00  0.00    -0.205 F 
ATOM     75  C   UNL A   1      40.667  25.787  26.639  1.00  0.00     0.022 A 
BRANCH  73  76
ATOM     76  S   UNL A   1      42.805  26.860  25.315  1.00  0.00     0.127 S 
ATOM     77  O   UNL A   1      42.517  25.612  24.605  1.00  0.00    -0.237 OA
ATOM     78  O   UNL A   1      42.385  28.071  24.611  1.00  0.00    -0.237 OA
ATOM     79  O   UNL A   1      44.137  26.915  25.906  1.00  0.00    -0.744 OA
ENDBRANCH  73  76
ENDBRANCH  55  69
BRANCH  56  80
ATOM     80  C   UNL A   1      41.890  33.134  36.687  1.00  0.00     0.023 A 
ATOM     81  C   UNL A   1      42.013  34.544  36.764  1.00  0.00     0.012 A 
ATOM     82  C   UNL A   1      40.675  32.544  37.075  1.00  0.00     0.148 A 
ATOM     83  C   UNL A   1      40.904  35.348  37.037  1.00  0.00     0.002 A 
ATOM     84  C   UNL A   1      39.577  33.354  37.373  1.00  0.00     0.091 A 
ATOM     85  F   UNL A   1      40.584  31.207  37.099  1.00  0.00    -0.205 F 
ATOM     86  C   UNL A   1      39.676  34.752  37.299  1.00  0.00     0.022 A 
BRANCH  84  87
ATOM     87  S   UNL A   1      37.967  32.641  37.743  1.00  0.00     0.127 S 
ATOM     88  O   UNL A   1      38.143  32.224  39.130  1.00  0.00    -0.237 OA
ATOM     89  O   UNL A   1      37.061  33.774  37.552  1.00  0.00    -0.237 OA
ATOM     90  O   UNL A   1      37.804  31.581  36.759  1.00  0.00    -0.744 OA
ENDBRANCH  84  87
ENDBRANCH  56  80
BRANCH  68  91
ATOM     91  C   UNL A   1      43.424  26.301  34.943  1.00  0.00     0.023 A 
ATOM     92  C   UNL A   1      42.232  25.567  35.085  1.00  0.00     0.012 A 
ATOM     93  C   UNL A   1      44.639  25.569  35.032  1.00  0.00     0.148 A 
ATOM     94  C   UNL A   1      42.240  24.190  35.345  1.00  0.00     0.002 A 
ATOM     95  C   UNL A   1      44.637  24.185  35.170  1.00  0.00     0.091 A 
ATOM     96  F   UNL A   1      45.814  26.216  34.996  1.00  0.00    -0.205 F 
ATOM     97  C   UNL A   1      43.441  23.493  35.358  1.00  0.00     0.022 A 
BRANCH  95  98
ATOM     98  S   UNL A   1      46.150  23.238  34.932  1.00  0.00     0.127 S 
ATOM     99  O   UNL A   1      45.634  21.903  34.639  1.00  0.00    -0.237 OA
ATOM    100  O   UNL A   1      46.771  23.914  33.792  1.00  0.00    -0.237 OA
ATOM    101  O   UNL A   1      46.884  23.387  36.182  1.00  0.00    -0.744 OA
ENDBRANCH  95  98
ENDBRANCH  68  91
ENDBRANCH  42  43
ENDBRANCH  34  37
ENDBRANCH  32  33
ENDBRANCH  31  32
ENDBRANCH   1  31
TORSDOF 20
ENDMDL
