MODEL 1
REMARK VINA RESULT:     -11.5      0.000      0.000
REMARK SMILES O=C(COc1ccccc1Br)Nc1cccc(C(=O)Nc2ccc(C(=O)NCCCCCCNC(=O)c3ccc(-c4c5nc(c(-c6cccc(S(=O)(=O)[O-])c6F)c6ccc([nH]6)c(-c6cccc(S(=O)(=O)[O-])c6F)c6nc(c(-c7cccc(S(=O)(=O)[O-])c7F)c7ccc4[nH]7)C=C6)C=C5)cc3)cc2)c1
REMARK SMILES IDX 29 1 28 2 27 3 25 4 26 5 24 7 21 8 22 9 101 10 23 11 100 12
REMARK SMILES IDX 20 13 18 14 19 15 17 17 13 18 14 19 102 20 15 21 16 22 12 23
REMARK SMILES IDX 1 24 2 25 3 27 4 28 5 29 6 30 10 31 7 32 9 33 11 34 8 35
REMARK SMILES IDX 30 36 31 37 32 38 33 39 34 40 35 41 36 43 37 44 38 45 99 46
REMARK SMILES IDX 39 47 98 48 40 49 41 50 42 51 92 52 43 53 97 54 91 55 93 56
REMARK SMILES IDX 44 57 96 58 90 59 89 60 45 62 77 63 57 64 76 65 58 66 61 67
REMARK SMILES IDX 75 68 94 69 59 70 60 71 74 73 95 74 62 75 46 76 47 77 55 78
REMARK SMILES IDX 48 79 50 80 56 81 49 82 51 83 52 84 53 85 54 86 78 87 79 88
REMARK SMILES IDX 87 89 80 90 82 91 88 92 81 93 83 94 84 95 85 96 86 97 63 98
REMARK SMILES IDX 64 99 72 100 65 101 67 102 73 103 66 104 68 105 69 106
REMARK SMILES IDX 70 107 71 108
REMARK H PARENT 27 6 20 16 12 26 34 42 93 61 61 72
REMARK Flexibility Score: inf
ROOT
ATOM      1  C   UNL A   1      32.221  30.150  27.234  1.00  0.00     0.021 C 
ENDROOT
BRANCH   1   2
ATOM      2  C   UNL A   1      31.804  28.737  26.835  1.00  0.00     0.116 C 
BRANCH   2   3
ATOM      3  N   UNL A   1      32.203  28.465  25.467  1.00  0.00    -0.352 N 
ATOM      4  C   UNL A   1      32.341  27.327  24.714  1.00  0.00     0.251 C 
ATOM      5  O   UNL A   1      32.726  27.478  23.552  1.00  0.00    -0.269 OA
ATOM      6  H   UNL A   1      32.423  29.283  24.965  1.00  0.00     0.163 HD
BRANCH   4   7
ATOM      7  C   UNL A   1      31.968  25.961  25.181  1.00  0.00     0.039 A 
ATOM      8  C   UNL A   1      31.819  23.240  25.827  1.00  0.00     0.041 A 
ATOM      9  C   UNL A   1      32.655  24.074  26.567  1.00  0.00     0.027 A 
ATOM     10  C   UNL A   1      30.918  23.793  24.915  1.00  0.00     0.027 A 
ATOM     11  C   UNL A   1      32.755  25.422  26.215  1.00  0.00     0.016 A 
ATOM     12  C   UNL A   1      30.963  25.165  24.632  1.00  0.00     0.016 A 
BRANCH   8  13
ATOM     13  N   UNL A   1      32.003  21.858  25.962  1.00  0.00    -0.322 N 
ATOM     14  C   UNL A   1      32.979  21.032  25.429  1.00  0.00     0.255 C 
ATOM     15  O   UNL A   1      32.841  19.814  25.563  1.00  0.00    -0.269 OA
ATOM     16  H   UNL A   1      31.332  21.403  26.523  1.00  0.00     0.170 HD
BRANCH  14  17
ATOM     17  C   UNL A   1      34.248  21.546  24.815  1.00  0.00     0.042 A 
ATOM     18  C   UNL A   1      36.677  21.547  24.568  1.00  0.00     0.042 A 
ATOM     19  C   UNL A   1      36.576  22.561  23.614  1.00  0.00     0.026 A 
ATOM     20  C   UNL A   1      35.508  21.015  25.111  1.00  0.00     0.040 A 
ATOM     21  C   UNL A   1      35.322  23.017  23.207  1.00  0.00     0.003 A 
ATOM     22  C   UNL A   1      34.163  22.522  23.813  1.00  0.00     0.014 A 
BRANCH  18  23
ATOM     23  N   UNL A   1      37.960  21.062  24.880  1.00  0.00    -0.323 N 
ATOM     24  O   UNL A   1      38.764  22.644  26.407  1.00  0.00    -0.271 OA
ATOM     25  C   UNL A   1      38.847  21.573  25.815  1.00  0.00     0.262 C 
ATOM     26  H   UNL A   1      38.262  20.270  24.380  1.00  0.00     0.170 HD
BRANCH  25  27
ATOM     27  C   UNL A   1      40.006  20.630  26.105  1.00  0.00     0.329 C 
BRANCH  27  28
ATOM     28  O   UNL A   1      40.992  21.308  26.889  1.00  0.00    -0.483 OA
BRANCH  28  29
ATOM     29  C   UNL A   1      42.146  21.466  26.176  1.00  0.00     0.134 A 
ATOM     30  C   UNL A   1      42.374  22.736  25.643  1.00  0.00     0.047 A 
ATOM     31  C   UNL A   1      43.044  20.423  25.919  1.00  0.00     0.060 A 
ATOM     32  C   UNL A   1      43.515  22.974  24.880  1.00  0.00     0.004 A 
ATOM     33  C   UNL A   1      44.191  20.671  25.167  1.00  0.00     0.019 A 
ATOM     34  Br  UNL A   1      42.787  18.640  26.504  1.00  0.00    -0.047 Br
ATOM     35  C   UNL A   1      44.425  21.944  24.649  1.00  0.00     0.001 A 
ENDBRANCH  28  29
ENDBRANCH  27  28
ENDBRANCH  25  27
ENDBRANCH  18  23
ENDBRANCH  14  17
ENDBRANCH   8  13
ENDBRANCH   4   7
ENDBRANCH   2   3
ENDBRANCH   1   2
BRANCH   1  36
ATOM     36  C   UNL A   1      33.728  30.301  27.491  1.00  0.00     0.002 C 
BRANCH  36  37
ATOM     37  C   UNL A   1      34.218  31.732  27.749  1.00  0.00     0.002 C 
BRANCH  37  38
ATOM     38  C   UNL A   1      33.121  32.794  27.839  1.00  0.00     0.021 C 
BRANCH  38  39
ATOM     39  C   UNL A   1      33.630  34.221  27.998  1.00  0.00     0.116 C 
BRANCH  39  40
ATOM     40  N   UNL A   1      33.017  34.906  29.119  1.00  0.00    -0.352 N 
ATOM     41  C   UNL A   1      33.343  34.842  30.453  1.00  0.00     0.251 C 
ATOM     42  H   UNL A   1      32.263  35.499  28.895  1.00  0.00     0.163 HD
ATOM     43  O   UNL A   1      32.612  35.364  31.285  1.00  0.00    -0.269 OA
BRANCH  41  44
ATOM     44  C   UNL A   1      34.568  34.127  30.875  1.00  0.00     0.039 A 
ATOM     45  C   UNL A   1      34.443  33.002  31.691  1.00  0.00     0.014 A 
ATOM     46  C   UNL A   1      35.833  34.572  30.483  1.00  0.00     0.014 A 
ATOM     47  C   UNL A   1      35.586  32.309  32.096  1.00  0.00     0.010 A 
ATOM     48  C   UNL A   1      36.963  33.829  30.809  1.00  0.00     0.010 A 
ATOM     49  C   UNL A   1      36.856  32.711  31.648  1.00  0.00    -0.014 A 
BRANCH  49  50
ATOM     50  C   UNL A   1      38.084  32.005  32.090  1.00  0.00     0.031 A 
ATOM     51  C   UNL A   1      38.751  32.396  33.384  1.00  0.00     0.074 A 
ATOM     52  C   UNL A   1      38.632  31.054  31.308  1.00  0.00     0.049 A 
ATOM     53  N   UNL A   1      39.827  31.903  33.939  1.00  0.00    -0.248 NA
ATOM     54  C   UNL A   1      38.148  33.508  34.138  1.00  0.00     0.031 C 
ATOM     55  C   UNL A   1      38.120  30.635  30.002  1.00  0.00     0.029 A 
ATOM     56  N   UNL A   1      39.746  30.277  31.494  1.00  0.00    -0.354 N 
ATOM     57  C   UNL A   1      40.055  32.671  35.075  1.00  0.00     0.074 A 
ATOM     58  C   UNL A   1      39.029  33.689  35.109  1.00  0.00     0.031 C 
ATOM     59  C   UNL A   1      38.905  29.660  29.516  1.00  0.00     0.029 A 
ATOM     60  C   UNL A   1      39.990  29.405  30.459  1.00  0.00     0.049 A 
ATOM     61  H   UNL A   1      40.320  30.339  32.292  1.00  0.00     0.167 HD
ATOM     62  C   UNL A   1      41.013  32.529  36.022  1.00  0.00     0.034 A 
ATOM     63  C   UNL A   1      40.972  28.499  30.293  1.00  0.00     0.034 A 
ATOM     64  C   UNL A   1      42.002  31.486  36.006  1.00  0.00     0.049 A 
ATOM     65  C   UNL A   1      42.000  28.329  31.380  1.00  0.00     0.074 A 
ATOM     66  C   UNL A   1      42.954  31.188  36.965  1.00  0.00     0.029 A 
ATOM     67  N   UNL A   1      42.176  30.578  34.973  1.00  0.00    -0.354 N 
ATOM     68  N   UNL A   1      42.104  28.959  32.525  1.00  0.00    -0.248 NA
ATOM     69  C   UNL A   1      43.021  27.294  31.170  1.00  0.00     0.031 C 
ATOM     70  C   UNL A   1      43.731  30.126  36.491  1.00  0.00     0.029 A 
ATOM     71  C   UNL A   1      43.231  29.730  35.261  1.00  0.00     0.049 A 
ATOM     72  H   UNL A   1      41.631  30.543  34.155  1.00  0.00     0.167 HD
ATOM     73  C   UNL A   1      43.167  28.363  33.194  1.00  0.00     0.074 A 
ATOM     74  C   UNL A   1      43.668  27.315  32.327  1.00  0.00     0.031 C 
ATOM     75  C   UNL A   1      43.685  28.658  34.412  1.00  0.00     0.034 A 
BRANCH  62  76
ATOM     76  C   UNL A   1      41.018  33.510  37.166  1.00  0.00     0.023 A 
ATOM     77  C   UNL A   1      41.801  34.681  37.090  1.00  0.00     0.012 A 
ATOM     78  C   UNL A   1      40.223  33.288  38.307  1.00  0.00     0.148 A 
ATOM     79  C   UNL A   1      41.832  35.587  38.150  1.00  0.00     0.002 A 
ATOM     80  C   UNL A   1      40.217  34.222  39.337  1.00  0.00     0.091 A 
ATOM     81  F   UNL A   1      39.501  32.159  38.374  1.00  0.00    -0.205 F 
ATOM     82  C   UNL A   1      41.034  35.362  39.269  1.00  0.00     0.022 A 
BRANCH  80  83
ATOM     83  S   UNL A   1      39.156  34.064  40.776  1.00  0.00     0.127 S 
ATOM     84  O   UNL A   1      39.401  35.332  41.464  1.00  0.00    -0.237 OA
ATOM     85  O   UNL A   1      37.830  33.946  40.168  1.00  0.00    -0.237 OA
ATOM     86  O   UNL A   1      39.607  32.872  41.480  1.00  0.00    -0.744 OA
ENDBRANCH  80  83
ENDBRANCH  62  76
BRANCH  63  87
ATOM     87  C   UNL A   1      40.979  27.616  29.091  1.00  0.00     0.023 A 
ATOM     88  C   UNL A   1      40.085  26.528  29.032  1.00  0.00     0.012 A 
ATOM     89  C   UNL A   1      41.841  27.858  28.006  1.00  0.00     0.148 A 
ATOM     90  C   UNL A   1      40.074  25.675  27.927  1.00  0.00     0.002 A 
ATOM     91  C   UNL A   1      41.787  27.038  26.885  1.00  0.00     0.091 A 
ATOM     92  F   UNL A   1      42.686  28.896  28.085  1.00  0.00    -0.205 F 
ATOM     93  C   UNL A   1      40.918  25.935  26.851  1.00  0.00     0.022 A 
BRANCH  91  94
ATOM     94  S   UNL A   1      42.744  27.364  25.401  1.00  0.00     0.127 S 
ATOM     95  O   UNL A   1      44.111  27.338  25.914  1.00  0.00    -0.237 OA
ATOM     96  O   UNL A   1      42.380  26.227  24.555  1.00  0.00    -0.237 OA
ATOM     97  O   UNL A   1      42.282  28.653  24.907  1.00  0.00    -0.744 OA
ENDBRANCH  91  94
ENDBRANCH  63  87
BRANCH  75  98
ATOM     98  C   UNL A   1      44.814  27.798  34.919  1.00  0.00     0.023 A 
ATOM     99  C   UNL A   1      46.153  28.197  34.735  1.00  0.00     0.012 A 
ATOM    100  C   UNL A   1      44.538  26.619  35.641  1.00  0.00     0.148 A 
ATOM    101  C   UNL A   1      47.198  27.414  35.223  1.00  0.00     0.002 A 
ATOM    102  C   UNL A   1      45.583  25.875  36.173  1.00  0.00     0.091 A 
ATOM    103  F   UNL A   1      43.259  26.245  35.789  1.00  0.00    -0.205 F 
ATOM    104  C   UNL A   1      46.914  26.262  35.953  1.00  0.00     0.022 A 
BRANCH 102 105
ATOM    105  S   UNL A   1      45.303  24.439  37.214  1.00  0.00     0.127 S 
ATOM    106  O   UNL A   1      44.690  23.504  36.273  1.00  0.00    -0.237 OA
ATOM    107  O   UNL A   1      46.661  24.086  37.628  1.00  0.00    -0.237 OA
ATOM    108  O   UNL A   1      44.442  24.890  38.299  1.00  0.00    -0.744 OA
ENDBRANCH 102 105
ENDBRANCH  75  98
ENDBRANCH  49  50
ENDBRANCH  41  44
ENDBRANCH  39  40
ENDBRANCH  38  39
ENDBRANCH  37  38
ENDBRANCH  36  37
ENDBRANCH   1  36
TORSDOF 22
ENDMDL
MODEL 2
REMARK VINA RESULT:     -11.4      2.357      4.004
REMARK SMILES O=C(COc1ccccc1Br)Nc1cccc(C(=O)Nc2ccc(C(=O)NCCCCCCNC(=O)c3ccc(-c4c5nc(c(-c6cccc(S(=O)(=O)[O-])c6F)c6ccc([nH]6)c(-c6cccc(S(=O)(=O)[O-])c6F)c6nc(c(-c7cccc(S(=O)(=O)[O-])c7F)c7ccc4[nH]7)C=C6)C=C5)cc3)cc2)c1
REMARK SMILES IDX 29 1 28 2 27 3 25 4 26 5 24 7 21 8 22 9 101 10 23 11 100 12
REMARK SMILES IDX 20 13 18 14 19 15 17 17 13 18 14 19 102 20 15 21 16 22 12 23
REMARK SMILES IDX 1 24 2 25 3 27 4 28 5 29 6 30 10 31 7 32 9 33 11 34 8 35
REMARK SMILES IDX 30 36 31 37 32 38 33 39 34 40 35 41 36 43 37 44 38 45 99 46
REMARK SMILES IDX 39 47 98 48 40 49 41 50 42 51 92 52 43 53 97 54 91 55 93 56
REMARK SMILES IDX 44 57 96 58 90 59 89 60 45 62 77 63 57 64 76 65 58 66 61 67
REMARK SMILES IDX 75 68 94 69 59 70 60 71 74 73 95 74 62 75 46 76 47 77 55 78
REMARK SMILES IDX 48 79 50 80 56 81 49 82 51 83 52 84 53 85 54 86 78 87 79 88
REMARK SMILES IDX 87 89 80 90 82 91 88 92 81 93 83 94 84 95 85 96 86 97 63 98
REMARK SMILES IDX 64 99 72 100 65 101 67 102 73 103 66 104 68 105 69 106
REMARK SMILES IDX 70 107 71 108
REMARK H PARENT 27 6 20 16 12 26 34 42 93 61 61 72
REMARK Flexibility Score: inf
ROOT
ATOM      1  C   UNL A   1      35.306  33.324  29.500  1.00  0.00     0.021 C 
ENDROOT
BRANCH   1   2
ATOM      2  C   UNL A   1      34.430  32.227  28.901  1.00  0.00     0.116 C 
BRANCH   2   3
ATOM      3  N   UNL A   1      35.240  31.077  28.546  1.00  0.00    -0.352 N 
ATOM      4  C   UNL A   1      35.055  29.982  27.741  1.00  0.00     0.251 C 
ATOM      5  O   UNL A   1      35.985  29.175  27.686  1.00  0.00    -0.269 OA
ATOM      6  H   UNL A   1      36.123  31.085  28.980  1.00  0.00     0.163 HD
BRANCH   4   7
ATOM      7  C   UNL A   1      33.859  29.769  26.875  1.00  0.00     0.039 A 
ATOM      8  C   UNL A   1      31.951  29.670  24.828  1.00  0.00     0.041 A 
ATOM      9  C   UNL A   1      33.073  28.847  24.758  1.00  0.00     0.027 A 
ATOM     10  C   UNL A   1      31.683  30.378  26.001  1.00  0.00     0.027 A 
ATOM     11  C   UNL A   1      34.041  28.930  25.762  1.00  0.00     0.016 A 
ATOM     12  C   UNL A   1      32.619  30.385  27.044  1.00  0.00     0.016 A 
BRANCH   8  13
ATOM     13  N   UNL A   1      31.193  29.829  23.661  1.00  0.00    -0.322 N 
ATOM     14  C   UNL A   1      30.675  28.876  22.798  1.00  0.00     0.255 C 
ATOM     15  O   UNL A   1      30.169  29.266  21.743  1.00  0.00    -0.269 OA
ATOM     16  H   UNL A   1      30.998  30.763  23.415  1.00  0.00     0.170 HD
BRANCH  14  17
ATOM     17  C   UNL A   1      30.585  27.418  23.139  1.00  0.00     0.042 A 
ATOM     18  C   UNL A   1      31.552  25.184  23.324  1.00  0.00     0.042 A 
ATOM     19  C   UNL A   1      30.335  24.699  23.806  1.00  0.00     0.026 A 
ATOM     20  C   UNL A   1      31.675  26.546  23.054  1.00  0.00     0.040 A 
ATOM     21  C   UNL A   1      29.270  25.575  24.022  1.00  0.00     0.003 A 
ATOM     22  C   UNL A   1      29.390  26.925  23.679  1.00  0.00     0.014 A 
BRANCH  18  23
ATOM     23  N   UNL A   1      32.621  24.276  23.205  1.00  0.00    -0.323 N 
ATOM     24  O   UNL A   1      34.206  25.128  24.702  1.00  0.00    -0.271 OA
ATOM     25  C   UNL A   1      33.794  24.257  23.943  1.00  0.00     0.262 C 
ATOM     26  H   UNL A   1      32.525  23.575  22.521  1.00  0.00     0.170 HD
BRANCH  25  27
ATOM     27  C   UNL A   1      34.585  22.969  23.760  1.00  0.00     0.329 C 
BRANCH  27  28
ATOM     28  O   UNL A   1      34.714  22.303  25.020  1.00  0.00    -0.483 OA
BRANCH  28  29
ATOM     29  C   UNL A   1      35.831  21.516  25.033  1.00  0.00     0.134 A 
ATOM     30  C   UNL A   1      35.630  20.154  24.801  1.00  0.00     0.047 A 
ATOM     31  C   UNL A   1      37.112  22.001  25.321  1.00  0.00     0.060 A 
ATOM     32  C   UNL A   1      36.715  19.280  24.823  1.00  0.00     0.004 A 
ATOM     33  C   UNL A   1      38.195  21.123  25.328  1.00  0.00     0.019 A 
ATOM     34  Br  UNL A   1      37.488  23.806  25.750  1.00  0.00    -0.047 Br
ATOM     35  C   UNL A   1      37.996  19.765  25.081  1.00  0.00     0.001 A 
ENDBRANCH  28  29
ENDBRANCH  27  28
ENDBRANCH  25  27
ENDBRANCH  18  23
ENDBRANCH  14  17
ENDBRANCH   8  13
ENDBRANCH   4   7
ENDBRANCH   2   3
ENDBRANCH   1   2
BRANCH   1  36
ATOM     36  C   UNL A   1      35.149  34.686  28.809  1.00  0.00     0.002 C 
BRANCH  36  37
ATOM     37  C   UNL A   1      33.822  34.909  28.071  1.00  0.00     0.002 C 
BRANCH  37  38
ATOM     38  C   UNL A   1      32.895  35.957  28.690  1.00  0.00     0.021 C 
BRANCH  38  39
ATOM     39  C   UNL A   1      33.371  36.517  30.023  1.00  0.00     0.116 C 
BRANCH  39  40
ATOM     40  N   UNL A   1      32.385  36.356  31.075  1.00  0.00    -0.352 N 
ATOM     41  C   UNL A   1      32.441  35.565  32.198  1.00  0.00     0.251 C 
ATOM     42  H   UNL A   1      31.561  36.887  30.970  1.00  0.00     0.163 HD
ATOM     43  O   UNL A   1      31.446  35.428  32.898  1.00  0.00    -0.269 OA
BRANCH  41  44
ATOM     44  C   UNL A   1      33.702  34.871  32.543  1.00  0.00     0.039 A 
ATOM     45  C   UNL A   1      33.647  33.532  32.934  1.00  0.00     0.014 A 
ATOM     46  C   UNL A   1      34.928  35.539  32.499  1.00  0.00     0.014 A 
ATOM     47  C   UNL A   1      34.826  32.857  33.259  1.00  0.00     0.010 A 
ATOM     48  C   UNL A   1      36.109  34.841  32.732  1.00  0.00     0.010 A 
ATOM     49  C   UNL A   1      36.069  33.503  33.149  1.00  0.00    -0.014 A 
BRANCH  49  50
ATOM     50  C   UNL A   1      37.329  32.811  33.517  1.00  0.00     0.031 A 
ATOM     51  C   UNL A   1      38.102  33.253  34.733  1.00  0.00     0.074 A 
ATOM     52  C   UNL A   1      37.808  31.826  32.733  1.00  0.00     0.049 A 
ATOM     53  N   UNL A   1      39.220  32.780  35.216  1.00  0.00    -0.248 NA
ATOM     54  C   UNL A   1      37.565  34.399  35.486  1.00  0.00     0.031 C 
ATOM     55  C   UNL A   1      37.189  31.354  31.492  1.00  0.00     0.029 A 
ATOM     56  N   UNL A   1      38.933  31.052  32.857  1.00  0.00    -0.354 N 
ATOM     57  C   UNL A   1      39.542  33.594  36.296  1.00  0.00     0.074 A 
ATOM     58  C   UNL A   1      38.525  34.617  36.372  1.00  0.00     0.031 C 
ATOM     59  C   UNL A   1      37.929  30.355  30.985  1.00  0.00     0.029 A 
ATOM     60  C   UNL A   1      39.089  30.135  31.844  1.00  0.00     0.049 A 
ATOM     61  H   UNL A   1      39.572  31.144  33.602  1.00  0.00     0.167 HD
ATOM     62  C   UNL A   1      40.576  33.487  37.164  1.00  0.00     0.034 A 
ATOM     63  C   UNL A   1      40.053  29.219  31.636  1.00  0.00     0.034 A 
ATOM     64  C   UNL A   1      41.560  32.440  37.110  1.00  0.00     0.049 A 
ATOM     65  C   UNL A   1      41.167  29.090  32.639  1.00  0.00     0.074 A 
ATOM     66  C   UNL A   1      42.588  32.178  37.998  1.00  0.00     0.029 A 
ATOM     67  N   UNL A   1      41.646  31.489  36.106  1.00  0.00    -0.354 N 
ATOM     68  N   UNL A   1      41.367  29.768  33.743  1.00  0.00    -0.248 NA
ATOM     69  C   UNL A   1      42.167  28.043  32.388  1.00  0.00     0.031 C 
ATOM     70  C   UNL A   1      43.321  31.094  37.507  1.00  0.00     0.029 A 
ATOM     71  C   UNL A   1      42.720  30.648  36.340  1.00  0.00     0.049 A 
ATOM     72  H   UNL A   1      41.034  31.421  35.338  1.00  0.00     0.167 HD
ATOM     73  C   UNL A   1      42.482  29.196  34.346  1.00  0.00     0.074 A 
ATOM     74  C   UNL A   1      42.908  28.110  33.486  1.00  0.00     0.031 C 
ATOM     75  C   UNL A   1      43.101  29.539  35.503  1.00  0.00     0.034 A 
BRANCH  62  76
ATOM     76  C   UNL A   1      40.678  34.516  38.261  1.00  0.00     0.023 A 
ATOM     77  C   UNL A   1      41.495  35.654  38.090  1.00  0.00     0.012 A 
ATOM     78  C   UNL A   1      39.941  34.372  39.452  1.00  0.00     0.148 A 
ATOM     79  C   UNL A   1      41.615  36.602  39.106  1.00  0.00     0.002 A 
ATOM     80  C   UNL A   1      40.024  35.349  40.437  1.00  0.00     0.091 A 
ATOM     81  F   UNL A   1      39.186  33.274  39.608  1.00  0.00    -0.205 F 
ATOM     82  C   UNL A   1      40.873  36.455  40.274  1.00  0.00     0.022 A 
BRANCH  80  83
ATOM     83  S   UNL A   1      39.039  35.291  41.938  1.00  0.00     0.127 S 
ATOM     84  O   UNL A   1      39.362  36.580  42.551  1.00  0.00    -0.237 OA
ATOM     85  O   UNL A   1      37.679  35.192  41.408  1.00  0.00    -0.237 OA
ATOM     86  O   UNL A   1      39.491  34.118  42.671  1.00  0.00    -0.744 OA
ENDBRANCH  80  83
ENDBRANCH  62  76
BRANCH  63  87
ATOM     87  C   UNL A   1      39.958  28.286  30.476  1.00  0.00     0.023 A 
ATOM     88  C   UNL A   1      39.054  27.207  30.533  1.00  0.00     0.012 A 
ATOM     89  C   UNL A   1      40.734  28.472  29.317  1.00  0.00     0.148 A 
ATOM     90  C   UNL A   1      38.949  26.308  29.471  1.00  0.00     0.002 A 
ATOM     91  C   UNL A   1      40.586  27.606  28.240  1.00  0.00     0.091 A 
ATOM     92  F   UNL A   1      41.591  29.502  29.285  1.00  0.00    -0.205 F 
ATOM     93  C   UNL A   1      39.708  26.512  28.322  1.00  0.00     0.022 A 
BRANCH  91  94
ATOM     94  S   UNL A   1      41.426  27.858  26.673  1.00  0.00     0.127 S 
ATOM     95  O   UNL A   1      41.032  26.667  25.927  1.00  0.00    -0.237 OA
ATOM     96  O   UNL A   1      40.822  29.107  26.208  1.00  0.00    -0.237 OA
ATOM     97  O   UNL A   1      42.843  27.959  26.995  1.00  0.00    -0.744 OA
ENDBRANCH  91  94
ENDBRANCH  63  87
BRANCH  75  98
ATOM     98  C   UNL A   1      44.267  28.697  35.950  1.00  0.00     0.023 A 
ATOM     99  C   UNL A   1      45.568  28.978  35.489  1.00  0.00     0.012 A 
ATOM    100  C   UNL A   1      44.075  27.661  36.886  1.00  0.00     0.148 A 
ATOM    101  C   UNL A   1      46.652  28.213  35.919  1.00  0.00     0.002 A 
ATOM    102  C   UNL A   1      45.167  26.941  37.354  1.00  0.00     0.091 A 
ATOM    103  F   UNL A   1      42.827  27.395  37.299  1.00  0.00    -0.205 F 
ATOM    104  C   UNL A   1      46.454  27.205  36.860  1.00  0.00     0.022 A 
BRANCH 102 105
ATOM    105  S   UNL A   1      45.017  25.700  38.642  1.00  0.00     0.127 S 
ATOM    106  O   UNL A   1      44.559  24.537  37.884  1.00  0.00    -0.237 OA
ATOM    107  O   UNL A   1      46.389  25.601  39.141  1.00  0.00    -0.237 OA
ATOM    108  O   UNL A   1      44.063  26.234  39.606  1.00  0.00    -0.744 OA
ENDBRANCH 102 105
ENDBRANCH  75  98
ENDBRANCH  49  50
ENDBRANCH  41  44
ENDBRANCH  39  40
ENDBRANCH  38  39
ENDBRANCH  37  38
ENDBRANCH  36  37
ENDBRANCH   1  36
TORSDOF 22
ENDMDL
MODEL 3
REMARK VINA RESULT:     -11.1      3.940      8.990
REMARK SMILES O=C(COc1ccccc1Br)Nc1cccc(C(=O)Nc2ccc(C(=O)NCCCCCCNC(=O)c3ccc(-c4c5nc(c(-c6cccc(S(=O)(=O)[O-])c6F)c6ccc([nH]6)c(-c6cccc(S(=O)(=O)[O-])c6F)c6nc(c(-c7cccc(S(=O)(=O)[O-])c7F)c7ccc4[nH]7)C=C6)C=C5)cc3)cc2)c1
REMARK SMILES IDX 29 1 28 2 27 3 25 4 26 5 24 7 21 8 22 9 101 10 23 11 100 12
REMARK SMILES IDX 20 13 18 14 19 15 17 17 13 18 14 19 102 20 15 21 16 22 12 23
REMARK SMILES IDX 1 24 2 25 3 27 4 28 5 29 6 30 10 31 7 32 9 33 11 34 8 35
REMARK SMILES IDX 30 36 31 37 32 38 33 39 34 40 35 41 36 43 37 44 38 45 99 46
REMARK SMILES IDX 39 47 98 48 40 49 41 50 42 51 92 52 43 53 97 54 91 55 93 56
REMARK SMILES IDX 44 57 96 58 90 59 89 60 45 62 77 63 57 64 76 65 58 66 61 67
REMARK SMILES IDX 75 68 94 69 59 70 60 71 74 73 95 74 62 75 46 76 47 77 55 78
REMARK SMILES IDX 48 79 50 80 56 81 49 82 51 83 52 84 53 85 54 86 78 87 79 88
REMARK SMILES IDX 87 89 80 90 82 91 88 92 81 93 83 94 84 95 85 96 86 97 63 98
REMARK SMILES IDX 64 99 72 100 65 101 67 102 73 103 66 104 68 105 69 106
REMARK SMILES IDX 70 107 71 108
REMARK H PARENT 27 6 20 16 12 26 34 42 93 61 61 72
REMARK Flexibility Score: inf
ROOT
ATOM      1  C   UNL A   1      32.934  31.030  27.190  1.00  0.00     0.021 C 
ENDROOT
BRANCH   1   2
ATOM      2  C   UNL A   1      31.763  30.513  26.357  1.00  0.00     0.116 C 
BRANCH   2   3
ATOM      3  N   UNL A   1      32.233  30.053  25.064  1.00  0.00    -0.352 N 
ATOM      4  C   UNL A   1      32.252  28.840  24.425  1.00  0.00     0.251 C 
ATOM      5  O   UNL A   1      32.758  28.817  23.300  1.00  0.00    -0.269 OA
ATOM      6  H   UNL A   1      32.628  30.774  24.523  1.00  0.00     0.163 HD
BRANCH   4   7
ATOM      7  C   UNL A   1      31.621  27.599  24.960  1.00  0.00     0.039 A 
ATOM      8  C   UNL A   1      30.940  24.994  25.731  1.00  0.00     0.041 A 
ATOM      9  C   UNL A   1      31.945  25.671  26.419  1.00  0.00     0.027 A 
ATOM     10  C   UNL A   1      30.147  25.681  24.810  1.00  0.00     0.027 A 
ATOM     11  C   UNL A   1      32.308  26.954  26.004  1.00  0.00     0.016 A 
ATOM     12  C   UNL A   1      30.462  27.002  24.463  1.00  0.00     0.016 A 
BRANCH   8  13
ATOM     13  N   UNL A   1      30.843  23.611  25.927  1.00  0.00    -0.322 N 
ATOM     14  C   UNL A   1      31.623  22.582  25.423  1.00  0.00     0.255 C 
ATOM     15  O   UNL A   1      31.245  21.424  25.613  1.00  0.00    -0.269 OA
ATOM     16  H   UNL A   1      30.104  23.325  26.513  1.00  0.00     0.170 HD
BRANCH  14  17
ATOM     17  C   UNL A   1      32.959  22.802  24.777  1.00  0.00     0.042 A 
ATOM     18  C   UNL A   1      35.400  22.763  24.805  1.00  0.00     0.042 A 
ATOM     19  C   UNL A   1      35.420  23.237  23.492  1.00  0.00     0.026 A 
ATOM     20  C   UNL A   1      34.171  22.498  25.407  1.00  0.00     0.040 A 
ATOM     21  C   UNL A   1      34.225  23.425  22.798  1.00  0.00     0.003 A 
ATOM     22  C   UNL A   1      32.999  23.221  23.441  1.00  0.00     0.014 A 
BRANCH  18  23
ATOM     23  N   UNL A   1      36.634  22.508  25.432  1.00  0.00    -0.323 N 
ATOM     24  O   UNL A   1      37.143  20.334  24.727  1.00  0.00    -0.271 OA
ATOM     25  C   UNL A   1      37.438  21.388  25.280  1.00  0.00     0.262 C 
ATOM     26  H   UNL A   1      36.965  23.202  26.045  1.00  0.00     0.170 HD
BRANCH  25  27
ATOM     27  C   UNL A   1      38.830  21.579  25.865  1.00  0.00     0.329 C 
BRANCH  27  28
ATOM     28  O   UNL A   1      38.948  22.901  26.399  1.00  0.00    -0.483 OA
BRANCH  28  29
ATOM     29  C   UNL A   1      40.091  23.019  27.138  1.00  0.00     0.134 A 
ATOM     30  C   UNL A   1      40.844  21.855  27.304  1.00  0.00     0.047 A 
ATOM     31  C   UNL A   1      40.487  24.209  27.762  1.00  0.00     0.060 A 
ATOM     32  C   UNL A   1      42.009  21.885  28.065  1.00  0.00     0.004 A 
ATOM     33  C   UNL A   1      41.662  24.235  28.511  1.00  0.00     0.019 A 
ATOM     34  Br  UNL A   1      39.495  25.820  27.691  1.00  0.00    -0.047 Br
ATOM     35  C   UNL A   1      42.421  23.076  28.663  1.00  0.00     0.001 A 
ENDBRANCH  28  29
ENDBRANCH  27  28
ENDBRANCH  25  27
ENDBRANCH  18  23
ENDBRANCH  14  17
ENDBRANCH   8  13
ENDBRANCH   4   7
ENDBRANCH   2   3
ENDBRANCH   1   2
BRANCH   1  36
ATOM     36  C   UNL A   1      34.132  30.070  27.234  1.00  0.00     0.002 C 
BRANCH  36  37
ATOM     37  C   UNL A   1      35.324  30.534  28.082  1.00  0.00     0.002 C 
BRANCH  37  38
ATOM     38  C   UNL A   1      36.648  29.820  27.798  1.00  0.00     0.021 C 
BRANCH  38  39
ATOM     39  C   UNL A   1      37.388  29.341  29.039  1.00  0.00     0.116 C 
BRANCH  39  40
ATOM     40  N   UNL A   1      36.804  29.850  30.265  1.00  0.00    -0.352 N 
ATOM     41  C   UNL A   1      37.286  29.771  31.549  1.00  0.00     0.251 C 
ATOM     42  H   UNL A   1      35.942  30.317  30.163  1.00  0.00     0.163 HD
ATOM     43  O   UNL A   1      36.581  30.116  32.489  1.00  0.00    -0.269 OA
BRANCH  41  44
ATOM     44  C   UNL A   1      38.653  29.254  31.789  1.00  0.00     0.039 A 
ATOM     45  C   UNL A   1      39.721  30.153  31.794  1.00  0.00     0.014 A 
ATOM     46  C   UNL A   1      38.882  27.891  31.991  1.00  0.00     0.014 A 
ATOM     47  C   UNL A   1      41.017  29.686  32.024  1.00  0.00     0.010 A 
ATOM     48  C   UNL A   1      40.159  27.441  32.311  1.00  0.00     0.010 A 
ATOM     49  C   UNL A   1      41.246  28.328  32.296  1.00  0.00    -0.014 A 
BRANCH  49  50
ATOM     50  C   UNL A   1      42.619  27.809  32.515  1.00  0.00     0.031 A 
ATOM     51  C   UNL A   1      43.478  27.438  31.333  1.00  0.00     0.074 A 
ATOM     52  C   UNL A   1      43.074  27.619  33.768  1.00  0.00     0.049 A 
ATOM     53  N   UNL A   1      44.698  26.967  31.317  1.00  0.00    -0.248 NA
ATOM     54  C   UNL A   1      42.877  27.582  29.997  1.00  0.00     0.031 C 
ATOM     55  C   UNL A   1      42.313  27.875  34.993  1.00  0.00     0.029 A 
ATOM     56  N   UNL A   1      44.284  27.156  34.219  1.00  0.00    -0.354 N 
ATOM     57  C   UNL A   1      44.991  26.719  29.980  1.00  0.00     0.074 A 
ATOM     58  C   UNL A   1      43.808  27.050  29.220  1.00  0.00     0.031 C 
ATOM     59  C   UNL A   1      43.083  27.589  36.055  1.00  0.00     0.029 A 
ATOM     60  C   UNL A   1      44.379  27.103  35.590  1.00  0.00     0.049 A 
ATOM     61  H   UNL A   1      45.016  26.885  33.618  1.00  0.00     0.167 HD
ATOM     62  C   UNL A   1      46.148  26.280  29.430  1.00  0.00     0.034 A 
ATOM     63  C   UNL A   1      45.396  26.712  36.380  1.00  0.00     0.034 A 
ATOM     64  C   UNL A   1      47.336  25.995  30.188  1.00  0.00     0.049 A 
ATOM     65  C   UNL A   1      46.687  26.271  35.744  1.00  0.00     0.074 A 
ATOM     66  C   UNL A   1      48.590  25.644  29.722  1.00  0.00     0.029 A 
ATOM     67  N   UNL A   1      47.413  26.017  31.571  1.00  0.00    -0.354 N 
ATOM     68  N   UNL A   1      46.998  26.195  34.473  1.00  0.00    -0.248 NA
ATOM     69  C   UNL A   1      47.781  25.900  36.653  1.00  0.00     0.031 C 
ATOM     70  C   UNL A   1      49.415  25.411  30.828  1.00  0.00     0.029 A 
ATOM     71  C   UNL A   1      48.689  25.667  31.980  1.00  0.00     0.049 A 
ATOM     72  H   UNL A   1      46.671  26.245  32.175  1.00  0.00     0.167 HD
ATOM     73  C   UNL A   1      48.337  25.819  34.429  1.00  0.00     0.074 A 
ATOM     74  C   UNL A   1      48.778  25.693  35.804  1.00  0.00     0.031 C 
ATOM     75  C   UNL A   1      49.128  25.596  33.351  1.00  0.00     0.034 A 
BRANCH  62  76
ATOM     76  C   UNL A   1      46.189  26.107  27.933  1.00  0.00     0.023 A 
ATOM     77  C   UNL A   1      46.659  27.154  27.112  1.00  0.00     0.012 A 
ATOM     78  C   UNL A   1      45.790  24.894  27.339  1.00  0.00     0.148 A 
ATOM     79  C   UNL A   1      46.681  27.015  25.725  1.00  0.00     0.002 A 
ATOM     80  C   UNL A   1      45.866  24.743  25.959  1.00  0.00     0.091 A 
ATOM     81  F   UNL A   1      45.325  23.916  28.131  1.00  0.00    -0.205 F 
ATOM     82  C   UNL A   1      46.295  25.807  25.149  1.00  0.00     0.022 A 
BRANCH  80  83
ATOM     83  S   UNL A   1      45.474  23.198  25.134  1.00  0.00     0.127 S 
ATOM     84  O   UNL A   1      45.816  23.509  23.746  1.00  0.00    -0.237 OA
ATOM     85  O   UNL A   1      46.385  22.260  25.791  1.00  0.00    -0.237 OA
ATOM     86  O   UNL A   1      44.062  22.951  25.391  1.00  0.00    -0.744 OA
ENDBRANCH  80  83
ENDBRANCH  62  76
BRANCH  63  87
ATOM     87  C   UNL A   1      45.270  26.809  37.863  1.00  0.00     0.023 A 
ATOM     88  C   UNL A   1      44.974  25.649  38.606  1.00  0.00     0.012 A 
ATOM     89  C   UNL A   1      45.461  28.029  38.539  1.00  0.00     0.148 A 
ATOM     90  C   UNL A   1      44.836  25.708  39.993  1.00  0.00     0.002 A 
ATOM     91  C   UNL A   1      45.377  28.070  39.926  1.00  0.00     0.091 A 
ATOM     92  F   UNL A   1      45.738  29.120  37.813  1.00  0.00    -0.205 F 
ATOM     93  C   UNL A   1      45.046  26.915  40.654  1.00  0.00     0.022 A 
BRANCH  91  94
ATOM     94  S   UNL A   1      45.753  29.548  40.874  1.00  0.00     0.127 S 
ATOM     95  O   UNL A   1      44.449  30.199  40.944  1.00  0.00    -0.237 OA
ATOM     96  O   UNL A   1      46.229  28.980  42.136  1.00  0.00    -0.237 OA
ATOM     97  O   UNL A   1      46.772  30.258  40.113  1.00  0.00    -0.744 OA
ENDBRANCH  91  94
ENDBRANCH  63  87
BRANCH  75  98
ATOM     98  C   UNL A   1      50.574  25.254  33.602  1.00  0.00     0.023 A 
ATOM     99  C   UNL A   1      51.506  26.269  33.895  1.00  0.00     0.012 A 
ATOM    100  C   UNL A   1      50.992  23.908  33.613  1.00  0.00     0.148 A 
ATOM    101  C   UNL A   1      52.840  25.953  34.150  1.00  0.00     0.002 A 
ATOM    102  C   UNL A   1      52.309  23.597  33.924  1.00  0.00     0.091 A 
ATOM    103  F   UNL A   1      50.095  22.957  33.313  1.00  0.00    -0.205 F 
ATOM    104  C   UNL A   1      53.238  24.618  34.178  1.00  0.00     0.022 A 
BRANCH 102 105
ATOM    105  S   UNL A   1      52.881  21.903  34.087  1.00  0.00     0.127 S 
ATOM    106  O   UNL A   1      54.226  21.986  33.519  1.00  0.00    -0.237 OA
ATOM    107  O   UNL A   1      52.842  21.700  35.535  1.00  0.00    -0.237 OA
ATOM    108  O   UNL A   1      51.935  21.085  33.339  1.00  0.00    -0.744 OA
ENDBRANCH 102 105
ENDBRANCH  75  98
ENDBRANCH  49  50
ENDBRANCH  41  44
ENDBRANCH  39  40
ENDBRANCH  38  39
ENDBRANCH  37  38
ENDBRANCH  36  37
ENDBRANCH   1  36
TORSDOF 22
ENDMDL
