MODEL 1
REMARK VINA RESULT:     -11.0      0.000      0.000
REMARK SMILES Cc1sc2[nH]c(SCC(=O)NCCCCCCNC(=O)c3ccc(-c4c5nc(c(-c6cccc(S(=O)(=O)[O-])c6F)c6ccc([nH]6)c(-c6cccc(S(=O)(=O)[O-])c6F)c6nc(c(-c7cccc(S(=O)(=O)[O-])c7F)c7ccc4[nH]7)C=C6)C=C5)cc3)nc(=O)c2c1C
REMARK SMILES IDX 15 1 14 2 13 3 12 4 11 5 9 6 10 7 8 9 7 10 6 11 1 12 2 13
REMARK SMILES IDX 3 14 88 15 4 16 87 17 89 18 5 19 85 20 84 22 86 23 16 24
REMARK SMILES IDX 17 25 18 26 19 27 20 29 21 30 22 31 83 32 23 33 82 34 24 35
REMARK SMILES IDX 25 36 26 37 76 38 27 39 81 40 75 41 77 42 28 43 80 44 74 45
REMARK SMILES IDX 73 46 29 48 61 49 41 50 60 51 42 52 45 53 59 54 78 55 43 56
REMARK SMILES IDX 44 57 58 59 79 60 46 61 30 62 31 63 39 64 32 65 34 66 40 67
REMARK SMILES IDX 33 68 35 69 36 70 37 71 38 72 62 73 63 74 71 75 64 76 66 77
REMARK SMILES IDX 72 78 65 79 67 80 68 81 69 82 70 83 47 84 48 85 56 86 49 87
REMARK SMILES IDX 51 88 57 89 50 90 52 91 53 92 54 93 55 94
REMARK H PARENT 11 8 5 21 18 28 77 47 45 58
REMARK Flexibility Score: inf
ROOT
ATOM      1  C   UNL A   1      34.837  29.289  27.834  1.00  0.00     0.002 C 
ENDROOT
BRANCH   1   2
ATOM      2  C   UNL A   1      33.644  28.491  27.293  1.00  0.00     0.002 C 
BRANCH   2   3
ATOM      3  C   UNL A   1      33.774  28.026  25.836  1.00  0.00     0.021 C 
BRANCH   3   4
ATOM      4  C   UNL A   1      33.151  28.977  24.811  1.00  0.00     0.116 C 
BRANCH   4   5
ATOM      5  N   UNL A   1      33.836  28.902  23.534  1.00  0.00    -0.355 N 
ATOM      6  C   UNL A   1      33.579  28.136  22.434  1.00  0.00     0.230 C 
ATOM      7  O   UNL A   1      34.288  28.322  21.441  1.00  0.00    -0.274 OA
ATOM      8  H   UNL A   1      34.614  29.500  23.447  1.00  0.00     0.163 HD
BRANCH   6   9
ATOM      9  C   UNL A   1      32.383  27.205  22.378  1.00  0.00     0.178 C 
BRANCH   9  10
ATOM     10  S   UNL A   1      32.572  25.761  21.310  1.00  0.00    -0.078 SA
BRANCH  10  11
ATOM     11  C   UNL A   1      33.223  24.552  22.385  1.00  0.00     0.170 A 
ATOM     12  C   UNL A   1      33.312  18.875  24.793  1.00  0.00     0.057 C 
ATOM     13  C   UNL A   1      33.384  20.291  24.321  1.00  0.00     0.007 A 
ATOM     14  S   UNL A   1      32.145  20.887  23.295  1.00  0.00    -0.122 S 
ATOM     15  C   UNL A   1      34.358  21.251  24.581  1.00  0.00    -0.022 A 
ATOM     16  C   UNL A   1      32.897  22.388  23.171  1.00  0.00     0.108 A 
ATOM     17  C   UNL A   1      34.066  22.484  23.885  1.00  0.00     0.080 A 
ATOM     18  C   UNL A   1      35.560  21.051  25.449  1.00  0.00     0.046 C 
ATOM     19  N   UNL A   1      32.460  23.425  22.443  1.00  0.00    -0.326 N 
ATOM     20  C   UNL A   1      34.824  23.744  23.839  1.00  0.00     0.282 A 
ATOM     21  H   UNL A   1      31.605  23.372  21.959  1.00  0.00     0.169 HD
ATOM     22  N   UNL A   1      34.339  24.744  23.008  1.00  0.00    -0.185 NA
ATOM     23  O   UNL A   1      35.858  23.882  24.490  1.00  0.00    -0.267 OA
ENDBRANCH  10  11
ENDBRANCH   9  10
ENDBRANCH   6   9
ENDBRANCH   4   5
ENDBRANCH   3   4
ENDBRANCH   2   3
ENDBRANCH   1   2
BRANCH   1  24
ATOM     24  C   UNL A   1      34.888  30.774  27.426  1.00  0.00     0.021 C 
BRANCH  24  25
ATOM     25  C   UNL A   1      33.861  31.685  28.120  1.00  0.00     0.116 C 
BRANCH  25  26
ATOM     26  N   UNL A   1      34.509  32.895  28.596  1.00  0.00    -0.352 N 
ATOM     27  C   UNL A   1      35.508  33.073  29.512  1.00  0.00     0.251 C 
ATOM     28  H   UNL A   1      34.172  33.726  28.190  1.00  0.00     0.163 HD
ATOM     29  O   UNL A   1      35.545  34.142  30.120  1.00  0.00    -0.269 OA
BRANCH  27  30
ATOM     30  C   UNL A   1      36.561  32.062  29.764  1.00  0.00     0.039 A 
ATOM     31  C   UNL A   1      36.488  31.349  30.968  1.00  0.00     0.014 A 
ATOM     32  C   UNL A   1      37.705  31.956  28.968  1.00  0.00     0.014 A 
ATOM     33  C   UNL A   1      37.548  30.539  31.376  1.00  0.00     0.010 A 
ATOM     34  C   UNL A   1      38.771  31.141  29.380  1.00  0.00     0.010 A 
ATOM     35  C   UNL A   1      38.702  30.431  30.587  1.00  0.00    -0.014 A 
BRANCH  35  36
ATOM     36  C   UNL A   1      39.739  29.474  31.034  1.00  0.00     0.031 A 
ATOM     37  C   UNL A   1      39.791  28.188  30.256  1.00  0.00     0.074 A 
ATOM     38  C   UNL A   1      40.865  29.922  31.634  1.00  0.00     0.049 A 
ATOM     39  N   UNL A   1      40.428  28.024  29.133  1.00  0.00    -0.248 NA
ATOM     40  C   UNL A   1      38.886  27.081  30.578  1.00  0.00     0.031 C 
ATOM     41  C   UNL A   1      41.677  31.036  31.129  1.00  0.00     0.029 A 
ATOM     42  N   UNL A   1      41.639  29.360  32.630  1.00  0.00    -0.354 N 
ATOM     43  C   UNL A   1      39.995  26.828  28.576  1.00  0.00     0.074 A 
ATOM     44  C   UNL A   1      39.032  26.284  29.508  1.00  0.00     0.031 C 
ATOM     45  C   UNL A   1      42.899  30.976  31.699  1.00  0.00     0.029 A 
ATOM     46  C   UNL A   1      42.929  29.891  32.681  1.00  0.00     0.049 A 
ATOM     47  H   UNL A   1      41.315  28.657  33.239  1.00  0.00     0.167 HD
ATOM     48  C   UNL A   1      40.462  26.337  27.393  1.00  0.00     0.034 A 
ATOM     49  C   UNL A   1      44.034  29.184  33.062  1.00  0.00     0.034 A 
ATOM     50  C   UNL A   1      41.521  27.104  26.800  1.00  0.00     0.049 A 
ATOM     51  C   UNL A   1      44.339  28.460  31.768  1.00  0.00     0.074 A 
ATOM     52  C   UNL A   1      41.703  27.975  25.750  1.00  0.00     0.029 A 
ATOM     53  N   UNL A   1      42.756  27.027  27.398  1.00  0.00    -0.354 N 
ATOM     54  N   UNL A   1      44.861  28.986  30.688  1.00  0.00    -0.248 NA
ATOM     55  C   UNL A   1      43.617  27.206  31.549  1.00  0.00     0.031 C 
ATOM     56  C   UNL A   1      42.885  28.719  26.073  1.00  0.00     0.029 A 
ATOM     57  C   UNL A   1      43.353  28.256  27.302  1.00  0.00     0.049 A 
ATOM     58  H   UNL A   1      43.144  26.229  27.822  1.00  0.00     0.167 HD
ATOM     59  C   UNL A   1      44.237  28.324  29.624  1.00  0.00     0.074 A 
ATOM     60  C   UNL A   1      43.489  27.239  30.229  1.00  0.00     0.031 C 
ATOM     61  C   UNL A   1      44.217  28.785  28.337  1.00  0.00     0.034 A 
BRANCH  48  62
ATOM     62  C   UNL A   1      40.164  24.986  26.845  1.00  0.00     0.023 A 
ATOM     63  C   UNL A   1      38.804  24.705  26.600  1.00  0.00     0.012 A 
ATOM     64  C   UNL A   1      41.103  23.939  26.788  1.00  0.00     0.148 A 
ATOM     65  C   UNL A   1      38.371  23.405  26.351  1.00  0.00     0.002 A 
ATOM     66  C   UNL A   1      40.662  22.638  26.531  1.00  0.00     0.091 A 
ATOM     67  F   UNL A   1      42.392  24.217  27.031  1.00  0.00    -0.205 F 
ATOM     68  C   UNL A   1      39.298  22.372  26.325  1.00  0.00     0.022 A 
BRANCH  66  69
ATOM     69  S   UNL A   1      41.752  21.207  26.490  1.00  0.00     0.127 S 
ATOM     70  O   UNL A   1      42.330  21.223  27.832  1.00  0.00    -0.237 OA
ATOM     71  O   UNL A   1      40.808  20.115  26.246  1.00  0.00    -0.237 OA
ATOM     72  O   UNL A   1      42.692  21.448  25.403  1.00  0.00    -0.744 OA
ENDBRANCH  66  69
ENDBRANCH  48  62
BRANCH  49  73
ATOM     73  C   UNL A   1      43.940  28.493  34.400  1.00  0.00     0.023 A 
ATOM     74  C   UNL A   1      42.890  28.909  35.257  1.00  0.00     0.012 A 
ATOM     75  C   UNL A   1      44.780  27.462  34.866  1.00  0.00     0.148 A 
ATOM     76  C   UNL A   1      42.589  28.233  36.440  1.00  0.00     0.002 A 
ATOM     77  C   UNL A   1      44.452  26.761  36.028  1.00  0.00     0.091 A 
ATOM     78  F   UNL A   1      45.879  27.153  34.166  1.00  0.00    -0.205 F 
ATOM     79  C   UNL A   1      43.348  27.133  36.807  1.00  0.00     0.022 A 
BRANCH  77  80
ATOM     80  S   UNL A   1      45.353  25.300  36.572  1.00  0.00     0.127 S 
ATOM     81  O   UNL A   1      46.651  25.862  36.947  1.00  0.00    -0.237 OA
ATOM     82  O   UNL A   1      44.528  24.856  37.694  1.00  0.00    -0.237 OA
ATOM     83  O   UNL A   1      45.382  24.405  35.424  1.00  0.00    -0.744 OA
ENDBRANCH  77  80
ENDBRANCH  49  73
BRANCH  61  84
ATOM     84  C   UNL A   1      45.053  29.993  28.038  1.00  0.00     0.023 A 
ATOM     85  C   UNL A   1      46.390  29.790  27.650  1.00  0.00     0.012 A 
ATOM     86  C   UNL A   1      44.525  31.302  28.035  1.00  0.00     0.148 A 
ATOM     87  C   UNL A   1      47.183  30.859  27.238  1.00  0.00     0.002 A 
ATOM     88  C   UNL A   1      45.314  32.362  27.598  1.00  0.00     0.091 A 
ATOM     89  F   UNL A   1      43.258  31.491  28.432  1.00  0.00    -0.205 F 
ATOM     90  C   UNL A   1      46.642  32.141  27.199  1.00  0.00     0.022 A 
BRANCH  88  91
ATOM     91  S   UNL A   1      44.711  34.050  27.459  1.00  0.00     0.127 S 
ATOM     92  O   UNL A   1      45.922  34.777  27.076  1.00  0.00    -0.237 OA
ATOM     93  O   UNL A   1      43.715  33.930  26.394  1.00  0.00    -0.237 OA
ATOM     94  O   UNL A   1      44.172  34.404  28.766  1.00  0.00    -0.744 OA
ENDBRANCH  88  91
ENDBRANCH  61  84
ENDBRANCH  35  36
ENDBRANCH  27  30
ENDBRANCH  25  26
ENDBRANCH  24  25
ENDBRANCH   1  24
TORSDOF 18
ENDMDL
MODEL 2
REMARK VINA RESULT:     -10.9      1.622      2.100
REMARK SMILES Cc1sc2[nH]c(SCC(=O)NCCCCCCNC(=O)c3ccc(-c4c5nc(c(-c6cccc(S(=O)(=O)[O-])c6F)c6ccc([nH]6)c(-c6cccc(S(=O)(=O)[O-])c6F)c6nc(c(-c7cccc(S(=O)(=O)[O-])c7F)c7ccc4[nH]7)C=C6)C=C5)cc3)nc(=O)c2c1C
REMARK SMILES IDX 15 1 14 2 13 3 12 4 11 5 9 6 10 7 8 9 7 10 6 11 1 12 2 13
REMARK SMILES IDX 3 14 88 15 4 16 87 17 89 18 5 19 85 20 84 22 86 23 16 24
REMARK SMILES IDX 17 25 18 26 19 27 20 29 21 30 22 31 83 32 23 33 82 34 24 35
REMARK SMILES IDX 25 36 26 37 76 38 27 39 81 40 75 41 77 42 28 43 80 44 74 45
REMARK SMILES IDX 73 46 29 48 61 49 41 50 60 51 42 52 45 53 59 54 78 55 43 56
REMARK SMILES IDX 44 57 58 59 79 60 46 61 30 62 31 63 39 64 32 65 34 66 40 67
REMARK SMILES IDX 33 68 35 69 36 70 37 71 38 72 62 73 63 74 71 75 64 76 66 77
REMARK SMILES IDX 72 78 65 79 67 80 68 81 69 82 70 83 47 84 48 85 56 86 49 87
REMARK SMILES IDX 51 88 57 89 50 90 52 91 53 92 54 93 55 94
REMARK H PARENT 11 8 5 21 18 28 77 47 45 58
REMARK Flexibility Score: inf
ROOT
ATOM      1  C   UNL A   1      35.224  30.370  27.515  1.00  0.00     0.002 C 
ENDROOT
BRANCH   1   2
ATOM      2  C   UNL A   1      34.709  28.963  27.184  1.00  0.00     0.002 C 
BRANCH   2   3
ATOM      3  C   UNL A   1      33.811  28.869  25.943  1.00  0.00     0.021 C 
BRANCH   3   4
ATOM      4  C   UNL A   1      33.143  27.505  25.748  1.00  0.00     0.116 C 
BRANCH   4   5
ATOM      5  N   UNL A   1      33.774  26.756  24.677  1.00  0.00    -0.355 N 
ATOM      6  C   UNL A   1      33.293  25.740  23.903  1.00  0.00     0.230 C 
ATOM      7  O   UNL A   1      34.027  25.322  23.004  1.00  0.00    -0.274 OA
ATOM      8  H   UNL A   1      34.700  27.024  24.476  1.00  0.00     0.163 HD
BRANCH   6   9
ATOM      9  C   UNL A   1      31.865  25.247  24.040  1.00  0.00     0.178 C 
BRANCH   9  10
ATOM     10  S   UNL A   1      31.584  24.036  25.351  1.00  0.00    -0.078 SA
BRANCH  10  11
ATOM     11  C   UNL A   1      31.894  22.513  24.560  1.00  0.00     0.170 A 
ATOM     12  C   UNL A   1      33.043  16.454  24.656  1.00  0.00     0.057 C 
ATOM     13  C   UNL A   1      32.801  17.919  24.487  1.00  0.00     0.007 A 
ATOM     14  S   UNL A   1      32.807  18.927  25.875  1.00  0.00    -0.122 S 
ATOM     15  C   UNL A   1      32.542  18.633  23.320  1.00  0.00    -0.022 A 
ATOM     16  C   UNL A   1      32.443  20.288  24.953  1.00  0.00     0.108 A 
ATOM     17  C   UNL A   1      32.319  20.032  23.611  1.00  0.00     0.080 A 
ATOM     18  C   UNL A   1      32.483  18.051  21.944  1.00  0.00     0.046 C 
ATOM     19  N   UNL A   1      32.257  21.528  25.428  1.00  0.00    -0.326 N 
ATOM     20  C   UNL A   1      31.983  21.143  22.705  1.00  0.00     0.282 A 
ATOM     21  H   UNL A   1      32.381  21.722  26.385  1.00  0.00     0.169 HD
ATOM     22  N   UNL A   1      31.741  22.380  23.284  1.00  0.00    -0.185 NA
ATOM     23  O   UNL A   1      31.896  20.962  21.491  1.00  0.00    -0.267 OA
ENDBRANCH  10  11
ENDBRANCH   9  10
ENDBRANCH   6   9
ENDBRANCH   4   5
ENDBRANCH   3   4
ENDBRANCH   2   3
ENDBRANCH   1   2
BRANCH   1  24
ATOM     24  C   UNL A   1      34.142  31.422  27.825  1.00  0.00     0.021 C 
BRANCH  24  25
ATOM     25  C   UNL A   1      34.645  32.872  27.940  1.00  0.00     0.116 C 
BRANCH  25  26
ATOM     26  N   UNL A   1      34.506  33.340  29.308  1.00  0.00    -0.352 N 
ATOM     27  C   UNL A   1      34.928  32.793  30.487  1.00  0.00     0.251 C 
ATOM     28  H   UNL A   1      34.028  34.196  29.400  1.00  0.00     0.163 HD
ATOM     29  O   UNL A   1      34.290  33.063  31.505  1.00  0.00    -0.269 OA
BRANCH  27  30
ATOM     30  C   UNL A   1      36.133  31.938  30.595  1.00  0.00     0.039 A 
ATOM     31  C   UNL A   1      36.111  30.921  31.558  1.00  0.00     0.014 A 
ATOM     32  C   UNL A   1      37.329  32.242  29.940  1.00  0.00     0.014 A 
ATOM     33  C   UNL A   1      37.274  30.215  31.867  1.00  0.00     0.010 A 
ATOM     34  C   UNL A   1      38.498  31.532  30.253  1.00  0.00     0.010 A 
ATOM     35  C   UNL A   1      38.480  30.518  31.220  1.00  0.00    -0.014 A 
BRANCH  35  36
ATOM     36  C   UNL A   1      39.646  29.658  31.526  1.00  0.00     0.031 A 
ATOM     37  C   UNL A   1      39.742  28.404  30.701  1.00  0.00     0.074 A 
ATOM     38  C   UNL A   1      40.778  30.201  32.028  1.00  0.00     0.049 A 
ATOM     39  N   UNL A   1      40.273  28.335  29.515  1.00  0.00    -0.248 NA
ATOM     40  C   UNL A   1      38.987  27.204  31.070  1.00  0.00     0.031 C 
ATOM     41  C   UNL A   1      41.423  31.403  31.485  1.00  0.00     0.029 A 
ATOM     42  N   UNL A   1      41.701  29.692  32.920  1.00  0.00    -0.354 N 
ATOM     43  C   UNL A   1      39.903  27.116  28.960  1.00  0.00     0.074 A 
ATOM     44  C   UNL A   1      39.099  26.454  29.963  1.00  0.00     0.031 C 
ATOM     45  C   UNL A   1      42.696  31.451  31.928  1.00  0.00     0.029 A 
ATOM     46  C   UNL A   1      42.932  30.349  32.862  1.00  0.00     0.049 A 
ATOM     47  H   UNL A   1      41.512  28.945  33.532  1.00  0.00     0.167 HD
ATOM     48  C   UNL A   1      40.292  26.706  27.719  1.00  0.00     0.034 A 
ATOM     49  C   UNL A   1      44.134  29.746  33.105  1.00  0.00     0.034 A 
ATOM     50  C   UNL A   1      41.205  27.590  27.053  1.00  0.00     0.049 A 
ATOM     51  C   UNL A   1      44.374  29.091  31.761  1.00  0.00     0.074 A 
ATOM     52  C   UNL A   1      41.193  28.503  26.022  1.00  0.00     0.029 A 
ATOM     53  N   UNL A   1      42.497  27.623  27.522  1.00  0.00    -0.354 N 
ATOM     54  N   UNL A   1      44.729  29.695  30.655  1.00  0.00    -0.248 NA
ATOM     55  C   UNL A   1      43.758  27.778  31.569  1.00  0.00     0.031 C 
ATOM     56  C   UNL A   1      42.324  29.352  26.252  1.00  0.00     0.029 A 
ATOM     57  C   UNL A   1      42.958  28.907  27.411  1.00  0.00     0.049 A 
ATOM     58  H   UNL A   1      43.002  26.856  27.875  1.00  0.00     0.167 HD
ATOM     59  C   UNL A   1      44.066  29.002  29.634  1.00  0.00     0.074 A 
ATOM     60  C   UNL A   1      43.492  27.832  30.271  1.00  0.00     0.031 C 
ATOM     61  C   UNL A   1      43.869  29.492  28.373  1.00  0.00     0.034 A 
BRANCH  48  62
ATOM     62  C   UNL A   1      40.072  25.347  27.156  1.00  0.00     0.023 A 
ATOM     63  C   UNL A   1      38.769  25.074  26.690  1.00  0.00     0.012 A 
ATOM     64  C   UNL A   1      40.993  24.289  27.279  1.00  0.00     0.148 A 
ATOM     65  C   UNL A   1      38.366  23.774  26.396  1.00  0.00     0.002 A 
ATOM     66  C   UNL A   1      40.584  22.987  26.975  1.00  0.00     0.091 A 
ATOM     67  F   UNL A   1      42.226  24.559  27.730  1.00  0.00    -0.205 F 
ATOM     68  C   UNL A   1      39.270  22.731  26.548  1.00  0.00     0.022 A 
BRANCH  66  69
ATOM     69  S   UNL A   1      41.645  21.544  27.147  1.00  0.00     0.127 S 
ATOM     70  O   UNL A   1      40.699  20.516  27.573  1.00  0.00    -0.237 OA
ATOM     71  O   UNL A   1      42.152  21.379  25.783  1.00  0.00    -0.237 OA
ATOM     72  O   UNL A   1      42.658  21.905  28.129  1.00  0.00    -0.744 OA
ENDBRANCH  66  69
ENDBRANCH  48  62
BRANCH  49  73
ATOM     73  C   UNL A   1      44.245  29.015  34.419  1.00  0.00     0.023 A 
ATOM     74  C   UNL A   1      45.328  29.378  35.258  1.00  0.00     0.012 A 
ATOM     75  C   UNL A   1      43.364  28.025  34.899  1.00  0.00     0.148 A 
ATOM     76  C   UNL A   1      45.441  28.907  36.567  1.00  0.00     0.002 A 
ATOM     77  C   UNL A   1      43.455  27.584  36.221  1.00  0.00     0.091 A 
ATOM     78  F   UNL A   1      42.429  27.533  34.076  1.00  0.00    -0.205 F 
ATOM     79  C   UNL A   1      44.482  28.037  37.062  1.00  0.00     0.022 A 
BRANCH  77  80
ATOM     80  S   UNL A   1      42.243  26.484  36.968  1.00  0.00     0.127 S 
ATOM     81  O   UNL A   1      42.789  26.291  38.311  1.00  0.00    -0.237 OA
ATOM     82  O   UNL A   1      41.035  27.305  36.907  1.00  0.00    -0.237 OA
ATOM     83  O   UNL A   1      42.229  25.290  36.135  1.00  0.00    -0.744 OA
ENDBRANCH  77  80
ENDBRANCH  49  73
BRANCH  61  84
ATOM     84  C   UNL A   1      44.548  30.786  28.036  1.00  0.00     0.023 A 
ATOM     85  C   UNL A   1      45.813  30.726  27.423  1.00  0.00     0.012 A 
ATOM     86  C   UNL A   1      43.929  32.040  28.219  1.00  0.00     0.148 A 
ATOM     87  C   UNL A   1      46.442  31.884  26.972  1.00  0.00     0.002 A 
ATOM     88  C   UNL A   1      44.550  33.192  27.743  1.00  0.00     0.091 A 
ATOM     89  F   UNL A   1      42.735  32.092  28.829  1.00  0.00    -0.205 F 
ATOM     90  C   UNL A   1      45.806  33.113  27.119  1.00  0.00     0.022 A 
BRANCH  88  91
ATOM     91  S   UNL A   1      43.806  34.825  27.833  1.00  0.00     0.127 S 
ATOM     92  O   UNL A   1      43.249  34.834  29.187  1.00  0.00    -0.237 OA
ATOM     93  O   UNL A   1      44.966  35.697  27.651  1.00  0.00    -0.237 OA
ATOM     94  O   UNL A   1      42.818  34.888  26.764  1.00  0.00    -0.744 OA
ENDBRANCH  88  91
ENDBRANCH  61  84
ENDBRANCH  35  36
ENDBRANCH  27  30
ENDBRANCH  25  26
ENDBRANCH  24  25
ENDBRANCH   1  24
TORSDOF 18
ENDMDL
MODEL 3
REMARK VINA RESULT:     -10.9      2.445      8.647
REMARK SMILES Cc1sc2[nH]c(SCC(=O)NCCCCCCNC(=O)c3ccc(-c4c5nc(c(-c6cccc(S(=O)(=O)[O-])c6F)c6ccc([nH]6)c(-c6cccc(S(=O)(=O)[O-])c6F)c6nc(c(-c7cccc(S(=O)(=O)[O-])c7F)c7ccc4[nH]7)C=C6)C=C5)cc3)nc(=O)c2c1C
REMARK SMILES IDX 15 1 14 2 13 3 12 4 11 5 9 6 10 7 8 9 7 10 6 11 1 12 2 13
REMARK SMILES IDX 3 14 88 15 4 16 87 17 89 18 5 19 85 20 84 22 86 23 16 24
REMARK SMILES IDX 17 25 18 26 19 27 20 29 21 30 22 31 83 32 23 33 82 34 24 35
REMARK SMILES IDX 25 36 26 37 76 38 27 39 81 40 75 41 77 42 28 43 80 44 74 45
REMARK SMILES IDX 73 46 29 48 61 49 41 50 60 51 42 52 45 53 59 54 78 55 43 56
REMARK SMILES IDX 44 57 58 59 79 60 46 61 30 62 31 63 39 64 32 65 34 66 40 67
REMARK SMILES IDX 33 68 35 69 36 70 37 71 38 72 62 73 63 74 71 75 64 76 66 77
REMARK SMILES IDX 72 78 65 79 67 80 68 81 69 82 70 83 47 84 48 85 56 86 49 87
REMARK SMILES IDX 51 88 57 89 50 90 52 91 53 92 54 93 55 94
REMARK H PARENT 11 8 5 21 18 28 77 47 45 58
REMARK Flexibility Score: inf
ROOT
ATOM      1  C   UNL A   1      38.774  22.223  25.830  1.00  0.00     0.002 C 
ENDROOT
BRANCH   1   2
ATOM      2  C   UNL A   1      37.383  21.937  25.252  1.00  0.00     0.002 C 
BRANCH   2   3
ATOM      3  C   UNL A   1      36.832  23.014  24.306  1.00  0.00     0.021 C 
BRANCH   3   4
ATOM      4  C   UNL A   1      35.650  23.806  24.871  1.00  0.00     0.116 C 
BRANCH   4   5
ATOM      5  N   UNL A   1      35.209  23.262  26.143  1.00  0.00    -0.355 N 
ATOM      6  C   UNL A   1      34.156  22.447  26.441  1.00  0.00     0.230 C 
ATOM      7  O   UNL A   1      34.048  22.072  27.611  1.00  0.00    -0.274 OA
ATOM      8  H   UNL A   1      35.759  23.524  26.917  1.00  0.00     0.163 HD
BRANCH   6   9
ATOM      9  C   UNL A   1      33.245  21.901  25.357  1.00  0.00     0.178 C 
BRANCH   9  10
ATOM     10  S   UNL A   1      31.513  22.400  25.476  1.00  0.00    -0.078 SA
BRANCH  10  11
ATOM     11  C   UNL A   1      31.489  23.952  24.683  1.00  0.00     0.170 A 
ATOM     12  C   UNL A   1      28.638  29.123  22.902  1.00  0.00     0.057 C 
ATOM     13  C   UNL A   1      29.441  27.910  23.242  1.00  0.00     0.007 A 
ATOM     14  S   UNL A   1      28.645  26.551  23.920  1.00  0.00    -0.122 S 
ATOM     15  C   UNL A   1      30.810  27.701  23.102  1.00  0.00    -0.022 A 
ATOM     16  C   UNL A   1      30.093  25.704  24.056  1.00  0.00     0.108 A 
ATOM     17  C   UNL A   1      31.186  26.397  23.600  1.00  0.00     0.080 A 
ATOM     18  C   UNL A   1      31.782  28.684  22.531  1.00  0.00     0.046 C 
ATOM     19  N   UNL A   1      30.236  24.476  24.574  1.00  0.00    -0.326 N 
ATOM     20  C   UNL A   1      32.513  25.765  23.685  1.00  0.00     0.282 A 
ATOM     21  H   UNL A   1      29.450  23.962  24.869  1.00  0.00     0.169 HD
ATOM     22  N   UNL A   1      32.583  24.521  24.295  1.00  0.00    -0.185 NA
ATOM     23  O   UNL A   1      33.513  26.338  23.256  1.00  0.00    -0.267 OA
ENDBRANCH  10  11
ENDBRANCH   9  10
ENDBRANCH   6   9
ENDBRANCH   4   5
ENDBRANCH   3   4
ENDBRANCH   2   3
ENDBRANCH   1   2
BRANCH   1  24
ATOM     24  C   UNL A   1      39.570  20.990  26.297  1.00  0.00     0.021 C 
BRANCH  24  25
ATOM     25  C   UNL A   1      40.769  21.287  27.216  1.00  0.00     0.116 C 
BRANCH  25  26
ATOM     26  N   UNL A   1      41.985  21.394  26.429  1.00  0.00    -0.352 N 
ATOM     27  C   UNL A   1      42.550  22.466  25.798  1.00  0.00     0.251 C 
ATOM     28  H   UNL A   1      42.486  20.551  26.335  1.00  0.00     0.163 HD
ATOM     29  O   UNL A   1      43.253  22.247  24.811  1.00  0.00    -0.269 OA
BRANCH  27  30
ATOM     30  C   UNL A   1      42.392  23.859  26.276  1.00  0.00     0.039 A 
ATOM     31  C   UNL A   1      42.957  24.873  25.491  1.00  0.00     0.014 A 
ATOM     32  C   UNL A   1      41.904  24.165  27.550  1.00  0.00     0.014 A 
ATOM     33  C   UNL A   1      43.038  26.179  25.974  1.00  0.00     0.010 A 
ATOM     34  C   UNL A   1      41.986  25.479  28.034  1.00  0.00     0.010 A 
ATOM     35  C   UNL A   1      42.557  26.494  27.253  1.00  0.00    -0.014 A 
BRANCH  35  36
ATOM     36  C   UNL A   1      42.582  27.919  27.654  1.00  0.00     0.031 A 
ATOM     37  C   UNL A   1      41.232  28.571  27.761  1.00  0.00     0.074 A 
ATOM     38  C   UNL A   1      43.602  28.396  28.403  1.00  0.00     0.049 A 
ATOM     39  N   UNL A   1      40.460  28.512  28.808  1.00  0.00    -0.248 NA
ATOM     40  C   UNL A   1      40.560  29.103  26.573  1.00  0.00     0.031 C 
ATOM     41  C   UNL A   1      44.116  27.733  29.608  1.00  0.00     0.029 A 
ATOM     42  N   UNL A   1      44.209  29.636  28.411  1.00  0.00    -0.354 N 
ATOM     43  C   UNL A   1      39.200  28.956  28.426  1.00  0.00     0.074 A 
ATOM     44  C   UNL A   1      39.313  29.304  27.026  1.00  0.00     0.031 C 
ATOM     45  C   UNL A   1      44.829  28.626  30.325  1.00  0.00     0.029 A 
ATOM     46  C   UNL A   1      44.912  29.890  29.591  1.00  0.00     0.049 A 
ATOM     47  H   UNL A   1      44.152  30.274  27.664  1.00  0.00     0.167 HD
ATOM     48  C   UNL A   1      38.140  29.034  29.279  1.00  0.00     0.034 A 
ATOM     49  C   UNL A   1      45.058  31.131  30.143  1.00  0.00     0.034 A 
ATOM     50  C   UNL A   1      38.443  28.714  30.645  1.00  0.00     0.049 A 
ATOM     51  C   UNL A   1      43.730  31.256  30.859  1.00  0.00     0.074 A 
ATOM     52  C   UNL A   1      38.235  27.686  31.536  1.00  0.00     0.029 A 
ATOM     53  N   UNL A   1      39.170  29.639  31.355  1.00  0.00    -0.354 N 
ATOM     54  N   UNL A   1      43.380  30.641  31.960  1.00  0.00    -0.248 NA
ATOM     55  C   UNL A   1      42.612  31.750  30.054  1.00  0.00     0.031 C 
ATOM     56  C   UNL A   1      39.242  27.846  32.544  1.00  0.00     0.029 A 
ATOM     57  C   UNL A   1      40.003  28.964  32.206  1.00  0.00     0.049 A 
ATOM     58  H   UNL A   1      39.104  30.617  31.268  1.00  0.00     0.167 HD
ATOM     59  C   UNL A   1      42.016  30.366  31.805  1.00  0.00     0.074 A 
ATOM     60  C   UNL A   1      41.611  31.083  30.611  1.00  0.00     0.031 C 
ATOM     61  C   UNL A   1      41.328  29.444  32.543  1.00  0.00     0.034 A 
BRANCH  48  62
ATOM     62  C   UNL A   1      36.829  29.665  28.965  1.00  0.00     0.023 A 
ATOM     63  C   UNL A   1      36.057  29.026  27.974  1.00  0.00     0.012 A 
ATOM     64  C   UNL A   1      36.447  30.942  29.417  1.00  0.00     0.148 A 
ATOM     65  C   UNL A   1      34.955  29.655  27.401  1.00  0.00     0.002 A 
ATOM     66  C   UNL A   1      35.335  31.566  28.843  1.00  0.00     0.091 A 
ATOM     67  F   UNL A   1      37.193  31.543  30.354  1.00  0.00    -0.205 F 
ATOM     68  C   UNL A   1      34.600  30.928  27.830  1.00  0.00     0.022 A 
BRANCH  66  69
ATOM     69  S   UNL A   1      34.779  33.218  29.290  1.00  0.00     0.127 S 
ATOM     70  O   UNL A   1      34.322  33.026  30.664  1.00  0.00    -0.237 OA
ATOM     71  O   UNL A   1      36.012  33.996  29.160  1.00  0.00    -0.237 OA
ATOM     72  O   UNL A   1      33.740  33.566  28.330  1.00  0.00    -0.744 OA
ENDBRANCH  66  69
ENDBRANCH  48  62
BRANCH  49  73
ATOM     73  C   UNL A   1      45.614  32.193  29.228  1.00  0.00     0.023 A 
ATOM     74  C   UNL A   1      46.890  32.713  29.560  1.00  0.00     0.012 A 
ATOM     75  C   UNL A   1      44.997  32.697  28.066  1.00  0.00     0.148 A 
ATOM     76  C   UNL A   1      47.588  33.566  28.704  1.00  0.00     0.002 A 
ATOM     77  C   UNL A   1      45.712  33.518  27.190  1.00  0.00     0.091 A 
ATOM     78  F   UNL A   1      43.728  32.359  27.805  1.00  0.00    -0.205 F 
ATOM     79  C   UNL A   1      47.013  33.939  27.498  1.00  0.00     0.022 A 
BRANCH  77  80
ATOM     80  S   UNL A   1      45.069  34.029  25.589  1.00  0.00     0.127 S 
ATOM     81  O   UNL A   1      46.239  34.658  24.975  1.00  0.00    -0.237 OA
ATOM     82  O   UNL A   1      44.687  32.743  25.009  1.00  0.00    -0.237 OA
ATOM     83  O   UNL A   1      43.968  34.936  25.878  1.00  0.00    -0.744 OA
ENDBRANCH  77  80
ENDBRANCH  49  73
BRANCH  61  84
ATOM     84  C   UNL A   1      42.060  28.811  33.688  1.00  0.00     0.023 A 
ATOM     85  C   UNL A   1      41.974  29.430  34.948  1.00  0.00     0.012 A 
ATOM     86  C   UNL A   1      42.740  27.580  33.570  1.00  0.00     0.148 A 
ATOM     87  C   UNL A   1      42.525  28.829  36.077  1.00  0.00     0.002 A 
ATOM     88  C   UNL A   1      43.266  26.971  34.706  1.00  0.00     0.091 A 
ATOM     89  F   UNL A   1      42.841  27.008  32.361  1.00  0.00    -0.205 F 
ATOM     90  C   UNL A   1      43.158  27.595  35.959  1.00  0.00     0.022 A 
BRANCH  88  91
ATOM     91  S   UNL A   1      44.062  25.359  34.684  1.00  0.00     0.127 S 
ATOM     92  O   UNL A   1      44.630  25.280  36.031  1.00  0.00    -0.237 OA
ATOM     93  O   UNL A   1      42.927  24.465  34.452  1.00  0.00    -0.237 OA
ATOM     94  O   UNL A   1      45.042  25.397  33.607  1.00  0.00    -0.744 OA
ENDBRANCH  88  91
ENDBRANCH  61  84
ENDBRANCH  35  36
ENDBRANCH  27  30
ENDBRANCH  25  26
ENDBRANCH  24  25
ENDBRANCH   1  24
TORSDOF 18
ENDMDL
