MODEL 1
REMARK VINA RESULT:     -10.6      0.000      0.000
REMARK SMILES O=C(C[C@H]1CN(C(=O)c2c(F)cccc2Cl)CCO1)NCCCCCCNC(=O)c1ccc(-c2c3nc(c(-c4cccc(S(=O)(=O)[O-])c4F)c4ccc([nH]4)c(-c4cccc(S(=O)(=O)[O-])c4F)c4nc(c(-c5cccc(S(=O)(=O)[O-])c5F)c5ccc2[nH]5)C=C4)C=C3)cc1
REMARK SMILES IDX 23 1 22 2 21 3 20 4 1 5 2 6 3 8 4 9 5 10 19 11 6 12 18 13
REMARK SMILES IDX 17 14 7 15 8 16 9 17 10 18 15 19 11 20 12 21 14 22 16 23
REMARK SMILES IDX 13 24 24 25 25 26 26 27 27 28 28 29 29 31 30 32 31 33 92 34
REMARK SMILES IDX 32 35 91 36 33 37 34 38 35 39 85 40 36 41 90 42 84 43 86 44
REMARK SMILES IDX 37 45 89 46 83 47 82 48 38 50 70 51 50 52 69 53 51 54 54 55
REMARK SMILES IDX 68 56 87 57 52 58 53 59 67 61 88 62 55 63 39 64 40 65 48 66
REMARK SMILES IDX 41 67 43 68 49 69 42 70 44 71 45 72 46 73 47 74 71 75 72 76
REMARK SMILES IDX 80 77 73 78 75 79 81 80 74 81 76 82 77 83 78 84 79 85 56 86
REMARK SMILES IDX 57 87 65 88 58 89 60 90 66 91 59 92 61 93 62 94 63 95 64 96
REMARK H PARENT 20 7 27 30 86 49 54 60
REMARK Flexibility Score: inf
ROOT
ATOM      1  C   UNL A   1      38.813  22.755  26.107  1.00  0.00     0.002 C 
ENDROOT
BRANCH   1   2
ATOM      2  C   UNL A   1      37.865  23.938  26.362  1.00  0.00     0.021 C 
BRANCH   2   3
ATOM      3  C   UNL A   1      36.375  23.614  26.217  1.00  0.00     0.116 C 
BRANCH   3   4
ATOM      4  N   UNL A   1      35.736  24.565  25.331  1.00  0.00    -0.356 N 
ATOM      5  O   UNL A   1      33.619  24.411  26.218  1.00  0.00    -0.275 OA
ATOM      6  C   UNL A   1      34.383  24.817  25.350  1.00  0.00     0.222 C 
ATOM      7  H   UNL A   1      36.296  25.054  24.685  1.00  0.00     0.163 HD
BRANCH   6   8
ATOM      8  C   UNL A   1      33.891  25.515  24.106  1.00  0.00     0.133 C 
BRANCH   8   9
ATOM      9  C   UNL A   1      33.192  24.602  23.097  1.00  0.00     0.147 C 
ATOM     10  C   UNL A   1      31.664  24.592  23.336  1.00  0.00     0.152 C 
ATOM     11  O   UNL A   1      33.478  24.946  21.729  1.00  0.00    -0.374 OA
ATOM     12  N   UNL A   1      31.067  25.869  22.932  1.00  0.00    -0.334 N 
ATOM     13  C   UNL A   1      32.906  26.196  21.312  1.00  0.00     0.182 C 
ATOM     14  C   UNL A   1      31.394  26.250  21.557  1.00  0.00     0.148 C 
BRANCH  12  15
ATOM     15  C   UNL A   1      30.238  26.685  23.691  1.00  0.00     0.258 C 
ATOM     16  O   UNL A   1      29.023  26.766  23.529  1.00  0.00    -0.269 OA
BRANCH  15  17
ATOM     17  C   UNL A   1      30.820  27.493  24.771  1.00  0.00     0.094 A 
ATOM     18  C   UNL A   1      31.203  28.807  24.506  1.00  0.00     0.137 A 
ATOM     19  C   UNL A   1      30.938  26.994  26.070  1.00  0.00     0.056 A 
ATOM     20  F   UNL A   1      31.042  29.332  23.284  1.00  0.00    -0.206 F 
ATOM     21  C   UNL A   1      31.768  29.604  25.498  1.00  0.00     0.040 A 
ATOM     22  C   UNL A   1      31.481  27.802  27.078  1.00  0.00     0.021 A 
ATOM     23  Cl  UNL A   1      30.454  25.393  26.496  1.00  0.00    -0.083 Cl
ATOM     24  C   UNL A   1      31.909  29.100  26.789  1.00  0.00     0.005 A 
ENDBRANCH  15  17
ENDBRANCH  12  15
ENDBRANCH   8   9
ENDBRANCH   6   8
ENDBRANCH   3   4
ENDBRANCH   2   3
ENDBRANCH   1   2
BRANCH   1  25
ATOM     25  C   UNL A   1      38.136  21.452  25.673  1.00  0.00     0.002 C 
BRANCH  25  26
ATOM     26  C   UNL A   1      39.088  20.342  25.228  1.00  0.00     0.021 C 
BRANCH  26  27
ATOM     27  C   UNL A   1      39.671  19.503  26.359  1.00  0.00     0.116 C 
BRANCH  27  28
ATOM     28  N   UNL A   1      40.914  18.845  25.982  1.00  0.00    -0.352 N 
ATOM     29  C   UNL A   1      42.168  19.392  25.844  1.00  0.00     0.251 C 
ATOM     30  H   UNL A   1      40.848  17.880  25.801  1.00  0.00     0.163 HD
ATOM     31  O   UNL A   1      43.083  18.725  25.367  1.00  0.00    -0.269 OA
BRANCH  29  32
ATOM     32  C   UNL A   1      42.402  20.795  26.250  1.00  0.00     0.039 A 
ATOM     33  C   UNL A   1      42.601  21.088  27.602  1.00  0.00     0.014 A 
ATOM     34  C   UNL A   1      42.443  21.814  25.296  1.00  0.00     0.014 A 
ATOM     35  C   UNL A   1      42.908  22.397  27.989  1.00  0.00     0.010 A 
ATOM     36  C   UNL A   1      42.813  23.101  25.675  1.00  0.00     0.010 A 
ATOM     37  C   UNL A   1      43.047  23.408  27.025  1.00  0.00    -0.014 A 
BRANCH  37  38
ATOM     38  C   UNL A   1      43.439  24.794  27.391  1.00  0.00     0.031 A 
ATOM     39  C   UNL A   1      42.423  25.724  28.000  1.00  0.00     0.074 A 
ATOM     40  C   UNL A   1      44.667  25.252  27.071  1.00  0.00     0.049 A 
ATOM     41  N   UNL A   1      42.530  26.999  28.272  1.00  0.00    -0.248 NA
ATOM     42  C   UNL A   1      41.102  25.154  28.319  1.00  0.00     0.031 C 
ATOM     43  C   UNL A   1      45.718  24.473  26.413  1.00  0.00     0.029 A 
ATOM     44  N   UNL A   1      45.225  26.498  27.219  1.00  0.00    -0.354 N 
ATOM     45  C   UNL A   1      41.282  27.394  28.738  1.00  0.00     0.074 A 
ATOM     46  C   UNL A   1      40.427  26.228  28.702  1.00  0.00     0.031 C 
ATOM     47  C   UNL A   1      46.786  25.259  26.205  1.00  0.00     0.029 A 
ATOM     48  C   UNL A   1      46.489  26.606  26.685  1.00  0.00     0.049 A 
ATOM     49  H   UNL A   1      44.764  27.245  27.666  1.00  0.00     0.167 HD
ATOM     50  C   UNL A   1      40.890  28.612  29.180  1.00  0.00     0.034 A 
ATOM     51  C   UNL A   1      47.309  27.671  26.579  1.00  0.00     0.034 A 
ATOM     52  C   UNL A   1      41.761  29.750  29.284  1.00  0.00     0.049 A 
ATOM     53  C   UNL A   1      46.862  28.998  27.135  1.00  0.00     0.074 A 
ATOM     54  C   UNL A   1      41.486  30.995  29.823  1.00  0.00     0.029 A 
ATOM     55  N   UNL A   1      43.073  29.786  28.841  1.00  0.00    -0.354 N 
ATOM     56  N   UNL A   1      45.735  29.306  27.729  1.00  0.00    -0.248 NA
ATOM     57  C   UNL A   1      47.813  30.116  27.038  1.00  0.00     0.031 C 
ATOM     58  C   UNL A   1      42.628  31.790  29.691  1.00  0.00     0.029 A 
ATOM     59  C   UNL A   1      43.620  31.032  29.089  1.00  0.00     0.049 A 
ATOM     60  H   UNL A   1      43.546  29.037  28.414  1.00  0.00     0.167 HD
ATOM     61  C   UNL A   1      45.861  30.634  28.119  1.00  0.00     0.074 A 
ATOM     62  C   UNL A   1      47.178  31.070  27.706  1.00  0.00     0.031 C 
ATOM     63  C   UNL A   1      44.960  31.428  28.748  1.00  0.00     0.034 A 
BRANCH  50  64
ATOM     64  C   UNL A   1      39.469  28.776  29.647  1.00  0.00     0.023 A 
ATOM     65  C   UNL A   1      39.128  28.428  30.970  1.00  0.00     0.012 A 
ATOM     66  C   UNL A   1      38.499  29.366  28.813  1.00  0.00     0.148 A 
ATOM     67  C   UNL A   1      37.837  28.646  31.449  1.00  0.00     0.002 A 
ATOM     68  C   UNL A   1      37.226  29.620  29.312  1.00  0.00     0.091 A 
ATOM     69  F   UNL A   1      38.840  29.672  27.554  1.00  0.00    -0.205 F 
ATOM     70  C   UNL A   1      36.892  29.253  30.626  1.00  0.00     0.022 A 
BRANCH  68  71
ATOM     71  S   UNL A   1      35.960  30.467  28.360  1.00  0.00     0.127 S 
ATOM     72  O   UNL A   1      35.137  31.050  29.419  1.00  0.00    -0.237 OA
ATOM     73  O   UNL A   1      36.748  31.435  27.596  1.00  0.00    -0.237 OA
ATOM     74  O   UNL A   1      35.306  29.444  27.557  1.00  0.00    -0.744 OA
ENDBRANCH  68  71
ENDBRANCH  50  64
BRANCH  51  75
ATOM     75  C   UNL A   1      48.664  27.523  25.975  1.00  0.00     0.023 A 
ATOM     76  C   UNL A   1      49.766  27.255  26.812  1.00  0.00     0.012 A 
ATOM     77  C   UNL A   1      48.873  27.651  24.590  1.00  0.00     0.148 A 
ATOM     78  C   UNL A   1      51.055  27.160  26.287  1.00  0.00     0.002 A 
ATOM     79  C   UNL A   1      50.154  27.500  24.065  1.00  0.00     0.091 A 
ATOM     80  F   UNL A   1      47.819  27.923  23.807  1.00  0.00    -0.205 F 
ATOM     81  C   UNL A   1      51.247  27.274  24.914  1.00  0.00     0.022 A 
BRANCH  79  82
ATOM     82  S   UNL A   1      50.463  27.501  22.295  1.00  0.00     0.127 S 
ATOM     83  O   UNL A   1      51.839  27.019  22.231  1.00  0.00    -0.237 OA
ATOM     84  O   UNL A   1      49.456  26.557  21.806  1.00  0.00    -0.237 OA
ATOM     85  O   UNL A   1      50.244  28.877  21.869  1.00  0.00    -0.744 OA
ENDBRANCH  79  82
ENDBRANCH  51  75
BRANCH  63  86
ATOM     86  C   UNL A   1      45.374  32.833  29.093  1.00  0.00     0.023 A 
ATOM     87  C   UNL A   1      46.056  33.090  30.297  1.00  0.00     0.012 A 
ATOM     88  C   UNL A   1      45.176  33.881  28.170  1.00  0.00     0.148 A 
ATOM     89  C   UNL A   1      46.514  34.373  30.591  1.00  0.00     0.002 A 
ATOM     90  C   UNL A   1      45.678  35.146  28.449  1.00  0.00     0.091 A 
ATOM     91  F   UNL A   1      44.508  33.618  27.038  1.00  0.00    -0.205 F 
ATOM     92  C   UNL A   1      46.338  35.397  29.662  1.00  0.00     0.022 A 
BRANCH  90  93
ATOM     93  S   UNL A   1      45.584  36.498  27.268  1.00  0.00     0.127 S 
ATOM     94  O   UNL A   1      46.272  35.929  26.110  1.00  0.00    -0.237 OA
ATOM     95  O   UNL A   1      44.140  36.664  27.100  1.00  0.00    -0.237 OA
ATOM     96  O   UNL A   1      46.251  37.629  27.899  1.00  0.00    -0.744 OA
ENDBRANCH  90  93
ENDBRANCH  63  86
ENDBRANCH  37  38
ENDBRANCH  29  32
ENDBRANCH  27  28
ENDBRANCH  26  27
ENDBRANCH  25  26
ENDBRANCH   1  25
TORSDOF 19
ENDMDL
MODEL 2
REMARK VINA RESULT:     -10.3      2.000      7.521
REMARK SMILES O=C(C[C@H]1CN(C(=O)c2c(F)cccc2Cl)CCO1)NCCCCCCNC(=O)c1ccc(-c2c3nc(c(-c4cccc(S(=O)(=O)[O-])c4F)c4ccc([nH]4)c(-c4cccc(S(=O)(=O)[O-])c4F)c4nc(c(-c5cccc(S(=O)(=O)[O-])c5F)c5ccc2[nH]5)C=C4)C=C3)cc1
REMARK SMILES IDX 23 1 22 2 21 3 20 4 1 5 2 6 3 8 4 9 5 10 19 11 6 12 18 13
REMARK SMILES IDX 17 14 7 15 8 16 9 17 10 18 15 19 11 20 12 21 14 22 16 23
REMARK SMILES IDX 13 24 24 25 25 26 26 27 27 28 28 29 29 31 30 32 31 33 92 34
REMARK SMILES IDX 32 35 91 36 33 37 34 38 35 39 85 40 36 41 90 42 84 43 86 44
REMARK SMILES IDX 37 45 89 46 83 47 82 48 38 50 70 51 50 52 69 53 51 54 54 55
REMARK SMILES IDX 68 56 87 57 52 58 53 59 67 61 88 62 55 63 39 64 40 65 48 66
REMARK SMILES IDX 41 67 43 68 49 69 42 70 44 71 45 72 46 73 47 74 71 75 72 76
REMARK SMILES IDX 80 77 73 78 75 79 81 80 74 81 76 82 77 83 78 84 79 85 56 86
REMARK SMILES IDX 57 87 65 88 58 89 60 90 66 91 59 92 61 93 62 94 63 95 64 96
REMARK H PARENT 20 7 27 30 86 49 54 60
REMARK Flexibility Score: inf
ROOT
ATOM      1  C   UNL A   1      39.102  22.865  26.246  1.00  0.00     0.002 C 
ENDROOT
BRANCH   1   2
ATOM      2  C   UNL A   1      38.008  23.937  26.381  1.00  0.00     0.021 C 
BRANCH   2   3
ATOM      3  C   UNL A   1      36.591  23.457  26.055  1.00  0.00     0.116 C 
BRANCH   3   4
ATOM      4  N   UNL A   1      35.908  24.427  25.223  1.00  0.00    -0.356 N 
ATOM      5  O   UNL A   1      33.910  24.433  26.364  1.00  0.00    -0.275 OA
ATOM      6  C   UNL A   1      34.586  24.768  25.398  1.00  0.00     0.222 C 
ATOM      7  H   UNL A   1      36.414  24.864  24.500  1.00  0.00     0.163 HD
BRANCH   6   8
ATOM      8  C   UNL A   1      33.991  25.468  24.202  1.00  0.00     0.133 C 
BRANCH   8   9
ATOM      9  C   UNL A   1      33.322  24.539  23.187  1.00  0.00     0.147 C 
ATOM     10  C   UNL A   1      31.803  24.433  23.460  1.00  0.00     0.152 C 
ATOM     11  O   UNL A   1      33.555  24.929  21.821  1.00  0.00    -0.374 OA
ATOM     12  N   UNL A   1      31.123  25.682  23.100  1.00  0.00    -0.334 N 
ATOM     13  C   UNL A   1      32.901  26.154  21.447  1.00  0.00     0.182 C 
ATOM     14  C   UNL A   1      31.395  26.112  21.728  1.00  0.00     0.148 C 
BRANCH  12  15
ATOM     15  C   UNL A   1      30.267  26.430  23.897  1.00  0.00     0.258 C 
ATOM     16  O   UNL A   1      29.044  26.308  23.890  1.00  0.00    -0.269 OA
BRANCH  15  17
ATOM     17  C   UNL A   1      30.831  27.419  24.826  1.00  0.00     0.094 A 
ATOM     18  C   UNL A   1      31.222  27.008  26.100  1.00  0.00     0.137 A 
ATOM     19  C   UNL A   1      31.043  28.743  24.438  1.00  0.00     0.056 A 
ATOM     20  F   UNL A   1      31.090  25.729  26.476  1.00  0.00    -0.206 F 
ATOM     21  C   UNL A   1      31.752  27.914  27.015  1.00  0.00     0.040 A 
ATOM     22  C   UNL A   1      31.601  29.652  25.347  1.00  0.00     0.021 A 
ATOM     23  Cl  UNL A   1      30.624  29.328  22.869  1.00  0.00    -0.083 Cl
ATOM     24  C   UNL A   1      31.942  29.242  26.638  1.00  0.00     0.005 A 
ENDBRANCH  15  17
ENDBRANCH  12  15
ENDBRANCH   8   9
ENDBRANCH   6   8
ENDBRANCH   3   4
ENDBRANCH   2   3
ENDBRANCH   1   2
BRANCH   1  25
ATOM     25  C   UNL A   1      38.598  21.424  26.118  1.00  0.00     0.002 C 
BRANCH  25  26
ATOM     26  C   UNL A   1      39.605  20.433  25.534  1.00  0.00     0.021 C 
BRANCH  26  27
ATOM     27  C   UNL A   1      40.350  19.591  26.563  1.00  0.00     0.116 C 
BRANCH  27  28
ATOM     28  N   UNL A   1      41.643  19.131  26.076  1.00  0.00    -0.352 N 
ATOM     29  C   UNL A   1      42.775  19.866  25.815  1.00  0.00     0.251 C 
ATOM     30  H   UNL A   1      41.716  18.163  25.911  1.00  0.00     0.163 HD
ATOM     31  O   UNL A   1      43.737  19.342  25.260  1.00  0.00    -0.269 OA
BRANCH  29  32
ATOM     32  C   UNL A   1      42.816  21.298  26.186  1.00  0.00     0.039 A 
ATOM     33  C   UNL A   1      42.919  21.650  27.534  1.00  0.00     0.014 A 
ATOM     34  C   UNL A   1      42.774  22.288  25.201  1.00  0.00     0.014 A 
ATOM     35  C   UNL A   1      43.046  22.997  27.891  1.00  0.00     0.010 A 
ATOM     36  C   UNL A   1      42.966  23.621  25.553  1.00  0.00     0.010 A 
ATOM     37  C   UNL A   1      43.101  23.991  26.901  1.00  0.00    -0.014 A 
BRANCH  37  38
ATOM     38  C   UNL A   1      43.304  25.425  27.239  1.00  0.00     0.031 A 
ATOM     39  C   UNL A   1      44.690  26.012  27.206  1.00  0.00     0.074 A 
ATOM     40  C   UNL A   1      42.268  26.163  27.685  1.00  0.00     0.049 A 
ATOM     41  N   UNL A   1      45.093  27.197  27.585  1.00  0.00    -0.248 NA
ATOM     42  C   UNL A   1      45.773  25.144  26.710  1.00  0.00     0.031 C 
ATOM     43  C   UNL A   1      40.890  25.690  27.832  1.00  0.00     0.029 A 
ATOM     44  N   UNL A   1      42.221  27.459  28.138  1.00  0.00    -0.354 N 
ATOM     45  C   UNL A   1      46.474  27.198  27.427  1.00  0.00     0.074 A 
ATOM     46  C   UNL A   1      46.845  25.892  26.930  1.00  0.00     0.031 C 
ATOM     47  C   UNL A   1      40.137  26.676  28.349  1.00  0.00     0.029 A 
ATOM     48  C   UNL A   1      40.982  27.840  28.599  1.00  0.00     0.049 A 
ATOM     49  H   UNL A   1      43.002  28.060  28.133  1.00  0.00     0.167 HD
ATOM     50  C   UNL A   1      47.351  28.204  27.652  1.00  0.00     0.034 A 
ATOM     51  C   UNL A   1      40.575  28.990  29.174  1.00  0.00     0.034 A 
ATOM     52  C   UNL A   1      46.972  29.524  28.077  1.00  0.00     0.049 A 
ATOM     53  C   UNL A   1      41.566  30.109  29.355  1.00  0.00     0.074 A 
ATOM     54  C   UNL A   1      47.775  30.641  28.225  1.00  0.00     0.029 A 
ATOM     55  N   UNL A   1      45.686  29.906  28.421  1.00  0.00    -0.354 N 
ATOM     56  N   UNL A   1      42.837  30.145  29.037  1.00  0.00    -0.248 NA
ATOM     57  C   UNL A   1      41.060  31.361  29.941  1.00  0.00     0.031 C 
ATOM     58  C   UNL A   1      46.977  31.696  28.676  1.00  0.00     0.029 A 
ATOM     59  C   UNL A   1      45.673  31.240  28.787  1.00  0.00     0.049 A 
ATOM     60  H   UNL A   1      44.898  29.316  28.408  1.00  0.00     0.167 HD
ATOM     61  C   UNL A   1      43.268  31.432  29.339  1.00  0.00     0.074 A 
ATOM     62  C   UNL A   1      42.122  32.151  29.851  1.00  0.00     0.031 C 
ATOM     63  C   UNL A   1      44.509  31.966  29.217  1.00  0.00     0.034 A 
BRANCH  50  64
ATOM     64  C   UNL A   1      48.811  27.948  27.389  1.00  0.00     0.023 A 
ATOM     65  C   UNL A   1      49.347  28.232  26.117  1.00  0.00     0.012 A 
ATOM     66  C   UNL A   1      49.667  27.525  28.424  1.00  0.00     0.148 A 
ATOM     67  C   UNL A   1      50.710  28.079  25.872  1.00  0.00     0.002 A 
ATOM     68  C   UNL A   1      51.032  27.416  28.185  1.00  0.00     0.091 A 
ATOM     69  F   UNL A   1      49.133  27.244  29.621  1.00  0.00    -0.205 F 
ATOM     70  C   UNL A   1      51.553  27.684  26.908  1.00  0.00     0.022 A 
BRANCH  68  71
ATOM     71  S   UNL A   1      52.213  26.992  29.470  1.00  0.00     0.127 S 
ATOM     72  O   UNL A   1      52.281  28.238  30.231  1.00  0.00    -0.237 OA
ATOM     73  O   UNL A   1      51.535  25.892  30.158  1.00  0.00    -0.237 OA
ATOM     74  O   UNL A   1      53.440  26.616  28.782  1.00  0.00    -0.744 OA
ENDBRANCH  68  71
ENDBRANCH  50  64
BRANCH  51  75
ATOM     75  C   UNL A   1      39.148  29.173  29.567  1.00  0.00     0.023 A 
ATOM     76  C   UNL A   1      38.744  28.833  30.874  1.00  0.00     0.012 A 
ATOM     77  C   UNL A   1      38.191  29.673  28.664  1.00  0.00     0.148 A 
ATOM     78  C   UNL A   1      37.409  28.946  31.260  1.00  0.00     0.002 A 
ATOM     79  C   UNL A   1      36.871  29.836  29.073  1.00  0.00     0.091 A 
ATOM     80  F   UNL A   1      38.586  29.978  27.419  1.00  0.00    -0.205 F 
ATOM     81  C   UNL A   1      36.474  29.455  30.363  1.00  0.00     0.022 A 
BRANCH  79  82
ATOM     82  S   UNL A   1      35.638  30.608  28.019  1.00  0.00     0.127 S 
ATOM     83  O   UNL A   1      34.517  30.773  28.941  1.00  0.00    -0.237 OA
ATOM     84  O   UNL A   1      36.302  31.853  27.628  1.00  0.00    -0.237 OA
ATOM     85  O   UNL A   1      35.433  29.674  26.921  1.00  0.00    -0.744 OA
ENDBRANCH  79  82
ENDBRANCH  51  75
BRANCH  63  86
ATOM     86  C   UNL A   1      44.693  33.415  29.582  1.00  0.00     0.023 A 
ATOM     87  C   UNL A   1      45.125  33.764  30.875  1.00  0.00     0.012 A 
ATOM     88  C   UNL A   1      44.536  34.421  28.607  1.00  0.00     0.148 A 
ATOM     89  C   UNL A   1      45.374  35.096  31.202  1.00  0.00     0.002 A 
ATOM     90  C   UNL A   1      44.834  35.740  28.926  1.00  0.00     0.091 A 
ATOM     91  F   UNL A   1      44.107  34.068  27.387  1.00  0.00    -0.205 F 
ATOM     92  C   UNL A   1      45.243  36.081  30.225  1.00  0.00     0.022 A 
BRANCH  90  93
ATOM     93  S   UNL A   1      44.789  37.057  27.704  1.00  0.00     0.127 S 
ATOM     94  O   UNL A   1      45.626  36.505  26.640  1.00  0.00    -0.237 OA
ATOM     95  O   UNL A   1      43.363  37.133  27.382  1.00  0.00    -0.237 OA
ATOM     96  O   UNL A   1      45.320  38.240  28.369  1.00  0.00    -0.744 OA
ENDBRANCH  90  93
ENDBRANCH  63  86
ENDBRANCH  37  38
ENDBRANCH  29  32
ENDBRANCH  27  28
ENDBRANCH  26  27
ENDBRANCH  25  26
ENDBRANCH   1  25
TORSDOF 19
ENDMDL
MODEL 3
REMARK VINA RESULT:     -10.2      6.646     10.303
REMARK SMILES O=C(C[C@H]1CN(C(=O)c2c(F)cccc2Cl)CCO1)NCCCCCCNC(=O)c1ccc(-c2c3nc(c(-c4cccc(S(=O)(=O)[O-])c4F)c4ccc([nH]4)c(-c4cccc(S(=O)(=O)[O-])c4F)c4nc(c(-c5cccc(S(=O)(=O)[O-])c5F)c5ccc2[nH]5)C=C4)C=C3)cc1
REMARK SMILES IDX 23 1 22 2 21 3 20 4 1 5 2 6 3 8 4 9 5 10 19 11 6 12 18 13
REMARK SMILES IDX 17 14 7 15 8 16 9 17 10 18 15 19 11 20 12 21 14 22 16 23
REMARK SMILES IDX 13 24 24 25 25 26 26 27 27 28 28 29 29 31 30 32 31 33 92 34
REMARK SMILES IDX 32 35 91 36 33 37 34 38 35 39 85 40 36 41 90 42 84 43 86 44
REMARK SMILES IDX 37 45 89 46 83 47 82 48 38 50 70 51 50 52 69 53 51 54 54 55
REMARK SMILES IDX 68 56 87 57 52 58 53 59 67 61 88 62 55 63 39 64 40 65 48 66
REMARK SMILES IDX 41 67 43 68 49 69 42 70 44 71 45 72 46 73 47 74 71 75 72 76
REMARK SMILES IDX 80 77 73 78 75 79 81 80 74 81 76 82 77 83 78 84 79 85 56 86
REMARK SMILES IDX 57 87 65 88 58 89 60 90 66 91 59 92 61 93 62 94 63 95 64 96
REMARK H PARENT 20 7 27 30 86 49 54 60
REMARK Flexibility Score: inf
ROOT
ATOM      1  C   UNL A   1      34.871  31.717  28.197  1.00  0.00     0.002 C 
ENDROOT
BRANCH   1   2
ATOM      2  C   UNL A   1      35.457  30.498  27.466  1.00  0.00     0.021 C 
BRANCH   2   3
ATOM      3  C   UNL A   1      34.711  29.182  27.708  1.00  0.00     0.116 C 
BRANCH   3   4
ATOM      4  N   UNL A   1      33.909  28.837  26.551  1.00  0.00    -0.356 N 
ATOM      5  O   UNL A   1      31.867  28.808  27.611  1.00  0.00    -0.275 OA
ATOM      6  C   UNL A   1      32.557  28.590  26.622  1.00  0.00     0.222 C 
ATOM      7  H   UNL A   1      34.353  28.776  25.674  1.00  0.00     0.163 HD
BRANCH   6   8
ATOM      8  C   UNL A   1      32.021  27.871  25.409  1.00  0.00     0.133 C 
BRANCH   8   9
ATOM      9  C   UNL A   1      32.450  28.473  24.069  1.00  0.00     0.147 C 
ATOM     10  C   UNL A   1      33.356  27.489  23.292  1.00  0.00     0.152 C 
ATOM     11  O   UNL A   1      31.340  28.879  23.249  1.00  0.00    -0.374 OA
ATOM     12  N   UNL A   1      32.576  26.355  22.787  1.00  0.00    -0.334 N 
ATOM     13  C   UNL A   1      30.558  27.783  22.745  1.00  0.00     0.182 C 
ATOM     14  C   UNL A   1      31.416  26.760  21.992  1.00  0.00     0.148 C 
BRANCH  12  15
ATOM     15  C   UNL A   1      32.848  25.004  22.963  1.00  0.00     0.258 C 
ATOM     16  O   UNL A   1      33.465  24.319  22.149  1.00  0.00    -0.269 OA
BRANCH  15  17
ATOM     17  C   UNL A   1      32.403  24.336  24.193  1.00  0.00     0.094 A 
ATOM     18  C   UNL A   1      31.162  23.703  24.211  1.00  0.00     0.137 A 
ATOM     19  C   UNL A   1      33.224  24.268  25.320  1.00  0.00     0.056 A 
ATOM     20  F   UNL A   1      30.381  23.698  23.122  1.00  0.00    -0.206 F 
ATOM     21  C   UNL A   1      30.697  23.067  25.359  1.00  0.00     0.040 A 
ATOM     22  C   UNL A   1      32.771  23.605  26.469  1.00  0.00     0.021 A 
ATOM     23  Cl  UNL A   1      34.791  24.990  25.373  1.00  0.00    -0.083 Cl
ATOM     24  C   UNL A   1      31.503  23.018  26.494  1.00  0.00     0.005 A 
ENDBRANCH  15  17
ENDBRANCH  12  15
ENDBRANCH   8   9
ENDBRANCH   6   8
ENDBRANCH   3   4
ENDBRANCH   2   3
ENDBRANCH   1   2
BRANCH   1  25
ATOM     25  C   UNL A   1      35.633  33.031  27.999  1.00  0.00     0.002 C 
BRANCH  25  26
ATOM     26  C   UNL A   1      34.771  34.293  28.033  1.00  0.00     0.021 C 
BRANCH  26  27
ATOM     27  C   UNL A   1      33.315  34.066  28.424  1.00  0.00     0.116 C 
BRANCH  27  28
ATOM     28  N   UNL A   1      32.813  35.094  29.325  1.00  0.00    -0.352 N 
ATOM     29  C   UNL A   1      33.151  35.326  30.637  1.00  0.00     0.251 C 
ATOM     30  H   UNL A   1      32.141  35.705  28.943  1.00  0.00     0.163 HD
ATOM     31  O   UNL A   1      32.518  36.142  31.302  1.00  0.00    -0.269 OA
BRANCH  29  32
ATOM     32  C   UNL A   1      34.265  34.570  31.249  1.00  0.00     0.039 A 
ATOM     33  C   UNL A   1      34.031  33.276  31.724  1.00  0.00     0.014 A 
ATOM     34  C   UNL A   1      35.542  35.130  31.334  1.00  0.00     0.014 A 
ATOM     35  C   UNL A   1      35.095  32.519  32.226  1.00  0.00     0.010 A 
ATOM     36  C   UNL A   1      36.610  34.352  31.772  1.00  0.00     0.010 A 
ATOM     37  C   UNL A   1      36.399  33.040  32.226  1.00  0.00    -0.014 A 
BRANCH  37  38
ATOM     38  C   UNL A   1      37.564  32.240  32.686  1.00  0.00     0.031 A 
ATOM     39  C   UNL A   1      38.248  32.591  33.981  1.00  0.00     0.074 A 
ATOM     40  C   UNL A   1      38.078  31.280  31.890  1.00  0.00     0.049 A 
ATOM     41  N   UNL A   1      39.347  32.101  34.492  1.00  0.00    -0.248 NA
ATOM     42  C   UNL A   1      37.632  33.653  34.796  1.00  0.00     0.031 C 
ATOM     43  C   UNL A   1      37.551  30.894  30.579  1.00  0.00     0.029 A 
ATOM     44  N   UNL A   1      39.183  30.481  32.049  1.00  0.00    -0.354 N 
ATOM     45  C   UNL A   1      39.584  32.829  35.653  1.00  0.00     0.074 A 
ATOM     46  C   UNL A   1      38.522  33.803  35.767  1.00  0.00     0.031 C 
ATOM     47  C   UNL A   1      38.338  29.943  30.050  1.00  0.00     0.029 A 
ATOM     48  C   UNL A   1      39.441  29.672  30.966  1.00  0.00     0.049 A 
ATOM     49  H   UNL A   1      39.739  30.487  32.862  1.00  0.00     0.167 HD
ATOM     50  C   UNL A   1      40.583  32.682  36.555  1.00  0.00     0.034 A 
ATOM     51  C   UNL A   1      40.459  28.820  30.731  1.00  0.00     0.034 A 
ATOM     52  C   UNL A   1      41.596  31.665  36.478  1.00  0.00     0.049 A 
ATOM     53  C   UNL A   1      41.522  28.639  31.783  1.00  0.00     0.074 A 
ATOM     54  C   UNL A   1      42.583  31.366  37.400  1.00  0.00     0.029 A 
ATOM     55  N   UNL A   1      41.754  30.784  35.421  1.00  0.00    -0.354 N 
ATOM     56  N   UNL A   1      41.630  29.217  32.954  1.00  0.00    -0.248 NA
ATOM     57  C   UNL A   1      42.584  27.661  31.499  1.00  0.00     0.031 C 
ATOM     58  C   UNL A   1      43.350  30.313  36.894  1.00  0.00     0.029 A 
ATOM     59  C   UNL A   1      42.825  29.944  35.666  1.00  0.00     0.049 A 
ATOM     60  H   UNL A   1      41.188  30.759  34.616  1.00  0.00     0.167 HD
ATOM     61  C   UNL A   1      42.739  28.641  33.563  1.00  0.00     0.074 A 
ATOM     62  C   UNL A   1      43.262  27.658  32.639  1.00  0.00     0.031 C 
ATOM     63  C   UNL A   1      43.285  28.913  34.774  1.00  0.00     0.034 A 
BRANCH  50  64
ATOM     64  C   UNL A   1      40.606  33.601  37.746  1.00  0.00     0.023 A 
ATOM     65  C   UNL A   1      41.459  34.723  37.741  1.00  0.00     0.012 A 
ATOM     66  C   UNL A   1      39.714  33.413  38.820  1.00  0.00     0.148 A 
ATOM     67  C   UNL A   1      41.440  35.633  38.797  1.00  0.00     0.002 A 
ATOM     68  C   UNL A   1      39.670  34.347  39.849  1.00  0.00     0.091 A 
ATOM     69  F   UNL A   1      38.924  32.330  38.812  1.00  0.00    -0.205 F 
ATOM     70  C   UNL A   1      40.538  35.451  39.843  1.00  0.00     0.022 A 
BRANCH  68  71
ATOM     71  S   UNL A   1      38.492  34.249  41.201  1.00  0.00     0.127 S 
ATOM     72  O   UNL A   1      37.367  33.566  40.564  1.00  0.00    -0.237 OA
ATOM     73  O   UNL A   1      39.219  33.444  42.183  1.00  0.00    -0.237 OA
ATOM     74  O   UNL A   1      38.233  35.622  41.611  1.00  0.00    -0.744 OA
ENDBRANCH  68  71
ENDBRANCH  50  64
BRANCH  51  75
ATOM     75  C   UNL A   1      40.500  28.021  29.473  1.00  0.00     0.023 A 
ATOM     76  C   UNL A   1      39.620  26.931  29.319  1.00  0.00     0.012 A 
ATOM     77  C   UNL A   1      41.400  28.324  28.434  1.00  0.00     0.148 A 
ATOM     78  C   UNL A   1      39.665  26.133  28.176  1.00  0.00     0.002 A 
ATOM     79  C   UNL A   1      41.402  27.558  27.272  1.00  0.00     0.091 A 
ATOM     80  F   UNL A   1      42.243  29.354  28.600  1.00  0.00    -0.205 F 
ATOM     81  C   UNL A   1      40.549  26.451  27.150  1.00  0.00     0.022 A 
BRANCH  79  82
ATOM     82  S   UNL A   1      42.418  27.984  25.853  1.00  0.00     0.127 S 
ATOM     83  O   UNL A   1      42.126  26.887  24.936  1.00  0.00    -0.237 OA
ATOM     84  O   UNL A   1      41.867  29.281  25.458  1.00  0.00    -0.237 OA
ATOM     85  O   UNL A   1      43.781  28.048  26.364  1.00  0.00    -0.744 OA
ENDBRANCH  79  82
ENDBRANCH  51  75
BRANCH  63  86
ATOM     86  C   UNL A   1      44.475  28.102  35.211  1.00  0.00     0.023 A 
ATOM     87  C   UNL A   1      45.777  28.586  34.983  1.00  0.00     0.012 A 
ATOM     88  C   UNL A   1      44.296  26.908  35.939  1.00  0.00     0.148 A 
ATOM     89  C   UNL A   1      46.886  27.882  35.452  1.00  0.00     0.002 A 
ATOM     90  C   UNL A   1      45.403  26.238  36.444  1.00  0.00     0.091 A 
ATOM     91  F   UNL A   1      43.048  26.456  36.127  1.00  0.00    -0.205 F 
ATOM     92  C   UNL A   1      46.698  26.717  36.194  1.00  0.00     0.022 A 
BRANCH  90  93
ATOM     93  S   UNL A   1      45.250  24.787  37.494  1.00  0.00     0.127 S 
ATOM     94  O   UNL A   1      46.536  24.786  38.189  1.00  0.00    -0.237 OA
ATOM     95  O   UNL A   1      44.102  25.131  38.334  1.00  0.00    -0.237 OA
ATOM     96  O   UNL A   1      45.023  23.663  36.595  1.00  0.00    -0.744 OA
ENDBRANCH  90  93
ENDBRANCH  63  86
ENDBRANCH  37  38
ENDBRANCH  29  32
ENDBRANCH  27  28
ENDBRANCH  26  27
ENDBRANCH  25  26
ENDBRANCH   1  25
TORSDOF 19
ENDMDL
