MODEL 1
REMARK VINA RESULT:     -11.1      0.000      0.000
REMARK SMILES Cc1cc(C)c2c(=O)n(CCCC(=O)NCCCCCCNC(=O)c3ccc(-c4c5nc(c(-c6cccc(S(=O)(=O)[O-])c6F)c6ccc([nH]6)c(-c6cccc(S(=O)(=O)[O-])c6F)c6nc(c(-c7cccc(S(=O)(=O)[O-])c7F)c7ccc4[nH]7)C=C6)C=C5)cc3)sc2n1
REMARK SMILES IDX 18 1 17 2 16 3 15 4 13 5 14 6 12 8 11 9 10 10 9 11 1 12 2 13
REMARK SMILES IDX 3 14 90 15 4 16 89 17 5 18 6 19 88 20 7 21 8 22 19 23 20 24
REMARK SMILES IDX 21 25 22 26 23 27 24 29 25 30 26 31 87 32 27 33 86 34 28 35
REMARK SMILES IDX 29 36 30 37 80 38 31 39 85 40 79 41 81 42 32 43 84 44 78 45
REMARK SMILES IDX 77 46 33 48 65 49 45 50 64 51 46 52 49 53 63 54 82 55 47 56
REMARK SMILES IDX 48 57 62 59 83 60 50 61 34 62 35 63 43 64 36 65 38 66 44 67
REMARK SMILES IDX 37 68 39 69 40 70 41 71 42 72 66 73 67 74 75 75 68 76 70 77
REMARK SMILES IDX 76 78 69 79 71 80 72 81 73 82 74 83 51 84 52 85 60 86 53 87
REMARK SMILES IDX 55 88 61 89 54 90 56 91 57 92 58 93 59 94
REMARK H PARENT 15 7 22 28 81 47 49 58
REMARK Flexibility Score: inf
ROOT
ATOM      1  C   UNL A   1      33.643  29.320  27.218  1.00  0.00     0.002 C 
ENDROOT
BRANCH   1   2
ATOM      2  C   UNL A   1      32.194  28.938  27.537  1.00  0.00     0.021 C 
BRANCH   2   3
ATOM      3  C   UNL A   1      31.538  28.088  26.451  1.00  0.00     0.116 C 
BRANCH   3   4
ATOM      4  N   UNL A   1      31.269  26.753  26.935  1.00  0.00    -0.356 N 
ATOM      5  C   UNL A   1      31.796  25.557  26.571  1.00  0.00     0.220 C 
ATOM      6  O   UNL A   1      31.356  24.552  27.137  1.00  0.00    -0.275 OA
ATOM      7  H   UNL A   1      30.591  26.704  27.647  1.00  0.00     0.163 HD
BRANCH   5   8
ATOM      8  C   UNL A   1      32.985  25.451  25.633  1.00  0.00     0.102 C 
BRANCH   8   9
ATOM      9  C   UNL A   1      32.829  25.696  24.127  1.00  0.00     0.033 C 
BRANCH   9  10
ATOM     10  C   UNL A   1      31.464  25.605  23.422  1.00  0.00     0.139 C 
BRANCH  10  11
ATOM     11  N   UNL A   1      30.732  26.807  23.030  1.00  0.00    -0.262 N 
ATOM     12  C   UNL A   1      28.686  32.561  22.548  1.00  0.00     0.067 C 
ATOM     13  C   UNL A   1      28.762  31.077  22.745  1.00  0.00     0.039 A 
ATOM     14  C   UNL A   1      27.614  30.342  23.079  1.00  0.00     0.027 A 
ATOM     15  N   UNL A   1      29.962  30.497  22.516  1.00  0.00    -0.241 NA
ATOM     16  C   UNL A   1      27.700  28.953  23.266  1.00  0.00    -0.033 A 
ATOM     17  C   UNL A   1      30.008  29.164  22.702  1.00  0.00     0.146 A 
ATOM     18  C   UNL A   1      26.477  28.135  23.547  1.00  0.00     0.045 C 
ATOM     19  C   UNL A   1      28.958  28.377  23.130  1.00  0.00     0.081 A 
ATOM     20  S   UNL A   1      31.444  28.197  22.335  1.00  0.00    -0.035 S 
ATOM     21  C   UNL A   1      29.405  26.999  23.410  1.00  0.00     0.270 A 
ATOM     22  O   UNL A   1      28.692  26.192  24.005  1.00  0.00    -0.268 OA
ENDBRANCH  10  11
ENDBRANCH   9  10
ENDBRANCH   8   9
ENDBRANCH   5   8
ENDBRANCH   3   4
ENDBRANCH   2   3
ENDBRANCH   1   2
BRANCH   1  23
ATOM     23  C   UNL A   1      33.982  30.808  27.394  1.00  0.00     0.002 C 
BRANCH  23  24
ATOM     24  C   UNL A   1      32.818  31.731  27.787  1.00  0.00     0.021 C 
BRANCH  24  25
ATOM     25  C   UNL A   1      32.732  32.997  26.949  1.00  0.00     0.116 C 
BRANCH  25  26
ATOM     26  N   UNL A   1      32.477  34.180  27.775  1.00  0.00    -0.352 N 
ATOM     27  C   UNL A   1      33.091  34.569  28.947  1.00  0.00     0.251 C 
ATOM     28  H   UNL A   1      31.770  34.782  27.447  1.00  0.00     0.163 HD
ATOM     29  O   UNL A   1      32.550  35.377  29.696  1.00  0.00    -0.269 OA
BRANCH  27  30
ATOM     30  C   UNL A   1      34.410  34.011  29.279  1.00  0.00     0.039 A 
ATOM     31  C   UNL A   1      34.610  33.235  30.425  1.00  0.00     0.014 A 
ATOM     32  C   UNL A   1      35.462  34.278  28.407  1.00  0.00     0.014 A 
ATOM     33  C   UNL A   1      35.866  32.679  30.646  1.00  0.00     0.010 A 
ATOM     34  C   UNL A   1      36.637  33.588  28.526  1.00  0.00     0.010 A 
ATOM     35  C   UNL A   1      36.870  32.855  29.681  1.00  0.00    -0.014 A 
BRANCH  35  36
ATOM     36  C   UNL A   1      38.164  32.206  29.806  1.00  0.00     0.031 A 
ATOM     37  C   UNL A   1      38.208  30.835  29.241  1.00  0.00     0.074 A 
ATOM     38  C   UNL A   1      39.274  32.879  30.179  1.00  0.00     0.049 A 
ATOM     39  N   UNL A   1      38.279  29.721  29.892  1.00  0.00    -0.248 NA
ATOM     40  C   UNL A   1      37.970  30.668  27.799  1.00  0.00     0.031 C 
ATOM     41  C   UNL A   1      39.420  34.322  30.423  1.00  0.00     0.029 A 
ATOM     42  N   UNL A   1      40.552  32.431  30.277  1.00  0.00    -0.354 N 
ATOM     43  C   UNL A   1      38.359  28.728  28.918  1.00  0.00     0.074 A 
ATOM     44  C   UNL A   1      37.923  29.339  27.691  1.00  0.00     0.031 C 
ATOM     45  C   UNL A   1      40.729  34.656  30.384  1.00  0.00     0.029 A 
ATOM     46  C   UNL A   1      41.512  33.441  30.303  1.00  0.00     0.049 A 
ATOM     47  H   UNL A   1      40.781  31.476  30.327  1.00  0.00     0.167 HD
ATOM     48  C   UNL A   1      39.048  27.576  29.148  1.00  0.00     0.034 A 
ATOM     49  C   UNL A   1      42.854  33.273  30.223  1.00  0.00     0.034 A 
ATOM     50  C   UNL A   1      39.362  27.437  30.550  1.00  0.00     0.049 A 
ATOM     51  C   UNL A   1      43.126  31.870  30.608  1.00  0.00     0.074 A 
ATOM     52  C   UNL A   1      38.635  27.345  31.719  1.00  0.00     0.029 A 
ATOM     53  N   UNL A   1      40.639  27.789  30.916  1.00  0.00    -0.354 N 
ATOM     54  N   UNL A   1      42.914  31.395  31.803  1.00  0.00    -0.248 NA
ATOM     55  C   UNL A   1      43.253  30.884  29.551  1.00  0.00     0.031 C 
ATOM     56  C   UNL A   1      39.396  28.069  32.685  1.00  0.00     0.029 A 
ATOM     57  C   UNL A   1      40.575  28.509  32.078  1.00  0.00     0.049 A 
ATOM     58  H   UNL A   1      41.461  27.560  30.426  1.00  0.00     0.167 HD
ATOM     59  C   UNL A   1      42.421  30.117  31.577  1.00  0.00     0.074 A 
ATOM     60  C   UNL A   1      42.783  29.813  30.195  1.00  0.00     0.031 C 
ATOM     61  C   UNL A   1      41.513  29.556  32.431  1.00  0.00     0.034 A 
BRANCH  48  62
ATOM     62  C   UNL A   1      39.789  26.765  28.103  1.00  0.00     0.023 A 
ATOM     63  C   UNL A   1      39.515  25.378  28.059  1.00  0.00     0.012 A 
ATOM     64  C   UNL A   1      40.903  27.213  27.356  1.00  0.00     0.148 A 
ATOM     65  C   UNL A   1      40.333  24.483  27.362  1.00  0.00     0.002 A 
ATOM     66  C   UNL A   1      41.663  26.332  26.592  1.00  0.00     0.091 A 
ATOM     67  F   UNL A   1      41.332  28.470  27.473  1.00  0.00    -0.205 F 
ATOM     68  C   UNL A   1      41.404  24.960  26.620  1.00  0.00     0.022 A 
BRANCH  66  69
ATOM     69  S   UNL A   1      43.018  26.905  25.558  1.00  0.00     0.127 S 
ATOM     70  O   UNL A   1      43.481  25.656  24.963  1.00  0.00    -0.237 OA
ATOM     71  O   UNL A   1      42.327  27.810  24.639  1.00  0.00    -0.237 OA
ATOM     72  O   UNL A   1      43.946  27.572  26.461  1.00  0.00    -0.744 OA
ENDBRANCH  66  69
ENDBRANCH  48  62
BRANCH  49  73
ATOM     73  C   UNL A   1      43.902  34.116  29.600  1.00  0.00     0.023 A 
ATOM     74  C   UNL A   1      44.791  34.824  30.435  1.00  0.00     0.012 A 
ATOM     75  C   UNL A   1      44.241  33.964  28.239  1.00  0.00     0.148 A 
ATOM     76  C   UNL A   1      46.011  35.307  29.947  1.00  0.00     0.002 A 
ATOM     77  C   UNL A   1      45.459  34.441  27.759  1.00  0.00     0.091 A 
ATOM     78  F   UNL A   1      43.419  33.266  27.443  1.00  0.00    -0.205 F 
ATOM     79  C   UNL A   1      46.352  35.099  28.614  1.00  0.00     0.022 A 
BRANCH  77  80
ATOM     80  S   UNL A   1      46.001  34.165  26.066  1.00  0.00     0.127 S 
ATOM     81  O   UNL A   1      44.818  34.562  25.301  1.00  0.00    -0.237 OA
ATOM     82  O   UNL A   1      47.134  35.082  25.960  1.00  0.00    -0.237 OA
ATOM     83  O   UNL A   1      46.325  32.747  25.976  1.00  0.00    -0.744 OA
ENDBRANCH  77  80
ENDBRANCH  49  73
BRANCH  61  84
ATOM     84  C   UNL A   1      41.286  30.225  33.767  1.00  0.00     0.023 A 
ATOM     85  C   UNL A   1      42.176  30.083  34.853  1.00  0.00     0.012 A 
ATOM     86  C   UNL A   1      40.249  31.168  33.862  1.00  0.00     0.148 A 
ATOM     87  C   UNL A   1      42.028  30.857  36.009  1.00  0.00     0.002 A 
ATOM     88  C   UNL A   1      40.139  31.974  34.988  1.00  0.00     0.091 A 
ATOM     89  F   UNL A   1      39.407  31.288  32.824  1.00  0.00    -0.205 F 
ATOM     90  C   UNL A   1      41.019  31.816  36.068  1.00  0.00     0.022 A 
BRANCH  88  91
ATOM     91  S   UNL A   1      38.955  33.322  35.062  1.00  0.00     0.127 S 
ATOM     92  O   UNL A   1      39.353  34.140  33.919  1.00  0.00    -0.237 OA
ATOM     93  O   UNL A   1      37.677  32.626  34.902  1.00  0.00    -0.237 OA
ATOM     94  O   UNL A   1      39.133  33.941  36.369  1.00  0.00    -0.744 OA
ENDBRANCH  88  91
ENDBRANCH  61  84
ENDBRANCH  35  36
ENDBRANCH  27  30
ENDBRANCH  25  26
ENDBRANCH  24  25
ENDBRANCH  23  24
ENDBRANCH   1  23
TORSDOF 19
ENDMDL
MODEL 2
REMARK VINA RESULT:     -10.7      3.475      7.812
REMARK SMILES Cc1cc(C)c2c(=O)n(CCCC(=O)NCCCCCCNC(=O)c3ccc(-c4c5nc(c(-c6cccc(S(=O)(=O)[O-])c6F)c6ccc([nH]6)c(-c6cccc(S(=O)(=O)[O-])c6F)c6nc(c(-c7cccc(S(=O)(=O)[O-])c7F)c7ccc4[nH]7)C=C6)C=C5)cc3)sc2n1
REMARK SMILES IDX 18 1 17 2 16 3 15 4 13 5 14 6 12 8 11 9 10 10 9 11 1 12 2 13
REMARK SMILES IDX 3 14 90 15 4 16 89 17 5 18 6 19 88 20 7 21 8 22 19 23 20 24
REMARK SMILES IDX 21 25 22 26 23 27 24 29 25 30 26 31 87 32 27 33 86 34 28 35
REMARK SMILES IDX 29 36 30 37 80 38 31 39 85 40 79 41 81 42 32 43 84 44 78 45
REMARK SMILES IDX 77 46 33 48 65 49 45 50 64 51 46 52 49 53 63 54 82 55 47 56
REMARK SMILES IDX 48 57 62 59 83 60 50 61 34 62 35 63 43 64 36 65 38 66 44 67
REMARK SMILES IDX 37 68 39 69 40 70 41 71 42 72 66 73 67 74 75 75 68 76 70 77
REMARK SMILES IDX 76 78 69 79 71 80 72 81 73 82 74 83 51 84 52 85 60 86 53 87
REMARK SMILES IDX 55 88 61 89 54 90 56 91 57 92 58 93 59 94
REMARK H PARENT 15 7 22 28 81 47 49 58
REMARK Flexibility Score: inf
ROOT
ATOM      1  C   UNL A   1      32.562  27.638  26.847  1.00  0.00     0.002 C 
ENDROOT
BRANCH   1   2
ATOM      2  C   UNL A   1      33.862  27.254  26.134  1.00  0.00     0.021 C 
BRANCH   2   3
ATOM      3  C   UNL A   1      33.639  26.643  24.752  1.00  0.00     0.116 C 
BRANCH   3   4
ATOM      4  N   UNL A   1      33.676  27.662  23.728  1.00  0.00    -0.356 N 
ATOM      5  C   UNL A   1      32.694  28.458  23.235  1.00  0.00     0.220 C 
ATOM      6  O   UNL A   1      33.002  29.233  22.325  1.00  0.00    -0.275 OA
ATOM      7  H   UNL A   1      34.561  27.800  23.320  1.00  0.00     0.163 HD
BRANCH   5   8
ATOM      8  C   UNL A   1      31.316  28.525  23.869  1.00  0.00     0.102 C 
BRANCH   8   9
ATOM      9  C   UNL A   1      30.072  28.046  23.109  1.00  0.00     0.033 C 
BRANCH   9  10
ATOM     10  C   UNL A   1      29.202  26.883  23.617  1.00  0.00     0.139 C 
BRANCH  10  11
ATOM     11  N   UNL A   1      29.789  25.757  24.340  1.00  0.00    -0.262 N 
ATOM     12  C   UNL A   1      33.137  22.289  28.119  1.00  0.00     0.067 C 
ATOM     13  C   UNL A   1      32.497  22.871  26.896  1.00  0.00     0.039 A 
ATOM     14  C   UNL A   1      32.800  22.366  25.623  1.00  0.00     0.027 A 
ATOM     15  N   UNL A   1      31.578  23.842  27.098  1.00  0.00    -0.241 NA
ATOM     16  C   UNL A   1      32.198  22.923  24.484  1.00  0.00    -0.033 A 
ATOM     17  C   UNL A   1      31.017  24.353  25.985  1.00  0.00     0.146 A 
ATOM     18  C   UNL A   1      32.445  22.352  23.121  1.00  0.00     0.045 C 
ATOM     19  C   UNL A   1      31.331  23.990  24.691  1.00  0.00     0.081 A 
ATOM     20  S   UNL A   1      29.705  25.539  26.033  1.00  0.00    -0.035 S 
ATOM     21  C   UNL A   1      30.672  24.879  23.715  1.00  0.00     0.270 A 
ATOM     22  O   UNL A   1      30.979  24.879  22.523  1.00  0.00    -0.268 OA
ENDBRANCH  10  11
ENDBRANCH   9  10
ENDBRANCH   8   9
ENDBRANCH   5   8
ENDBRANCH   3   4
ENDBRANCH   2   3
ENDBRANCH   1   2
BRANCH   1  23
ATOM     23  C   UNL A   1      32.606  28.964  27.621  1.00  0.00     0.002 C 
BRANCH  23  24
ATOM     24  C   UNL A   1      33.062  30.200  26.831  1.00  0.00     0.021 C 
BRANCH  24  25
ATOM     25  C   UNL A   1      34.445  30.700  27.223  1.00  0.00     0.116 C 
BRANCH  25  26
ATOM     26  N   UNL A   1      34.374  31.791  28.198  1.00  0.00    -0.352 N 
ATOM     27  C   UNL A   1      35.070  31.947  29.378  1.00  0.00     0.251 C 
ATOM     28  H   UNL A   1      33.741  32.513  27.981  1.00  0.00     0.163 HD
ATOM     29  O   UNL A   1      34.663  32.714  30.245  1.00  0.00    -0.269 OA
BRANCH  27  30
ATOM     30  C   UNL A   1      36.314  31.190  29.576  1.00  0.00     0.039 A 
ATOM     31  C   UNL A   1      36.305  29.808  29.787  1.00  0.00     0.014 A 
ATOM     32  C   UNL A   1      37.513  31.897  29.542  1.00  0.00     0.014 A 
ATOM     33  C   UNL A   1      37.520  29.139  29.899  1.00  0.00     0.010 A 
ATOM     34  C   UNL A   1      38.701  31.221  29.469  1.00  0.00     0.010 A 
ATOM     35  C   UNL A   1      38.714  29.859  29.728  1.00  0.00    -0.014 A 
BRANCH  35  36
ATOM     36  C   UNL A   1      40.006  29.194  29.723  1.00  0.00     0.031 A 
ATOM     37  C   UNL A   1      40.571  28.964  31.075  1.00  0.00     0.074 A 
ATOM     38  C   UNL A   1      40.520  28.628  28.609  1.00  0.00     0.049 A 
ATOM     39  N   UNL A   1      41.577  29.568  31.617  1.00  0.00    -0.248 NA
ATOM     40  C   UNL A   1      39.832  28.090  31.999  1.00  0.00     0.031 C 
ATOM     41  C   UNL A   1      39.887  28.487  27.290  1.00  0.00     0.029 A 
ATOM     42  N   UNL A   1      41.671  27.924  28.462  1.00  0.00    -0.354 N 
ATOM     43  C   UNL A   1      41.752  28.955  32.856  1.00  0.00     0.074 A 
ATOM     44  C   UNL A   1      40.529  28.250  33.126  1.00  0.00     0.031 C 
ATOM     45  C   UNL A   1      40.536  27.539  26.577  1.00  0.00     0.029 A 
ATOM     46  C   UNL A   1      41.725  27.150  27.305  1.00  0.00     0.049 A 
ATOM     47  H   UNL A   1      42.405  27.957  29.117  1.00  0.00     0.167 HD
ATOM     48  C   UNL A   1      42.989  28.846  33.414  1.00  0.00     0.034 A 
ATOM     49  C   UNL A   1      42.672  26.230  27.000  1.00  0.00     0.034 A 
ATOM     50  C   UNL A   1      43.938  29.689  32.726  1.00  0.00     0.049 A 
ATOM     51  C   UNL A   1      43.854  26.550  27.831  1.00  0.00     0.074 A 
ATOM     52  C   UNL A   1      44.065  31.041  32.485  1.00  0.00     0.029 A 
ATOM     53  N   UNL A   1      44.748  29.057  31.813  1.00  0.00    -0.354 N 
ATOM     54  N   UNL A   1      44.556  27.640  27.699  1.00  0.00    -0.248 NA
ATOM     55  C   UNL A   1      44.016  25.844  29.089  1.00  0.00     0.031 C 
ATOM     56  C   UNL A   1      44.598  31.134  31.165  1.00  0.00     0.029 A 
ATOM     57  C   UNL A   1      44.832  29.839  30.693  1.00  0.00     0.049 A 
ATOM     58  H   UNL A   1      45.193  28.189  31.942  1.00  0.00     0.167 HD
ATOM     59  C   UNL A   1      44.872  28.000  29.002  1.00  0.00     0.074 A 
ATOM     60  C   UNL A   1      44.636  26.794  29.793  1.00  0.00     0.031 C 
ATOM     61  C   UNL A   1      45.004  29.314  29.353  1.00  0.00     0.034 A 
BRANCH  48  62
ATOM     62  C   UNL A   1      43.460  27.717  34.308  1.00  0.00     0.023 A 
ATOM     63  C   UNL A   1      43.997  28.078  35.567  1.00  0.00     0.012 A 
ATOM     64  C   UNL A   1      43.651  26.375  33.902  1.00  0.00     0.148 A 
ATOM     65  C   UNL A   1      44.729  27.177  36.346  1.00  0.00     0.002 A 
ATOM     66  C   UNL A   1      44.304  25.458  34.720  1.00  0.00     0.091 A 
ATOM     67  F   UNL A   1      43.328  25.992  32.666  1.00  0.00    -0.205 F 
ATOM     68  C   UNL A   1      44.876  25.862  35.928  1.00  0.00     0.022 A 
BRANCH  66  69
ATOM     69  S   UNL A   1      44.463  23.727  34.259  1.00  0.00     0.127 S 
ATOM     70  O   UNL A   1      45.184  23.184  35.406  1.00  0.00    -0.237 OA
ATOM     71  O   UNL A   1      43.062  23.317  34.157  1.00  0.00    -0.237 OA
ATOM     72  O   UNL A   1      45.177  23.723  32.989  1.00  0.00    -0.744 OA
ENDBRANCH  66  69
ENDBRANCH  48  62
BRANCH  49  73
ATOM     73  C   UNL A   1      42.576  24.948  26.262  1.00  0.00     0.023 A 
ATOM     74  C   UNL A   1      43.645  24.561  25.427  1.00  0.00     0.012 A 
ATOM     75  C   UNL A   1      41.624  23.971  26.625  1.00  0.00     0.148 A 
ATOM     76  C   UNL A   1      43.801  23.231  25.023  1.00  0.00     0.002 A 
ATOM     77  C   UNL A   1      41.788  22.647  26.225  1.00  0.00     0.091 A 
ATOM     78  F   UNL A   1      40.621  24.319  27.442  1.00  0.00    -0.205 F 
ATOM     79  C   UNL A   1      42.883  22.271  25.437  1.00  0.00     0.022 A 
BRANCH  77  80
ATOM     80  S   UNL A   1      40.679  21.335  26.762  1.00  0.00     0.127 S 
ATOM     81  O   UNL A   1      41.291  20.153  26.151  1.00  0.00    -0.237 OA
ATOM     82  O   UNL A   1      40.808  21.409  28.215  1.00  0.00    -0.237 OA
ATOM     83  O   UNL A   1      39.368  21.676  26.225  1.00  0.00    -0.744 OA
ENDBRANCH  77  80
ENDBRANCH  49  73
BRANCH  61  84
ATOM     84  C   UNL A   1      45.092  30.340  28.247  1.00  0.00     0.023 A 
ATOM     85  C   UNL A   1      43.951  30.893  27.626  1.00  0.00     0.012 A 
ATOM     86  C   UNL A   1      46.351  30.894  27.963  1.00  0.00     0.148 A 
ATOM     87  C   UNL A   1      44.066  31.967  26.737  1.00  0.00     0.002 A 
ATOM     88  C   UNL A   1      46.456  31.996  27.122  1.00  0.00     0.091 A 
ATOM     89  F   UNL A   1      47.427  30.354  28.555  1.00  0.00    -0.205 F 
ATOM     90  C   UNL A   1      45.319  32.530  26.500  1.00  0.00     0.022 A 
BRANCH  88  91
ATOM     91  S   UNL A   1      48.017  32.852  26.895  1.00  0.00     0.127 S 
ATOM     92  O   UNL A   1      48.905  31.766  26.487  1.00  0.00    -0.237 OA
ATOM     93  O   UNL A   1      47.697  33.813  25.837  1.00  0.00    -0.237 OA
ATOM     94  O   UNL A   1      48.328  33.467  28.179  1.00  0.00    -0.744 OA
ENDBRANCH  88  91
ENDBRANCH  61  84
ENDBRANCH  35  36
ENDBRANCH  27  30
ENDBRANCH  25  26
ENDBRANCH  24  25
ENDBRANCH  23  24
ENDBRANCH   1  23
TORSDOF 19
ENDMDL
MODEL 3
REMARK VINA RESULT:     -10.4      4.250      8.493
REMARK SMILES Cc1cc(C)c2c(=O)n(CCCC(=O)NCCCCCCNC(=O)c3ccc(-c4c5nc(c(-c6cccc(S(=O)(=O)[O-])c6F)c6ccc([nH]6)c(-c6cccc(S(=O)(=O)[O-])c6F)c6nc(c(-c7cccc(S(=O)(=O)[O-])c7F)c7ccc4[nH]7)C=C6)C=C5)cc3)sc2n1
REMARK SMILES IDX 18 1 17 2 16 3 15 4 13 5 14 6 12 8 11 9 10 10 9 11 1 12 2 13
REMARK SMILES IDX 3 14 90 15 4 16 89 17 5 18 6 19 88 20 7 21 8 22 19 23 20 24
REMARK SMILES IDX 21 25 22 26 23 27 24 29 25 30 26 31 87 32 27 33 86 34 28 35
REMARK SMILES IDX 29 36 30 37 80 38 31 39 85 40 79 41 81 42 32 43 84 44 78 45
REMARK SMILES IDX 77 46 33 48 65 49 45 50 64 51 46 52 49 53 63 54 82 55 47 56
REMARK SMILES IDX 48 57 62 59 83 60 50 61 34 62 35 63 43 64 36 65 38 66 44 67
REMARK SMILES IDX 37 68 39 69 40 70 41 71 42 72 66 73 67 74 75 75 68 76 70 77
REMARK SMILES IDX 76 78 69 79 71 80 72 81 73 82 74 83 51 84 52 85 60 86 53 87
REMARK SMILES IDX 55 88 61 89 54 90 56 91 57 92 58 93 59 94
REMARK H PARENT 15 7 22 28 81 47 49 58
REMARK Flexibility Score: inf
ROOT
ATOM      1  C   UNL A   1      31.763  29.506  26.806  1.00  0.00     0.002 C 
ENDROOT
BRANCH   1   2
ATOM      2  C   UNL A   1      31.998  28.206  27.581  1.00  0.00     0.021 C 
BRANCH   2   3
ATOM      3  C   UNL A   1      32.299  27.010  26.681  1.00  0.00     0.116 C 
BRANCH   3   4
ATOM      4  N   UNL A   1      32.010  27.320  25.300  1.00  0.00    -0.356 N 
ATOM      5  C   UNL A   1      32.644  26.951  24.158  1.00  0.00     0.220 C 
ATOM      6  O   UNL A   1      32.193  27.393  23.097  1.00  0.00    -0.275 OA
ATOM      7  H   UNL A   1      31.223  27.896  25.166  1.00  0.00     0.163 HD
BRANCH   5   8
ATOM      8  C   UNL A   1      33.754  25.916  24.150  1.00  0.00     0.102 C 
BRANCH   8   9
ATOM      9  C   UNL A   1      33.493  24.480  23.680  1.00  0.00     0.033 C 
BRANCH   9  10
ATOM     10  C   UNL A   1      32.130  23.794  23.869  1.00  0.00     0.139 C 
BRANCH  10  11
ATOM     11  N   UNL A   1      32.030  22.352  24.083  1.00  0.00    -0.262 N 
ATOM     12  C   UNL A   1      33.115  16.558  25.749  1.00  0.00     0.067 C 
ATOM     13  C   UNL A   1      32.819  17.788  24.946  1.00  0.00     0.039 A 
ATOM     14  C   UNL A   1      32.672  17.712  23.553  1.00  0.00     0.027 A 
ATOM     15  N   UNL A   1      32.637  18.934  25.640  1.00  0.00    -0.241 NA
ATOM     16  C   UNL A   1      32.400  18.873  22.811  1.00  0.00    -0.033 A 
ATOM     17  C   UNL A   1      32.375  20.027  24.899  1.00  0.00     0.146 A 
ATOM     18  C   UNL A   1      32.162  18.807  21.334  1.00  0.00     0.045 C 
ATOM     19  C   UNL A   1      32.316  20.066  23.520  1.00  0.00     0.081 A 
ATOM     20  S   UNL A   1      31.980  21.596  25.615  1.00  0.00    -0.035 S 
ATOM     21  C   UNL A   1      32.200  21.453  23.031  1.00  0.00     0.270 A 
ATOM     22  O   UNL A   1      32.351  21.739  21.844  1.00  0.00    -0.268 OA
ENDBRANCH  10  11
ENDBRANCH   9  10
ENDBRANCH   8   9
ENDBRANCH   5   8
ENDBRANCH   3   4
ENDBRANCH   2   3
ENDBRANCH   1   2
BRANCH   1  23
ATOM     23  C   UNL A   1      33.029  30.313  26.480  1.00  0.00     0.002 C 
BRANCH  23  24
ATOM     24  C   UNL A   1      34.150  30.277  27.530  1.00  0.00     0.021 C 
BRANCH  24  25
ATOM     25  C   UNL A   1      34.909  31.589  27.659  1.00  0.00     0.116 C 
BRANCH  25  26
ATOM     26  N   UNL A   1      34.644  32.247  28.941  1.00  0.00    -0.352 N 
ATOM     27  C   UNL A   1      35.156  31.958  30.188  1.00  0.00     0.251 C 
ATOM     28  H   UNL A   1      34.012  33.001  28.907  1.00  0.00     0.163 HD
ATOM     29  O   UNL A   1      34.592  32.356  31.202  1.00  0.00    -0.269 OA
BRANCH  27  30
ATOM     30  C   UNL A   1      36.398  31.176  30.283  1.00  0.00     0.039 A 
ATOM     31  C   UNL A   1      36.379  29.792  30.479  1.00  0.00     0.014 A 
ATOM     32  C   UNL A   1      37.604  31.862  30.167  1.00  0.00     0.014 A 
ATOM     33  C   UNL A   1      37.586  29.101  30.492  1.00  0.00     0.010 A 
ATOM     34  C   UNL A   1      38.769  31.166  29.997  1.00  0.00     0.010 A 
ATOM     35  C   UNL A   1      38.776  29.800  30.239  1.00  0.00    -0.014 A 
BRANCH  35  36
ATOM     36  C   UNL A   1      40.052  29.113  30.129  1.00  0.00     0.031 A 
ATOM     37  C   UNL A   1      40.671  28.779  31.435  1.00  0.00     0.074 A 
ATOM     38  C   UNL A   1      40.503  28.616  28.957  1.00  0.00     0.049 A 
ATOM     39  N   UNL A   1      41.713  29.324  31.970  1.00  0.00    -0.248 NA
ATOM     40  C   UNL A   1      39.955  27.858  32.330  1.00  0.00     0.031 C 
ATOM     41  C   UNL A   1      39.809  28.578  27.662  1.00  0.00     0.029 A 
ATOM     42  N   UNL A   1      41.631  27.901  28.710  1.00  0.00    -0.354 N 
ATOM     43  C   UNL A   1      41.929  28.623  33.155  1.00  0.00     0.074 A 
ATOM     44  C   UNL A   1      40.704  27.925  33.433  1.00  0.00     0.031 C 
ATOM     45  C   UNL A   1      40.404  27.670  26.857  1.00  0.00     0.029 A 
ATOM     46  C   UNL A   1      41.616  27.209  27.501  1.00  0.00     0.049 A 
ATOM     47  H   UNL A   1      42.393  27.875  29.330  1.00  0.00     0.167 HD
ATOM     48  C   UNL A   1      43.188  28.452  33.648  1.00  0.00     0.034 A 
ATOM     49  C   UNL A   1      42.526  26.294  27.091  1.00  0.00     0.034 A 
ATOM     50  C   UNL A   1      44.124  29.322  32.976  1.00  0.00     0.049 A 
ATOM     51  C   UNL A   1      43.751  26.532  27.886  1.00  0.00     0.074 A 
ATOM     52  C   UNL A   1      44.270  30.685  32.822  1.00  0.00     0.029 A 
ATOM     53  N   UNL A   1      44.878  28.739  31.985  1.00  0.00    -0.354 N 
ATOM     54  N   UNL A   1      44.471  27.615  27.797  1.00  0.00    -0.248 NA
ATOM     55  C   UNL A   1      43.954  25.738  29.084  1.00  0.00     0.031 C 
ATOM     56  C   UNL A   1      44.745  30.859  31.488  1.00  0.00     0.029 A 
ATOM     57  C   UNL A   1      44.929  29.596  30.919  1.00  0.00     0.049 A 
ATOM     58  H   UNL A   1      45.308  27.856  32.034  1.00  0.00     0.167 HD
ATOM     59  C   UNL A   1      44.852  27.878  29.106  1.00  0.00     0.074 A 
ATOM     60  C   UNL A   1      44.626  26.625  29.822  1.00  0.00     0.031 C 
ATOM     61  C   UNL A   1      45.030  29.161  29.539  1.00  0.00     0.034 A 
BRANCH  48  62
ATOM     62  C   UNL A   1      43.673  27.255  34.440  1.00  0.00     0.023 A 
ATOM     63  C   UNL A   1      43.504  25.983  33.844  1.00  0.00     0.012 A 
ATOM     64  C   UNL A   1      44.034  27.269  35.808  1.00  0.00     0.148 A 
ATOM     65  C   UNL A   1      43.629  24.799  34.577  1.00  0.00     0.002 A 
ATOM     66  C   UNL A   1      44.243  26.087  36.512  1.00  0.00     0.091 A 
ATOM     67  F   UNL A   1      44.050  28.415  36.489  1.00  0.00    -0.205 F 
ATOM     68  C   UNL A   1      44.007  24.849  35.911  1.00  0.00     0.022 A 
BRANCH  66  69
ATOM     69  S   UNL A   1      44.800  26.092  38.221  1.00  0.00     0.127 S 
ATOM     70  O   UNL A   1      45.009  24.669  38.466  1.00  0.00    -0.237 OA
ATOM     71  O   UNL A   1      46.023  26.892  38.132  1.00  0.00    -0.237 OA
ATOM     72  O   UNL A   1      43.731  26.726  38.981  1.00  0.00    -0.744 OA
ENDBRANCH  66  69
ENDBRANCH  48  62
BRANCH  49  73
ATOM     73  C   UNL A   1      42.369  25.068  26.272  1.00  0.00     0.023 A 
ATOM     74  C   UNL A   1      43.342  24.773  25.294  1.00  0.00     0.012 A 
ATOM     75  C   UNL A   1      41.483  24.042  26.664  1.00  0.00     0.148 A 
ATOM     76  C   UNL A   1      43.475  23.480  24.774  1.00  0.00     0.002 A 
ATOM     77  C   UNL A   1      41.623  22.756  26.148  1.00  0.00     0.091 A 
ATOM     78  F   UNL A   1      40.574  24.302  27.614  1.00  0.00    -0.205 F 
ATOM     79  C   UNL A   1      42.627  22.469  25.214  1.00  0.00     0.022 A 
BRANCH  77  80
ATOM     80  S   UNL A   1      40.606  21.379  26.704  1.00  0.00     0.127 S 
ATOM     81  O   UNL A   1      41.315  20.231  26.136  1.00  0.00    -0.237 OA
ATOM     82  O   UNL A   1      40.704  21.501  28.156  1.00  0.00    -0.237 OA
ATOM     83  O   UNL A   1      39.282  21.606  26.138  1.00  0.00    -0.744 OA
ENDBRANCH  77  80
ENDBRANCH  49  73
BRANCH  61  84
ATOM     84  C   UNL A   1      45.091  30.260  28.503  1.00  0.00     0.023 A 
ATOM     85  C   UNL A   1      43.948  30.963  28.067  1.00  0.00     0.012 A 
ATOM     86  C   UNL A   1      46.359  30.717  28.104  1.00  0.00     0.148 A 
ATOM     87  C   UNL A   1      44.067  32.089  27.246  1.00  0.00     0.002 A 
ATOM     88  C   UNL A   1      46.476  31.867  27.334  1.00  0.00     0.091 A 
ATOM     89  F   UNL A   1      47.436  30.035  28.521  1.00  0.00    -0.205 F 
ATOM     90  C   UNL A   1      45.334  32.552  26.894  1.00  0.00     0.022 A 
BRANCH  88  91
ATOM     91  S   UNL A   1      48.078  32.593  26.975  1.00  0.00     0.127 S 
ATOM     92  O   UNL A   1      47.734  33.624  25.999  1.00  0.00    -0.237 OA
ATOM     93  O   UNL A   1      48.493  33.100  28.283  1.00  0.00    -0.237 OA
ATOM     94  O   UNL A   1      48.907  31.505  26.471  1.00  0.00    -0.744 OA
ENDBRANCH  88  91
ENDBRANCH  61  84
ENDBRANCH  35  36
ENDBRANCH  27  30
ENDBRANCH  25  26
ENDBRANCH  24  25
ENDBRANCH  23  24
ENDBRANCH   1  23
TORSDOF 19
ENDMDL
