MODEL 1
REMARK VINA RESULT:     -12.8      0.000      0.000
REMARK SMILES COc1ccc([C@H](NC(=O)[C@H]2CC(C)=C(C)C[C@@H]2C(=O)NCCCCCCNC(=O)c2ccc(-c3c4nc(c(-c5cccc(S(=O)(=O)[O-])c5F)c5ccc([nH]5)c(-c5cccc(S(=O)(=O)[O-])c5F)c5nc(c(-c6cccc(S(=O)(=O)[O-])c6F)c6ccc3[nH]6)C=C5)C=C4)cc2)c2ccccc2)cc1
REMARK SMILES IDX 24 1 23 2 22 3 21 4 19 5 20 6 18 8 11 9 12 10 13 11 17 12
REMARK SMILES IDX 14 13 15 14 16 15 9 16 8 17 10 19 7 20 6 21 3 22 4 23 101 24
REMARK SMILES IDX 5 25 100 26 2 27 1 28 94 29 95 30 99 31 96 32 98 33 97 34
REMARK SMILES IDX 25 35 26 36 27 37 28 38 29 39 30 41 31 42 32 43 93 44 33 45
REMARK SMILES IDX 92 46 34 47 35 48 36 49 86 50 37 51 91 52 85 53 87 54 38 55
REMARK SMILES IDX 90 56 84 57 83 58 39 60 71 61 51 62 70 63 52 64 55 65 69 66
REMARK SMILES IDX 88 67 53 68 54 69 68 71 89 72 56 73 40 74 41 75 49 76 42 77
REMARK SMILES IDX 44 78 50 79 43 80 45 81 46 82 47 83 48 84 72 85 73 86 81 87
REMARK SMILES IDX 74 88 76 89 82 90 75 91 77 92 78 93 79 94 80 95 57 96 58 97
REMARK SMILES IDX 66 98 59 99 61 100 67 101 60 102 62 103 63 104 64 105 65 106
REMARK H PARENT 21 7 8 18 28 40 87 59 55 70
REMARK Flexibility Score: inf
ROOT
ATOM      1  C   UNL A   1      31.647  29.185  26.797  1.00  0.00     0.002 C 
ENDROOT
BRANCH   1   2
ATOM      2  C   UNL A   1      32.836  28.221  26.759  1.00  0.00     0.021 C 
BRANCH   2   3
ATOM      3  C   UNL A   1      32.671  27.073  25.771  1.00  0.00     0.116 C 
BRANCH   3   4
ATOM      4  N   UNL A   1      31.746  26.077  26.280  1.00  0.00    -0.356 N 
ATOM      5  C   UNL A   1      30.743  25.415  25.641  1.00  0.00     0.224 C 
ATOM      6  O   UNL A   1      30.036  24.652  26.300  1.00  0.00    -0.275 OA
ATOM      7  H   UNL A   1      31.862  25.845  27.229  1.00  0.00     0.163 HD
BRANCH   5   8
ATOM      8  C   UNL A   1      30.499  25.688  24.163  1.00  0.00     0.095 C 
ATOM      9  C   UNL A   1      31.856  26.103  23.534  1.00  0.00     0.095 C 
ATOM     10  C   UNL A   1      31.856  27.479  22.857  1.00  0.00     0.045 C 
ATOM     11  C   UNL A   1      30.606  28.310  22.780  1.00  0.00    -0.074 C 
ATOM     12  C   UNL A   1      29.281  26.620  24.035  1.00  0.00     0.045 C 
ATOM     13  C   UNL A   1      30.810  29.628  22.072  1.00  0.00     0.039 C 
ATOM     14  C   UNL A   1      29.438  27.923  23.316  1.00  0.00    -0.074 C 
ATOM     15  C   UNL A   1      28.184  28.758  23.251  1.00  0.00     0.039 C 
BRANCH   9  16
ATOM     16  C   UNL A   1      32.335  25.041  22.532  1.00  0.00     0.224 C 
ATOM     17  N   UNL A   1      32.773  23.806  22.904  1.00  0.00    -0.345 N 
ATOM     18  H   UNL A   1      32.947  23.216  22.136  1.00  0.00     0.164 HD
ATOM     19  O   UNL A   1      32.352  25.273  21.319  1.00  0.00    -0.275 OA
BRANCH  17  20
ATOM     20  C   UNL A   1      33.045  23.158  24.196  1.00  0.00     0.143 C 
BRANCH  20  21
ATOM     21  C   UNL A   1      32.696  21.650  24.211  1.00  0.00    -0.021 A 
ATOM     22  C   UNL A   1      32.583  18.820  24.221  1.00  0.00     0.118 A 
ATOM     23  C   UNL A   1      32.860  19.510  25.396  1.00  0.00     0.047 A 
ATOM     24  C   UNL A   1      32.238  19.532  23.075  1.00  0.00     0.047 A 
ATOM     25  C   UNL A   1      32.911  20.909  25.394  1.00  0.00     0.010 A 
ATOM     26  C   UNL A   1      32.283  20.935  23.073  1.00  0.00     0.010 A 
BRANCH  22  27
ATOM     27  O   UNL A   1      32.637  17.455  24.291  1.00  0.00    -0.497 OA
ATOM     28  C   UNL A   1      33.664  16.877  23.481  1.00  0.00     0.278 C 
ENDBRANCH  22  27
ENDBRANCH  20  21
BRANCH  20  29
ATOM     29  C   UNL A   1      34.537  23.345  24.498  1.00  0.00    -0.021 A 
ATOM     30  C   UNL A   1      34.958  23.936  25.705  1.00  0.00     0.006 A 
ATOM     31  C   UNL A   1      35.514  22.894  23.603  1.00  0.00     0.006 A 
ATOM     32  C   UNL A   1      36.311  24.013  26.030  1.00  0.00     0.000 A 
ATOM     33  C   UNL A   1      36.864  22.911  23.958  1.00  0.00     0.000 A 
ATOM     34  C   UNL A   1      37.261  23.467  25.173  1.00  0.00     0.000 A 
ENDBRANCH  20  29
ENDBRANCH  17  20
ENDBRANCH   9  16
ENDBRANCH   5   8
ENDBRANCH   3   4
ENDBRANCH   2   3
ENDBRANCH   1   2
BRANCH   1  35
ATOM     35  C   UNL A   1      31.773  30.403  25.875  1.00  0.00     0.002 C 
BRANCH  35  36
ATOM     36  C   UNL A   1      31.525  31.754  26.551  1.00  0.00     0.021 C 
BRANCH  36  37
ATOM     37  C   UNL A   1      32.747  32.349  27.238  1.00  0.00     0.116 C 
BRANCH  37  38
ATOM     38  N   UNL A   1      32.556  33.753  27.564  1.00  0.00    -0.352 N 
ATOM     39  C   UNL A   1      33.161  34.502  28.537  1.00  0.00     0.251 C 
ATOM     40  H   UNL A   1      31.900  34.231  27.008  1.00  0.00     0.163 HD
ATOM     41  O   UNL A   1      32.724  35.624  28.808  1.00  0.00    -0.269 OA
BRANCH  39  42
ATOM     42  C   UNL A   1      34.328  33.965  29.266  1.00  0.00     0.039 A 
ATOM     43  C   UNL A   1      34.120  33.044  30.295  1.00  0.00     0.014 A 
ATOM     44  C   UNL A   1      35.624  34.383  28.947  1.00  0.00     0.014 A 
ATOM     45  C   UNL A   1      35.214  32.517  30.982  1.00  0.00     0.010 A 
ATOM     46  C   UNL A   1      36.716  33.796  29.579  1.00  0.00     0.010 A 
ATOM     47  C   UNL A   1      36.522  32.875  30.618  1.00  0.00    -0.014 A 
BRANCH  47  48
ATOM     48  C   UNL A   1      37.698  32.317  31.332  1.00  0.00     0.031 A 
ATOM     49  C   UNL A   1      38.474  31.174  30.732  1.00  0.00     0.074 A 
ATOM     50  C   UNL A   1      38.029  32.792  32.550  1.00  0.00     0.049 A 
ATOM     51  N   UNL A   1      39.506  30.533  31.217  1.00  0.00    -0.248 NA
ATOM     52  C   UNL A   1      38.010  30.663  29.432  1.00  0.00     0.031 C 
ATOM     53  C   UNL A   1      37.309  33.844  33.270  1.00  0.00     0.029 A 
ATOM     54  N   UNL A   1      39.042  32.436  33.404  1.00  0.00    -0.354 N 
ATOM     55  C   UNL A   1      39.792  29.528  30.302  1.00  0.00     0.074 A 
ATOM     56  C   UNL A   1      38.800  29.614  29.254  1.00  0.00     0.031 C 
ATOM     57  C   UNL A   1      37.910  34.056  34.452  1.00  0.00     0.029 A 
ATOM     58  C   UNL A   1      39.038  33.139  34.586  1.00  0.00     0.049 A 
ATOM     59  H   UNL A   1      39.707  31.743  33.191  1.00  0.00     0.167 HD
ATOM     60  C   UNL A   1      40.809  28.633  30.312  1.00  0.00     0.034 A 
ATOM     61  C   UNL A   1      39.853  33.055  35.655  1.00  0.00     0.034 A 
ATOM     62  C   UNL A   1      41.820  28.578  31.333  1.00  0.00     0.049 A 
ATOM     63  C   UNL A   1      41.001  32.083  35.624  1.00  0.00     0.074 A 
ATOM     64  C   UNL A   1      42.939  27.768  31.394  1.00  0.00     0.029 A 
ATOM     65  N   UNL A   1      41.832  29.365  32.476  1.00  0.00    -0.354 N 
ATOM     66  N   UNL A   1      41.347  31.244  34.676  1.00  0.00    -0.248 NA
ATOM     67  C   UNL A   1      41.895  32.074  36.790  1.00  0.00     0.031 C 
ATOM     68  C   UNL A   1      43.616  28.047  32.586  1.00  0.00     0.029 A 
ATOM     69  C   UNL A   1      42.935  29.054  33.252  1.00  0.00     0.049 A 
ATOM     70  H   UNL A   1      41.156  30.044  32.701  1.00  0.00     0.167 HD
ATOM     71  C   UNL A   1      42.520  30.638  35.114  1.00  0.00     0.074 A 
ATOM     72  C   UNL A   1      42.833  31.220  36.403  1.00  0.00     0.031 C 
ATOM     73  C   UNL A   1      43.263  29.680  34.508  1.00  0.00     0.034 A 
BRANCH  60  74
ATOM     74  C   UNL A   1      40.905  27.672  29.155  1.00  0.00     0.023 A 
ATOM     75  C   UNL A   1      40.120  26.499  29.156  1.00  0.00     0.012 A 
ATOM     76  C   UNL A   1      41.736  27.943  28.051  1.00  0.00     0.148 A 
ATOM     77  C   UNL A   1      40.194  25.592  28.100  1.00  0.00     0.002 A 
ATOM     78  C   UNL A   1      41.769  27.057  26.979  1.00  0.00     0.091 A 
ATOM     79  F   UNL A   1      42.492  29.049  28.075  1.00  0.00    -0.205 F 
ATOM     80  C   UNL A   1      41.009  25.876  27.009  1.00  0.00     0.022 A 
BRANCH  78  81
ATOM     81  S   UNL A   1      42.725  27.372  25.493  1.00  0.00     0.127 S 
ATOM     82  O   UNL A   1      42.040  28.541  24.943  1.00  0.00    -0.237 OA
ATOM     83  O   UNL A   1      44.056  27.645  26.034  1.00  0.00    -0.237 OA
ATOM     84  O   UNL A   1      42.633  26.159  24.692  1.00  0.00    -0.744 OA
ENDBRANCH  78  81
ENDBRANCH  60  74
BRANCH  61  85
ATOM     85  C   UNL A   1      39.657  33.973  36.813  1.00  0.00     0.023 A 
ATOM     86  C   UNL A   1      40.001  35.333  36.681  1.00  0.00     0.012 A 
ATOM     87  C   UNL A   1      39.107  33.518  38.027  1.00  0.00     0.148 A 
ATOM     88  C   UNL A   1      39.830  36.216  37.748  1.00  0.00     0.002 A 
ATOM     89  C   UNL A   1      38.890  34.413  39.066  1.00  0.00     0.091 A 
ATOM     90  F   UNL A   1      38.794  32.218  38.133  1.00  0.00    -0.205 F 
ATOM     91  C   UNL A   1      39.267  35.759  38.935  1.00  0.00     0.022 A 
BRANCH  89  92
ATOM     92  S   UNL A   1      38.053  33.945  40.585  1.00  0.00     0.127 S 
ATOM     93  O   UNL A   1      36.959  33.119  40.081  1.00  0.00    -0.237 OA
ATOM     94  O   UNL A   1      39.104  33.213  41.293  1.00  0.00    -0.237 OA
ATOM     95  O   UNL A   1      37.660  35.197  41.219  1.00  0.00    -0.744 OA
ENDBRANCH  89  92
ENDBRANCH  61  85
BRANCH  73  96
ATOM     96  C   UNL A   1      44.519  29.223  35.206  1.00  0.00     0.023 A 
ATOM     97  C   UNL A   1      45.753  29.831  34.904  1.00  0.00     0.012 A 
ATOM     98  C   UNL A   1      44.460  28.239  36.213  1.00  0.00     0.148 A 
ATOM     99  C   UNL A   1      46.915  29.443  35.569  1.00  0.00     0.002 A 
ATOM    100  C   UNL A   1      45.613  27.894  36.908  1.00  0.00     0.091 A 
ATOM    101  F   UNL A   1      43.279  27.659  36.473  1.00  0.00    -0.205 F 
ATOM    102  C   UNL A   1      46.843  28.485  36.579  1.00  0.00     0.022 A 
BRANCH 100 103
ATOM    103  S   UNL A   1      45.595  26.747  38.289  1.00  0.00     0.127 S 
ATOM    104  O   UNL A   1      45.023  25.550  37.676  1.00  0.00    -0.237 OA
ATOM    105  O   UNL A   1      47.016  26.640  38.623  1.00  0.00    -0.237 OA
ATOM    106  O   UNL A   1      44.779  27.373  39.321  1.00  0.00    -0.744 OA
ENDBRANCH 100 103
ENDBRANCH  73  96
ENDBRANCH  47  48
ENDBRANCH  39  42
ENDBRANCH  37  38
ENDBRANCH  36  37
ENDBRANCH  35  36
ENDBRANCH   1  35
TORSDOF 21
ENDMDL
MODEL 2
REMARK VINA RESULT:     -12.3      1.541      7.352
REMARK SMILES COc1ccc([C@H](NC(=O)[C@H]2CC(C)=C(C)C[C@@H]2C(=O)NCCCCCCNC(=O)c2ccc(-c3c4nc(c(-c5cccc(S(=O)(=O)[O-])c5F)c5ccc([nH]5)c(-c5cccc(S(=O)(=O)[O-])c5F)c5nc(c(-c6cccc(S(=O)(=O)[O-])c6F)c6ccc3[nH]6)C=C5)C=C4)cc2)c2ccccc2)cc1
REMARK SMILES IDX 24 1 23 2 22 3 21 4 19 5 20 6 18 8 11 9 12 10 13 11 17 12
REMARK SMILES IDX 14 13 15 14 16 15 9 16 8 17 10 19 7 20 6 21 3 22 4 23 101 24
REMARK SMILES IDX 5 25 100 26 2 27 1 28 94 29 95 30 99 31 96 32 98 33 97 34
REMARK SMILES IDX 25 35 26 36 27 37 28 38 29 39 30 41 31 42 32 43 93 44 33 45
REMARK SMILES IDX 92 46 34 47 35 48 36 49 86 50 37 51 91 52 85 53 87 54 38 55
REMARK SMILES IDX 90 56 84 57 83 58 39 60 71 61 51 62 70 63 52 64 55 65 69 66
REMARK SMILES IDX 88 67 53 68 54 69 68 71 89 72 56 73 40 74 41 75 49 76 42 77
REMARK SMILES IDX 44 78 50 79 43 80 45 81 46 82 47 83 48 84 72 85 73 86 81 87
REMARK SMILES IDX 74 88 76 89 82 90 75 91 77 92 78 93 79 94 80 95 57 96 58 97
REMARK SMILES IDX 66 98 59 99 61 100 67 101 60 102 62 103 63 104 64 105 65 106
REMARK H PARENT 21 7 8 18 28 40 87 59 55 70
REMARK Flexibility Score: inf
ROOT
ATOM      1  C   UNL A   1      31.768  28.788  26.179  1.00  0.00     0.002 C 
ENDROOT
BRANCH   1   2
ATOM      2  C   UNL A   1      31.729  27.327  26.635  1.00  0.00     0.021 C 
BRANCH   2   3
ATOM      3  C   UNL A   1      30.444  26.596  26.266  1.00  0.00     0.116 C 
BRANCH   3   4
ATOM      4  N   UNL A   1      30.600  25.161  26.414  1.00  0.00    -0.356 N 
ATOM      5  C   UNL A   1      30.805  24.207  25.466  1.00  0.00     0.224 C 
ATOM      6  O   UNL A   1      30.842  23.029  25.823  1.00  0.00    -0.275 OA
ATOM      7  H   UNL A   1      30.552  24.828  27.339  1.00  0.00     0.163 HD
BRANCH   5   8
ATOM      8  C   UNL A   1      30.917  24.625  24.006  1.00  0.00     0.095 C 
ATOM      9  C   UNL A   1      32.414  24.920  23.718  1.00  0.00     0.095 C 
ATOM     10  C   UNL A   1      32.702  26.335  23.203  1.00  0.00     0.045 C 
ATOM     11  C   UNL A   1      31.591  27.317  22.957  1.00  0.00    -0.074 C 
ATOM     12  C   UNL A   1      29.859  25.707  23.726  1.00  0.00     0.045 C 
ATOM     13  C   UNL A   1      32.078  28.652  22.447  1.00  0.00     0.039 C 
ATOM     14  C   UNL A   1      30.301  27.034  23.195  1.00  0.00    -0.074 C 
ATOM     15  C   UNL A   1      29.184  28.019  22.960  1.00  0.00     0.039 C 
BRANCH   9  16
ATOM     16  C   UNL A   1      32.987  23.891  22.732  1.00  0.00     0.224 C 
ATOM     17  N   UNL A   1      33.406  22.650  23.105  1.00  0.00    -0.345 N 
ATOM     18  H   UNL A   1      33.650  22.083  22.339  1.00  0.00     0.164 HD
ATOM     19  O   UNL A   1      33.105  24.158  21.531  1.00  0.00    -0.275 OA
BRANCH  17  20
ATOM     20  C   UNL A   1      33.575  21.968  24.397  1.00  0.00     0.143 C 
BRANCH  20  21
ATOM     21  C   UNL A   1      33.033  20.518  24.400  1.00  0.00    -0.021 A 
ATOM     22  C   UNL A   1      32.552  17.727  24.465  1.00  0.00     0.118 A 
ATOM     23  C   UNL A   1      32.752  18.427  25.649  1.00  0.00     0.047 A 
ATOM     24  C   UNL A   1      32.464  18.427  23.264  1.00  0.00     0.047 A 
ATOM     25  C   UNL A   1      32.984  19.807  25.620  1.00  0.00     0.010 A 
ATOM     26  C   UNL A   1      32.691  19.812  23.233  1.00  0.00     0.010 A 
BRANCH  22  27
ATOM     27  O   UNL A   1      32.418  16.370  24.575  1.00  0.00    -0.497 OA
ATOM     28  C   UNL A   1      33.213  15.795  25.615  1.00  0.00     0.278 C 
ENDBRANCH  22  27
ENDBRANCH  20  21
BRANCH  20  29
ATOM     29  C   UNL A   1      35.074  21.959  24.719  1.00  0.00    -0.021 A 
ATOM     30  C   UNL A   1      35.778  20.746  24.837  1.00  0.00     0.006 A 
ATOM     31  C   UNL A   1      35.785  23.156  24.860  1.00  0.00     0.006 A 
ATOM     32  C   UNL A   1      37.158  20.735  25.026  1.00  0.00     0.000 A 
ATOM     33  C   UNL A   1      37.176  23.145  24.983  1.00  0.00     0.000 A 
ATOM     34  C   UNL A   1      37.862  21.934  25.061  1.00  0.00     0.000 A 
ENDBRANCH  20  29
ENDBRANCH  17  20
ENDBRANCH   9  16
ENDBRANCH   5   8
ENDBRANCH   3   4
ENDBRANCH   2   3
ENDBRANCH   1   2
BRANCH   1  35
ATOM     35  C   UNL A   1      32.152  29.794  27.269  1.00  0.00     0.002 C 
BRANCH  35  36
ATOM     36  C   UNL A   1      31.755  31.244  26.979  1.00  0.00     0.021 C 
BRANCH  36  37
ATOM     37  C   UNL A   1      32.929  32.180  26.723  1.00  0.00     0.116 C 
BRANCH  37  38
ATOM     38  N   UNL A   1      32.706  33.499  27.292  1.00  0.00    -0.352 N 
ATOM     39  C   UNL A   1      33.295  34.078  28.384  1.00  0.00     0.251 C 
ATOM     40  H   UNL A   1      32.038  34.054  26.827  1.00  0.00     0.163 HD
ATOM     41  O   UNL A   1      32.833  35.123  28.848  1.00  0.00    -0.269 OA
BRANCH  39  42
ATOM     42  C   UNL A   1      34.475  33.447  29.010  1.00  0.00     0.039 A 
ATOM     43  C   UNL A   1      34.287  32.368  29.877  1.00  0.00     0.014 A 
ATOM     44  C   UNL A   1      35.762  33.930  28.755  1.00  0.00     0.014 A 
ATOM     45  C   UNL A   1      35.394  31.753  30.463  1.00  0.00     0.010 A 
ATOM     46  C   UNL A   1      36.867  33.265  29.278  1.00  0.00     0.010 A 
ATOM     47  C   UNL A   1      36.694  32.184  30.155  1.00  0.00    -0.014 A 
BRANCH  47  48
ATOM     48  C   UNL A   1      37.883  31.535  30.762  1.00  0.00     0.031 A 
ATOM     49  C   UNL A   1      38.270  31.845  32.183  1.00  0.00     0.074 A 
ATOM     50  C   UNL A   1      38.654  30.720  30.015  1.00  0.00     0.049 A 
ATOM     51  N   UNL A   1      39.288  31.405  32.877  1.00  0.00    -0.248 NA
ATOM     52  C   UNL A   1      37.418  32.799  32.914  1.00  0.00     0.031 C 
ATOM     53  C   UNL A   1      38.429  30.402  28.603  1.00  0.00     0.029 A 
ATOM     54  N   UNL A   1      39.795  30.027  30.334  1.00  0.00    -0.354 N 
ATOM     55  C   UNL A   1      39.219  32.050  34.105  1.00  0.00     0.074 A 
ATOM     56  C   UNL A   1      38.085  32.945  34.049  1.00  0.00     0.031 C 
ATOM     57  C   UNL A   1      39.393  29.569  28.181  1.00  0.00     0.029 A 
ATOM     58  C   UNL A   1      40.319  29.315  29.281  1.00  0.00     0.049 A 
ATOM     59  H   UNL A   1      40.199  30.040  31.231  1.00  0.00     0.167 HD
ATOM     60  C   UNL A   1      40.006  31.890  35.195  1.00  0.00     0.034 A 
ATOM     61  C   UNL A   1      41.421  28.543  29.211  1.00  0.00     0.034 A 
ATOM     62  C   UNL A   1      41.107  30.966  35.262  1.00  0.00     0.049 A 
ATOM     63  C   UNL A   1      42.255  28.346  30.448  1.00  0.00     0.074 A 
ATOM     64  C   UNL A   1      41.914  30.666  36.344  1.00  0.00     0.029 A 
ATOM     65  N   UNL A   1      41.557  30.196  34.200  1.00  0.00    -0.354 N 
ATOM     66  N   UNL A   1      42.083  28.847  31.648  1.00  0.00    -0.248 NA
ATOM     67  C   UNL A   1      43.411  27.447  30.332  1.00  0.00     0.031 C 
ATOM     68  C   UNL A   1      42.869  29.731  35.930  1.00  0.00     0.029 A 
ATOM     69  C   UNL A   1      42.636  29.427  34.598  1.00  0.00     0.049 A 
ATOM     70  H   UNL A   1      41.167  30.198  33.296  1.00  0.00     0.167 HD
ATOM     71  C   UNL A   1      43.082  28.292  32.439  1.00  0.00     0.074 A 
ATOM     72  C   UNL A   1      43.845  27.404  31.585  1.00  0.00     0.031 C 
ATOM     73  C   UNL A   1      43.351  28.507  33.751  1.00  0.00     0.034 A 
BRANCH  60  74
ATOM     74  C   UNL A   1      39.672  32.698  36.423  1.00  0.00     0.023 A 
ATOM     75  C   UNL A   1      40.308  33.940  36.635  1.00  0.00     0.012 A 
ATOM     76  C   UNL A   1      38.705  32.254  37.345  1.00  0.00     0.148 A 
ATOM     77  C   UNL A   1      40.019  34.704  37.764  1.00  0.00     0.002 A 
ATOM     78  C   UNL A   1      38.387  33.044  38.445  1.00  0.00     0.091 A 
ATOM     79  F   UNL A   1      38.126  31.062  37.142  1.00  0.00    -0.205 F 
ATOM     80  C   UNL A   1      39.053  34.262  38.662  1.00  0.00     0.022 A 
BRANCH  78  81
ATOM     81  S   UNL A   1      37.101  32.600  39.616  1.00  0.00     0.127 S 
ATOM     82  O   UNL A   1      35.915  32.588  38.761  1.00  0.00    -0.237 OA
ATOM     83  O   UNL A   1      37.537  31.279  40.069  1.00  0.00    -0.237 OA
ATOM     84  O   UNL A   1      37.121  33.631  40.644  1.00  0.00    -0.744 OA
ENDBRANCH  78  81
ENDBRANCH  60  74
BRANCH  61  85
ATOM     85  C   UNL A   1      41.754  27.835  27.942  1.00  0.00     0.023 A 
ATOM     86  C   UNL A   1      42.275  28.570  26.859  1.00  0.00     0.012 A 
ATOM     87  C   UNL A   1      41.587  26.443  27.811  1.00  0.00     0.148 A 
ATOM     88  C   UNL A   1      42.595  27.936  25.658  1.00  0.00     0.002 A 
ATOM     89  C   UNL A   1      41.959  25.810  26.632  1.00  0.00     0.091 A 
ATOM     90  F   UNL A   1      41.083  25.764  28.852  1.00  0.00    -0.205 F 
ATOM     91  C   UNL A   1      42.446  26.557  25.547  1.00  0.00     0.022 A 
BRANCH  89  92
ATOM     92  S   UNL A   1      41.923  24.024  26.441  1.00  0.00     0.127 S 
ATOM     93  O   UNL A   1      42.661  23.584  27.622  1.00  0.00    -0.237 OA
ATOM     94  O   UNL A   1      40.486  23.748  26.472  1.00  0.00    -0.237 OA
ATOM     95  O   UNL A   1      42.561  23.753  25.160  1.00  0.00    -0.744 OA
ENDBRANCH  89  92
ENDBRANCH  61  85
BRANCH  73  96
ATOM     96  C   UNL A   1      44.492  27.737  34.366  1.00  0.00     0.023 A 
ATOM     97  C   UNL A   1      45.796  28.270  34.340  1.00  0.00     0.012 A 
ATOM     98  C   UNL A   1      44.256  26.518  35.033  1.00  0.00     0.148 A 
ATOM     99  C   UNL A   1      46.853  27.585  34.938  1.00  0.00     0.002 A 
ATOM    100  C   UNL A   1      45.305  25.867  35.671  1.00  0.00     0.091 A 
ATOM    101  F   UNL A   1      43.012  26.018  35.031  1.00  0.00    -0.205 F 
ATOM    102  C   UNL A   1      46.606  26.392  35.613  1.00  0.00     0.022 A 
BRANCH 100 103
ATOM    103  S   UNL A   1      45.060  24.381  36.649  1.00  0.00     0.127 S 
ATOM    104  O   UNL A   1      44.140  24.852  37.682  1.00  0.00    -0.237 OA
ATOM    105  O   UNL A   1      44.468  23.463  35.676  1.00  0.00    -0.237 OA
ATOM    106  O   UNL A   1      46.383  23.989  37.120  1.00  0.00    -0.744 OA
ENDBRANCH 100 103
ENDBRANCH  73  96
ENDBRANCH  47  48
ENDBRANCH  39  42
ENDBRANCH  37  38
ENDBRANCH  36  37
ENDBRANCH  35  36
ENDBRANCH   1  35
TORSDOF 21
ENDMDL
MODEL 3
REMARK VINA RESULT:     -12.2      0.715      7.361
REMARK SMILES COc1ccc([C@H](NC(=O)[C@H]2CC(C)=C(C)C[C@@H]2C(=O)NCCCCCCNC(=O)c2ccc(-c3c4nc(c(-c5cccc(S(=O)(=O)[O-])c5F)c5ccc([nH]5)c(-c5cccc(S(=O)(=O)[O-])c5F)c5nc(c(-c6cccc(S(=O)(=O)[O-])c6F)c6ccc3[nH]6)C=C5)C=C4)cc2)c2ccccc2)cc1
REMARK SMILES IDX 24 1 23 2 22 3 21 4 19 5 20 6 18 8 11 9 12 10 13 11 17 12
REMARK SMILES IDX 14 13 15 14 16 15 9 16 8 17 10 19 7 20 6 21 3 22 4 23 101 24
REMARK SMILES IDX 5 25 100 26 2 27 1 28 94 29 95 30 99 31 96 32 98 33 97 34
REMARK SMILES IDX 25 35 26 36 27 37 28 38 29 39 30 41 31 42 32 43 93 44 33 45
REMARK SMILES IDX 92 46 34 47 35 48 36 49 86 50 37 51 91 52 85 53 87 54 38 55
REMARK SMILES IDX 90 56 84 57 83 58 39 60 71 61 51 62 70 63 52 64 55 65 69 66
REMARK SMILES IDX 88 67 53 68 54 69 68 71 89 72 56 73 40 74 41 75 49 76 42 77
REMARK SMILES IDX 44 78 50 79 43 80 45 81 46 82 47 83 48 84 72 85 73 86 81 87
REMARK SMILES IDX 74 88 76 89 82 90 75 91 77 92 78 93 79 94 80 95 57 96 58 97
REMARK SMILES IDX 66 98 59 99 61 100 67 101 60 102 62 103 63 104 64 105 65 106
REMARK H PARENT 21 7 8 18 28 40 87 59 55 70
REMARK Flexibility Score: inf
ROOT
ATOM      1  C   UNL A   1      31.168  29.431  26.109  1.00  0.00     0.002 C 
ENDROOT
BRANCH   1   2
ATOM      2  C   UNL A   1      31.738  28.256  26.909  1.00  0.00     0.021 C 
BRANCH   2   3
ATOM      3  C   UNL A   1      32.186  27.080  26.048  1.00  0.00     0.116 C 
BRANCH   3   4
ATOM      4  N   UNL A   1      31.517  25.857  26.451  1.00  0.00    -0.356 N 
ATOM      5  C   UNL A   1      30.747  25.007  25.719  1.00  0.00     0.224 C 
ATOM      6  O   UNL A   1      30.222  24.054  26.295  1.00  0.00    -0.275 OA
ATOM      7  H   UNL A   1      31.638  25.604  27.394  1.00  0.00     0.163 HD
BRANCH   5   8
ATOM      8  C   UNL A   1      30.518  25.299  24.242  1.00  0.00     0.095 C 
ATOM      9  C   UNL A   1      31.877  25.741  23.637  1.00  0.00     0.095 C 
ATOM     10  C   UNL A   1      31.869  27.127  22.981  1.00  0.00     0.045 C 
ATOM     11  C   UNL A   1      30.610  27.944  22.901  1.00  0.00    -0.074 C 
ATOM     12  C   UNL A   1      29.290  26.219  24.112  1.00  0.00     0.045 C 
ATOM     13  C   UNL A   1      30.806  29.275  22.215  1.00  0.00     0.039 C 
ATOM     14  C   UNL A   1      29.440  27.535  23.416  1.00  0.00    -0.074 C 
ATOM     15  C   UNL A   1      28.176  28.355  23.348  1.00  0.00     0.039 C 
BRANCH   9  16
ATOM     16  C   UNL A   1      32.381  24.700  22.625  1.00  0.00     0.224 C 
ATOM     17  N   UNL A   1      32.817  23.460  22.982  1.00  0.00    -0.345 N 
ATOM     18  H   UNL A   1      33.009  22.885  22.207  1.00  0.00     0.164 HD
ATOM     19  O   UNL A   1      32.423  24.956  21.417  1.00  0.00    -0.275 OA
BRANCH  17  20
ATOM     20  C   UNL A   1      33.065  22.788  24.267  1.00  0.00     0.143 C 
BRANCH  20  21
ATOM     21  C   UNL A   1      32.759  21.271  24.234  1.00  0.00    -0.021 A 
ATOM     22  C   UNL A   1      32.727  18.441  24.130  1.00  0.00     0.118 A 
ATOM     23  C   UNL A   1      33.039  19.091  25.319  1.00  0.00     0.047 A 
ATOM     24  C   UNL A   1      32.309  19.188  23.032  1.00  0.00     0.047 A 
ATOM     25  C   UNL A   1      33.050  20.489  25.374  1.00  0.00     0.010 A 
ATOM     26  C   UNL A   1      32.314  20.591  23.087  1.00  0.00     0.010 A 
BRANCH  22  27
ATOM     27  O   UNL A   1      32.823  17.076  24.139  1.00  0.00    -0.497 OA
ATOM     28  C   UNL A   1      32.528  16.487  25.408  1.00  0.00     0.278 C 
ENDBRANCH  22  27
ENDBRANCH  20  21
BRANCH  20  29
ATOM     29  C   UNL A   1      34.539  23.010  24.624  1.00  0.00    -0.021 A 
ATOM     30  C   UNL A   1      35.560  22.650  23.725  1.00  0.00     0.006 A 
ATOM     31  C   UNL A   1      34.902  23.617  25.832  1.00  0.00     0.006 A 
ATOM     32  C   UNL A   1      36.894  22.944  24.000  1.00  0.00     0.000 A 
ATOM     33  C   UNL A   1      36.231  23.971  26.077  1.00  0.00     0.000 A 
ATOM     34  C   UNL A   1      37.225  23.639  25.159  1.00  0.00     0.000 A 
ENDBRANCH  20  29
ENDBRANCH  17  20
ENDBRANCH   9  16
ENDBRANCH   5   8
ENDBRANCH   3   4
ENDBRANCH   2   3
ENDBRANCH   1   2
BRANCH   1  35
ATOM     35  C   UNL A   1      32.135  30.604  25.907  1.00  0.00     0.002 C 
BRANCH  35  36
ATOM     36  C   UNL A   1      31.871  31.819  26.799  1.00  0.00     0.021 C 
BRANCH  36  37
ATOM     37  C   UNL A   1      33.096  32.684  27.065  1.00  0.00     0.116 C 
BRANCH  37  38
ATOM     38  N   UNL A   1      32.758  33.894  27.797  1.00  0.00    -0.352 N 
ATOM     39  C   UNL A   1      33.262  34.352  28.984  1.00  0.00     0.251 C 
ATOM     40  H   UNL A   1      32.071  34.463  27.381  1.00  0.00     0.163 HD
ATOM     41  O   UNL A   1      32.709  35.290  29.564  1.00  0.00    -0.269 OA
BRANCH  39  42
ATOM     42  C   UNL A   1      34.460  33.719  29.574  1.00  0.00     0.039 A 
ATOM     43  C   UNL A   1      35.724  34.126  29.142  1.00  0.00     0.014 A 
ATOM     44  C   UNL A   1      34.334  32.714  30.537  1.00  0.00     0.014 A 
ATOM     45  C   UNL A   1      36.864  33.547  29.701  1.00  0.00     0.010 A 
ATOM     46  C   UNL A   1      35.471  32.196  31.150  1.00  0.00     0.010 A 
ATOM     47  C   UNL A   1      36.748  32.590  30.723  1.00  0.00    -0.014 A 
BRANCH  47  48
ATOM     48  C   UNL A   1      37.950  31.971  31.336  1.00  0.00     0.031 A 
ATOM     49  C   UNL A   1      38.516  32.525  32.616  1.00  0.00     0.074 A 
ATOM     50  C   UNL A   1      38.572  30.954  30.707  1.00  0.00     0.049 A 
ATOM     51  N   UNL A   1      39.573  32.142  33.285  1.00  0.00    -0.248 NA
ATOM     52  C   UNL A   1      37.821  33.681  33.207  1.00  0.00     0.031 C 
ATOM     53  C   UNL A   1      38.167  30.379  29.423  1.00  0.00     0.029 A 
ATOM     54  N   UNL A   1      39.690  30.238  31.053  1.00  0.00    -0.354 N 
ATOM     55  C   UNL A   1      39.688  33.027  34.350  1.00  0.00     0.074 A 
ATOM     56  C   UNL A   1      38.621  33.993  34.217  1.00  0.00     0.031 C 
ATOM     57  C   UNL A   1      39.016  29.392  29.095  1.00  0.00     0.029 A 
ATOM     58  C   UNL A   1      40.041  29.282  30.129  1.00  0.00     0.049 A 
ATOM     59  H   UNL A   1      40.194  30.395  31.884  1.00  0.00     0.167 HD
ATOM     60  C   UNL A   1      40.581  33.019  35.368  1.00  0.00     0.034 A 
ATOM     61  C   UNL A   1      41.071  28.414  30.118  1.00  0.00     0.034 A 
ATOM     62  C   UNL A   1      41.615  32.030  35.523  1.00  0.00     0.049 A 
ATOM     63  C   UNL A   1      42.024  28.396  31.282  1.00  0.00     0.074 A 
ATOM     64  C   UNL A   1      42.516  31.882  36.561  1.00  0.00     0.029 A 
ATOM     65  N   UNL A   1      41.887  31.023  34.609  1.00  0.00    -0.354 N 
ATOM     66  N   UNL A   1      42.024  29.143  32.360  1.00  0.00    -0.248 NA
ATOM     67  C   UNL A   1      43.094  27.389  31.248  1.00  0.00     0.031 C 
ATOM     68  C   UNL A   1      43.350  30.799  36.263  1.00  0.00     0.029 A 
ATOM     69  C   UNL A   1      42.947  30.254  35.055  1.00  0.00     0.049 A 
ATOM     70  H   UNL A   1      41.398  30.878  33.767  1.00  0.00     0.167 HD
ATOM     71  C   UNL A   1      43.066  28.670  33.151  1.00  0.00     0.074 A 
ATOM     72  C   UNL A   1      43.662  27.561  32.434  1.00  0.00     0.031 C 
ATOM     73  C   UNL A   1      43.496  29.120  34.356  1.00  0.00     0.034 A 
BRANCH  60  74
ATOM     74  C   UNL A   1      40.446  34.086  36.424  1.00  0.00     0.023 A 
ATOM     75  C   UNL A   1      40.889  35.397  36.151  1.00  0.00     0.012 A 
ATOM     76  C   UNL A   1      39.846  33.806  37.668  1.00  0.00     0.148 A 
ATOM     77  C   UNL A   1      40.779  36.400  37.113  1.00  0.00     0.002 A 
ATOM     78  C   UNL A   1      39.696  34.824  38.604  1.00  0.00     0.091 A 
ATOM     79  F   UNL A   1      39.450  32.551  37.921  1.00  0.00    -0.205 F 
ATOM     80  C   UNL A   1      40.174  36.117  38.333  1.00  0.00     0.022 A 
BRANCH  78  81
ATOM     81  S   UNL A   1      38.859  34.579  40.173  1.00  0.00     0.127 S 
ATOM     82  O   UNL A   1      37.665  33.844  39.759  1.00  0.00    -0.237 OA
ATOM     83  O   UNL A   1      39.833  33.785  40.923  1.00  0.00    -0.237 OA
ATOM     84  O   UNL A   1      38.618  35.911  40.712  1.00  0.00    -0.744 OA
ENDBRANCH  78  81
ENDBRANCH  60  74
BRANCH  61  85
ATOM     85  C   UNL A   1      41.207  27.436  29.001  1.00  0.00     0.023 A 
ATOM     86  C   UNL A   1      40.471  26.236  29.041  1.00  0.00     0.012 A 
ATOM     87  C   UNL A   1      42.032  27.700  27.890  1.00  0.00     0.148 A 
ATOM     88  C   UNL A   1      40.578  25.301  28.010  1.00  0.00     0.002 A 
ATOM     89  C   UNL A   1      42.093  26.790  26.843  1.00  0.00     0.091 A 
ATOM     90  F   UNL A   1      42.729  28.845  27.876  1.00  0.00    -0.205 F 
ATOM     91  C   UNL A   1      41.381  25.582  26.909  1.00  0.00     0.022 A 
BRANCH  89  92
ATOM     92  S   UNL A   1      42.997  27.122  25.326  1.00  0.00     0.127 S 
ATOM     93  O   UNL A   1      44.325  27.452  25.837  1.00  0.00    -0.237 OA
ATOM     94  O   UNL A   1      42.905  25.835  24.634  1.00  0.00    -0.237 OA
ATOM     95  O   UNL A   1      42.282  28.209  24.672  1.00  0.00    -0.744 OA
ENDBRANCH  89  92
ENDBRANCH  61  85
BRANCH  73  96
ATOM     96  C   UNL A   1      44.643  28.389  35.006  1.00  0.00     0.023 A 
ATOM     97  C   UNL A   1      45.961  28.857  34.840  1.00  0.00     0.012 A 
ATOM     98  C   UNL A   1      44.402  27.280  35.842  1.00  0.00     0.148 A 
ATOM     99  C   UNL A   1      47.026  28.211  35.467  1.00  0.00     0.002 A 
ATOM    100  C   UNL A   1      45.462  26.674  36.505  1.00  0.00     0.091 A 
ATOM    101  F   UNL A   1      43.143  26.839  35.974  1.00  0.00    -0.205 F 
ATOM    102  C   UNL A   1      46.776  27.129  36.308  1.00  0.00     0.022 A 
BRANCH 100 103
ATOM    103  S   UNL A   1      45.222  25.341  37.685  1.00  0.00     0.127 S 
ATOM    104  O   UNL A   1      44.493  26.019  38.755  1.00  0.00    -0.237 OA
ATOM    105  O   UNL A   1      44.426  24.384  36.916  1.00  0.00    -0.237 OA
ATOM    106  O   UNL A   1      46.556  24.871  38.036  1.00  0.00    -0.744 OA
ENDBRANCH 100 103
ENDBRANCH  73  96
ENDBRANCH  47  48
ENDBRANCH  39  42
ENDBRANCH  37  38
ENDBRANCH  36  37
ENDBRANCH  35  36
ENDBRANCH   1  35
TORSDOF 21
ENDMDL
