MODEL 1
REMARK VINA RESULT:     -10.9      0.000      0.000
REMARK SMILES COc1ccc(/C=C(\Sc2nc(C)n[nH]2)C(=O)NCCCCCCNC(=O)c2ccc(-c3c4nc(c(-c5cccc(S(=O)(=O)[O-])c5F)c5ccc([nH]5)c(-c5cccc(S(=O)(=O)[O-])c5F)c5nc(c(-c6cccc(S(=O)(=O)[O-])c6F)c6ccc3[nH]6)C=C5)C=C4)cc2)c(OC)c1
REMARK SMILES IDX 22 1 21 2 20 3 19 4 18 5 16 6 17 7 8 9 7 10 6 11 3 12 4 13
REMARK SMILES IDX 94 14 5 15 91 16 2 17 1 18 92 19 93 20 9 21 10 22 11 23
REMARK SMILES IDX 15 24 12 25 14 26 13 28 23 29 24 30 25 31 26 32 27 34 28 35
REMARK SMILES IDX 29 36 90 37 30 38 89 39 31 40 32 41 33 42 83 43 34 44 88 45
REMARK SMILES IDX 82 46 84 47 35 48 87 49 81 50 80 51 36 53 68 54 48 55 67 56
REMARK SMILES IDX 49 57 52 58 66 59 85 60 50 61 51 62 65 64 86 65 53 66 37 67
REMARK SMILES IDX 38 68 46 69 39 70 41 71 47 72 40 73 42 74 43 75 44 76 45 77
REMARK SMILES IDX 69 78 70 79 78 80 71 81 73 82 79 83 72 84 74 85 75 86 76 87
REMARK SMILES IDX 77 88 54 89 55 90 63 91 56 92 58 93 64 94 57 95 59 96 60 97
REMARK SMILES IDX 61 98 62 99
REMARK H PARENT 18 8 15 27 25 33 84 52 52 63
REMARK Flexibility Score: inf
ROOT
ATOM      1  C   UNL A   1      33.065  29.870  27.217  1.00  0.00     0.002 C 
ENDROOT
BRANCH   1   2
ATOM      2  C   UNL A   1      31.734  29.111  27.082  1.00  0.00     0.002 C 
BRANCH   2   3
ATOM      3  C   UNL A   1      31.821  27.581  27.173  1.00  0.00     0.021 C 
BRANCH   3   4
ATOM      4  C   UNL A   1      31.026  26.843  26.090  1.00  0.00     0.116 C 
BRANCH   4   5
ATOM      5  N   UNL A   1      30.378  25.658  26.631  1.00  0.00    -0.352 N 
ATOM      6  C   UNL A   1      30.611  24.316  26.514  1.00  0.00     0.258 C 
ATOM      7  O   UNL A   1      29.852  23.586  27.162  1.00  0.00    -0.269 OA
ATOM      8  H   UNL A   1      29.605  25.869  27.204  1.00  0.00     0.163 HD
BRANCH   6   9
ATOM      9  C   UNL A   1      31.779  23.731  25.731  1.00  0.00     0.081 C 
ATOM     10  C   UNL A   1      32.843  23.463  26.525  1.00  0.00     0.033 C 
BRANCH  10  11
ATOM     11  C   UNL A   1      34.194  22.954  26.227  1.00  0.00     0.018 A 
ATOM     12  C   UNL A   1      36.758  22.118  25.425  1.00  0.00     0.122 A 
ATOM     13  C   UNL A   1      36.527  23.449  25.761  1.00  0.00     0.047 A 
ATOM     14  C   UNL A   1      35.753  21.179  25.636  1.00  0.00     0.093 A 
ATOM     15  C   UNL A   1      35.254  23.864  26.162  1.00  0.00     0.016 A 
ATOM     16  C   UNL A   1      34.493  21.585  26.103  1.00  0.00     0.129 A 
BRANCH  12  17
ATOM     17  O   UNL A   1      38.004  21.840  24.933  1.00  0.00    -0.497 OA
ATOM     18  C   UNL A   1      39.038  21.737  25.908  1.00  0.00     0.278 C 
ENDBRANCH  12  17
BRANCH  16  19
ATOM     19  O   UNL A   1      33.534  20.665  26.460  1.00  0.00    -0.496 OA
ATOM     20  C   UNL A   1      32.921  20.024  25.337  1.00  0.00     0.278 C 
ENDBRANCH  16  19
ENDBRANCH  10  11
BRANCH   9  21
ATOM     21  S   UNL A   1      31.465  23.431  24.054  1.00  0.00    -0.045 SA
BRANCH  21  22
ATOM     22  C   UNL A   1      31.978  24.792  23.163  1.00  0.00     0.188 A 
ATOM     23  N   UNL A   1      32.745  25.772  23.559  1.00  0.00    -0.206 NA
ATOM     24  N   UNL A   1      31.786  24.878  21.817  1.00  0.00    -0.254 N 
ATOM     25  C   UNL A   1      32.981  26.464  22.400  1.00  0.00     0.148 A 
ATOM     26  N   UNL A   1      32.352  25.990  21.313  1.00  0.00    -0.158 NA
ATOM     27  H   UNL A   1      31.297  24.212  21.281  1.00  0.00     0.192 HD
ATOM     28  C   UNL A   1      33.846  27.656  22.379  1.00  0.00     0.092 C 
ENDBRANCH  21  22
ENDBRANCH   9  21
ENDBRANCH   6   9
ENDBRANCH   4   5
ENDBRANCH   3   4
ENDBRANCH   2   3
ENDBRANCH   1   2
BRANCH   1  29
ATOM     29  C   UNL A   1      34.328  29.123  26.765  1.00  0.00     0.021 C 
BRANCH  29  30
ATOM     30  C   UNL A   1      35.606  29.602  27.442  1.00  0.00     0.116 C 
BRANCH  30  31
ATOM     31  N   UNL A   1      35.388  30.818  28.225  1.00  0.00    -0.352 N 
ATOM     32  C   UNL A   1      35.931  31.170  29.439  1.00  0.00     0.251 C 
ATOM     33  H   UNL A   1      34.768  31.472  27.830  1.00  0.00     0.163 HD
ATOM     34  O   UNL A   1      35.371  32.020  30.137  1.00  0.00    -0.269 OA
BRANCH  32  35
ATOM     35  C   UNL A   1      37.175  30.534  29.904  1.00  0.00     0.039 A 
ATOM     36  C   UNL A   1      37.162  29.230  30.407  1.00  0.00     0.014 A 
ATOM     37  C   UNL A   1      38.368  31.253  29.840  1.00  0.00     0.014 A 
ATOM     38  C   UNL A   1      38.365  28.636  30.773  1.00  0.00     0.010 A 
ATOM     39  C   UNL A   1      39.568  30.619  30.059  1.00  0.00     0.010 A 
ATOM     40  C   UNL A   1      39.573  29.328  30.570  1.00  0.00    -0.014 A 
BRANCH  40  41
ATOM     41  C   UNL A   1      40.850  28.640  30.735  1.00  0.00     0.031 A 
ATOM     42  C   UNL A   1      41.338  28.654  32.137  1.00  0.00     0.074 A 
ATOM     43  C   UNL A   1      41.446  27.899  29.775  1.00  0.00     0.049 A 
ATOM     44  N   UNL A   1      42.294  29.378  32.618  1.00  0.00    -0.248 NA
ATOM     45  C   UNL A   1      40.552  27.949  33.163  1.00  0.00     0.031 C 
ATOM     46  C   UNL A   1      40.915  27.563  28.449  1.00  0.00     0.029 A 
ATOM     47  N   UNL A   1      42.598  27.169  29.829  1.00  0.00    -0.354 N 
ATOM     48  C   UNL A   1      42.423  28.972  33.942  1.00  0.00     0.074 A 
ATOM     49  C   UNL A   1      41.183  28.328  34.278  1.00  0.00     0.031 C 
ATOM     50  C   UNL A   1      41.599  26.515  27.941  1.00  0.00     0.029 A 
ATOM     51  C   UNL A   1      42.713  26.214  28.819  1.00  0.00     0.049 A 
ATOM     52  H   UNL A   1      43.286  27.305  30.519  1.00  0.00     0.167 HD
ATOM     53  C   UNL A   1      43.658  28.887  34.512  1.00  0.00     0.034 A 
ATOM     54  C   UNL A   1      43.634  25.222  28.730  1.00  0.00     0.034 A 
ATOM     55  C   UNL A   1      44.639  29.600  33.724  1.00  0.00     0.049 A 
ATOM     56  C   UNL A   1      44.782  25.617  29.571  1.00  0.00     0.074 A 
ATOM     57  C   UNL A   1      44.763  30.880  33.218  1.00  0.00     0.029 A 
ATOM     58  N   UNL A   1      45.518  28.825  33.006  1.00  0.00    -0.354 N 
ATOM     59  N   UNL A   1      45.574  26.609  29.281  1.00  0.00    -0.248 NA
ATOM     60  C   UNL A   1      44.819  25.165  30.950  1.00  0.00     0.031 C 
ATOM     61  C   UNL A   1      45.372  30.717  31.937  1.00  0.00     0.029 A 
ATOM     62  C   UNL A   1      45.663  29.364  31.760  1.00  0.00     0.049 A 
ATOM     63  H   UNL A   1      45.969  28.015  33.336  1.00  0.00     0.167 HD
ATOM     64  C   UNL A   1      45.805  27.217  30.506  1.00  0.00     0.074 A 
ATOM     65  C   UNL A   1      45.448  26.206  31.499  1.00  0.00     0.031 C 
ATOM     66  C   UNL A   1      45.963  28.572  30.587  1.00  0.00     0.034 A 
BRANCH  53  67
ATOM     67  C   UNL A   1      44.090  27.793  35.480  1.00  0.00     0.023 A 
ATOM     68  C   UNL A   1      44.860  28.205  36.593  1.00  0.00     0.012 A 
ATOM     69  C   UNL A   1      44.071  26.405  35.205  1.00  0.00     0.148 A 
ATOM     70  C   UNL A   1      45.652  27.305  37.317  1.00  0.00     0.002 A 
ATOM     71  C   UNL A   1      44.798  25.504  35.975  1.00  0.00     0.091 A 
ATOM     72  F   UNL A   1      43.453  25.935  34.122  1.00  0.00    -0.205 F 
ATOM     73  C   UNL A   1      45.623  25.953  37.006  1.00  0.00     0.022 A 
BRANCH  71  74
ATOM     74  S   UNL A   1      44.762  23.736  35.642  1.00  0.00     0.127 S 
ATOM     75  O   UNL A   1      43.325  23.485  35.574  1.00  0.00    -0.237 OA
ATOM     76  O   UNL A   1      45.469  23.665  34.363  1.00  0.00    -0.237 OA
ATOM     77  O   UNL A   1      45.469  23.109  36.751  1.00  0.00    -0.744 OA
ENDBRANCH  71  74
ENDBRANCH  53  67
BRANCH  54  78
ATOM     78  C   UNL A   1      43.558  23.872  28.123  1.00  0.00     0.023 A 
ATOM     79  C   UNL A   1      42.500  23.007  28.478  1.00  0.00     0.012 A 
ATOM     80  C   UNL A   1      44.329  23.544  26.988  1.00  0.00     0.148 A 
ATOM     81  C   UNL A   1      42.187  21.887  27.699  1.00  0.00     0.002 A 
ATOM     82  C   UNL A   1      44.017  22.426  26.219  1.00  0.00     0.091 A 
ATOM     83  F   UNL A   1      45.304  24.380  26.608  1.00  0.00    -0.205 F 
ATOM     84  C   UNL A   1      42.937  21.604  26.562  1.00  0.00     0.022 A 
BRANCH  82  85
ATOM     85  S   UNL A   1      44.920  22.015  24.719  1.00  0.00     0.127 S 
ATOM     86  O   UNL A   1      46.250  21.706  25.245  1.00  0.00    -0.237 OA
ATOM     87  O   UNL A   1      44.173  20.862  24.226  1.00  0.00    -0.237 OA
ATOM     88  O   UNL A   1      44.865  23.211  23.888  1.00  0.00    -0.744 OA
ENDBRANCH  82  85
ENDBRANCH  54  78
BRANCH  66  89
ATOM     89  C   UNL A   1      46.249  29.328  29.313  1.00  0.00     0.023 A 
ATOM     90  C   UNL A   1      45.240  29.775  28.436  1.00  0.00     0.012 A 
ATOM     91  C   UNL A   1      47.581  29.698  29.058  1.00  0.00     0.148 A 
ATOM     92  C   UNL A   1      45.558  30.536  27.307  1.00  0.00     0.002 A 
ATOM     93  C   UNL A   1      47.887  30.496  27.964  1.00  0.00     0.091 A 
ATOM     94  F   UNL A   1      48.533  29.267  29.900  1.00  0.00    -0.205 F 
ATOM     95  C   UNL A   1      46.880  30.907  27.077  1.00  0.00     0.022 A 
BRANCH  93  96
ATOM     96  S   UNL A   1      49.556  31.093  27.691  1.00  0.00     0.127 S 
ATOM     97  O   UNL A   1      49.708  32.075  28.761  1.00  0.00    -0.237 OA
ATOM     98  O   UNL A   1      50.358  29.878  27.857  1.00  0.00    -0.237 OA
ATOM     99  O   UNL A   1      49.569  31.629  26.336  1.00  0.00    -0.744 OA
ENDBRANCH  93  96
ENDBRANCH  66  89
ENDBRANCH  40  41
ENDBRANCH  32  35
ENDBRANCH  30  31
ENDBRANCH  29  30
ENDBRANCH   1  29
TORSDOF 21
ENDMDL
MODEL 2
REMARK VINA RESULT:     -10.9      2.066      3.091
REMARK SMILES COc1ccc(/C=C(\Sc2nc(C)n[nH]2)C(=O)NCCCCCCNC(=O)c2ccc(-c3c4nc(c(-c5cccc(S(=O)(=O)[O-])c5F)c5ccc([nH]5)c(-c5cccc(S(=O)(=O)[O-])c5F)c5nc(c(-c6cccc(S(=O)(=O)[O-])c6F)c6ccc3[nH]6)C=C5)C=C4)cc2)c(OC)c1
REMARK SMILES IDX 22 1 21 2 20 3 19 4 18 5 16 6 17 7 8 9 7 10 6 11 3 12 4 13
REMARK SMILES IDX 94 14 5 15 91 16 2 17 1 18 92 19 93 20 9 21 10 22 11 23
REMARK SMILES IDX 15 24 12 25 14 26 13 28 23 29 24 30 25 31 26 32 27 34 28 35
REMARK SMILES IDX 29 36 90 37 30 38 89 39 31 40 32 41 33 42 83 43 34 44 88 45
REMARK SMILES IDX 82 46 84 47 35 48 87 49 81 50 80 51 36 53 68 54 48 55 67 56
REMARK SMILES IDX 49 57 52 58 66 59 85 60 50 61 51 62 65 64 86 65 53 66 37 67
REMARK SMILES IDX 38 68 46 69 39 70 41 71 47 72 40 73 42 74 43 75 44 76 45 77
REMARK SMILES IDX 69 78 70 79 78 80 71 81 73 82 79 83 72 84 74 85 75 86 76 87
REMARK SMILES IDX 77 88 54 89 55 90 63 91 56 92 58 93 64 94 57 95 59 96 60 97
REMARK SMILES IDX 61 98 62 99
REMARK H PARENT 18 8 15 27 25 33 84 52 52 63
REMARK Flexibility Score: inf
ROOT
ATOM      1  C   UNL A   1      34.006  29.808  27.273  1.00  0.00     0.002 C 
ENDROOT
BRANCH   1   2
ATOM      2  C   UNL A   1      32.975  28.678  27.437  1.00  0.00     0.002 C 
BRANCH   2   3
ATOM      3  C   UNL A   1      32.801  27.746  26.229  1.00  0.00     0.021 C 
BRANCH   3   4
ATOM      4  C   UNL A   1      31.413  27.107  26.127  1.00  0.00     0.116 C 
BRANCH   4   5
ATOM      5  N   UNL A   1      30.882  27.217  24.776  1.00  0.00    -0.352 N 
ATOM      6  C   UNL A   1      31.081  26.512  23.622  1.00  0.00     0.258 C 
ATOM      7  O   UNL A   1      30.414  26.884  22.649  1.00  0.00    -0.269 OA
ATOM      8  H   UNL A   1      30.243  27.959  24.672  1.00  0.00     0.163 HD
BRANCH   6   9
ATOM      9  C   UNL A   1      31.978  25.284  23.531  1.00  0.00     0.081 C 
ATOM     10  C   UNL A   1      31.303  24.138  23.789  1.00  0.00     0.033 C 
BRANCH  10  11
ATOM     11  C   UNL A   1      31.741  22.733  23.876  1.00  0.00     0.018 A 
ATOM     12  C   UNL A   1      32.324  19.983  23.974  1.00  0.00     0.122 A 
ATOM     13  C   UNL A   1      32.066  20.602  22.755  1.00  0.00     0.047 A 
ATOM     14  C   UNL A   1      32.441  20.761  25.122  1.00  0.00     0.093 A 
ATOM     15  C   UNL A   1      31.779  21.969  22.706  1.00  0.00     0.016 A 
ATOM     16  C   UNL A   1      32.218  22.146  25.062  1.00  0.00     0.129 A 
BRANCH  12  17
ATOM     17  O   UNL A   1      32.476  18.624  23.927  1.00  0.00    -0.497 OA
ATOM     18  C   UNL A   1      32.730  18.081  22.635  1.00  0.00     0.278 C 
ENDBRANCH  12  17
BRANCH  16  19
ATOM     19  O   UNL A   1      32.472  22.957  26.145  1.00  0.00    -0.496 OA
ATOM     20  C   UNL A   1      31.299  23.271  26.902  1.00  0.00     0.278 C 
ENDBRANCH  16  19
ENDBRANCH  10  11
BRANCH   9  21
ATOM     21  S   UNL A   1      33.602  25.594  23.014  1.00  0.00    -0.045 SA
BRANCH  21  22
ATOM     22  C   UNL A   1      34.629  24.461  23.769  1.00  0.00     0.188 A 
ATOM     23  N   UNL A   1      35.276  23.469  23.220  1.00  0.00    -0.206 NA
ATOM     24  N   UNL A   1      35.049  24.623  25.055  1.00  0.00    -0.254 N 
ATOM     25  C   UNL A   1      36.080  23.025  24.237  1.00  0.00     0.148 A 
ATOM     26  N   UNL A   1      35.922  23.662  25.409  1.00  0.00    -0.158 NA
ATOM     27  H   UNL A   1      34.753  25.350  25.650  1.00  0.00     0.192 HD
ATOM     28  C   UNL A   1      37.023  21.911  24.042  1.00  0.00     0.092 C 
ENDBRANCH  21  22
ENDBRANCH   9  21
ENDBRANCH   6   9
ENDBRANCH   4   5
ENDBRANCH   3   4
ENDBRANCH   2   3
ENDBRANCH   1   2
BRANCH   1  29
ATOM     29  C   UNL A   1      33.529  31.226  27.616  1.00  0.00     0.021 C 
BRANCH  29  30
ATOM     30  C   UNL A   1      34.649  32.177  28.018  1.00  0.00     0.116 C 
BRANCH  30  31
ATOM     31  N   UNL A   1      34.618  32.486  29.446  1.00  0.00    -0.352 N 
ATOM     32  C   UNL A   1      35.372  31.945  30.462  1.00  0.00     0.251 C 
ATOM     33  H   UNL A   1      33.969  33.173  29.719  1.00  0.00     0.163 HD
ATOM     34  O   UNL A   1      34.974  32.020  31.628  1.00  0.00    -0.269 OA
BRANCH  32  35
ATOM     35  C   UNL A   1      36.648  31.275  30.159  1.00  0.00     0.039 A 
ATOM     36  C   UNL A   1      37.833  32.010  30.069  1.00  0.00     0.014 A 
ATOM     37  C   UNL A   1      36.657  29.896  29.956  1.00  0.00     0.014 A 
ATOM     38  C   UNL A   1      39.030  31.336  29.850  1.00  0.00     0.010 A 
ATOM     39  C   UNL A   1      37.851  29.217  29.889  1.00  0.00     0.010 A 
ATOM     40  C   UNL A   1      39.036  29.931  29.787  1.00  0.00    -0.014 A 
BRANCH  40  41
ATOM     41  C   UNL A   1      40.301  29.202  29.784  1.00  0.00     0.031 A 
ATOM     42  C   UNL A   1      40.823  28.942  31.149  1.00  0.00     0.074 A 
ATOM     43  C   UNL A   1      40.857  28.646  28.686  1.00  0.00     0.049 A 
ATOM     44  N   UNL A   1      41.806  29.546  31.732  1.00  0.00    -0.248 NA
ATOM     45  C   UNL A   1      40.046  28.071  32.046  1.00  0.00     0.031 C 
ATOM     46  C   UNL A   1      40.288  28.575  27.335  1.00  0.00     0.029 A 
ATOM     47  N   UNL A   1      41.994  27.899  28.569  1.00  0.00    -0.354 N 
ATOM     48  C   UNL A   1      41.957  28.895  32.951  1.00  0.00     0.074 A 
ATOM     49  C   UNL A   1      40.711  28.221  33.194  1.00  0.00     0.031 C 
ATOM     50  C   UNL A   1      40.936  27.631  26.620  1.00  0.00     0.029 A 
ATOM     51  C   UNL A   1      42.063  27.150  27.394  1.00  0.00     0.049 A 
ATOM     52  H   UNL A   1      42.701  27.890  29.253  1.00  0.00     0.167 HD
ATOM     53  C   UNL A   1      43.203  28.682  33.461  1.00  0.00     0.034 A 
ATOM     54  C   UNL A   1      42.959  26.176  27.094  1.00  0.00     0.034 A 
ATOM     55  C   UNL A   1      44.181  29.514  32.794  1.00  0.00     0.049 A 
ATOM     56  C   UNL A   1      44.135  26.386  27.963  1.00  0.00     0.074 A 
ATOM     57  C   UNL A   1      44.322  30.864  32.535  1.00  0.00     0.029 A 
ATOM     58  N   UNL A   1      45.025  28.873  31.919  1.00  0.00    -0.354 N 
ATOM     59  N   UNL A   1      44.942  27.400  27.843  1.00  0.00    -0.248 NA
ATOM     60  C   UNL A   1      44.196  25.681  29.230  1.00  0.00     0.031 C 
ATOM     61  C   UNL A   1      44.896  30.935  31.230  1.00  0.00     0.029 A 
ATOM     62  C   UNL A   1      45.153  29.635  30.794  1.00  0.00     0.049 A 
ATOM     63  H   UNL A   1      45.465  28.008  32.078  1.00  0.00     0.167 HD
ATOM     64  C   UNL A   1      45.217  27.762  29.154  1.00  0.00     0.074 A 
ATOM     65  C   UNL A   1      44.861  26.588  29.948  1.00  0.00     0.031 C 
ATOM     66  C   UNL A   1      45.406  29.074  29.484  1.00  0.00     0.034 A 
BRANCH  53  67
ATOM     67  C   UNL A   1      43.634  27.417  34.192  1.00  0.00     0.023 A 
ATOM     68  C   UNL A   1      43.289  26.188  33.583  1.00  0.00     0.012 A 
ATOM     69  C   UNL A   1      44.048  27.357  35.543  1.00  0.00     0.148 A 
ATOM     70  C   UNL A   1      43.249  24.990  34.306  1.00  0.00     0.002 A 
ATOM     71  C   UNL A   1      44.083  26.153  36.237  1.00  0.00     0.091 A 
ATOM     72  F   UNL A   1      44.301  28.472  36.228  1.00  0.00    -0.205 F 
ATOM     73  C   UNL A   1      43.644  24.973  35.636  1.00  0.00     0.022 A 
BRANCH  71  74
ATOM     74  S   UNL A   1      44.627  26.067  37.950  1.00  0.00     0.127 S 
ATOM     75  O   UNL A   1      43.502  26.690  38.641  1.00  0.00    -0.237 OA
ATOM     76  O   UNL A   1      44.756  24.622  38.144  1.00  0.00    -0.237 OA
ATOM     77  O   UNL A   1      45.890  26.792  38.002  1.00  0.00    -0.744 OA
ENDBRANCH  71  74
ENDBRANCH  53  67
BRANCH  54  78
ATOM     78  C   UNL A   1      42.839  24.967  26.246  1.00  0.00     0.023 A 
ATOM     79  C   UNL A   1      43.828  24.696  25.275  1.00  0.00     0.012 A 
ATOM     80  C   UNL A   1      41.940  23.933  26.582  1.00  0.00     0.148 A 
ATOM     81  C   UNL A   1      43.952  23.426  24.702  1.00  0.00     0.002 A 
ATOM     82  C   UNL A   1      42.064  22.672  26.005  1.00  0.00     0.091 A 
ATOM     83  F   UNL A   1      41.027  24.158  27.537  1.00  0.00    -0.205 F 
ATOM     84  C   UNL A   1      43.079  22.410  25.076  1.00  0.00     0.022 A 
BRANCH  82  85
ATOM     85  S   UNL A   1      40.993  21.303  26.463  1.00  0.00     0.127 S 
ATOM     86  O   UNL A   1      41.585  20.195  25.712  1.00  0.00    -0.237 OA
ATOM     87  O   UNL A   1      41.190  21.238  27.908  1.00  0.00    -0.237 OA
ATOM     88  O   UNL A   1      39.658  21.684  26.020  1.00  0.00    -0.744 OA
ENDBRANCH  82  85
ENDBRANCH  54  78
BRANCH  66  89
ATOM     89  C   UNL A   1      45.679  30.052  28.369  1.00  0.00     0.023 A 
ATOM     90  C   UNL A   1      44.660  30.651  27.598  1.00  0.00     0.012 A 
ATOM     91  C   UNL A   1      47.007  30.466  28.172  1.00  0.00     0.148 A 
ATOM     92  C   UNL A   1      44.966  31.607  26.626  1.00  0.00     0.002 A 
ATOM     93  C   UNL A   1      47.302  31.452  27.240  1.00  0.00     0.091 A 
ATOM     94  F   UNL A   1      47.969  29.890  28.911  1.00  0.00    -0.205 F 
ATOM     95  C   UNL A   1      46.286  32.017  26.454  1.00  0.00     0.022 A 
BRANCH  93  96
ATOM     96  S   UNL A   1      48.968  32.093  27.065  1.00  0.00     0.127 S 
ATOM     97  O   UNL A   1      48.764  33.236  26.180  1.00  0.00    -0.237 OA
ATOM     98  O   UNL A   1      49.321  32.441  28.444  1.00  0.00    -0.237 OA
ATOM     99  O   UNL A   1      49.757  30.999  26.512  1.00  0.00    -0.744 OA
ENDBRANCH  93  96
ENDBRANCH  66  89
ENDBRANCH  40  41
ENDBRANCH  32  35
ENDBRANCH  30  31
ENDBRANCH  29  30
ENDBRANCH   1  29
TORSDOF 21
ENDMDL
MODEL 3
REMARK VINA RESULT:     -10.8      2.423      3.387
REMARK SMILES COc1ccc(/C=C(\Sc2nc(C)n[nH]2)C(=O)NCCCCCCNC(=O)c2ccc(-c3c4nc(c(-c5cccc(S(=O)(=O)[O-])c5F)c5ccc([nH]5)c(-c5cccc(S(=O)(=O)[O-])c5F)c5nc(c(-c6cccc(S(=O)(=O)[O-])c6F)c6ccc3[nH]6)C=C5)C=C4)cc2)c(OC)c1
REMARK SMILES IDX 22 1 21 2 20 3 19 4 18 5 16 6 17 7 8 9 7 10 6 11 3 12 4 13
REMARK SMILES IDX 94 14 5 15 91 16 2 17 1 18 92 19 93 20 9 21 10 22 11 23
REMARK SMILES IDX 15 24 12 25 14 26 13 28 23 29 24 30 25 31 26 32 27 34 28 35
REMARK SMILES IDX 29 36 90 37 30 38 89 39 31 40 32 41 33 42 83 43 34 44 88 45
REMARK SMILES IDX 82 46 84 47 35 48 87 49 81 50 80 51 36 53 68 54 48 55 67 56
REMARK SMILES IDX 49 57 52 58 66 59 85 60 50 61 51 62 65 64 86 65 53 66 37 67
REMARK SMILES IDX 38 68 46 69 39 70 41 71 47 72 40 73 42 74 43 75 44 76 45 77
REMARK SMILES IDX 69 78 70 79 78 80 71 81 73 82 79 83 72 84 74 85 75 86 76 87
REMARK SMILES IDX 77 88 54 89 55 90 63 91 56 92 58 93 64 94 57 95 59 96 60 97
REMARK SMILES IDX 61 98 62 99
REMARK H PARENT 18 8 15 27 25 33 84 52 52 63
REMARK Flexibility Score: inf
ROOT
ATOM      1  C   UNL A   1      35.919  32.167  27.848  1.00  0.00     0.002 C 
ENDROOT
BRANCH   1   2
ATOM      2  C   UNL A   1      34.955  31.047  28.273  1.00  0.00     0.002 C 
BRANCH   2   3
ATOM      3  C   UNL A   1      35.382  29.618  27.910  1.00  0.00     0.021 C 
BRANCH   3   4
ATOM      4  C   UNL A   1      34.460  28.927  26.900  1.00  0.00     0.116 C 
BRANCH   4   5
ATOM      5  N   UNL A   1      33.116  28.773  27.436  1.00  0.00    -0.352 N 
ATOM      6  C   UNL A   1      32.097  27.895  27.195  1.00  0.00     0.258 C 
ATOM      7  O   UNL A   1      31.082  28.055  27.883  1.00  0.00    -0.269 OA
ATOM      8  H   UNL A   1      32.894  29.446  28.120  1.00  0.00     0.163 HD
BRANCH   6   9
ATOM      9  C   UNL A   1      32.206  26.726  26.224  1.00  0.00     0.081 C 
ATOM     10  C   UNL A   1      32.043  25.532  26.842  1.00  0.00     0.033 C 
BRANCH  10  11
ATOM     11  C   UNL A   1      32.118  24.145  26.346  1.00  0.00     0.018 A 
ATOM     12  C   UNL A   1      32.337  21.602  25.163  1.00  0.00     0.122 A 
ATOM     13  C   UNL A   1      33.476  22.363  25.407  1.00  0.00     0.047 A 
ATOM     14  C   UNL A   1      31.108  22.043  25.646  1.00  0.00     0.093 A 
ATOM     15  C   UNL A   1      33.369  23.625  25.998  1.00  0.00     0.016 A 
ATOM     16  C   UNL A   1      31.009  23.282  26.299  1.00  0.00     0.129 A 
BRANCH  12  17
ATOM     17  O   UNL A   1      32.539  20.437  24.476  1.00  0.00    -0.497 OA
ATOM     18  C   UNL A   1      33.815  19.830  24.662  1.00  0.00     0.278 C 
ENDBRANCH  12  17
BRANCH  16  19
ATOM     19  O   UNL A   1      29.842  23.672  26.916  1.00  0.00    -0.496 OA
ATOM     20  C   UNL A   1      29.109  22.581  27.481  1.00  0.00     0.278 C 
ENDBRANCH  16  19
ENDBRANCH  10  11
BRANCH   9  21
ATOM     21  S   UNL A   1      32.394  27.166  24.559  1.00  0.00    -0.045 SA
BRANCH  21  22
ATOM     22  C   UNL A   1      31.025  28.067  24.087  1.00  0.00     0.188 A 
ATOM     23  N   UNL A   1      30.822  29.351  24.217  1.00  0.00    -0.206 NA
ATOM     24  N   UNL A   1      30.049  27.528  23.305  1.00  0.00    -0.254 N 
ATOM     25  C   UNL A   1      29.670  29.553  23.503  1.00  0.00     0.148 A 
ATOM     26  N   UNL A   1      29.119  28.445  22.983  1.00  0.00    -0.158 NA
ATOM     27  H   UNL A   1      30.027  26.587  23.011  1.00  0.00     0.192 HD
ATOM     28  C   UNL A   1      29.083  30.895  23.354  1.00  0.00     0.092 C 
ENDBRANCH  21  22
ENDBRANCH   9  21
ENDBRANCH   6   9
ENDBRANCH   4   5
ENDBRANCH   3   4
ENDBRANCH   2   3
ENDBRANCH   1   2
BRANCH   1  29
ATOM     29  C   UNL A   1      35.615  33.573  28.385  1.00  0.00     0.021 C 
BRANCH  29  30
ATOM     30  C   UNL A   1      36.653  34.099  29.368  1.00  0.00     0.116 C 
BRANCH  30  31
ATOM     31  N   UNL A   1      36.305  33.783  30.752  1.00  0.00    -0.352 N 
ATOM     32  C   UNL A   1      36.646  32.676  31.495  1.00  0.00     0.251 C 
ATOM     33  H   UNL A   1      35.752  34.452  31.215  1.00  0.00     0.163 HD
ATOM     34  O   UNL A   1      35.976  32.374  32.487  1.00  0.00    -0.269 OA
BRANCH  32  35
ATOM     35  C   UNL A   1      37.804  31.854  31.106  1.00  0.00     0.039 A 
ATOM     36  C   UNL A   1      39.091  32.398  31.093  1.00  0.00     0.014 A 
ATOM     37  C   UNL A   1      37.599  30.523  30.746  1.00  0.00     0.014 A 
ATOM     38  C   UNL A   1      40.169  31.574  30.788  1.00  0.00     0.010 A 
ATOM     39  C   UNL A   1      38.671  29.676  30.592  1.00  0.00     0.010 A 
ATOM     40  C   UNL A   1      39.955  30.202  30.564  1.00  0.00    -0.014 A 
BRANCH  40  41
ATOM     41  C   UNL A   1      41.089  29.288  30.467  1.00  0.00     0.031 A 
ATOM     42  C   UNL A   1      41.616  28.875  31.792  1.00  0.00     0.074 A 
ATOM     43  C   UNL A   1      41.510  28.715  29.318  1.00  0.00     0.049 A 
ATOM     44  N   UNL A   1      42.702  29.287  32.358  1.00  0.00    -0.248 NA
ATOM     45  C   UNL A   1      40.747  28.086  32.680  1.00  0.00     0.031 C 
ATOM     46  C   UNL A   1      40.885  28.808  27.993  1.00  0.00     0.029 A 
ATOM     47  N   UNL A   1      42.510  27.809  29.113  1.00  0.00    -0.354 N 
ATOM     48  C   UNL A   1      42.796  28.554  33.536  1.00  0.00     0.074 A 
ATOM     49  C   UNL A   1      41.470  28.068  33.803  1.00  0.00     0.031 C 
ATOM     50  C   UNL A   1      41.350  27.815  27.204  1.00  0.00     0.029 A 
ATOM     51  C   UNL A   1      42.417  27.124  27.901  1.00  0.00     0.049 A 
ATOM     52  H   UNL A   1      43.233  27.653  29.763  1.00  0.00     0.167 HD
ATOM     53  C   UNL A   1      44.011  28.124  33.976  1.00  0.00     0.034 A 
ATOM     54  C   UNL A   1      43.138  26.043  27.513  1.00  0.00     0.034 A 
ATOM     55  C   UNL A   1      45.082  28.831  33.307  1.00  0.00     0.049 A 
ATOM     56  C   UNL A   1      44.365  26.020  28.336  1.00  0.00     0.074 A 
ATOM     57  C   UNL A   1      45.421  30.156  33.108  1.00  0.00     0.029 A 
ATOM     58  N   UNL A   1      45.781  28.118  32.364  1.00  0.00    -0.354 N 
ATOM     59  N   UNL A   1      45.315  26.903  28.229  1.00  0.00    -0.248 NA
ATOM     60  C   UNL A   1      44.362  25.245  29.563  1.00  0.00     0.031 C 
ATOM     61  C   UNL A   1      45.950  30.210  31.783  1.00  0.00     0.029 A 
ATOM     62  C   UNL A   1      45.984  28.912  31.272  1.00  0.00     0.049 A 
ATOM     63  H   UNL A   1      46.087  27.187  32.460  1.00  0.00     0.167 HD
ATOM     64  C   UNL A   1      45.692  27.145  29.542  1.00  0.00     0.074 A 
ATOM     65  C   UNL A   1      45.188  25.998  30.293  1.00  0.00     0.031 C 
ATOM     66  C   UNL A   1      46.097  28.392  29.927  1.00  0.00     0.034 A 
BRANCH  53  67
ATOM     67  C   UNL A   1      44.267  26.770  34.625  1.00  0.00     0.023 A 
ATOM     68  C   UNL A   1      43.686  25.647  33.989  1.00  0.00     0.012 A 
ATOM     69  C   UNL A   1      44.744  26.571  35.941  1.00  0.00     0.148 A 
ATOM     70  C   UNL A   1      43.489  24.436  34.663  1.00  0.00     0.002 A 
ATOM     71  C   UNL A   1      44.617  25.344  36.581  1.00  0.00     0.091 A 
ATOM     72  F   UNL A   1      45.220  27.593  36.653  1.00  0.00    -0.205 F 
ATOM     73  C   UNL A   1      43.953  24.285  35.963  1.00  0.00     0.022 A 
BRANCH  71  74
ATOM     74  S   UNL A   1      45.240  25.081  38.249  1.00  0.00     0.127 S 
ATOM     75  O   UNL A   1      45.015  23.648  38.417  1.00  0.00    -0.237 OA
ATOM     76  O   UNL A   1      46.639  25.481  38.105  1.00  0.00    -0.237 OA
ATOM     77  O   UNL A   1      44.453  25.956  39.109  1.00  0.00    -0.744 OA
ENDBRANCH  71  74
ENDBRANCH  53  67
BRANCH  54  78
ATOM     78  C   UNL A   1      42.799  24.916  26.613  1.00  0.00     0.023 A 
ATOM     79  C   UNL A   1      43.648  24.611  25.527  1.00  0.00     0.012 A 
ATOM     80  C   UNL A   1      41.828  23.961  26.983  1.00  0.00     0.148 A 
ATOM     81  C   UNL A   1      43.571  23.378  24.870  1.00  0.00     0.002 A 
ATOM     82  C   UNL A   1      41.751  22.737  26.323  1.00  0.00     0.091 A 
ATOM     83  F   UNL A   1      41.047  24.212  28.042  1.00  0.00    -0.205 F 
ATOM     84  C   UNL A   1      42.631  22.436  25.276  1.00  0.00     0.022 A 
BRANCH  82  85
ATOM     85  S   UNL A   1      40.586  21.459  26.812  1.00  0.00     0.127 S 
ATOM     86  O   UNL A   1      41.104  20.291  26.099  1.00  0.00    -0.237 OA
ATOM     87  O   UNL A   1      40.768  21.424  28.260  1.00  0.00    -0.237 OA
ATOM     88  O   UNL A   1      39.283  21.918  26.347  1.00  0.00    -0.744 OA
ENDBRANCH  82  85
ENDBRANCH  54  78
BRANCH  66  89
ATOM     89  C   UNL A   1      46.477  29.377  28.849  1.00  0.00     0.023 A 
ATOM     90  C   UNL A   1      47.755  29.417  28.255  1.00  0.00     0.012 A 
ATOM     91  C   UNL A   1      45.467  30.211  28.340  1.00  0.00     0.148 A 
ATOM     92  C   UNL A   1      48.030  30.301  27.208  1.00  0.00     0.002 A 
ATOM     93  C   UNL A   1      45.730  31.052  27.267  1.00  0.00     0.091 A 
ATOM     94  F   UNL A   1      44.254  30.164  28.913  1.00  0.00    -0.205 F 
ATOM     95  C   UNL A   1      47.014  31.111  26.705  1.00  0.00     0.022 A 
BRANCH  93  96
ATOM     96  S   UNL A   1      44.427  32.028  26.514  1.00  0.00     0.127 S 
ATOM     97  O   UNL A   1      45.107  32.608  25.359  1.00  0.00    -0.237 OA
ATOM     98  O   UNL A   1      43.421  31.014  26.187  1.00  0.00    -0.237 OA
ATOM     99  O   UNL A   1      43.999  32.975  27.536  1.00  0.00    -0.744 OA
ENDBRANCH  93  96
ENDBRANCH  66  89
ENDBRANCH  40  41
ENDBRANCH  32  35
ENDBRANCH  30  31
ENDBRANCH  29  30
ENDBRANCH   1  29
TORSDOF 21
ENDMDL
