MODEL 1
REMARK VINA RESULT:     -10.8      0.000      0.000
REMARK SMILES Cc1n[nH]c(CN(C)C(=O)N[C@](C)(C(=O)NCCCCCCNC(=O)c2ccc(-c3c4nc(c(-c5cccc(S(=O)(=O)[O-])c5F)c5ccc([nH]5)c(-c5cccc(S(=O)(=O)[O-])c5F)c5nc(c(-c6cccc(S(=O)(=O)[O-])c6F)c6ccc3[nH]6)C=C5)C=C4)cc2)C(F)(F)F)n1
REMARK SMILES IDX 19 1 18 2 17 3 16 4 14 5 15 6 12 8 13 9 11 10 9 11 10 12
REMARK SMILES IDX 7 14 8 15 6 16 5 17 1 18 2 19 3 20 93 21 4 22 89 24 90 25
REMARK SMILES IDX 91 26 92 27 20 28 21 29 22 30 23 31 24 32 25 34 26 35 27 36
REMARK SMILES IDX 88 37 28 38 87 39 29 40 30 41 31 42 81 43 32 44 86 45 80 46
REMARK SMILES IDX 82 47 33 48 85 49 79 50 78 51 34 53 66 54 46 55 65 56 47 57
REMARK SMILES IDX 50 58 64 59 83 60 48 61 49 62 63 64 84 65 51 66 35 67 36 68
REMARK SMILES IDX 44 69 37 70 39 71 45 72 38 73 40 74 41 75 42 76 43 77 67 78
REMARK SMILES IDX 68 79 76 80 69 81 71 82 77 83 70 84 72 85 73 86 74 87 75 88
REMARK SMILES IDX 52 89 53 90 61 91 54 92 56 93 62 94 55 95 57 96 58 97 59 98
REMARK SMILES IDX 60 99
REMARK H PARENT 16 7 11 13 4 23 23 33 82 52 50 63
REMARK Flexibility Score: inf
ROOT
ATOM      1  C   UNL A   1      32.826  27.993  26.804  1.00  0.00     0.002 C 
ENDROOT
BRANCH   1   2
ATOM      2  C   UNL A   1      33.845  27.291  25.904  1.00  0.00     0.021 C 
BRANCH   2   3
ATOM      3  C   UNL A   1      33.911  25.771  26.052  1.00  0.00     0.116 C 
BRANCH   3   4
ATOM      4  N   UNL A   1      33.912  25.084  24.768  1.00  0.00    -0.354 N 
ATOM      5  C   UNL A   1      34.558  23.947  24.353  1.00  0.00     0.255 C 
ATOM      6  O   UNL A   1      34.426  23.659  23.161  1.00  0.00    -0.272 OA
ATOM      7  H   UNL A   1      33.351  25.507  24.079  1.00  0.00     0.163 HD
BRANCH   5   8
ATOM      8  C   UNL A   1      35.481  23.157  25.320  1.00  0.00     0.213 C 
ATOM      9  C   UNL A   1      36.656  24.094  25.627  1.00  0.00     0.056 C 
BRANCH   8  10
ATOM     10  N   UNL A   1      34.605  22.766  26.478  1.00  0.00    -0.316 N 
ATOM     11  C   UNL A   1      33.560  22.002  26.806  1.00  0.00     0.318 C 
ATOM     12  O   UNL A   1      33.141  22.197  27.956  1.00  0.00    -0.249 OA
ATOM     13  H   UNL A   1      34.911  23.244  27.282  1.00  0.00     0.166 HD
BRANCH  11  14
ATOM     14  N   UNL A   1      33.008  21.046  26.019  1.00  0.00    -0.320 N 
ATOM     15  C   UNL A   1      33.287  19.627  25.978  1.00  0.00     0.149 C 
BRANCH  14  16
ATOM     16  C   UNL A   1      31.980  21.488  25.072  1.00  0.00     0.197 C 
BRANCH  16  17
ATOM     17  C   UNL A   1      31.190  22.638  25.594  1.00  0.00     0.144 A 
ATOM     18  C   UNL A   1      29.993  25.938  26.023  1.00  0.00     0.092 C 
ATOM     19  C   UNL A   1      30.319  24.498  26.083  1.00  0.00     0.147 A 
ATOM     20  N   UNL A   1      29.904  23.710  27.084  1.00  0.00    -0.159 NA
ATOM     21  N   UNL A   1      31.076  23.864  25.127  1.00  0.00    -0.215 NA
ATOM     22  N   UNL A   1      30.477  22.544  26.754  1.00  0.00    -0.262 N 
ATOM     23  H   UNL A   1      30.392  21.719  27.286  1.00  0.00     0.192 HD
ENDBRANCH  16  17
ENDBRANCH  14  16
ENDBRANCH  11  14
ENDBRANCH   8  10
BRANCH   8  24
ATOM     24  C   UNL A   1      35.951  21.910  24.540  1.00  0.00     0.420 C 
ATOM     25  F   UNL A   1      36.996  22.157  23.720  1.00  0.00    -0.168 F 
ATOM     26  F   UNL A   1      36.355  20.924  25.383  1.00  0.00    -0.168 F 
ATOM     27  F   UNL A   1      34.952  21.368  23.798  1.00  0.00    -0.168 F 
ENDBRANCH   8  24
ENDBRANCH   5   8
ENDBRANCH   3   4
ENDBRANCH   2   3
ENDBRANCH   1   2
BRANCH   1  28
ATOM     28  C   UNL A   1      32.958  29.517  26.913  1.00  0.00     0.002 C 
BRANCH  28  29
ATOM     29  C   UNL A   1      34.154  30.041  27.721  1.00  0.00     0.021 C 
BRANCH  29  30
ATOM     30  C   UNL A   1      34.330  31.552  27.668  1.00  0.00     0.116 C 
BRANCH  30  31
ATOM     31  N   UNL A   1      34.346  32.147  29.000  1.00  0.00    -0.352 N 
ATOM     32  C   UNL A   1      35.149  31.826  30.074  1.00  0.00     0.251 C 
ATOM     33  H   UNL A   1      33.699  32.873  29.152  1.00  0.00     0.163 HD
ATOM     34  O   UNL A   1      34.814  32.138  31.207  1.00  0.00    -0.269 OA
BRANCH  32  35
ATOM     35  C   UNL A   1      36.411  31.095  29.843  1.00  0.00     0.039 A 
ATOM     36  C   UNL A   1      37.561  31.796  29.468  1.00  0.00     0.014 A 
ATOM     37  C   UNL A   1      36.442  29.709  29.990  1.00  0.00     0.014 A 
ATOM     38  C   UNL A   1      38.758  31.101  29.321  1.00  0.00     0.010 A 
ATOM     39  C   UNL A   1      37.644  29.036  29.944  1.00  0.00     0.010 A 
ATOM     40  C   UNL A   1      38.801  29.723  29.586  1.00  0.00    -0.014 A 
BRANCH  40  41
ATOM     41  C   UNL A   1      40.092  29.042  29.666  1.00  0.00     0.031 A 
ATOM     42  C   UNL A   1      40.587  28.859  31.058  1.00  0.00     0.074 A 
ATOM     43  C   UNL A   1      40.692  28.437  28.618  1.00  0.00     0.049 A 
ATOM     44  N   UNL A   1      41.598  29.440  31.614  1.00  0.00    -0.248 NA
ATOM     45  C   UNL A   1      39.766  28.072  31.993  1.00  0.00     0.031 C 
ATOM     46  C   UNL A   1      40.154  28.265  27.265  1.00  0.00     0.029 A 
ATOM     47  N   UNL A   1      41.849  27.715  28.578  1.00  0.00    -0.354 N 
ATOM     48  C   UNL A   1      41.693  28.884  32.890  1.00  0.00     0.074 A 
ATOM     49  C   UNL A   1      40.428  28.247  33.138  1.00  0.00     0.031 C 
ATOM     50  C   UNL A   1      40.840  27.289  26.630  1.00  0.00     0.029 A 
ATOM     51  C   UNL A   1      41.956  26.884  27.463  1.00  0.00     0.049 A 
ATOM     52  H   UNL A   1      42.545  27.774  29.272  1.00  0.00     0.167 HD
ATOM     53  C   UNL A   1      42.902  28.749  33.503  1.00  0.00     0.034 A 
ATOM     54  C   UNL A   1      42.866  25.901  27.258  1.00  0.00     0.034 A 
ATOM     55  C   UNL A   1      43.910  29.525  32.820  1.00  0.00     0.049 A 
ATOM     56  C   UNL A   1      44.009  26.170  28.156  1.00  0.00     0.074 A 
ATOM     57  C   UNL A   1      44.099  30.855  32.506  1.00  0.00     0.029 A 
ATOM     58  N   UNL A   1      44.760  28.809  32.013  1.00  0.00    -0.354 N 
ATOM     59  N   UNL A   1      44.818  27.180  28.010  1.00  0.00    -0.248 NA
ATOM     60  C   UNL A   1      44.045  25.518  29.453  1.00  0.00     0.031 C 
ATOM     61  C   UNL A   1      44.752  30.848  31.239  1.00  0.00     0.029 A 
ATOM     62  C   UNL A   1      44.989  29.521  30.872  1.00  0.00     0.049 A 
ATOM     63  H   UNL A   1      45.142  27.927  32.224  1.00  0.00     0.167 HD
ATOM     64  C   UNL A   1      45.088  27.583  29.309  1.00  0.00     0.074 A 
ATOM     65  C   UNL A   1      44.723  26.441  30.141  1.00  0.00     0.031 C 
ATOM     66  C   UNL A   1      45.284  28.902  29.598  1.00  0.00     0.034 A 
BRANCH  53  67
ATOM     67  C   UNL A   1      43.315  27.601  34.415  1.00  0.00     0.023 A 
ATOM     68  C   UNL A   1      43.757  27.955  35.714  1.00  0.00     0.012 A 
ATOM     69  C   UNL A   1      43.593  26.281  33.995  1.00  0.00     0.148 A 
ATOM     70  C   UNL A   1      44.523  27.088  36.500  1.00  0.00     0.002 A 
ATOM     71  C   UNL A   1      44.293  25.395  34.810  1.00  0.00     0.091 A 
ATOM     72  F   UNL A   1      43.293  25.888  32.757  1.00  0.00    -0.205 F 
ATOM     73  C   UNL A   1      44.796  25.806  36.046  1.00  0.00     0.022 A 
BRANCH  71  74
ATOM     74  S   UNL A   1      44.639  23.707  34.296  1.00  0.00     0.127 S 
ATOM     75  O   UNL A   1      45.533  23.925  33.162  1.00  0.00    -0.237 OA
ATOM     76  O   UNL A   1      45.275  23.158  35.493  1.00  0.00    -0.237 OA
ATOM     77  O   UNL A   1      43.344  23.115  33.981  1.00  0.00    -0.744 OA
ENDBRANCH  71  74
ENDBRANCH  53  67
BRANCH  54  78
ATOM     78  C   UNL A   1      42.778  24.639  26.486  1.00  0.00     0.023 A 
ATOM     79  C   UNL A   1      43.863  24.248  25.674  1.00  0.00     0.012 A 
ATOM     80  C   UNL A   1      41.778  23.683  26.767  1.00  0.00     0.148 A 
ATOM     81  C   UNL A   1      43.976  22.935  25.200  1.00  0.00     0.002 A 
ATOM     82  C   UNL A   1      41.892  22.380  26.290  1.00  0.00     0.091 A 
ATOM     83  F   UNL A   1      40.769  24.025  27.579  1.00  0.00    -0.205 F 
ATOM     84  C   UNL A   1      42.997  21.998  25.518  1.00  0.00     0.022 A 
BRANCH  82  85
ATOM     85  S   UNL A   1      40.685  21.107  26.687  1.00  0.00     0.127 S 
ATOM     86  O   UNL A   1      41.264  19.927  26.044  1.00  0.00    -0.237 OA
ATOM     87  O   UNL A   1      40.729  21.091  28.147  1.00  0.00    -0.237 OA
ATOM     88  O   UNL A   1      39.427  21.551  26.099  1.00  0.00    -0.744 OA
ENDBRANCH  82  85
ENDBRANCH  54  78
BRANCH  66  89
ATOM     89  C   UNL A   1      45.606  29.838  28.462  1.00  0.00     0.023 A 
ATOM     90  C   UNL A   1      44.619  30.513  27.716  1.00  0.00     0.012 A 
ATOM     91  C   UNL A   1      46.958  30.157  28.251  1.00  0.00     0.148 A 
ATOM     92  C   UNL A   1      44.979  31.467  26.761  1.00  0.00     0.002 A 
ATOM     93  C   UNL A   1      47.308  31.144  27.341  1.00  0.00     0.091 A 
ATOM     94  F   UNL A   1      47.885  29.499  28.965  1.00  0.00    -0.205 F 
ATOM     95  C   UNL A   1      46.323  31.794  26.584  1.00  0.00     0.022 A 
BRANCH  93  96
ATOM     96  S   UNL A   1      49.008  31.691  27.180  1.00  0.00     0.127 S 
ATOM     97  O   UNL A   1      49.351  32.037  28.558  1.00  0.00    -0.237 OA
ATOM     98  O   UNL A   1      49.678  30.496  26.663  1.00  0.00    -0.237 OA
ATOM     99  O   UNL A   1      48.979  32.805  26.239  1.00  0.00    -0.744 OA
ENDBRANCH  93  96
ENDBRANCH  66  89
ENDBRANCH  40  41
ENDBRANCH  32  35
ENDBRANCH  30  31
ENDBRANCH  29  30
ENDBRANCH  28  29
ENDBRANCH   1  28
TORSDOF 21
ENDMDL
MODEL 2
REMARK VINA RESULT:     -10.7      1.635      2.570
REMARK SMILES Cc1n[nH]c(CN(C)C(=O)N[C@](C)(C(=O)NCCCCCCNC(=O)c2ccc(-c3c4nc(c(-c5cccc(S(=O)(=O)[O-])c5F)c5ccc([nH]5)c(-c5cccc(S(=O)(=O)[O-])c5F)c5nc(c(-c6cccc(S(=O)(=O)[O-])c6F)c6ccc3[nH]6)C=C5)C=C4)cc2)C(F)(F)F)n1
REMARK SMILES IDX 19 1 18 2 17 3 16 4 14 5 15 6 12 8 13 9 11 10 9 11 10 12
REMARK SMILES IDX 7 14 8 15 6 16 5 17 1 18 2 19 3 20 93 21 4 22 89 24 90 25
REMARK SMILES IDX 91 26 92 27 20 28 21 29 22 30 23 31 24 32 25 34 26 35 27 36
REMARK SMILES IDX 88 37 28 38 87 39 29 40 30 41 31 42 81 43 32 44 86 45 80 46
REMARK SMILES IDX 82 47 33 48 85 49 79 50 78 51 34 53 66 54 46 55 65 56 47 57
REMARK SMILES IDX 50 58 64 59 83 60 48 61 49 62 63 64 84 65 51 66 35 67 36 68
REMARK SMILES IDX 44 69 37 70 39 71 45 72 38 73 40 74 41 75 42 76 43 77 67 78
REMARK SMILES IDX 68 79 76 80 69 81 71 82 77 83 70 84 72 85 73 86 74 87 75 88
REMARK SMILES IDX 52 89 53 90 61 91 54 92 56 93 62 94 55 95 57 96 58 97 59 98
REMARK SMILES IDX 60 99
REMARK H PARENT 16 7 11 13 4 23 23 33 82 52 50 63
REMARK Flexibility Score: inf
ROOT
ATOM      1  C   UNL A   1      31.045  29.477  24.676  1.00  0.00     0.002 C 
ENDROOT
BRANCH   1   2
ATOM      2  C   UNL A   1      31.673  28.950  23.384  1.00  0.00     0.021 C 
BRANCH   2   3
ATOM      3  C   UNL A   1      30.920  27.802  22.712  1.00  0.00     0.116 C 
BRANCH   3   4
ATOM      4  N   UNL A   1      31.754  27.055  21.779  1.00  0.00    -0.354 N 
ATOM      5  C   UNL A   1      32.360  25.830  21.892  1.00  0.00     0.255 C 
ATOM      6  O   UNL A   1      33.084  25.500  20.950  1.00  0.00    -0.272 OA
ATOM      7  H   UNL A   1      31.910  27.509  20.920  1.00  0.00     0.163 HD
BRANCH   5   8
ATOM      8  C   UNL A   1      32.211  24.983  23.186  1.00  0.00     0.213 C 
ATOM      9  C   UNL A   1      30.971  25.536  23.900  1.00  0.00     0.056 C 
BRANCH   8  10
ATOM     10  N   UNL A   1      32.146  23.554  22.723  1.00  0.00    -0.316 N 
ATOM     11  C   UNL A   1      32.115  22.296  23.170  1.00  0.00     0.318 C 
ATOM     12  O   UNL A   1      32.219  21.446  22.274  1.00  0.00    -0.249 OA
ATOM     13  H   UNL A   1      32.115  23.541  21.740  1.00  0.00     0.166 HD
BRANCH  11  14
ATOM     14  N   UNL A   1      31.929  21.925  24.460  1.00  0.00    -0.320 N 
ATOM     15  C   UNL A   1      31.087  22.529  25.470  1.00  0.00     0.149 C 
BRANCH  14  16
ATOM     16  C   UNL A   1      32.672  20.747  24.919  1.00  0.00     0.197 C 
BRANCH  16  17
ATOM     17  C   UNL A   1      34.109  21.051  25.170  1.00  0.00     0.144 A 
ATOM     18  C   UNL A   1      37.059  22.877  25.855  1.00  0.00     0.092 C 
ATOM     19  C   UNL A   1      36.016  21.883  25.527  1.00  0.00     0.147 A 
ATOM     20  N   UNL A   1      36.312  20.645  25.107  1.00  0.00    -0.159 NA
ATOM     21  N   UNL A   1      34.672  22.154  25.618  1.00  0.00    -0.215 NA
ATOM     22  N   UNL A   1      35.089  20.146  24.880  1.00  0.00    -0.262 N 
ATOM     23  H   UNL A   1      34.919  19.236  24.545  1.00  0.00     0.192 HD
ENDBRANCH  16  17
ENDBRANCH  14  16
ENDBRANCH  11  14
ENDBRANCH   8  10
BRANCH   8  24
ATOM     24  C   UNL A   1      33.489  25.237  24.012  1.00  0.00     0.420 C 
ATOM     25  F   UNL A   1      33.896  26.525  23.985  1.00  0.00    -0.168 F 
ATOM     26  F   UNL A   1      33.300  24.927  25.322  1.00  0.00    -0.168 F 
ATOM     27  F   UNL A   1      34.524  24.460  23.601  1.00  0.00    -0.168 F 
ENDBRANCH   8  24
ENDBRANCH   5   8
ENDBRANCH   3   4
ENDBRANCH   2   3
ENDBRANCH   1   2
BRANCH   1  28
ATOM     28  C   UNL A   1      31.950  30.344  25.561  1.00  0.00     0.002 C 
BRANCH  28  29
ATOM     29  C   UNL A   1      32.454  29.699  26.859  1.00  0.00     0.021 C 
BRANCH  29  30
ATOM     30  C   UNL A   1      33.866  30.108  27.253  1.00  0.00     0.116 C 
BRANCH  30  31
ATOM     31  N   UNL A   1      33.869  31.226  28.190  1.00  0.00    -0.352 N 
ATOM     32  C   UNL A   1      34.823  31.558  29.129  1.00  0.00     0.251 C 
ATOM     33  H   UNL A   1      33.087  31.823  28.145  1.00  0.00     0.163 HD
ATOM     34  O   UNL A   1      34.533  32.279  30.071  1.00  0.00    -0.269 OA
BRANCH  32  35
ATOM     35  C   UNL A   1      36.193  31.026  28.989  1.00  0.00     0.039 A 
ATOM     36  C   UNL A   1      37.290  31.865  29.203  1.00  0.00     0.014 A 
ATOM     37  C   UNL A   1      36.381  29.691  28.632  1.00  0.00     0.014 A 
ATOM     38  C   UNL A   1      38.573  31.332  29.135  1.00  0.00     0.010 A 
ATOM     39  C   UNL A   1      37.644  29.139  28.664  1.00  0.00     0.010 A 
ATOM     40  C   UNL A   1      38.745  29.960  28.891  1.00  0.00    -0.014 A 
BRANCH  40  41
ATOM     41  C   UNL A   1      40.067  29.356  29.055  1.00  0.00     0.031 A 
ATOM     42  C   UNL A   1      40.474  29.185  30.477  1.00  0.00     0.074 A 
ATOM     43  C   UNL A   1      40.773  28.803  28.046  1.00  0.00     0.049 A 
ATOM     44  N   UNL A   1      41.407  29.819  31.107  1.00  0.00    -0.248 NA
ATOM     45  C   UNL A   1      39.640  28.339  31.344  1.00  0.00     0.031 C 
ATOM     46  C   UNL A   1      40.343  28.616  26.657  1.00  0.00     0.029 A 
ATOM     47  N   UNL A   1      41.973  28.151  28.081  1.00  0.00    -0.354 N 
ATOM     48  C   UNL A   1      41.446  29.253  32.381  1.00  0.00     0.074 A 
ATOM     49  C   UNL A   1      40.208  28.538  32.535  1.00  0.00     0.031 C 
ATOM     50  C   UNL A   1      41.129  27.692  26.063  1.00  0.00     0.029 A 
ATOM     51  C   UNL A   1      42.207  27.344  26.969  1.00  0.00     0.049 A 
ATOM     52  H   UNL A   1      42.613  28.243  28.823  1.00  0.00     0.167 HD
ATOM     53  C   UNL A   1      42.616  29.182  33.076  1.00  0.00     0.034 A 
ATOM     54  C   UNL A   1      43.188  26.419  26.820  1.00  0.00     0.034 A 
ATOM     55  C   UNL A   1      43.620  30.027  32.473  1.00  0.00     0.049 A 
ATOM     56  C   UNL A   1      44.246  26.745  27.798  1.00  0.00     0.074 A 
ATOM     57  C   UNL A   1      43.749  31.369  32.185  1.00  0.00     0.029 A 
ATOM     58  N   UNL A   1      44.566  29.374  31.722  1.00  0.00    -0.354 N 
ATOM     59  N   UNL A   1      45.001  27.803  27.719  1.00  0.00    -0.248 NA
ATOM     60  C   UNL A   1      44.231  26.079  29.089  1.00  0.00     0.031 C 
ATOM     61  C   UNL A   1      44.488  31.418  30.967  1.00  0.00     0.029 A 
ATOM     62  C   UNL A   1      44.830  30.113  30.605  1.00  0.00     0.049 A 
ATOM     63  H   UNL A   1      44.985  28.513  31.951  1.00  0.00     0.167 HD
ATOM     64  C   UNL A   1      45.155  28.204  29.036  1.00  0.00     0.074 A 
ATOM     65  C   UNL A   1      44.803  27.032  29.830  1.00  0.00     0.031 C 
ATOM     66  C   UNL A   1      45.250  29.530  29.350  1.00  0.00     0.034 A 
BRANCH  53  67
ATOM     67  C   UNL A   1      43.033  28.049  34.006  1.00  0.00     0.023 A 
ATOM     68  C   UNL A   1      43.410  28.419  35.321  1.00  0.00     0.012 A 
ATOM     69  C   UNL A   1      43.375  26.741  33.597  1.00  0.00     0.148 A 
ATOM     70  C   UNL A   1      44.175  27.579  36.138  1.00  0.00     0.002 A 
ATOM     71  C   UNL A   1      44.074  25.881  34.441  1.00  0.00     0.091 A 
ATOM     72  F   UNL A   1      43.139  26.339  32.349  1.00  0.00    -0.205 F 
ATOM     73  C   UNL A   1      44.512  26.308  35.696  1.00  0.00     0.022 A 
BRANCH  71  74
ATOM     74  S   UNL A   1      44.501  24.206  33.942  1.00  0.00     0.127 S 
ATOM     75  O   UNL A   1      45.431  23.816  34.997  1.00  0.00    -0.237 OA
ATOM     76  O   UNL A   1      43.198  23.544  33.986  1.00  0.00    -0.237 OA
ATOM     77  O   UNL A   1      45.069  24.323  32.604  1.00  0.00    -0.744 OA
ENDBRANCH  71  74
ENDBRANCH  53  67
BRANCH  54  78
ATOM     78  C   UNL A   1      43.230  25.165  26.032  1.00  0.00     0.023 A 
ATOM     79  C   UNL A   1      44.256  24.979  25.082  1.00  0.00     0.012 A 
ATOM     80  C   UNL A   1      42.462  24.043  26.411  1.00  0.00     0.148 A 
ATOM     81  C   UNL A   1      44.542  23.710  24.564  1.00  0.00     0.002 A 
ATOM     82  C   UNL A   1      42.746  22.783  25.890  1.00  0.00     0.091 A 
ATOM     83  F   UNL A   1      41.519  24.193  27.350  1.00  0.00    -0.205 F 
ATOM     84  C   UNL A   1      43.795  22.610  24.977  1.00  0.00     0.022 A 
BRANCH  82  85
ATOM     85  S   UNL A   1      41.848  21.311  26.401  1.00  0.00     0.127 S 
ATOM     86  O   UNL A   1      42.434  20.282  25.540  1.00  0.00    -0.237 OA
ATOM     87  O   UNL A   1      42.211  21.208  27.811  1.00  0.00    -0.237 OA
ATOM     88  O   UNL A   1      40.442  21.587  26.130  1.00  0.00    -0.744 OA
ENDBRANCH  82  85
ENDBRANCH  54  78
BRANCH  66  89
ATOM     89  C   UNL A   1      45.593  30.497  28.248  1.00  0.00     0.023 A 
ATOM     90  C   UNL A   1      44.623  31.238  27.544  1.00  0.00     0.012 A 
ATOM     91  C   UNL A   1      46.953  30.774  28.031  1.00  0.00     0.148 A 
ATOM     92  C   UNL A   1      45.007  32.216  26.622  1.00  0.00     0.002 A 
ATOM     93  C   UNL A   1      47.329  31.783  27.156  1.00  0.00     0.091 A 
ATOM     94  F   UNL A   1      47.863  30.053  28.705  1.00  0.00    -0.205 F 
ATOM     95  C   UNL A   1      46.359  32.500  26.440  1.00  0.00     0.022 A 
BRANCH  93  96
ATOM     96  S   UNL A   1      49.046  32.273  26.993  1.00  0.00     0.127 S 
ATOM     97  O   UNL A   1      48.960  33.381  26.046  1.00  0.00    -0.237 OA
ATOM     98  O   UNL A   1      49.396  32.661  28.361  1.00  0.00    -0.237 OA
ATOM     99  O   UNL A   1      49.752  31.089  26.517  1.00  0.00    -0.744 OA
ENDBRANCH  93  96
ENDBRANCH  66  89
ENDBRANCH  40  41
ENDBRANCH  32  35
ENDBRANCH  30  31
ENDBRANCH  29  30
ENDBRANCH  28  29
ENDBRANCH   1  28
TORSDOF 21
ENDMDL
MODEL 3
REMARK VINA RESULT:     -10.1      1.852      3.044
REMARK SMILES Cc1n[nH]c(CN(C)C(=O)N[C@](C)(C(=O)NCCCCCCNC(=O)c2ccc(-c3c4nc(c(-c5cccc(S(=O)(=O)[O-])c5F)c5ccc([nH]5)c(-c5cccc(S(=O)(=O)[O-])c5F)c5nc(c(-c6cccc(S(=O)(=O)[O-])c6F)c6ccc3[nH]6)C=C5)C=C4)cc2)C(F)(F)F)n1
REMARK SMILES IDX 19 1 18 2 17 3 16 4 14 5 15 6 12 8 13 9 11 10 9 11 10 12
REMARK SMILES IDX 7 14 8 15 6 16 5 17 1 18 2 19 3 20 93 21 4 22 89 24 90 25
REMARK SMILES IDX 91 26 92 27 20 28 21 29 22 30 23 31 24 32 25 34 26 35 27 36
REMARK SMILES IDX 88 37 28 38 87 39 29 40 30 41 31 42 81 43 32 44 86 45 80 46
REMARK SMILES IDX 82 47 33 48 85 49 79 50 78 51 34 53 66 54 46 55 65 56 47 57
REMARK SMILES IDX 50 58 64 59 83 60 48 61 49 62 63 64 84 65 51 66 35 67 36 68
REMARK SMILES IDX 44 69 37 70 39 71 45 72 38 73 40 74 41 75 42 76 43 77 67 78
REMARK SMILES IDX 68 79 76 80 69 81 71 82 77 83 70 84 72 85 73 86 74 87 75 88
REMARK SMILES IDX 52 89 53 90 61 91 54 92 56 93 62 94 55 95 57 96 58 97 59 98
REMARK SMILES IDX 60 99
REMARK H PARENT 16 7 11 13 4 23 23 33 82 52 50 63
REMARK Flexibility Score: inf
ROOT
ATOM      1  C   UNL A   1      33.696  29.038  26.193  1.00  0.00     0.002 C 
ENDROOT
BRANCH   1   2
ATOM      2  C   UNL A   1      33.602  29.134  24.669  1.00  0.00     0.021 C 
BRANCH   2   3
ATOM      3  C   UNL A   1      33.125  27.866  23.962  1.00  0.00     0.116 C 
BRANCH   3   4
ATOM      4  N   UNL A   1      31.713  27.920  23.608  1.00  0.00    -0.354 N 
ATOM      5  C   UNL A   1      30.751  26.943  23.582  1.00  0.00     0.255 C 
ATOM      6  O   UNL A   1      29.649  27.285  23.148  1.00  0.00    -0.272 OA
ATOM      7  H   UNL A   1      31.394  28.812  23.340  1.00  0.00     0.163 HD
BRANCH   5   8
ATOM      8  C   UNL A   1      31.090  25.480  23.980  1.00  0.00     0.213 C 
ATOM      9  C   UNL A   1      29.914  24.633  23.477  1.00  0.00     0.056 C 
BRANCH   8  10
ATOM     10  N   UNL A   1      32.436  25.202  23.370  1.00  0.00    -0.316 N 
ATOM     11  C   UNL A   1      33.381  24.263  23.270  1.00  0.00     0.318 C 
ATOM     12  O   UNL A   1      34.421  24.660  22.725  1.00  0.00    -0.249 OA
ATOM     13  H   UNL A   1      32.723  25.994  22.862  1.00  0.00     0.166 HD
BRANCH  11  14
ATOM     14  N   UNL A   1      33.248  22.971  23.655  1.00  0.00    -0.320 N 
ATOM     15  C   UNL A   1      32.562  21.887  22.986  1.00  0.00     0.149 C 
BRANCH  14  16
ATOM     16  C   UNL A   1      33.882  22.595  24.922  1.00  0.00     0.197 C 
BRANCH  16  17
ATOM     17  C   UNL A   1      35.199  21.930  24.717  1.00  0.00     0.144 A 
ATOM     18  C   UNL A   1      37.826  19.579  25.001  1.00  0.00     0.092 C 
ATOM     19  C   UNL A   1      36.929  20.720  24.722  1.00  0.00     0.147 A 
ATOM     20  N   UNL A   1      37.357  21.838  24.121  1.00  0.00    -0.159 NA
ATOM     21  N   UNL A   1      35.599  20.723  25.064  1.00  0.00    -0.215 NA
ATOM     22  N   UNL A   1      36.247  22.588  24.140  1.00  0.00    -0.262 N 
ATOM     23  H   UNL A   1      36.194  23.503  23.780  1.00  0.00     0.192 HD
ENDBRANCH  16  17
ENDBRANCH  14  16
ENDBRANCH  11  14
ENDBRANCH   8  10
BRANCH   8  24
ATOM     24  C   UNL A   1      31.170  25.463  25.521  1.00  0.00     0.420 C 
ATOM     25  F   UNL A   1      31.023  24.229  26.049  1.00  0.00    -0.168 F 
ATOM     26  F   UNL A   1      32.372  25.922  25.957  1.00  0.00    -0.168 F 
ATOM     27  F   UNL A   1      30.243  26.278  26.088  1.00  0.00    -0.168 F 
ENDBRANCH   8  24
ENDBRANCH   5   8
ENDBRANCH   3   4
ENDBRANCH   2   3
ENDBRANCH   1   2
BRANCH   1  28
ATOM     28  C   UNL A   1      33.721  30.370  26.954  1.00  0.00     0.002 C 
BRANCH  28  29
ATOM     29  C   UNL A   1      35.024  30.711  27.690  1.00  0.00     0.021 C 
BRANCH  29  30
ATOM     30  C   UNL A   1      35.234  32.199  27.931  1.00  0.00     0.116 C 
BRANCH  30  31
ATOM     31  N   UNL A   1      34.745  32.614  29.241  1.00  0.00    -0.352 N 
ATOM     32  C   UNL A   1      35.137  32.167  30.486  1.00  0.00     0.251 C 
ATOM     33  H   UNL A   1      34.043  33.305  29.236  1.00  0.00     0.163 HD
ATOM     34  O   UNL A   1      34.407  32.323  31.453  1.00  0.00    -0.269 OA
BRANCH  32  35
ATOM     35  C   UNL A   1      36.441  31.492  30.635  1.00  0.00     0.039 A 
ATOM     36  C   UNL A   1      36.497  30.098  30.720  1.00  0.00     0.014 A 
ATOM     37  C   UNL A   1      37.608  32.253  30.702  1.00  0.00     0.014 A 
ATOM     38  C   UNL A   1      37.738  29.473  30.792  1.00  0.00     0.010 A 
ATOM     39  C   UNL A   1      38.839  31.634  30.671  1.00  0.00     0.010 A 
ATOM     40  C   UNL A   1      38.911  30.245  30.740  1.00  0.00    -0.014 A 
BRANCH  40  41
ATOM     41  C   UNL A   1      40.204  29.585  30.574  1.00  0.00     0.031 A 
ATOM     42  C   UNL A   1      40.896  29.293  31.859  1.00  0.00     0.074 A 
ATOM     43  C   UNL A   1      40.650  29.085  29.402  1.00  0.00     0.049 A 
ATOM     44  N   UNL A   1      41.973  29.844  32.313  1.00  0.00    -0.248 NA
ATOM     45  C   UNL A   1      40.225  28.413  32.829  1.00  0.00     0.031 C 
ATOM     46  C   UNL A   1      39.924  29.019  28.129  1.00  0.00     0.029 A 
ATOM     47  N   UNL A   1      41.795  28.391  29.133  1.00  0.00    -0.354 N 
ATOM     48  C   UNL A   1      42.255  29.182  33.508  1.00  0.00     0.074 A 
ATOM     49  C   UNL A   1      41.044  28.502  33.878  1.00  0.00     0.031 C 
ATOM     50  C   UNL A   1      40.518  28.115  27.320  1.00  0.00     0.029 A 
ATOM     51  C   UNL A   1      41.745  27.662  27.945  1.00  0.00     0.049 A 
ATOM     52  H   UNL A   1      42.583  28.404  29.723  1.00  0.00     0.167 HD
ATOM     53  C   UNL A   1      43.541  29.018  33.927  1.00  0.00     0.034 A 
ATOM     54  C   UNL A   1      42.623  26.718  27.527  1.00  0.00     0.034 A 
ATOM     55  C   UNL A   1      44.435  29.870  33.178  1.00  0.00     0.049 A 
ATOM     56  C   UNL A   1      43.881  26.931  28.271  1.00  0.00     0.074 A 
ATOM     57  C   UNL A   1      44.567  31.224  32.959  1.00  0.00     0.029 A 
ATOM     58  N   UNL A   1      45.164  29.243  32.198  1.00  0.00    -0.354 N 
ATOM     59  N   UNL A   1      44.655  27.965  28.101  1.00  0.00    -0.248 NA
ATOM     60  C   UNL A   1      44.109  26.170  29.488  1.00  0.00     0.031 C 
ATOM     61  C   UNL A   1      45.030  31.340  31.615  1.00  0.00     0.029 A 
ATOM     62  C   UNL A   1      45.220  30.054  31.103  1.00  0.00     0.049 A 
ATOM     63  H   UNL A   1      45.578  28.353  32.274  1.00  0.00     0.167 HD
ATOM     64  C   UNL A   1      45.106  28.260  29.377  1.00  0.00     0.074 A 
ATOM     65  C   UNL A   1      44.873  27.043  30.149  1.00  0.00     0.031 C 
ATOM     66  C   UNL A   1      45.333  29.553  29.750  1.00  0.00     0.034 A 
BRANCH  53  67
ATOM     67  C   UNL A   1      44.089  27.804  34.667  1.00  0.00     0.023 A 
ATOM     68  C   UNL A   1      44.995  28.066  35.725  1.00  0.00     0.012 A 
ATOM     69  C   UNL A   1      44.028  26.470  34.207  1.00  0.00     0.148 A 
ATOM     70  C   UNL A   1      45.865  27.087  36.217  1.00  0.00     0.002 A 
ATOM     71  C   UNL A   1      44.845  25.480  34.750  1.00  0.00     0.091 A 
ATOM     72  F   UNL A   1      43.270  26.150  33.158  1.00  0.00    -0.205 F 
ATOM     73  C   UNL A   1      45.793  25.792  35.726  1.00  0.00     0.022 A 
BRANCH  71  74
ATOM     74  S   UNL A   1      44.766  23.774  34.186  1.00  0.00     0.127 S 
ATOM     75  O   UNL A   1      45.220  23.903  32.804  1.00  0.00    -0.237 OA
ATOM     76  O   UNL A   1      45.710  23.121  35.092  1.00  0.00    -0.237 OA
ATOM     77  O   UNL A   1      43.380  23.360  34.365  1.00  0.00    -0.744 OA
ENDBRANCH  71  74
ENDBRANCH  53  67
BRANCH  54  78
ATOM     78  C   UNL A   1      42.433  25.526  26.667  1.00  0.00     0.023 A 
ATOM     79  C   UNL A   1      43.284  25.329  25.559  1.00  0.00     0.012 A 
ATOM     80  C   UNL A   1      41.632  24.444  27.091  1.00  0.00     0.148 A 
ATOM     81  C   UNL A   1      43.372  24.083  24.926  1.00  0.00     0.002 A 
ATOM     82  C   UNL A   1      41.719  23.207  26.457  1.00  0.00     0.091 A 
ATOM     83  F   UNL A   1      40.858  24.600  28.174  1.00  0.00    -0.205 F 
ATOM     84  C   UNL A   1      42.599  23.019  25.383  1.00  0.00     0.022 A 
BRANCH  82  85
ATOM     85  S   UNL A   1      40.778  21.779  27.011  1.00  0.00     0.127 S 
ATOM     86  O   UNL A   1      39.401  22.201  26.751  1.00  0.00    -0.237 OA
ATOM     87  O   UNL A   1      41.273  20.727  26.127  1.00  0.00    -0.237 OA
ATOM     88  O   UNL A   1      41.096  21.614  28.425  1.00  0.00    -0.744 OA
ENDBRANCH  82  85
ENDBRANCH  54  78
BRANCH  66  89
ATOM     89  C   UNL A   1      45.481  30.589  28.667  1.00  0.00     0.023 A 
ATOM     90  C   UNL A   1      44.399  31.339  28.165  1.00  0.00     0.012 A 
ATOM     91  C   UNL A   1      46.786  30.916  28.259  1.00  0.00     0.148 A 
ATOM     92  C   UNL A   1      44.615  32.376  27.253  1.00  0.00     0.002 A 
ATOM     93  C   UNL A   1      47.001  31.982  27.398  1.00  0.00     0.091 A 
ATOM     94  F   UNL A   1      47.803  30.186  28.743  1.00  0.00    -0.205 F 
ATOM     95  C   UNL A   1      45.918  32.708  26.882  1.00  0.00     0.022 A 
BRANCH  93  96
ATOM     96  S   UNL A   1      48.661  32.528  27.001  1.00  0.00     0.127 S 
ATOM     97  O   UNL A   1      49.143  33.009  28.294  1.00  0.00    -0.237 OA
ATOM     98  O   UNL A   1      49.297  31.296  26.530  1.00  0.00    -0.237 OA
ATOM     99  O   UNL A   1      48.508  33.545  25.967  1.00  0.00    -0.744 OA
ENDBRANCH  93  96
ENDBRANCH  66  89
ENDBRANCH  40  41
ENDBRANCH  32  35
ENDBRANCH  30  31
ENDBRANCH  29  30
ENDBRANCH  28  29
ENDBRANCH   1  28
TORSDOF 21
ENDMDL
