MODEL 1
REMARK VINA RESULT:     -11.2      0.000      0.000
REMARK SMILES CC(C)(Cn1ccc2ccc([N+](=O)[O-])cc21)C(=O)NCCCCCCNC(=O)c1ccc(-c2c3nc(c(-c4cccc(S(=O)(=O)[O-])c4F)c4ccc([nH]4)c(-c4cccc(S(=O)(=O)[O-])c4F)c4nc(c(-c5cccc(S(=O)(=O)[O-])c5F)c5ccc2[nH]5)C=C4)C=C3)cc1
REMARK SMILES IDX 22 1 21 2 20 3 19 4 17 5 18 6 2 8 1 9 3 10 4 11 5 12 6 13
REMARK SMILES IDX 16 14 7 15 8 16 15 17 9 18 11 19 10 20 12 21 13 22 14 23
REMARK SMILES IDX 23 24 24 25 25 26 26 27 27 28 28 30 29 31 30 32 91 33 31 34
REMARK SMILES IDX 90 35 32 36 33 37 34 38 84 39 35 40 89 41 83 42 85 43 36 44
REMARK SMILES IDX 88 45 82 46 81 47 37 49 69 50 49 51 68 52 50 53 53 54 67 55
REMARK SMILES IDX 86 56 51 57 52 58 66 60 87 61 54 62 38 63 39 64 47 65 40 66
REMARK SMILES IDX 42 67 48 68 41 69 43 70 44 71 45 72 46 73 70 74 71 75 79 76
REMARK SMILES IDX 72 77 74 78 80 79 73 80 75 81 76 82 77 83 78 84 55 85 56 86
REMARK SMILES IDX 64 87 57 88 59 89 65 90 58 91 60 92 61 93 62 94 63 95
REMARK H PARENT 19 7 26 29 85 48 53 59
REMARK Flexibility Score: inf
ROOT
ATOM      1  C   UNL A   1      34.460  29.582  27.508  1.00  0.00     0.002 C 
ENDROOT
BRANCH   1   2
ATOM      2  C   UNL A   1      33.455  28.518  27.067  1.00  0.00     0.021 C 
BRANCH   2   3
ATOM      3  C   UNL A   1      33.398  28.252  25.558  1.00  0.00     0.116 C 
BRANCH   3   4
ATOM      4  N   UNL A   1      32.067  27.916  25.073  1.00  0.00    -0.356 N 
ATOM      5  C   UNL A   1      31.539  26.814  24.463  1.00  0.00     0.227 C 
ATOM      6  O   UNL A   1      30.343  26.872  24.161  1.00  0.00    -0.274 OA
ATOM      7  H   UNL A   1      31.409  28.634  25.215  1.00  0.00     0.163 HD
BRANCH   5   8
ATOM      8  C   UNL A   1      32.366  25.557  24.157  1.00  0.00     0.061 C 
ATOM      9  C   UNL A   1      33.573  25.924  23.257  1.00  0.00     0.023 C 
ATOM     10  C   UNL A   1      31.480  24.631  23.290  1.00  0.00     0.023 C 
BRANCH   8  11
ATOM     11  C   UNL A   1      32.880  24.842  25.434  1.00  0.00     0.138 C 
BRANCH  11  12
ATOM     12  N   UNL A   1      34.082  24.008  25.335  1.00  0.00    -0.346 N 
ATOM     13  C   UNL A   1      35.347  24.522  25.532  1.00  0.00     0.087 A 
ATOM     14  C   UNL A   1      34.187  22.657  25.039  1.00  0.00     0.055 A 
ATOM     15  C   UNL A   1      36.250  23.487  25.490  1.00  0.00     0.028 A 
ATOM     16  C   UNL A   1      35.529  22.296  25.225  1.00  0.00     0.000 A 
ATOM     17  C   UNL A   1      33.246  21.689  24.654  1.00  0.00     0.112 A 
ATOM     18  C   UNL A   1      35.907  20.939  25.110  1.00  0.00     0.017 A 
ATOM     19  C   UNL A   1      33.625  20.340  24.609  1.00  0.00     0.271 A 
ATOM     20  C   UNL A   1      34.944  19.961  24.835  1.00  0.00     0.086 A 
BRANCH  19  21
ATOM     21  N   UNL A   1      32.599  19.317  24.347  1.00  0.00     0.062 N 
ATOM     22  O   UNL A   1      32.283  19.097  23.170  1.00  0.00    -0.258 OA
ATOM     23  O   UNL A   1      32.112  18.730  25.324  1.00  0.00    -0.258 OA
ENDBRANCH  19  21
ENDBRANCH  11  12
ENDBRANCH   8  11
ENDBRANCH   5   8
ENDBRANCH   3   4
ENDBRANCH   2   3
ENDBRANCH   1   2
BRANCH   1  24
ATOM     24  C   UNL A   1      33.964  31.026  27.410  1.00  0.00     0.002 C 
BRANCH  24  25
ATOM     25  C   UNL A   1      35.013  32.101  27.719  1.00  0.00     0.021 C 
BRANCH  25  26
ATOM     26  C   UNL A   1      34.496  33.262  28.570  1.00  0.00     0.116 C 
BRANCH  26  27
ATOM     27  N   UNL A   1      34.383  32.940  29.975  1.00  0.00    -0.352 N 
ATOM     28  C   UNL A   1      35.139  32.231  30.867  1.00  0.00     0.251 C 
ATOM     29  H   UNL A   1      33.573  33.320  30.385  1.00  0.00     0.163 HD
ATOM     30  O   UNL A   1      34.769  32.294  32.043  1.00  0.00    -0.269 OA
BRANCH  28  31
ATOM     31  C   UNL A   1      36.296  31.360  30.521  1.00  0.00     0.039 A 
ATOM     32  C   UNL A   1      36.285  29.966  30.486  1.00  0.00     0.014 A 
ATOM     33  C   UNL A   1      37.517  32.026  30.292  1.00  0.00     0.014 A 
ATOM     34  C   UNL A   1      37.476  29.261  30.348  1.00  0.00     0.010 A 
ATOM     35  C   UNL A   1      38.708  31.325  30.134  1.00  0.00     0.010 A 
ATOM     36  C   UNL A   1      38.692  29.941  30.222  1.00  0.00    -0.014 A 
BRANCH  36  37
ATOM     37  C   UNL A   1      39.908  29.143  30.112  1.00  0.00     0.031 A 
ATOM     38  C   UNL A   1      40.583  28.868  31.409  1.00  0.00     0.074 A 
ATOM     39  C   UNL A   1      40.403  28.668  28.951  1.00  0.00     0.049 A 
ATOM     40  N   UNL A   1      41.680  29.398  31.841  1.00  0.00    -0.248 NA
ATOM     41  C   UNL A   1      39.889  28.036  32.399  1.00  0.00     0.031 C 
ATOM     42  C   UNL A   1      39.775  28.637  27.629  1.00  0.00     0.029 A 
ATOM     43  N   UNL A   1      41.577  28.006  28.743  1.00  0.00    -0.354 N 
ATOM     44  C   UNL A   1      41.935  28.803  33.073  1.00  0.00     0.074 A 
ATOM     45  C   UNL A   1      40.732  28.095  33.434  1.00  0.00     0.031 C 
ATOM     46  C   UNL A   1      40.459  27.783  26.830  1.00  0.00     0.029 A 
ATOM     47  C   UNL A   1      41.647  27.329  27.530  1.00  0.00     0.049 A 
ATOM     48  H   UNL A   1      42.314  28.009  29.396  1.00  0.00     0.167 HD
ATOM     49  C   UNL A   1      43.187  28.777  33.606  1.00  0.00     0.034 A 
ATOM     50  C   UNL A   1      42.587  26.417  27.172  1.00  0.00     0.034 A 
ATOM     51  C   UNL A   1      44.073  29.687  32.930  1.00  0.00     0.049 A 
ATOM     52  C   UNL A   1      43.791  26.706  27.989  1.00  0.00     0.074 A 
ATOM     53  C   UNL A   1      44.107  31.053  32.731  1.00  0.00     0.029 A 
ATOM     54  N   UNL A   1      44.929  29.146  32.003  1.00  0.00    -0.354 N 
ATOM     55  N   UNL A   1      44.488  27.801  27.870  1.00  0.00    -0.248 NA
ATOM     56  C   UNL A   1      43.961  25.980  29.237  1.00  0.00     0.031 C 
ATOM     57  C   UNL A   1      44.585  31.212  31.398  1.00  0.00     0.029 A 
ATOM     58  C   UNL A   1      44.868  29.942  30.892  1.00  0.00     0.049 A 
ATOM     59  H   UNL A   1      45.483  28.340  32.117  1.00  0.00     0.167 HD
ATOM     60  C   UNL A   1      44.813  28.140  29.176  1.00  0.00     0.074 A 
ATOM     61  C   UNL A   1      44.547  26.937  29.963  1.00  0.00     0.031 C 
ATOM     62  C   UNL A   1      44.987  29.443  29.542  1.00  0.00     0.034 A 
BRANCH  49  63
ATOM     63  C   UNL A   1      43.738  27.687  34.490  1.00  0.00     0.023 A 
ATOM     64  C   UNL A   1      44.409  28.084  35.670  1.00  0.00     0.012 A 
ATOM     65  C   UNL A   1      43.903  26.349  34.071  1.00  0.00     0.148 A 
ATOM     66  C   UNL A   1      45.252  27.209  36.363  1.00  0.00     0.002 A 
ATOM     67  C   UNL A   1      44.697  25.467  34.795  1.00  0.00     0.091 A 
ATOM     68  F   UNL A   1      43.399  25.953  32.898  1.00  0.00    -0.205 F 
ATOM     69  C   UNL A   1      45.395  25.899  35.926  1.00  0.00     0.022 A 
BRANCH  67  70
ATOM     70  S   UNL A   1      44.923  23.762  34.274  1.00  0.00     0.127 S 
ATOM     71  O   UNL A   1      45.587  23.942  32.982  1.00  0.00    -0.237 OA
ATOM     72  O   UNL A   1      45.780  23.238  35.341  1.00  0.00    -0.237 OA
ATOM     73  O   UNL A   1      43.593  23.185  34.236  1.00  0.00    -0.744 OA
ENDBRANCH  67  70
ENDBRANCH  49  63
BRANCH  50  74
ATOM     74  C   UNL A   1      42.446  25.149  26.408  1.00  0.00     0.023 A 
ATOM     75  C   UNL A   1      43.403  24.822  25.423  1.00  0.00     0.012 A 
ATOM     76  C   UNL A   1      41.570  24.128  26.839  1.00  0.00     0.148 A 
ATOM     77  C   UNL A   1      43.520  23.515  24.929  1.00  0.00     0.002 A 
ATOM     78  C   UNL A   1      41.683  22.834  26.337  1.00  0.00     0.091 A 
ATOM     79  F   UNL A   1      40.691  24.396  27.812  1.00  0.00    -0.205 F 
ATOM     80  C   UNL A   1      42.669  22.519  25.394  1.00  0.00     0.022 A 
BRANCH  78  81
ATOM     81  S   UNL A   1      40.621  21.497  26.903  1.00  0.00     0.127 S 
ATOM     82  O   UNL A   1      39.294  21.980  26.524  1.00  0.00    -0.237 OA
ATOM     83  O   UNL A   1      41.109  20.367  26.118  1.00  0.00    -0.237 OA
ATOM     84  O   UNL A   1      40.834  21.406  28.343  1.00  0.00    -0.744 OA
ENDBRANCH  78  81
ENDBRANCH  50  74
BRANCH  62  85
ATOM     85  C   UNL A   1      45.045  30.489  28.463  1.00  0.00     0.023 A 
ATOM     86  C   UNL A   1      43.888  31.152  28.000  1.00  0.00     0.012 A 
ATOM     87  C   UNL A   1      46.307  30.968  28.083  1.00  0.00     0.148 A 
ATOM     88  C   UNL A   1      43.993  32.275  27.175  1.00  0.00     0.002 A 
ATOM     89  C   UNL A   1      46.410  32.106  27.295  1.00  0.00     0.091 A 
ATOM     90  F   UNL A   1      47.390  30.328  28.551  1.00  0.00    -0.205 F 
ATOM     91  C   UNL A   1      45.255  32.761  26.835  1.00  0.00     0.022 A 
BRANCH  89  92
ATOM     92  S   UNL A   1      47.996  32.853  26.918  1.00  0.00     0.127 S 
ATOM     93  O   UNL A   1      48.401  33.382  28.219  1.00  0.00    -0.237 OA
ATOM     94  O   UNL A   1      48.775  31.704  26.453  1.00  0.00    -0.237 OA
ATOM     95  O   UNL A   1      47.740  33.858  25.893  1.00  0.00    -0.744 OA
ENDBRANCH  89  92
ENDBRANCH  62  85
ENDBRANCH  36  37
ENDBRANCH  28  31
ENDBRANCH  26  27
ENDBRANCH  25  26
ENDBRANCH  24  25
ENDBRANCH   1  24
TORSDOF 19
ENDMDL
MODEL 2
REMARK VINA RESULT:     -11.1      3.071      8.582
REMARK SMILES CC(C)(Cn1ccc2ccc([N+](=O)[O-])cc21)C(=O)NCCCCCCNC(=O)c1ccc(-c2c3nc(c(-c4cccc(S(=O)(=O)[O-])c4F)c4ccc([nH]4)c(-c4cccc(S(=O)(=O)[O-])c4F)c4nc(c(-c5cccc(S(=O)(=O)[O-])c5F)c5ccc2[nH]5)C=C4)C=C3)cc1
REMARK SMILES IDX 22 1 21 2 20 3 19 4 17 5 18 6 2 8 1 9 3 10 4 11 5 12 6 13
REMARK SMILES IDX 16 14 7 15 8 16 15 17 9 18 11 19 10 20 12 21 13 22 14 23
REMARK SMILES IDX 23 24 24 25 25 26 26 27 27 28 28 30 29 31 30 32 91 33 31 34
REMARK SMILES IDX 90 35 32 36 33 37 34 38 84 39 35 40 89 41 83 42 85 43 36 44
REMARK SMILES IDX 88 45 82 46 81 47 37 49 69 50 49 51 68 52 50 53 53 54 67 55
REMARK SMILES IDX 86 56 51 57 52 58 66 60 87 61 54 62 38 63 39 64 47 65 40 66
REMARK SMILES IDX 42 67 48 68 41 69 43 70 44 71 45 72 46 73 70 74 71 75 79 76
REMARK SMILES IDX 72 77 74 78 80 79 73 80 75 81 76 82 77 83 78 84 55 85 56 86
REMARK SMILES IDX 64 87 57 88 59 89 65 90 58 91 60 92 61 93 62 94 63 95
REMARK H PARENT 19 7 26 29 85 48 53 59
REMARK Flexibility Score: inf
ROOT
ATOM      1  C   UNL A   1      38.718  24.382  27.119  1.00  0.00     0.002 C 
ENDROOT
BRANCH   1   2
ATOM      2  C   UNL A   1      38.214  24.095  25.704  1.00  0.00     0.021 C 
BRANCH   2   3
ATOM      3  C   UNL A   1      36.965  23.209  25.617  1.00  0.00     0.116 C 
BRANCH   3   4
ATOM      4  N   UNL A   1      35.723  23.959  25.503  1.00  0.00    -0.356 N 
ATOM      5  C   UNL A   1      34.416  23.660  25.764  1.00  0.00     0.227 C 
ATOM      6  O   UNL A   1      33.591  24.548  25.531  1.00  0.00    -0.274 OA
ATOM      7  H   UNL A   1      35.851  24.876  25.167  1.00  0.00     0.163 HD
BRANCH   5   8
ATOM      8  C   UNL A   1      33.970  22.299  26.318  1.00  0.00     0.061 C 
ATOM      9  C   UNL A   1      34.048  22.305  27.865  1.00  0.00     0.023 C 
ATOM     10  C   UNL A   1      35.020  21.258  25.862  1.00  0.00     0.023 C 
BRANCH   8  11
ATOM     11  C   UNL A   1      32.534  21.907  25.880  1.00  0.00     0.138 C 
BRANCH  11  12
ATOM     12  N   UNL A   1      32.357  21.200  24.607  1.00  0.00    -0.346 N 
ATOM     13  C   UNL A   1      32.018  21.862  23.445  1.00  0.00     0.087 A 
ATOM     14  C   UNL A   1      32.471  19.845  24.336  1.00  0.00     0.055 A 
ATOM     15  C   UNL A   1      32.040  20.960  22.408  1.00  0.00     0.028 A 
ATOM     16  C   UNL A   1      32.368  19.691  22.946  1.00  0.00     0.000 A 
ATOM     17  C   UNL A   1      32.685  18.724  25.153  1.00  0.00     0.112 A 
ATOM     18  C   UNL A   1      32.571  18.417  22.370  1.00  0.00     0.017 A 
ATOM     19  C   UNL A   1      32.948  17.481  24.561  1.00  0.00     0.271 A 
ATOM     20  C   UNL A   1      32.894  17.322  23.180  1.00  0.00     0.086 A 
BRANCH  19  21
ATOM     21  N   UNL A   1      33.316  16.342  25.418  1.00  0.00     0.062 N 
ATOM     22  O   UNL A   1      32.421  15.800  26.083  1.00  0.00    -0.258 OA
ATOM     23  O   UNL A   1      34.504  15.988  25.424  1.00  0.00    -0.258 OA
ENDBRANCH  19  21
ENDBRANCH  11  12
ENDBRANCH   8  11
ENDBRANCH   5   8
ENDBRANCH   3   4
ENDBRANCH   2   3
ENDBRANCH   1   2
BRANCH   1  24
ATOM     24  C   UNL A   1      39.814  23.441  27.622  1.00  0.00     0.002 C 
BRANCH  24  25
ATOM     25  C   UNL A   1      39.978  22.141  26.825  1.00  0.00     0.021 C 
BRANCH  25  26
ATOM     26  C   UNL A   1      41.403  21.588  26.804  1.00  0.00     0.116 C 
BRANCH  26  27
ATOM     27  N   UNL A   1      42.165  22.007  25.649  1.00  0.00    -0.352 N 
ATOM     28  C   UNL A   1      42.840  23.142  25.296  1.00  0.00     0.251 C 
ATOM     29  H   UNL A   1      42.208  21.311  24.953  1.00  0.00     0.163 HD
ATOM     30  O   UNL A   1      43.494  23.068  24.252  1.00  0.00    -0.269 OA
BRANCH  28  31
ATOM     31  C   UNL A   1      42.786  24.441  26.022  1.00  0.00     0.039 A 
ATOM     32  C   UNL A   1      43.417  24.727  27.232  1.00  0.00     0.014 A 
ATOM     33  C   UNL A   1      41.950  25.425  25.454  1.00  0.00     0.014 A 
ATOM     34  C   UNL A   1      43.128  25.906  27.910  1.00  0.00     0.010 A 
ATOM     35  C   UNL A   1      41.672  26.613  26.121  1.00  0.00     0.010 A 
ATOM     36  C   UNL A   1      42.217  26.825  27.378  1.00  0.00    -0.014 A 
BRANCH  36  37
ATOM     37  C   UNL A   1      41.933  28.027  28.154  1.00  0.00     0.031 A 
ATOM     38  C   UNL A   1      42.870  29.155  27.904  1.00  0.00     0.074 A 
ATOM     39  C   UNL A   1      40.911  28.146  29.025  1.00  0.00     0.049 A 
ATOM     40  N   UNL A   1      43.798  29.583  28.695  1.00  0.00    -0.248 NA
ATOM     41  C   UNL A   1      42.883  29.777  26.574  1.00  0.00     0.031 C 
ATOM     42  C   UNL A   1      39.772  27.249  29.232  1.00  0.00     0.029 A 
ATOM     43  N   UNL A   1      40.632  29.186  29.862  1.00  0.00    -0.354 N 
ATOM     44  C   UNL A   1      44.377  30.674  28.053  1.00  0.00     0.074 A 
ATOM     45  C   UNL A   1      43.884  30.652  26.699  1.00  0.00     0.031 C 
ATOM     46  C   UNL A   1      38.818  27.897  29.943  1.00  0.00     0.029 A 
ATOM     47  C   UNL A   1      39.335  29.186  30.364  1.00  0.00     0.049 A 
ATOM     48  H   UNL A   1      41.294  29.878  30.091  1.00  0.00     0.167 HD
ATOM     49  C   UNL A   1      45.063  31.625  28.745  1.00  0.00     0.034 A 
ATOM     50  C   UNL A   1      38.729  30.207  31.023  1.00  0.00     0.034 A 
ATOM     51  C   UNL A   1      45.377  31.191  30.080  1.00  0.00     0.049 A 
ATOM     52  C   UNL A   1      39.810  31.029  31.617  1.00  0.00     0.074 A 
ATOM     53  C   UNL A   1      46.114  30.160  30.626  1.00  0.00     0.029 A 
ATOM     54  N   UNL A   1      44.574  31.660  31.090  1.00  0.00    -0.354 N 
ATOM     55  N   UNL A   1      40.600  30.597  32.561  1.00  0.00    -0.248 NA
ATOM     56  C   UNL A   1      40.296  32.173  30.861  1.00  0.00     0.031 C 
ATOM     57  C   UNL A   1      45.368  29.746  31.768  1.00  0.00     0.029 A 
ATOM     58  C   UNL A   1      44.259  30.587  31.879  1.00  0.00     0.049 A 
ATOM     59  H   UNL A   1      44.281  32.591  31.222  1.00  0.00     0.167 HD
ATOM     60  C   UNL A   1      41.847  31.098  32.216  1.00  0.00     0.074 A 
ATOM     61  C   UNL A   1      41.583  32.135  31.220  1.00  0.00     0.031 C 
ATOM     62  C   UNL A   1      42.990  30.431  32.549  1.00  0.00     0.034 A 
BRANCH  49  63
ATOM     63  C   UNL A   1      45.148  33.085  28.374  1.00  0.00     0.023 A 
ATOM     64  C   UNL A   1      43.956  33.844  28.444  1.00  0.00     0.012 A 
ATOM     65  C   UNL A   1      46.236  33.652  27.677  1.00  0.00     0.148 A 
ATOM     66  C   UNL A   1      43.835  35.078  27.799  1.00  0.00     0.002 A 
ATOM     67  C   UNL A   1      46.129  34.905  27.085  1.00  0.00     0.091 A 
ATOM     68  F   UNL A   1      47.341  32.929  27.468  1.00  0.00    -0.205 F 
ATOM     69  C   UNL A   1      44.923  35.610  27.120  1.00  0.00     0.022 A 
BRANCH  67  70
ATOM     70  S   UNL A   1      47.502  35.641  26.189  1.00  0.00     0.127 S 
ATOM     71  O   UNL A   1      47.652  34.706  25.073  1.00  0.00    -0.237 OA
ATOM     72  O   UNL A   1      46.952  36.951  25.828  1.00  0.00    -0.237 OA
ATOM     73  O   UNL A   1      48.602  35.694  27.133  1.00  0.00    -0.744 OA
ENDBRANCH  67  70
ENDBRANCH  49  63
BRANCH  50  74
ATOM     74  C   UNL A   1      37.328  30.698  30.940  1.00  0.00     0.023 A 
ATOM     75  C   UNL A   1      36.659  31.090  32.120  1.00  0.00     0.012 A 
ATOM     76  C   UNL A   1      36.754  31.070  29.705  1.00  0.00     0.148 A 
ATOM     77  C   UNL A   1      35.495  31.870  32.071  1.00  0.00     0.002 A 
ATOM     78  C   UNL A   1      35.591  31.836  29.661  1.00  0.00     0.091 A 
ATOM     79  F   UNL A   1      37.396  30.762  28.571  1.00  0.00    -0.205 F 
ATOM     80  C   UNL A   1      34.968  32.253  30.843  1.00  0.00     0.022 A 
BRANCH  78  81
ATOM     81  S   UNL A   1      34.863  32.375  28.107  1.00  0.00     0.127 S 
ATOM     82  O   UNL A   1      35.924  33.212  27.547  1.00  0.00    -0.237 OA
ATOM     83  O   UNL A   1      34.654  31.107  27.413  1.00  0.00    -0.237 OA
ATOM     84  O   UNL A   1      33.655  33.106  28.468  1.00  0.00    -0.744 OA
ENDBRANCH  78  81
ENDBRANCH  50  74
BRANCH  62  85
ATOM     85  C   UNL A   1      42.889  29.262  33.490  1.00  0.00     0.023 A 
ATOM     86  C   UNL A   1      42.499  27.979  33.051  1.00  0.00     0.012 A 
ATOM     87  C   UNL A   1      43.418  29.414  34.780  1.00  0.00     0.148 A 
ATOM     88  C   UNL A   1      42.640  26.867  33.888  1.00  0.00     0.002 A 
ATOM     89  C   UNL A   1      43.593  28.303  35.594  1.00  0.00     0.091 A 
ATOM     90  F   UNL A   1      43.796  30.643  35.165  1.00  0.00    -0.205 F 
ATOM     91  C   UNL A   1      43.201  27.028  35.153  1.00  0.00     0.022 A 
BRANCH  89  92
ATOM     92  S   UNL A   1      44.415  28.418  37.184  1.00  0.00     0.127 S 
ATOM     93  O   UNL A   1      45.823  28.458  36.797  1.00  0.00    -0.237 OA
ATOM     94  O   UNL A   1      43.888  29.677  37.713  1.00  0.00    -0.237 OA
ATOM     95  O   UNL A   1      44.012  27.236  37.938  1.00  0.00    -0.744 OA
ENDBRANCH  89  92
ENDBRANCH  62  85
ENDBRANCH  36  37
ENDBRANCH  28  31
ENDBRANCH  26  27
ENDBRANCH  25  26
ENDBRANCH  24  25
ENDBRANCH   1  24
TORSDOF 19
ENDMDL
MODEL 3
REMARK VINA RESULT:     -11.0      3.230      8.899
REMARK SMILES CC(C)(Cn1ccc2ccc([N+](=O)[O-])cc21)C(=O)NCCCCCCNC(=O)c1ccc(-c2c3nc(c(-c4cccc(S(=O)(=O)[O-])c4F)c4ccc([nH]4)c(-c4cccc(S(=O)(=O)[O-])c4F)c4nc(c(-c5cccc(S(=O)(=O)[O-])c5F)c5ccc2[nH]5)C=C4)C=C3)cc1
REMARK SMILES IDX 22 1 21 2 20 3 19 4 17 5 18 6 2 8 1 9 3 10 4 11 5 12 6 13
REMARK SMILES IDX 16 14 7 15 8 16 15 17 9 18 11 19 10 20 12 21 13 22 14 23
REMARK SMILES IDX 23 24 24 25 25 26 26 27 27 28 28 30 29 31 30 32 91 33 31 34
REMARK SMILES IDX 90 35 32 36 33 37 34 38 84 39 35 40 89 41 83 42 85 43 36 44
REMARK SMILES IDX 88 45 82 46 81 47 37 49 69 50 49 51 68 52 50 53 53 54 67 55
REMARK SMILES IDX 86 56 51 57 52 58 66 60 87 61 54 62 38 63 39 64 47 65 40 66
REMARK SMILES IDX 42 67 48 68 41 69 43 70 44 71 45 72 46 73 70 74 71 75 79 76
REMARK SMILES IDX 72 77 74 78 80 79 73 80 75 81 76 82 77 83 78 84 55 85 56 86
REMARK SMILES IDX 64 87 57 88 59 89 65 90 58 91 60 92 61 93 62 94 63 95
REMARK H PARENT 19 7 26 29 85 48 53 59
REMARK Flexibility Score: inf
ROOT
ATOM      1  C   UNL A   1      37.029  23.328  25.608  1.00  0.00     0.002 C 
ENDROOT
BRANCH   1   2
ATOM      2  C   UNL A   1      36.795  22.925  24.152  1.00  0.00     0.021 C 
BRANCH   2   3
ATOM      3  C   UNL A   1      35.373  22.457  23.819  1.00  0.00     0.116 C 
BRANCH   3   4
ATOM      4  N   UNL A   1      34.471  22.467  24.962  1.00  0.00    -0.356 N 
ATOM      5  C   UNL A   1      33.328  23.156  25.251  1.00  0.00     0.227 C 
ATOM      6  O   UNL A   1      32.812  22.929  26.350  1.00  0.00    -0.274 OA
ATOM      7  H   UNL A   1      34.742  21.847  25.676  1.00  0.00     0.163 HD
BRANCH   5   8
ATOM      8  C   UNL A   1      32.697  24.164  24.281  1.00  0.00     0.061 C 
ATOM      9  C   UNL A   1      32.296  23.452  22.963  1.00  0.00     0.023 C 
ATOM     10  C   UNL A   1      33.807  25.165  23.881  1.00  0.00     0.023 C 
BRANCH   8  11
ATOM     11  C   UNL A   1      31.454  24.880  24.873  1.00  0.00     0.138 C 
BRANCH  11  12
ATOM     12  N   UNL A   1      31.611  26.242  25.393  1.00  0.00    -0.346 N 
ATOM     13  C   UNL A   1      32.351  26.512  26.525  1.00  0.00     0.087 A 
ATOM     14  C   UNL A   1      31.086  27.430  24.906  1.00  0.00     0.055 A 
ATOM     15  C   UNL A   1      32.409  27.874  26.694  1.00  0.00     0.028 A 
ATOM     16  C   UNL A   1      31.654  28.471  25.654  1.00  0.00     0.000 A 
ATOM     17  C   UNL A   1      30.192  27.721  23.863  1.00  0.00     0.112 A 
ATOM     18  C   UNL A   1      31.390  29.812  25.293  1.00  0.00     0.017 A 
ATOM     19  C   UNL A   1      29.993  29.054  23.479  1.00  0.00     0.271 A 
ATOM     20  C   UNL A   1      30.586  30.097  24.184  1.00  0.00     0.086 A 
BRANCH  19  21
ATOM     21  N   UNL A   1      29.169  29.343  22.294  1.00  0.00     0.062 N 
ATOM     22  O   UNL A   1      27.956  29.097  22.353  1.00  0.00    -0.258 OA
ATOM     23  O   UNL A   1      29.738  29.820  21.301  1.00  0.00    -0.258 OA
ENDBRANCH  19  21
ENDBRANCH  11  12
ENDBRANCH   8  11
ENDBRANCH   5   8
ENDBRANCH   3   4
ENDBRANCH   2   3
ENDBRANCH   1   2
BRANCH   1  24
ATOM     24  C   UNL A   1      38.476  23.214  26.090  1.00  0.00     0.002 C 
BRANCH  24  25
ATOM     25  C   UNL A   1      39.060  21.796  26.081  1.00  0.00     0.021 C 
BRANCH  25  26
ATOM     26  C   UNL A   1      40.458  21.683  26.690  1.00  0.00     0.116 C 
BRANCH  26  27
ATOM     27  N   UNL A   1      41.520  21.910  25.737  1.00  0.00    -0.352 N 
ATOM     28  C   UNL A   1      42.437  22.904  25.530  1.00  0.00     0.251 C 
ATOM     29  H   UNL A   1      41.605  21.178  25.084  1.00  0.00     0.163 HD
ATOM     30  O   UNL A   1      43.290  22.669  24.669  1.00  0.00    -0.269 OA
BRANCH  28  31
ATOM     31  C   UNL A   1      42.435  24.235  26.197  1.00  0.00     0.039 A 
ATOM     32  C   UNL A   1      43.187  24.588  27.317  1.00  0.00     0.014 A 
ATOM     33  C   UNL A   1      41.524  25.178  25.678  1.00  0.00     0.014 A 
ATOM     34  C   UNL A   1      42.948  25.793  27.968  1.00  0.00     0.010 A 
ATOM     35  C   UNL A   1      41.295  26.393  26.316  1.00  0.00     0.010 A 
ATOM     36  C   UNL A   1      41.968  26.672  27.496  1.00  0.00    -0.014 A 
BRANCH  36  37
ATOM     37  C   UNL A   1      41.745  27.905  28.242  1.00  0.00     0.031 A 
ATOM     38  C   UNL A   1      42.720  28.989  27.944  1.00  0.00     0.074 A 
ATOM     39  C   UNL A   1      40.744  28.089  29.126  1.00  0.00     0.049 A 
ATOM     40  N   UNL A   1      43.679  29.402  28.707  1.00  0.00    -0.248 NA
ATOM     41  C   UNL A   1      42.732  29.572  26.597  1.00  0.00     0.031 C 
ATOM     42  C   UNL A   1      39.575  27.243  29.379  1.00  0.00     0.029 A 
ATOM     43  N   UNL A   1      40.521  29.162  29.938  1.00  0.00    -0.354 N 
ATOM     44  C   UNL A   1      44.288  30.451  28.024  1.00  0.00     0.074 A 
ATOM     45  C   UNL A   1      43.769  30.411  26.680  1.00  0.00     0.031 C 
ATOM     46  C   UNL A   1      38.660  27.947  30.087  1.00  0.00     0.029 A 
ATOM     47  C   UNL A   1      39.234  29.226  30.463  1.00  0.00     0.049 A 
ATOM     48  H   UNL A   1      41.213  29.833  30.137  1.00  0.00     0.167 HD
ATOM     49  C   UNL A   1      45.022  31.393  28.677  1.00  0.00     0.034 A 
ATOM     50  C   UNL A   1      38.681  30.289  31.103  1.00  0.00     0.034 A 
ATOM     51  C   UNL A   1      45.344  30.984  30.018  1.00  0.00     0.049 A 
ATOM     52  C   UNL A   1      39.804  31.084  31.655  1.00  0.00     0.074 A 
ATOM     53  C   UNL A   1      46.050  29.940  30.580  1.00  0.00     0.029 A 
ATOM     54  N   UNL A   1      44.577  31.511  31.028  1.00  0.00    -0.354 N 
ATOM     55  N   UNL A   1      40.593  30.647  32.596  1.00  0.00    -0.248 NA
ATOM     56  C   UNL A   1      40.320  32.186  30.858  1.00  0.00     0.031 C 
ATOM     57  C   UNL A   1      45.309  29.588  31.746  1.00  0.00     0.029 A 
ATOM     58  C   UNL A   1      44.236  30.474  31.853  1.00  0.00     0.049 A 
ATOM     59  H   UNL A   1      44.323  32.456  31.139  1.00  0.00     0.167 HD
ATOM     60  C   UNL A   1      41.852  31.088  32.216  1.00  0.00     0.074 A 
ATOM     61  C   UNL A   1      41.610  32.107  31.196  1.00  0.00     0.031 C 
ATOM     62  C   UNL A   1      42.974  30.387  32.548  1.00  0.00     0.034 A 
BRANCH  49  63
ATOM     63  C   UNL A   1      45.157  32.837  28.264  1.00  0.00     0.023 A 
ATOM     64  C   UNL A   1      46.464  33.372  28.186  1.00  0.00     0.012 A 
ATOM     65  C   UNL A   1      44.082  33.752  28.259  1.00  0.00     0.148 A 
ATOM     66  C   UNL A   1      46.690  34.752  28.166  1.00  0.00     0.002 A 
ATOM     67  C   UNL A   1      44.310  35.121  28.183  1.00  0.00     0.091 A 
ATOM     68  F   UNL A   1      42.835  33.313  28.460  1.00  0.00    -0.205 F 
ATOM     69  C   UNL A   1      45.612  35.627  28.164  1.00  0.00     0.022 A 
BRANCH  67  70
ATOM     70  S   UNL A   1      42.955  36.300  28.181  1.00  0.00     0.127 S 
ATOM     71  O   UNL A   1      43.678  37.569  28.081  1.00  0.00    -0.237 OA
ATOM     72  O   UNL A   1      42.223  35.909  26.974  1.00  0.00    -0.237 OA
ATOM     73  O   UNL A   1      42.233  36.070  29.419  1.00  0.00    -0.744 OA
ENDBRANCH  67  70
ENDBRANCH  49  63
BRANCH  50  74
ATOM     74  C   UNL A   1      37.298  30.832  31.030  1.00  0.00     0.023 A 
ATOM     75  C   UNL A   1      36.659  31.263  32.213  1.00  0.00     0.012 A 
ATOM     76  C   UNL A   1      36.724  31.211  29.797  1.00  0.00     0.148 A 
ATOM     77  C   UNL A   1      35.525  32.086  32.168  1.00  0.00     0.002 A 
ATOM     78  C   UNL A   1      35.591  32.020  29.757  1.00  0.00     0.091 A 
ATOM     79  F   UNL A   1      37.341  30.865  28.660  1.00  0.00    -0.205 F 
ATOM     80  C   UNL A   1      34.998  32.475  30.941  1.00  0.00     0.022 A 
BRANCH  78  81
ATOM     81  S   UNL A   1      34.865  32.568  28.205  1.00  0.00     0.127 S 
ATOM     82  O   UNL A   1      33.680  33.294  28.662  1.00  0.00    -0.237 OA
ATOM     83  O   UNL A   1      35.924  33.409  27.654  1.00  0.00    -0.237 OA
ATOM     84  O   UNL A   1      34.569  31.353  27.456  1.00  0.00    -0.744 OA
ENDBRANCH  78  81
ENDBRANCH  50  74
BRANCH  62  85
ATOM     85  C   UNL A   1      42.845  29.249  33.524  1.00  0.00     0.023 A 
ATOM     86  C   UNL A   1      42.392  27.972  33.129  1.00  0.00     0.012 A 
ATOM     87  C   UNL A   1      43.408  29.414  34.798  1.00  0.00     0.148 A 
ATOM     88  C   UNL A   1      42.505  26.879  33.994  1.00  0.00     0.002 A 
ATOM     89  C   UNL A   1      43.554  28.319  35.639  1.00  0.00     0.091 A 
ATOM     90  F   UNL A   1      43.845  30.636  35.141  1.00  0.00    -0.205 F 
ATOM     91  C   UNL A   1      43.100  27.050  35.243  1.00  0.00     0.022 A 
BRANCH  89  92
ATOM     92  S   UNL A   1      44.414  28.442  37.208  1.00  0.00     0.127 S 
ATOM     93  O   UNL A   1      45.794  28.665  36.783  1.00  0.00    -0.237 OA
ATOM     94  O   UNL A   1      43.768  29.602  37.824  1.00  0.00    -0.237 OA
ATOM     95  O   UNL A   1      44.175  27.183  37.904  1.00  0.00    -0.744 OA
ENDBRANCH  89  92
ENDBRANCH  62  85
ENDBRANCH  36  37
ENDBRANCH  28  31
ENDBRANCH  26  27
ENDBRANCH  25  26
ENDBRANCH  24  25
ENDBRANCH   1  24
TORSDOF 19
ENDMDL
