MODEL 1
REMARK VINA RESULT:     -11.3      0.000      0.000
REMARK SMILES CNC(=O)c1cc(S(=O)(=O)N2CCC(C(=O)NCCCCCCNC(=O)c3ccc(-c4c5nc(c(-c6cccc(S(=O)(=O)[O-])c6F)c6ccc([nH]6)c(-c6cccc(S(=O)(=O)[O-])c6F)c6nc(c(-c7cccc(S(=O)(=O)[O-])c7F)c7ccc4[nH]7)C=C6)C=C5)cc3)CC2)ccc1OC
REMARK SMILES IDX 20 1 19 2 18 3 17 4 15 5 16 6 14 8 11 9 12 10 91 11 13 12
REMARK SMILES IDX 90 13 8 14 9 15 10 16 7 17 5 18 6 19 94 20 93 21 92 22 3 23
REMARK SMILES IDX 1 24 2 25 4 27 95 28 96 29 21 30 22 31 23 32 24 33 25 34
REMARK SMILES IDX 26 36 27 37 28 38 89 39 29 40 88 41 30 42 31 43 32 44 82 45
REMARK SMILES IDX 33 46 87 47 81 48 83 49 34 50 86 51 80 52 79 53 35 55 67 56
REMARK SMILES IDX 47 57 66 58 48 59 51 60 65 61 84 62 49 63 50 64 64 66 85 67
REMARK SMILES IDX 52 68 36 69 37 70 45 71 38 72 40 73 46 74 39 75 41 76 42 77
REMARK SMILES IDX 43 78 44 79 68 80 69 81 77 82 70 83 72 84 78 85 71 86 73 87
REMARK SMILES IDX 74 88 75 89 76 90 53 91 54 92 62 93 55 94 57 95 63 96 56 97
REMARK SMILES IDX 58 98 59 99 60 100 61 101
REMARK H PARENT 17 7 2 26 24 35 83 54 51 65
REMARK Flexibility Score: inf
ROOT
ATOM      1  C   UNL A   1      34.829  32.068  29.033  1.00  0.00     0.002 C 
ENDROOT
BRANCH   1   2
ATOM      2  C   UNL A   1      35.036  30.758  28.270  1.00  0.00     0.021 C 
BRANCH   2   3
ATOM      3  C   UNL A   1      34.022  30.520  27.158  1.00  0.00     0.116 C 
BRANCH   3   4
ATOM      4  N   UNL A   1      32.822  29.874  27.662  1.00  0.00    -0.356 N 
ATOM      5  C   UNL A   1      32.251  28.683  27.345  1.00  0.00     0.223 C 
ATOM      6  O   UNL A   1      31.201  28.371  27.914  1.00  0.00    -0.275 OA
ATOM      7  H   UNL A   1      32.342  30.386  28.352  1.00  0.00     0.163 HD
BRANCH   5   8
ATOM      8  C   UNL A   1      32.876  27.742  26.330  1.00  0.00     0.081 C 
ATOM      9  N   UNL A   1      32.875  25.870  24.145  1.00  0.00    -0.198 NA
ATOM     10  C   UNL A   1      33.061  25.358  25.519  1.00  0.00     0.103 C 
ATOM     11  C   UNL A   1      33.239  27.280  23.872  1.00  0.00     0.103 C 
ATOM     12  C   UNL A   1      32.460  26.291  26.554  1.00  0.00     0.030 C 
ATOM     13  C   UNL A   1      32.654  28.229  24.900  1.00  0.00     0.030 C 
BRANCH   9  14
ATOM     14  S   UNL A   1      33.178  24.765  22.876  1.00  0.00     0.243 S 
ATOM     15  O   UNL A   1      33.895  25.483  21.846  1.00  0.00    -0.207 OA
ATOM     16  O   UNL A   1      31.952  24.047  22.600  1.00  0.00    -0.207 OA
BRANCH  14  17
ATOM     17  C   UNL A   1      34.326  23.546  23.504  1.00  0.00     0.083 A 
ATOM     18  C   UNL A   1      34.615  21.402  24.600  1.00  0.00     0.083 A 
ATOM     19  C   UNL A   1      33.774  22.418  24.121  1.00  0.00     0.039 A 
ATOM     20  C   UNL A   1      35.998  21.480  24.390  1.00  0.00     0.131 A 
ATOM     21  C   UNL A   1      36.543  22.626  23.814  1.00  0.00     0.048 A 
ATOM     22  C   UNL A   1      35.712  23.657  23.376  1.00  0.00     0.025 A 
BRANCH  18  23
ATOM     23  C   UNL A   1      33.971  20.277  25.303  1.00  0.00     0.254 C 
ATOM     24  C   UNL A   1      33.818  21.525  27.507  1.00  0.00     0.143 C 
ATOM     25  N   UNL A   1      33.644  20.391  26.629  1.00  0.00    -0.355 N 
ATOM     26  H   UNL A   1      33.237  19.593  27.038  1.00  0.00     0.163 HD
ATOM     27  O   UNL A   1      33.719  19.247  24.686  1.00  0.00    -0.269 OA
ENDBRANCH  18  23
BRANCH  20  28
ATOM     28  O   UNL A   1      36.907  20.520  24.744  1.00  0.00    -0.496 OA
ATOM     29  C   UNL A   1      38.003  21.054  25.490  1.00  0.00     0.278 C 
ENDBRANCH  20  28
ENDBRANCH  14  17
ENDBRANCH   9  14
ENDBRANCH   5   8
ENDBRANCH   3   4
ENDBRANCH   2   3
ENDBRANCH   1   2
BRANCH   1  30
ATOM     30  C   UNL A   1      34.704  33.318  28.154  1.00  0.00     0.002 C 
BRANCH  30  31
ATOM     31  C   UNL A   1      33.494  34.208  28.445  1.00  0.00     0.021 C 
BRANCH  31  32
ATOM     32  C   UNL A   1      33.812  35.512  29.170  1.00  0.00     0.116 C 
BRANCH  32  33
ATOM     33  N   UNL A   1      32.878  35.782  30.250  1.00  0.00    -0.352 N 
ATOM     34  C   UNL A   1      32.915  35.351  31.553  1.00  0.00     0.251 C 
ATOM     35  H   UNL A   1      32.112  36.354  30.015  1.00  0.00     0.163 HD
ATOM     36  O   UNL A   1      31.950  35.536  32.289  1.00  0.00    -0.269 OA
BRANCH  34  37
ATOM     37  C   UNL A   1      34.112  34.648  32.059  1.00  0.00     0.039 A 
ATOM     38  C   UNL A   1      33.974  33.351  32.558  1.00  0.00     0.014 A 
ATOM     39  C   UNL A   1      35.367  35.267  32.040  1.00  0.00     0.014 A 
ATOM     40  C   UNL A   1      35.104  32.651  32.990  1.00  0.00     0.010 A 
ATOM     41  C   UNL A   1      36.497  34.547  32.415  1.00  0.00     0.010 A 
ATOM     42  C   UNL A   1      36.376  33.235  32.898  1.00  0.00    -0.014 A 
BRANCH  42  43
ATOM     43  C   UNL A   1      37.598  32.489  33.291  1.00  0.00     0.031 A 
ATOM     44  C   UNL A   1      38.359  32.882  34.527  1.00  0.00     0.074 A 
ATOM     45  C   UNL A   1      38.072  31.518  32.487  1.00  0.00     0.049 A 
ATOM     46  N   UNL A   1      39.478  32.395  34.996  1.00  0.00    -0.248 NA
ATOM     47  C   UNL A   1      37.802  33.985  35.330  1.00  0.00     0.031 C 
ATOM     48  C   UNL A   1      37.464  31.096  31.223  1.00  0.00     0.029 A 
ATOM     49  N   UNL A   1      39.189  30.729  32.597  1.00  0.00    -0.354 N 
ATOM     50  C   UNL A   1      39.778  33.150  36.124  1.00  0.00     0.074 A 
ATOM     51  C   UNL A   1      38.739  34.149  36.253  1.00  0.00     0.031 C 
ATOM     52  C   UNL A   1      38.214  30.125  30.677  1.00  0.00     0.029 A 
ATOM     53  C   UNL A   1      39.366  29.871  31.536  1.00  0.00     0.049 A 
ATOM     54  H   UNL A   1      39.807  30.774  33.363  1.00  0.00     0.167 HD
ATOM     55  C   UNL A   1      40.806  33.005  36.994  1.00  0.00     0.034 A 
ATOM     56  C   UNL A   1      40.345  28.981  31.286  1.00  0.00     0.034 A 
ATOM     57  C   UNL A   1      41.808  31.979  36.892  1.00  0.00     0.049 A 
ATOM     58  C   UNL A   1      41.454  28.811  32.289  1.00  0.00     0.074 A 
ATOM     59  C   UNL A   1      42.839  31.693  37.769  1.00  0.00     0.029 A 
ATOM     60  N   UNL A   1      41.904  31.068  35.851  1.00  0.00    -0.354 N 
ATOM     61  N   UNL A   1      41.632  29.428  33.433  1.00  0.00    -0.248 NA
ATOM     62  C   UNL A   1      42.478  27.801  31.986  1.00  0.00     0.031 C 
ATOM     63  C   UNL A   1      43.564  30.613  37.253  1.00  0.00     0.029 A 
ATOM     64  C   UNL A   1      42.978  30.221  36.060  1.00  0.00     0.049 A 
ATOM     65  H   UNL A   1      41.298  31.031  35.077  1.00  0.00     0.167 HD
ATOM     66  C   UNL A   1      42.765  28.856  34.002  1.00  0.00     0.074 A 
ATOM     67  C   UNL A   1      43.221  27.832  33.084  1.00  0.00     0.031 C 
ATOM     68  C   UNL A   1      43.383  29.164  35.169  1.00  0.00     0.034 A 
BRANCH  55  69
ATOM     69  C   UNL A   1      40.855  33.939  38.175  1.00  0.00     0.023 A 
ATOM     70  C   UNL A   1      41.717  35.054  38.132  1.00  0.00     0.012 A 
ATOM     71  C   UNL A   1      40.025  33.749  39.296  1.00  0.00     0.148 A 
ATOM     72  C   UNL A   1      41.777  35.947  39.201  1.00  0.00     0.002 A 
ATOM     73  C   UNL A   1      40.062  34.666  40.341  1.00  0.00     0.091 A 
ATOM     74  F   UNL A   1      39.230  32.670  39.330  1.00  0.00    -0.205 F 
ATOM     75  C   UNL A   1      40.943  35.758  40.300  1.00  0.00     0.022 A 
BRANCH  73  76
ATOM     76  S   UNL A   1      38.974  34.546  41.766  1.00  0.00     0.127 S 
ATOM     77  O   UNL A   1      38.377  35.880  41.795  1.00  0.00    -0.237 OA
ATOM     78  O   UNL A   1      38.057  33.477  41.369  1.00  0.00    -0.237 OA
ATOM     79  O   UNL A   1      39.833  34.214  42.894  1.00  0.00    -0.744 OA
ENDBRANCH  73  76
ENDBRANCH  55  69
BRANCH  56  80
ATOM     80  C   UNL A   1      40.270  28.117  30.074  1.00  0.00     0.023 A 
ATOM     81  C   UNL A   1      39.345  27.056  30.048  1.00  0.00     0.012 A 
ATOM     82  C   UNL A   1      41.071  28.358  28.941  1.00  0.00     0.148 A 
ATOM     83  C   UNL A   1      39.235  26.233  28.926  1.00  0.00     0.002 A 
ATOM     84  C   UNL A   1      40.920  27.568  27.807  1.00  0.00     0.091 A 
ATOM     85  F   UNL A   1      41.958  29.362  28.991  1.00  0.00    -0.205 F 
ATOM     86  C   UNL A   1      40.014  26.496  27.802  1.00  0.00     0.022 A 
BRANCH  84  87
ATOM     87  S   UNL A   1      41.785  27.917  26.272  1.00  0.00     0.127 S 
ATOM     88  O   UNL A   1      41.451  26.746  25.467  1.00  0.00    -0.237 OA
ATOM     89  O   UNL A   1      41.152  29.164  25.840  1.00  0.00    -0.237 OA
ATOM     90  O   UNL A   1      43.188  28.059  26.642  1.00  0.00    -0.744 OA
ENDBRANCH  84  87
ENDBRANCH  56  80
BRANCH  68  91
ATOM     91  C   UNL A   1      44.605  28.369  35.542  1.00  0.00     0.023 A 
ATOM     92  C   UNL A   1      45.876  28.818  35.136  1.00  0.00     0.012 A 
ATOM     93  C   UNL A   1      44.502  27.228  36.362  1.00  0.00     0.148 A 
ATOM     94  C   UNL A   1      47.026  28.129  35.518  1.00  0.00     0.002 A 
ATOM     95  C   UNL A   1      45.655  26.571  36.775  1.00  0.00     0.091 A 
ATOM     96  F   UNL A   1      43.281  26.805  36.722  1.00  0.00    -0.205 F 
ATOM     97  C   UNL A   1      46.917  27.015  36.347  1.00  0.00     0.022 A 
BRANCH  95  98
ATOM     98  S   UNL A   1      45.611  25.183  37.915  1.00  0.00     0.127 S 
ATOM     99  O   UNL A   1      45.231  24.083  37.031  1.00  0.00    -0.237 OA
ATOM    100  O   UNL A   1      46.993  25.129  38.397  1.00  0.00    -0.237 OA
ATOM    101  O   UNL A   1      44.633  25.536  38.935  1.00  0.00    -0.744 OA
ENDBRANCH  95  98
ENDBRANCH  68  91
ENDBRANCH  42  43
ENDBRANCH  34  37
ENDBRANCH  32  33
ENDBRANCH  31  32
ENDBRANCH  30  31
ENDBRANCH   1  30
TORSDOF 20
ENDMDL
MODEL 2
REMARK VINA RESULT:     -10.9      6.232     11.068
REMARK SMILES CNC(=O)c1cc(S(=O)(=O)N2CCC(C(=O)NCCCCCCNC(=O)c3ccc(-c4c5nc(c(-c6cccc(S(=O)(=O)[O-])c6F)c6ccc([nH]6)c(-c6cccc(S(=O)(=O)[O-])c6F)c6nc(c(-c7cccc(S(=O)(=O)[O-])c7F)c7ccc4[nH]7)C=C6)C=C5)cc3)CC2)ccc1OC
REMARK SMILES IDX 20 1 19 2 18 3 17 4 15 5 16 6 14 8 11 9 12 10 91 11 13 12
REMARK SMILES IDX 90 13 8 14 9 15 10 16 7 17 5 18 6 19 94 20 93 21 92 22 3 23
REMARK SMILES IDX 1 24 2 25 4 27 95 28 96 29 21 30 22 31 23 32 24 33 25 34
REMARK SMILES IDX 26 36 27 37 28 38 89 39 29 40 88 41 30 42 31 43 32 44 82 45
REMARK SMILES IDX 33 46 87 47 81 48 83 49 34 50 86 51 80 52 79 53 35 55 67 56
REMARK SMILES IDX 47 57 66 58 48 59 51 60 65 61 84 62 49 63 50 64 64 66 85 67
REMARK SMILES IDX 52 68 36 69 37 70 45 71 38 72 40 73 46 74 39 75 41 76 42 77
REMARK SMILES IDX 43 78 44 79 68 80 69 81 77 82 70 83 72 84 78 85 71 86 73 87
REMARK SMILES IDX 74 88 75 89 76 90 53 91 54 92 62 93 55 94 57 95 63 96 56 97
REMARK SMILES IDX 58 98 59 99 60 100 61 101
REMARK H PARENT 17 7 2 26 24 35 83 54 51 65
REMARK Flexibility Score: inf
ROOT
ATOM      1  C   UNL A   1      40.106  23.373  26.686  1.00  0.00     0.002 C 
ENDROOT
BRANCH   1   2
ATOM      2  C   UNL A   1      38.781  24.123  26.847  1.00  0.00     0.021 C 
BRANCH   2   3
ATOM      3  C   UNL A   1      37.711  23.715  25.840  1.00  0.00     0.116 C 
BRANCH   3   4
ATOM      4  N   UNL A   1      37.979  22.399  25.285  1.00  0.00    -0.356 N 
ATOM      5  C   UNL A   1      37.143  21.369  24.991  1.00  0.00     0.223 C 
ATOM      6  O   UNL A   1      37.635  20.331  24.540  1.00  0.00    -0.275 OA
ATOM      7  H   UNL A   1      38.927  22.225  25.087  1.00  0.00     0.163 HD
BRANCH   5   8
ATOM      8  C   UNL A   1      35.642  21.475  25.194  1.00  0.00     0.081 C 
ATOM      9  N   UNL A   1      33.168  22.814  25.798  1.00  0.00    -0.198 NA
ATOM     10  C   UNL A   1      33.776  21.945  26.829  1.00  0.00     0.103 C 
ATOM     11  C   UNL A   1      33.505  22.553  24.380  1.00  0.00     0.103 C 
ATOM     12  C   UNL A   1      35.275  21.809  26.637  1.00  0.00     0.030 C 
ATOM     13  C   UNL A   1      35.000  22.406  24.167  1.00  0.00     0.030 C 
BRANCH   9  14
ATOM     14  S   UNL A   1      31.569  23.340  26.098  1.00  0.00     0.243 S 
ATOM     15  O   UNL A   1      31.490  23.693  27.498  1.00  0.00    -0.207 OA
ATOM     16  O   UNL A   1      30.660  22.390  25.493  1.00  0.00    -0.207 OA
BRANCH  14  17
ATOM     17  C   UNL A   1      31.343  24.870  25.199  1.00  0.00     0.083 A 
ATOM     18  C   UNL A   1      32.161  27.111  24.766  1.00  0.00     0.083 A 
ATOM     19  C   UNL A   1      32.254  25.899  25.465  1.00  0.00     0.039 A 
ATOM     20  C   UNL A   1      31.209  27.263  23.749  1.00  0.00     0.131 A 
ATOM     21  C   UNL A   1      30.279  26.251  23.521  1.00  0.00     0.048 A 
ATOM     22  C   UNL A   1      30.342  25.061  24.245  1.00  0.00     0.025 A 
BRANCH  18  23
ATOM     23  C   UNL A   1      33.107  28.176  25.147  1.00  0.00     0.254 C 
ATOM     24  C   UNL A   1      31.772  28.859  27.195  1.00  0.00     0.143 C 
ATOM     25  N   UNL A   1      32.867  28.945  26.257  1.00  0.00    -0.355 N 
ATOM     26  H   UNL A   1      33.530  29.651  26.438  1.00  0.00     0.163 HD
ATOM     27  O   UNL A   1      34.115  28.356  24.472  1.00  0.00    -0.269 OA
ENDBRANCH  18  23
BRANCH  20  28
ATOM     28  O   UNL A   1      31.074  28.368  22.952  1.00  0.00    -0.496 OA
ATOM     29  C   UNL A   1      30.183  29.337  23.510  1.00  0.00     0.278 C 
ENDBRANCH  20  28
ENDBRANCH  14  17
ENDBRANCH   9  14
ENDBRANCH   5   8
ENDBRANCH   3   4
ENDBRANCH   2   3
ENDBRANCH   1   2
BRANCH   1  30
ATOM     30  C   UNL A   1      40.459  22.427  27.839  1.00  0.00     0.002 C 
BRANCH  30  31
ATOM     31  C   UNL A   1      41.097  21.098  27.428  1.00  0.00     0.021 C 
BRANCH  31  32
ATOM     32  C   UNL A   1      41.376  20.952  25.936  1.00  0.00     0.116 C 
BRANCH  32  33
ATOM     33  N   UNL A   1      42.762  20.606  25.668  1.00  0.00    -0.352 N 
ATOM     34  C   UNL A   1      43.877  21.405  25.714  1.00  0.00     0.251 C 
ATOM     35  H   UNL A   1      42.925  19.667  25.421  1.00  0.00     0.163 HD
ATOM     36  O   UNL A   1      44.952  20.987  25.292  1.00  0.00    -0.269 OA
BRANCH  34  37
ATOM     37  C   UNL A   1      43.774  22.776  26.255  1.00  0.00     0.039 A 
ATOM     38  C   UNL A   1      44.013  22.985  27.616  1.00  0.00     0.014 A 
ATOM     39  C   UNL A   1      43.444  23.852  25.424  1.00  0.00     0.014 A 
ATOM     40  C   UNL A   1      43.973  24.282  28.135  1.00  0.00     0.010 A 
ATOM     41  C   UNL A   1      43.463  25.148  25.931  1.00  0.00     0.010 A 
ATOM     42  C   UNL A   1      43.723  25.375  27.290  1.00  0.00    -0.014 A 
BRANCH  42  43
ATOM     43  C   UNL A   1      43.739  26.767  27.805  1.00  0.00     0.031 A 
ATOM     44  C   UNL A   1      45.042  27.503  27.959  1.00  0.00     0.074 A 
ATOM     45  C   UNL A   1      42.590  27.336  28.219  1.00  0.00     0.049 A 
ATOM     46  N   UNL A   1      45.263  28.694  28.449  1.00  0.00    -0.248 NA
ATOM     47  C   UNL A   1      46.260  26.796  27.527  1.00  0.00     0.031 C 
ATOM     48  C   UNL A   1      41.272  26.696  28.191  1.00  0.00     0.029 A 
ATOM     49  N   UNL A   1      42.348  28.568  28.772  1.00  0.00    -0.354 N 
ATOM     50  C   UNL A   1      46.642  28.867  28.418  1.00  0.00     0.074 A 
ATOM     51  C   UNL A   1      47.210  27.646  27.889  1.00  0.00     0.031 C 
ATOM     52  C   UNL A   1      40.362  27.542  28.700  1.00  0.00     0.029 A 
ATOM     53  C   UNL A   1      41.031  28.772  29.113  1.00  0.00     0.049 A 
ATOM     54  H   UNL A   1      43.051  29.243  28.912  1.00  0.00     0.167 HD
ATOM     55  C   UNL A   1      47.368  29.957  28.766  1.00  0.00     0.034 A 
ATOM     56  C   UNL A   1      40.432  29.830  29.693  1.00  0.00     0.034 A 
ATOM     57  C   UNL A   1      46.797  31.187  29.243  1.00  0.00     0.049 A 
ATOM     58  C   UNL A   1      41.256  31.042  30.032  1.00  0.00     0.074 A 
ATOM     59  C   UNL A   1      47.439  32.376  29.539  1.00  0.00     0.029 A 
ATOM     60  N   UNL A   1      45.448  31.388  29.491  1.00  0.00    -0.354 N 
ATOM     61  N   UNL A   1      42.538  31.246  29.846  1.00  0.00    -0.248 NA
ATOM     62  C   UNL A   1      40.547  32.183  30.629  1.00  0.00     0.031 C 
ATOM     63  C   UNL A   1      46.477  33.294  29.975  1.00  0.00     0.029 A 
ATOM     64  C   UNL A   1      45.236  32.679  29.941  1.00  0.00     0.049 A 
ATOM     65  H   UNL A   1      44.744  30.711  29.368  1.00  0.00     0.167 HD
ATOM     66  C   UNL A   1      42.782  32.548  30.269  1.00  0.00     0.074 A 
ATOM     67  C   UNL A   1      41.511  33.091  30.703  1.00  0.00     0.031 C 
ATOM     68  C   UNL A   1      43.956  33.226  30.311  1.00  0.00     0.034 A 
BRANCH  55  69
ATOM     69  C   UNL A   1      48.860  29.887  28.575  1.00  0.00     0.023 A 
ATOM     70  C   UNL A   1      49.654  29.287  29.574  1.00  0.00     0.012 A 
ATOM     71  C   UNL A   1      49.473  30.364  27.400  1.00  0.00     0.148 A 
ATOM     72  C   UNL A   1      51.036  29.193  29.423  1.00  0.00     0.002 A 
ATOM     73  C   UNL A   1      50.847  30.231  27.239  1.00  0.00     0.091 A 
ATOM     74  F   UNL A   1      48.707  30.953  26.471  1.00  0.00    -0.205 F 
ATOM     75  C   UNL A   1      51.631  29.655  28.252  1.00  0.00     0.022 A 
BRANCH  73  76
ATOM     76  S   UNL A   1      51.695  30.732  25.736  1.00  0.00     0.127 S 
ATOM     77  O   UNL A   1      53.093  30.709  26.162  1.00  0.00    -0.237 OA
ATOM     78  O   UNL A   1      51.327  29.668  24.801  1.00  0.00    -0.237 OA
ATOM     79  O   UNL A   1      51.159  32.043  25.397  1.00  0.00    -0.744 OA
ENDBRANCH  73  76
ENDBRANCH  55  69
BRANCH  56  80
ATOM     80  C   UNL A   1      38.957  29.822  29.904  1.00  0.00     0.023 A 
ATOM     81  C   UNL A   1      38.450  29.464  31.168  1.00  0.00     0.012 A 
ATOM     82  C   UNL A   1      38.060  30.202  28.887  1.00  0.00     0.148 A 
ATOM     83  C   UNL A   1      37.075  29.458  31.409  1.00  0.00     0.002 A 
ATOM     84  C   UNL A   1      36.695  30.244  29.149  1.00  0.00     0.091 A 
ATOM     85  F   UNL A   1      38.560  30.524  27.685  1.00  0.00    -0.205 F 
ATOM     86  C   UNL A   1      36.199  29.859  30.404  1.00  0.00     0.022 A 
BRANCH  84  87
ATOM     87  S   UNL A   1      35.509  30.874  27.956  1.00  0.00     0.127 S 
ATOM     88  O   UNL A   1      36.034  32.209  27.687  1.00  0.00    -0.237 OA
ATOM     89  O   UNL A   1      35.648  29.923  26.852  1.00  0.00    -0.237 OA
ATOM     90  O   UNL A   1      34.217  30.819  28.629  1.00  0.00    -0.744 OA
ENDBRANCH  84  87
ENDBRANCH  56  80
BRANCH  68  91
ATOM     91  C   UNL A   1      43.925  34.643  30.818  1.00  0.00     0.023 A 
ATOM     92  C   UNL A   1      44.104  34.893  32.192  1.00  0.00     0.012 A 
ATOM     93  C   UNL A   1      43.801  35.727  29.926  1.00  0.00     0.148 A 
ATOM     94  C   UNL A   1      44.136  36.200  32.676  1.00  0.00     0.002 A 
ATOM     95  C   UNL A   1      43.877  37.028  30.410  1.00  0.00     0.091 A 
ATOM     96  F   UNL A   1      43.611  35.468  28.625  1.00  0.00    -0.205 F 
ATOM     97  C   UNL A   1      44.035  37.266  31.785  1.00  0.00     0.022 A 
BRANCH  95  98
ATOM     98  S   UNL A   1      43.848  38.458  29.323  1.00  0.00     0.127 S 
ATOM     99  O   UNL A   1      42.552  38.304  28.663  1.00  0.00    -0.237 OA
ATOM    100  O   UNL A   1      43.921  39.573  30.268  1.00  0.00    -0.237 OA
ATOM    101  O   UNL A   1      45.013  38.325  28.458  1.00  0.00    -0.744 OA
ENDBRANCH  95  98
ENDBRANCH  68  91
ENDBRANCH  42  43
ENDBRANCH  34  37
ENDBRANCH  32  33
ENDBRANCH  31  32
ENDBRANCH  30  31
ENDBRANCH   1  30
TORSDOF 20
ENDMDL
MODEL 3
REMARK VINA RESULT:     -10.9      1.923      2.305
REMARK SMILES CNC(=O)c1cc(S(=O)(=O)N2CCC(C(=O)NCCCCCCNC(=O)c3ccc(-c4c5nc(c(-c6cccc(S(=O)(=O)[O-])c6F)c6ccc([nH]6)c(-c6cccc(S(=O)(=O)[O-])c6F)c6nc(c(-c7cccc(S(=O)(=O)[O-])c7F)c7ccc4[nH]7)C=C6)C=C5)cc3)CC2)ccc1OC
REMARK SMILES IDX 20 1 19 2 18 3 17 4 15 5 16 6 14 8 11 9 12 10 91 11 13 12
REMARK SMILES IDX 90 13 8 14 9 15 10 16 7 17 5 18 6 19 94 20 93 21 92 22 3 23
REMARK SMILES IDX 1 24 2 25 4 27 95 28 96 29 21 30 22 31 23 32 24 33 25 34
REMARK SMILES IDX 26 36 27 37 28 38 89 39 29 40 88 41 30 42 31 43 32 44 82 45
REMARK SMILES IDX 33 46 87 47 81 48 83 49 34 50 86 51 80 52 79 53 35 55 67 56
REMARK SMILES IDX 47 57 66 58 48 59 51 60 65 61 84 62 49 63 50 64 64 66 85 67
REMARK SMILES IDX 52 68 36 69 37 70 45 71 38 72 40 73 46 74 39 75 41 76 42 77
REMARK SMILES IDX 43 78 44 79 68 80 69 81 77 82 70 83 72 84 78 85 71 86 73 87
REMARK SMILES IDX 74 88 75 89 76 90 53 91 54 92 62 93 55 94 57 95 63 96 56 97
REMARK SMILES IDX 58 98 59 99 60 100 61 101
REMARK H PARENT 17 7 2 26 24 35 83 54 51 65
REMARK Flexibility Score: inf
ROOT
ATOM      1  C   UNL A   1      35.136  31.835  28.730  1.00  0.00     0.002 C 
ENDROOT
BRANCH   1   2
ATOM      2  C   UNL A   1      34.912  30.580  27.883  1.00  0.00     0.021 C 
BRANCH   2   3
ATOM      3  C   UNL A   1      33.665  30.636  27.008  1.00  0.00     0.116 C 
BRANCH   3   4
ATOM      4  N   UNL A   1      32.574  29.871  27.589  1.00  0.00    -0.356 N 
ATOM      5  C   UNL A   1      32.124  28.617  27.323  1.00  0.00     0.223 C 
ATOM      6  O   UNL A   1      31.148  28.203  27.954  1.00  0.00    -0.275 OA
ATOM      7  H   UNL A   1      32.076  30.342  28.295  1.00  0.00     0.163 HD
BRANCH   5   8
ATOM      8  C   UNL A   1      32.798  27.729  26.292  1.00  0.00     0.081 C 
ATOM      9  N   UNL A   1      32.893  25.838  24.126  1.00  0.00    -0.198 NA
ATOM     10  C   UNL A   1      33.184  25.364  25.496  1.00  0.00     0.103 C 
ATOM     11  C   UNL A   1      33.105  27.273  23.825  1.00  0.00     0.103 C 
ATOM     12  C   UNL A   1      32.536  26.247  26.546  1.00  0.00     0.030 C 
ATOM     13  C   UNL A   1      32.472  28.173  24.867  1.00  0.00     0.030 C 
BRANCH   9  14
ATOM     14  S   UNL A   1      33.252  24.751  22.855  1.00  0.00     0.243 S 
ATOM     15  O   UNL A   1      34.003  25.487  21.863  1.00  0.00    -0.207 OA
ATOM     16  O   UNL A   1      32.042  24.030  22.523  1.00  0.00    -0.207 OA
BRANCH  14  17
ATOM     17  C   UNL A   1      34.382  23.531  23.512  1.00  0.00     0.083 A 
ATOM     18  C   UNL A   1      34.642  21.412  24.662  1.00  0.00     0.083 A 
ATOM     19  C   UNL A   1      33.815  22.428  24.160  1.00  0.00     0.039 A 
ATOM     20  C   UNL A   1      36.025  21.463  24.445  1.00  0.00     0.131 A 
ATOM     21  C   UNL A   1      36.585  22.584  23.838  1.00  0.00     0.048 A 
ATOM     22  C   UNL A   1      35.769  23.617  23.377  1.00  0.00     0.025 A 
BRANCH  18  23
ATOM     23  C   UNL A   1      33.983  20.316  25.396  1.00  0.00     0.254 C 
ATOM     24  C   UNL A   1      33.749  21.665  27.533  1.00  0.00     0.143 C 
ATOM     25  N   UNL A   1      33.612  20.489  26.704  1.00  0.00    -0.355 N 
ATOM     26  H   UNL A   1      33.196  19.709  27.137  1.00  0.00     0.163 HD
ATOM     27  O   UNL A   1      33.757  19.256  24.820  1.00  0.00    -0.269 OA
ENDBRANCH  18  23
BRANCH  20  28
ATOM     28  O   UNL A   1      36.920  20.498  24.822  1.00  0.00    -0.496 OA
ATOM     29  C   UNL A   1      38.069  21.043  25.474  1.00  0.00     0.278 C 
ENDBRANCH  20  28
ENDBRANCH  14  17
ENDBRANCH   9  14
ENDBRANCH   5   8
ENDBRANCH   3   4
ENDBRANCH   2   3
ENDBRANCH   1   2
BRANCH   1  30
ATOM     30  C   UNL A   1      34.860  33.160  28.011  1.00  0.00     0.002 C 
BRANCH  30  31
ATOM     31  C   UNL A   1      33.585  33.889  28.441  1.00  0.00     0.021 C 
BRANCH  31  32
ATOM     32  C   UNL A   1      33.796  35.313  28.945  1.00  0.00     0.116 C 
BRANCH  32  33
ATOM     33  N   UNL A   1      32.908  35.642  30.048  1.00  0.00    -0.352 N 
ATOM     34  C   UNL A   1      33.002  35.284  31.370  1.00  0.00     0.251 C 
ATOM     35  H   UNL A   1      32.131  36.200  29.815  1.00  0.00     0.163 HD
ATOM     36  O   UNL A   1      32.069  35.509  32.136  1.00  0.00    -0.269 OA
BRANCH  34  37
ATOM     37  C   UNL A   1      34.223  34.611  31.861  1.00  0.00     0.039 A 
ATOM     38  C   UNL A   1      34.187  33.235  32.098  1.00  0.00     0.014 A 
ATOM     39  C   UNL A   1      35.398  35.335  32.088  1.00  0.00     0.014 A 
ATOM     40  C   UNL A   1      35.346  32.573  32.511  1.00  0.00     0.010 A 
ATOM     41  C   UNL A   1      36.565  34.665  32.441  1.00  0.00     0.010 A 
ATOM     42  C   UNL A   1      36.549  33.279  32.661  1.00  0.00    -0.014 A 
BRANCH  42  43
ATOM     43  C   UNL A   1      37.808  32.588  33.037  1.00  0.00     0.031 A 
ATOM     44  C   UNL A   1      38.434  32.835  34.382  1.00  0.00     0.074 A 
ATOM     45  C   UNL A   1      38.435  31.809  32.134  1.00  0.00     0.049 A 
ATOM     46  N   UNL A   1      39.559  32.377  34.865  1.00  0.00    -0.248 NA
ATOM     47  C   UNL A   1      37.712  33.736  35.297  1.00  0.00     0.031 C 
ATOM     48  C   UNL A   1      37.966  31.552  30.770  1.00  0.00     0.029 A 
ATOM     49  N   UNL A   1      39.615  31.114  32.216  1.00  0.00    -0.354 N 
ATOM     50  C   UNL A   1      39.698  32.957  36.120  1.00  0.00     0.074 A 
ATOM     51  C   UNL A   1      38.557  33.826  36.313  1.00  0.00     0.031 C 
ATOM     52  C   UNL A   1      38.847  30.754  30.146  1.00  0.00     0.029 A 
ATOM     53  C   UNL A   1      39.954  30.462  31.052  1.00  0.00     0.049 A 
ATOM     54  H   UNL A   1      40.168  31.084  33.030  1.00  0.00     0.167 HD
ATOM     55  C   UNL A   1      40.670  32.760  37.043  1.00  0.00     0.034 A 
ATOM     56  C   UNL A   1      41.034  29.715  30.752  1.00  0.00     0.034 A 
ATOM     57  C   UNL A   1      41.775  31.857  36.869  1.00  0.00     0.049 A 
ATOM     58  C   UNL A   1      42.078  29.479  31.809  1.00  0.00     0.074 A 
ATOM     59  C   UNL A   1      42.763  31.520  37.777  1.00  0.00     0.029 A 
ATOM     60  N   UNL A   1      42.037  31.144  35.709  1.00  0.00    -0.354 N 
ATOM     61  N   UNL A   1      42.109  29.910  33.047  1.00  0.00    -0.248 NA
ATOM     62  C   UNL A   1      43.217  28.627  31.441  1.00  0.00     0.031 C 
ATOM     63  C   UNL A   1      43.629  30.609  37.162  1.00  0.00     0.029 A 
ATOM     64  C   UNL A   1      43.173  30.371  35.875  1.00  0.00     0.049 A 
ATOM     65  H   UNL A   1      41.496  31.182  34.888  1.00  0.00     0.167 HD
ATOM     66  C   UNL A   1      43.249  29.353  33.616  1.00  0.00     0.074 A 
ATOM     67  C   UNL A   1      43.871  28.540  32.591  1.00  0.00     0.031 C 
ATOM     68  C   UNL A   1      43.747  29.516  34.867  1.00  0.00     0.034 A 
BRANCH  55  69
ATOM     69  C   UNL A   1      40.539  33.485  38.357  1.00  0.00     0.023 A 
ATOM     70  C   UNL A   1      39.830  32.874  39.411  1.00  0.00     0.012 A 
ATOM     71  C   UNL A   1      41.149  34.737  38.568  1.00  0.00     0.148 A 
ATOM     72  C   UNL A   1      39.701  33.511  40.644  1.00  0.00     0.002 A 
ATOM     73  C   UNL A   1      41.050  35.347  39.813  1.00  0.00     0.091 A 
ATOM     74  F   UNL A   1      41.799  35.315  37.547  1.00  0.00    -0.205 F 
ATOM     75  C   UNL A   1      40.319  34.742  40.848  1.00  0.00     0.022 A 
BRANCH  73  76
ATOM     76  S   UNL A   1      41.872  36.900  40.193  1.00  0.00     0.127 S 
ATOM     77  O   UNL A   1      41.187  37.825  39.292  1.00  0.00    -0.237 OA
ATOM     78  O   UNL A   1      41.552  37.083  41.610  1.00  0.00    -0.237 OA
ATOM     79  O   UNL A   1      43.284  36.679  39.917  1.00  0.00    -0.744 OA
ENDBRANCH  73  76
ENDBRANCH  55  69
BRANCH  56  80
ATOM     80  C   UNL A   1      41.134  29.062  29.416  1.00  0.00     0.023 A 
ATOM     81  C   UNL A   1      41.768  29.751  28.364  1.00  0.00     0.012 A 
ATOM     82  C   UNL A   1      40.648  27.760  29.189  1.00  0.00     0.148 A 
ATOM     83  C   UNL A   1      41.894  29.168  27.103  1.00  0.00     0.002 A 
ATOM     84  C   UNL A   1      40.823  27.164  27.946  1.00  0.00     0.091 A 
ATOM     85  F   UNL A   1      40.033  27.126  30.198  1.00  0.00    -0.205 F 
ATOM     86  C   UNL A   1      41.432  27.870  26.897  1.00  0.00     0.022 A 
BRANCH  84  87
ATOM     87  S   UNL A   1      40.379  25.451  27.632  1.00  0.00     0.127 S 
ATOM     88  O   UNL A   1      40.662  25.325  26.205  1.00  0.00    -0.237 OA
ATOM     89  O   UNL A   1      41.301  24.729  28.510  1.00  0.00    -0.237 OA
ATOM     90  O   UNL A   1      38.978  25.338  28.017  1.00  0.00    -0.744 OA
ENDBRANCH  84  87
ENDBRANCH  56  80
BRANCH  68  91
ATOM     91  C   UNL A   1      45.012  28.781  35.216  1.00  0.00     0.023 A 
ATOM     92  C   UNL A   1      44.935  27.488  35.768  1.00  0.00     0.012 A 
ATOM     93  C   UNL A   1      46.274  29.335  34.920  1.00  0.00     0.148 A 
ATOM     94  C   UNL A   1      46.094  26.766  36.045  1.00  0.00     0.002 A 
ATOM     95  C   UNL A   1      47.424  28.591  35.160  1.00  0.00     0.091 A 
ATOM     96  F   UNL A   1      46.327  30.575  34.414  1.00  0.00    -0.205 F 
ATOM     97  C   UNL A   1      47.336  27.311  35.730  1.00  0.00     0.022 A 
BRANCH  95  98
ATOM     98  S   UNL A   1      49.058  29.180  34.700  1.00  0.00     0.127 S 
ATOM     99  O   UNL A   1      49.214  30.341  35.575  1.00  0.00    -0.237 OA
ATOM    100  O   UNL A   1      49.911  28.041  35.043  1.00  0.00    -0.237 OA
ATOM    101  O   UNL A   1      48.990  29.472  33.275  1.00  0.00    -0.744 OA
ENDBRANCH  95  98
ENDBRANCH  68  91
ENDBRANCH  42  43
ENDBRANCH  34  37
ENDBRANCH  32  33
ENDBRANCH  31  32
ENDBRANCH  30  31
ENDBRANCH   1  30
TORSDOF 20
ENDMDL
