MODEL 1
REMARK VINA RESULT:     -10.8      0.000      0.000
REMARK SMILES CC(C)(C)SCC(=O)N1CC(n2cc(C(=O)NCCCCCCNC(=O)c3ccc(-c4c5nc(c(-c6cccc(S(=O)(=O)[O-])c6F)c6ccc([nH]6)c(-c6cccc(S(=O)(=O)[O-])c6F)c6nc(c(-c7cccc(S(=O)(=O)[O-])c7F)c7ccc4[nH]7)C=C6)C=C5)cc3)nn2)C1
REMARK SMILES IDX 20 1 19 2 18 3 17 4 15 5 16 6 14 8 12 9 13 10 91 11 90 12
REMARK SMILES IDX 11 13 7 14 8 15 9 16 10 17 92 18 6 19 5 20 2 21 1 22 3 23
REMARK SMILES IDX 4 24 21 25 22 26 23 27 24 28 25 29 26 31 27 32 28 33 89 34
REMARK SMILES IDX 29 35 88 36 30 37 31 38 32 39 82 40 33 41 87 42 81 43 83 44
REMARK SMILES IDX 34 45 86 46 80 47 79 48 35 50 67 51 47 52 66 53 48 54 51 55
REMARK SMILES IDX 65 56 84 57 49 58 50 59 64 61 85 62 52 63 36 64 37 65 45 66
REMARK SMILES IDX 38 67 40 68 46 69 39 70 41 71 42 72 43 73 44 74 68 75 69 76
REMARK SMILES IDX 77 77 70 78 72 79 78 80 71 81 73 82 74 83 75 84 76 85 53 86
REMARK SMILES IDX 54 87 62 88 55 89 57 90 63 91 56 92 58 93 59 94 60 95 61 96
REMARK H PARENT 17 7 24 30 83 49 51 60
REMARK Flexibility Score: inf
ROOT
ATOM      1  C   UNL A   1      37.518  22.791  25.131  1.00  0.00     0.002 C 
ENDROOT
BRANCH   1   2
ATOM      2  C   UNL A   1      36.291  23.178  24.295  1.00  0.00     0.021 C 
BRANCH   2   3
ATOM      3  C   UNL A   1      35.084  22.263  24.493  1.00  0.00     0.116 C 
BRANCH   3   4
ATOM      4  N   UNL A   1      34.937  21.871  25.882  1.00  0.00    -0.351 N 
ATOM      5  C   UNL A   1      33.858  21.925  26.736  1.00  0.00     0.273 C 
ATOM      6  O   UNL A   1      33.975  21.343  27.816  1.00  0.00    -0.267 OA
ATOM      7  H   UNL A   1      35.755  21.499  26.286  1.00  0.00     0.163 HD
BRANCH   5   8
ATOM      8  C   UNL A   1      32.618  22.584  26.343  1.00  0.00     0.170 A 
ATOM      9  N   UNL A   1      31.004  23.956  25.862  1.00  0.00    -0.245 N 
ATOM     10  C   UNL A   1      32.180  23.875  26.556  1.00  0.00     0.145 A 
ATOM     11  N   UNL A   1      30.675  22.770  25.326  1.00  0.00    -0.066 NA
ATOM     12  N   UNL A   1      31.635  21.911  25.643  1.00  0.00    -0.125 NA
BRANCH   9  13
ATOM     13  C   UNL A   1      30.356  25.197  25.583  1.00  0.00     0.148 C 
ATOM     14  C   UNL A   1      30.347  28.149  24.075  1.00  0.00     0.232 C 
ATOM     15  O   UNL A   1      29.527  28.257  23.155  1.00  0.00    -0.274 OA
ATOM     16  N   UNL A   1      30.673  26.917  24.551  1.00  0.00    -0.338 N 
ATOM     17  C   UNL A   1      30.221  25.599  24.108  1.00  0.00     0.148 C 
ATOM     18  C   UNL A   1      31.372  26.368  25.689  1.00  0.00     0.148 C 
BRANCH  14  19
ATOM     19  C   UNL A   1      31.115  29.385  24.515  1.00  0.00     0.170 C 
BRANCH  19  20
ATOM     20  S   UNL A   1      32.888  29.265  24.855  1.00  0.00    -0.146 SA
BRANCH  20  21
ATOM     21  C   UNL A   1      33.009  29.425  26.699  1.00  0.00     0.008 C 
ATOM     22  C   UNL A   1      33.287  30.918  26.954  1.00  0.00     0.022 C 
ATOM     23  C   UNL A   1      34.171  28.598  27.253  1.00  0.00     0.022 C 
ATOM     24  C   UNL A   1      31.696  29.045  27.391  1.00  0.00     0.022 C 
ENDBRANCH  20  21
ENDBRANCH  19  20
ENDBRANCH  14  19
ENDBRANCH   9  13
ENDBRANCH   5   8
ENDBRANCH   3   4
ENDBRANCH   2   3
ENDBRANCH   1   2
BRANCH   1  25
ATOM     25  C   UNL A   1      37.884  21.297  25.147  1.00  0.00     0.002 C 
BRANCH  25  26
ATOM     26  C   UNL A   1      39.361  20.953  25.395  1.00  0.00     0.021 C 
BRANCH  26  27
ATOM     27  C   UNL A   1      39.572  19.666  26.178  1.00  0.00     0.116 C 
BRANCH  27  28
ATOM     28  N   UNL A   1      40.811  18.985  25.798  1.00  0.00    -0.352 N 
ATOM     29  C   UNL A   1      42.083  19.515  25.677  1.00  0.00     0.251 C 
ATOM     30  H   UNL A   1      40.727  18.024  25.602  1.00  0.00     0.163 HD
ATOM     31  O   UNL A   1      42.940  18.946  25.024  1.00  0.00    -0.269 OA
BRANCH  29  32
ATOM     32  C   UNL A   1      42.379  20.787  26.361  1.00  0.00     0.039 A 
ATOM     33  C   UNL A   1      42.776  21.921  25.647  1.00  0.00     0.014 A 
ATOM     34  C   UNL A   1      42.211  20.834  27.741  1.00  0.00     0.014 A 
ATOM     35  C   UNL A   1      42.920  23.126  26.329  1.00  0.00     0.010 A 
ATOM     36  C   UNL A   1      42.187  22.047  28.377  1.00  0.00     0.010 A 
ATOM     37  C   UNL A   1      42.603  23.185  27.695  1.00  0.00    -0.014 A 
BRANCH  37  38
ATOM     38  C   UNL A   1      42.606  24.455  28.413  1.00  0.00     0.031 A 
ATOM     39  C   UNL A   1      41.423  25.324  28.170  1.00  0.00     0.074 A 
ATOM     40  C   UNL A   1      43.485  24.724  29.404  1.00  0.00     0.049 A 
ATOM     41  N   UNL A   1      41.398  26.475  27.582  1.00  0.00    -0.248 NA
ATOM     42  C   UNL A   1      40.090  24.799  28.504  1.00  0.00     0.031 C 
ATOM     43  C   UNL A   1      44.503  23.834  29.982  1.00  0.00     0.029 A 
ATOM     44  N   UNL A   1      43.541  25.807  30.223  1.00  0.00    -0.354 N 
ATOM     45  C   UNL A   1      40.084  26.928  27.693  1.00  0.00     0.074 A 
ATOM     46  C   UNL A   1      39.298  25.784  28.073  1.00  0.00     0.031 C 
ATOM     47  C   UNL A   1      44.855  24.290  31.203  1.00  0.00     0.029 A 
ATOM     48  C   UNL A   1      44.242  25.587  31.405  1.00  0.00     0.049 A 
ATOM     49  H   UNL A   1      43.121  26.669  30.001  1.00  0.00     0.167 HD
ATOM     50  C   UNL A   1      39.792  28.260  27.716  1.00  0.00     0.034 A 
ATOM     51  C   UNL A   1      44.269  26.396  32.490  1.00  0.00     0.034 A 
ATOM     52  C   UNL A   1      40.916  29.051  27.278  1.00  0.00     0.049 A 
ATOM     53  C   UNL A   1      43.863  27.744  32.031  1.00  0.00     0.074 A 
ATOM     54  C   UNL A   1      41.704  29.091  26.144  1.00  0.00     0.029 A 
ATOM     55  N   UNL A   1      41.627  29.720  28.247  1.00  0.00    -0.354 N 
ATOM     56  N   UNL A   1      44.574  28.467  31.210  1.00  0.00    -0.248 NA
ATOM     57  C   UNL A   1      42.462  28.110  32.139  1.00  0.00     0.031 C 
ATOM     58  C   UNL A   1      43.027  29.316  26.631  1.00  0.00     0.029 A 
ATOM     59  C   UNL A   1      42.952  29.473  28.016  1.00  0.00     0.049 A 
ATOM     60  H   UNL A   1      41.251  30.272  28.971  1.00  0.00     0.167 HD
ATOM     61  C   UNL A   1      43.637  29.051  30.369  1.00  0.00     0.074 A 
ATOM     62  C   UNL A   1      42.358  28.892  31.060  1.00  0.00     0.031 C 
ATOM     63  C   UNL A   1      43.936  29.336  29.067  1.00  0.00     0.034 A 
BRANCH  50  64
ATOM     64  C   UNL A   1      38.650  28.894  28.482  1.00  0.00     0.023 A 
ATOM     65  C   UNL A   1      37.785  29.750  27.759  1.00  0.00     0.012 A 
ATOM     66  C   UNL A   1      38.545  28.928  29.890  1.00  0.00     0.148 A 
ATOM     67  C   UNL A   1      36.923  30.643  28.405  1.00  0.00     0.002 A 
ATOM     68  C   UNL A   1      37.626  29.757  30.525  1.00  0.00     0.091 A 
ATOM     69  F   UNL A   1      39.426  28.268  30.647  1.00  0.00    -0.205 F 
ATOM     70  C   UNL A   1      36.838  30.643  29.790  1.00  0.00     0.022 A 
BRANCH  68  71
ATOM     71  S   UNL A   1      37.443  29.752  32.314  1.00  0.00     0.127 S 
ATOM     72  O   UNL A   1      38.627  30.495  32.731  1.00  0.00    -0.237 OA
ATOM     73  O   UNL A   1      36.172  30.456  32.487  1.00  0.00    -0.237 OA
ATOM     74  O   UNL A   1      37.398  28.345  32.697  1.00  0.00    -0.744 OA
ENDBRANCH  68  71
ENDBRANCH  50  64
BRANCH  51  75
ATOM     75  C   UNL A   1      44.393  26.062  33.927  1.00  0.00     0.023 A 
ATOM     76  C   UNL A   1      43.225  25.858  34.688  1.00  0.00     0.012 A 
ATOM     77  C   UNL A   1      45.628  25.655  34.476  1.00  0.00     0.148 A 
ATOM     78  C   UNL A   1      43.279  25.223  35.934  1.00  0.00     0.002 A 
ATOM     79  C   UNL A   1      45.677  25.025  35.717  1.00  0.00     0.091 A 
ATOM     80  F   UNL A   1      46.741  25.794  33.743  1.00  0.00    -0.205 F 
ATOM     81  C   UNL A   1      44.501  24.795  36.443  1.00  0.00     0.022 A 
BRANCH  79  82
ATOM     82  S   UNL A   1      47.217  24.413  36.415  1.00  0.00     0.127 S 
ATOM     83  O   UNL A   1      47.995  25.642  36.568  1.00  0.00    -0.237 OA
ATOM     84  O   UNL A   1      46.766  23.812  37.667  1.00  0.00    -0.237 OA
ATOM     85  O   UNL A   1      47.759  23.482  35.431  1.00  0.00    -0.744 OA
ENDBRANCH  79  82
ENDBRANCH  51  75
BRANCH  63  86
ATOM     86  C   UNL A   1      45.375  29.234  28.621  1.00  0.00     0.023 A 
ATOM     87  C   UNL A   1      45.991  27.998  28.331  1.00  0.00     0.012 A 
ATOM     88  C   UNL A   1      46.061  30.421  28.310  1.00  0.00     0.148 A 
ATOM     89  C   UNL A   1      47.268  27.947  27.765  1.00  0.00     0.002 A 
ATOM     90  C   UNL A   1      47.310  30.366  27.705  1.00  0.00     0.091 A 
ATOM     91  F   UNL A   1      45.463  31.589  28.587  1.00  0.00    -0.205 F 
ATOM     92  C   UNL A   1      47.923  29.131  27.440  1.00  0.00     0.022 A 
BRANCH  90  93
ATOM     93  S   UNL A   1      48.144  31.853  27.144  1.00  0.00     0.127 S 
ATOM     94  O   UNL A   1      47.183  32.399  26.187  1.00  0.00    -0.237 OA
ATOM     95  O   UNL A   1      48.282  32.623  28.381  1.00  0.00    -0.237 OA
ATOM     96  O   UNL A   1      49.412  31.410  26.578  1.00  0.00    -0.744 OA
ENDBRANCH  90  93
ENDBRANCH  63  86
ENDBRANCH  37  38
ENDBRANCH  29  32
ENDBRANCH  27  28
ENDBRANCH  26  27
ENDBRANCH  25  26
ENDBRANCH   1  25
TORSDOF 20
ENDMDL
MODEL 2
REMARK VINA RESULT:     -10.6      1.972      2.321
REMARK SMILES CC(C)(C)SCC(=O)N1CC(n2cc(C(=O)NCCCCCCNC(=O)c3ccc(-c4c5nc(c(-c6cccc(S(=O)(=O)[O-])c6F)c6ccc([nH]6)c(-c6cccc(S(=O)(=O)[O-])c6F)c6nc(c(-c7cccc(S(=O)(=O)[O-])c7F)c7ccc4[nH]7)C=C6)C=C5)cc3)nn2)C1
REMARK SMILES IDX 20 1 19 2 18 3 17 4 15 5 16 6 14 8 12 9 13 10 91 11 90 12
REMARK SMILES IDX 11 13 7 14 8 15 9 16 10 17 92 18 6 19 5 20 2 21 1 22 3 23
REMARK SMILES IDX 4 24 21 25 22 26 23 27 24 28 25 29 26 31 27 32 28 33 89 34
REMARK SMILES IDX 29 35 88 36 30 37 31 38 32 39 82 40 33 41 87 42 81 43 83 44
REMARK SMILES IDX 34 45 86 46 80 47 79 48 35 50 67 51 47 52 66 53 48 54 51 55
REMARK SMILES IDX 65 56 84 57 49 58 50 59 64 61 85 62 52 63 36 64 37 65 45 66
REMARK SMILES IDX 38 67 40 68 46 69 39 70 41 71 42 72 43 73 44 74 68 75 69 76
REMARK SMILES IDX 77 77 70 78 72 79 78 80 71 81 73 82 74 83 75 84 76 85 53 86
REMARK SMILES IDX 54 87 62 88 55 89 57 90 63 91 56 92 58 93 59 94 60 95 61 96
REMARK H PARENT 17 7 24 30 83 49 51 60
REMARK Flexibility Score: inf
ROOT
ATOM      1  C   UNL A   1      37.060  22.353  24.740  1.00  0.00     0.002 C 
ENDROOT
BRANCH   1   2
ATOM      2  C   UNL A   1      35.819  22.500  23.850  1.00  0.00     0.021 C 
BRANCH   2   3
ATOM      3  C   UNL A   1      34.550  21.883  24.436  1.00  0.00     0.116 C 
BRANCH   3   4
ATOM      4  N   UNL A   1      34.667  21.690  25.870  1.00  0.00    -0.351 N 
ATOM      5  C   UNL A   1      33.774  21.906  26.895  1.00  0.00     0.273 C 
ATOM      6  O   UNL A   1      34.086  21.472  28.005  1.00  0.00    -0.267 OA
ATOM      7  H   UNL A   1      35.541  21.342  26.160  1.00  0.00     0.163 HD
BRANCH   5   8
ATOM      8  C   UNL A   1      32.493  22.558  26.652  1.00  0.00     0.170 A 
ATOM      9  N   UNL A   1      30.842  23.918  26.269  1.00  0.00    -0.245 N 
ATOM     10  C   UNL A   1      32.139  23.891  26.703  1.00  0.00     0.145 A 
ATOM     11  N   UNL A   1      30.379  22.677  26.049  1.00  0.00    -0.066 NA
ATOM     12  N   UNL A   1      31.367  21.832  26.316  1.00  0.00    -0.125 NA
BRANCH   9  13
ATOM     13  C   UNL A   1      30.175  25.126  25.902  1.00  0.00     0.148 C 
ATOM     14  C   UNL A   1      29.915  27.763  23.909  1.00  0.00     0.232 C 
ATOM     15  O   UNL A   1      28.925  27.754  23.167  1.00  0.00    -0.274 OA
ATOM     16  N   UNL A   1      30.307  26.616  24.529  1.00  0.00    -0.338 N 
ATOM     17  C   UNL A   1      29.747  25.269  24.434  1.00  0.00     0.148 C 
ATOM     18  C   UNL A   1      31.215  26.237  25.586  1.00  0.00     0.148 C 
BRANCH  14  19
ATOM     19  C   UNL A   1      30.781  29.011  23.953  1.00  0.00     0.170 C 
BRANCH  19  20
ATOM     20  S   UNL A   1      31.980  29.317  22.633  1.00  0.00    -0.146 SA
BRANCH  20  21
ATOM     21  C   UNL A   1      33.320  28.070  22.938  1.00  0.00     0.008 C 
ATOM     22  C   UNL A   1      34.522  28.564  22.110  1.00  0.00     0.022 C 
ATOM     23  C   UNL A   1      32.910  26.681  22.445  1.00  0.00     0.022 C 
ATOM     24  C   UNL A   1      33.728  28.022  24.414  1.00  0.00     0.022 C 
ENDBRANCH  20  21
ENDBRANCH  19  20
ENDBRANCH  14  19
ENDBRANCH   9  13
ENDBRANCH   5   8
ENDBRANCH   3   4
ENDBRANCH   2   3
ENDBRANCH   1   2
BRANCH   1  25
ATOM     25  C   UNL A   1      37.695  20.954  24.791  1.00  0.00     0.002 C 
BRANCH  25  26
ATOM     26  C   UNL A   1      39.160  20.879  25.249  1.00  0.00     0.021 C 
BRANCH  26  27
ATOM     27  C   UNL A   1      39.443  19.756  26.235  1.00  0.00     0.116 C 
BRANCH  27  28
ATOM     28  N   UNL A   1      40.673  19.032  25.910  1.00  0.00    -0.352 N 
ATOM     29  C   UNL A   1      41.960  19.528  25.795  1.00  0.00     0.251 C 
ATOM     30  H   UNL A   1      40.572  18.066  25.752  1.00  0.00     0.163 HD
ATOM     31  O   UNL A   1      42.816  18.914  25.184  1.00  0.00    -0.269 OA
BRANCH  29  32
ATOM     32  C   UNL A   1      42.270  20.821  26.431  1.00  0.00     0.039 A 
ATOM     33  C   UNL A   1      42.659  21.929  25.674  1.00  0.00     0.014 A 
ATOM     34  C   UNL A   1      42.125  20.914  27.812  1.00  0.00     0.014 A 
ATOM     35  C   UNL A   1      42.817  23.156  26.313  1.00  0.00     0.010 A 
ATOM     36  C   UNL A   1      42.115  22.148  28.407  1.00  0.00     0.010 A 
ATOM     37  C   UNL A   1      42.523  23.261  27.681  1.00  0.00    -0.014 A 
BRANCH  37  38
ATOM     38  C   UNL A   1      42.542  24.554  28.356  1.00  0.00     0.031 A 
ATOM     39  C   UNL A   1      41.327  25.391  28.159  1.00  0.00     0.074 A 
ATOM     40  C   UNL A   1      43.473  24.873  29.283  1.00  0.00     0.049 A 
ATOM     41  N   UNL A   1      41.241  26.521  27.537  1.00  0.00    -0.248 NA
ATOM     42  C   UNL A   1      40.028  24.851  28.590  1.00  0.00     0.031 C 
ATOM     43  C   UNL A   1      44.543  24.023  29.827  1.00  0.00     0.029 A 
ATOM     44  N   UNL A   1      43.553  25.983  30.063  1.00  0.00    -0.354 N 
ATOM     45  C   UNL A   1      39.927  26.951  27.712  1.00  0.00     0.074 A 
ATOM     46  C   UNL A   1      39.191  25.805  28.176  1.00  0.00     0.031 C 
ATOM     47  C   UNL A   1      44.958  24.527  31.009  1.00  0.00     0.029 A 
ATOM     48  C   UNL A   1      44.329  25.817  31.206  1.00  0.00     0.049 A 
ATOM     49  H   UNL A   1      43.102  26.829  29.839  1.00  0.00     0.167 HD
ATOM     50  C   UNL A   1      39.608  28.277  27.711  1.00  0.00     0.034 A 
ATOM     51  C   UNL A   1      44.404  26.662  32.261  1.00  0.00     0.034 A 
ATOM     52  C   UNL A   1      40.686  29.075  27.180  1.00  0.00     0.049 A 
ATOM     53  C   UNL A   1      43.942  27.986  31.784  1.00  0.00     0.074 A 
ATOM     54  C   UNL A   1      41.404  29.093  26.000  1.00  0.00     0.029 A 
ATOM     55  N   UNL A   1      41.439  29.790  28.082  1.00  0.00    -0.354 N 
ATOM     56  N   UNL A   1      44.585  28.695  30.900  1.00  0.00    -0.248 NA
ATOM     57  C   UNL A   1      42.542  28.328  31.965  1.00  0.00     0.031 C 
ATOM     58  C   UNL A   1      42.748  29.360  26.398  1.00  0.00     0.029 A 
ATOM     59  C   UNL A   1      42.754  29.562  27.779  1.00  0.00     0.049 A 
ATOM     60  H   UNL A   1      41.096  30.358  28.810  1.00  0.00     0.167 HD
ATOM     61  C   UNL A   1      43.587  29.232  30.098  1.00  0.00     0.074 A 
ATOM     62  C   UNL A   1      42.356  29.071  30.871  1.00  0.00     0.031 C 
ATOM     63  C   UNL A   1      43.802  29.480  28.772  1.00  0.00     0.034 A 
BRANCH  50  64
ATOM     64  C   UNL A   1      38.500  28.913  28.524  1.00  0.00     0.023 A 
ATOM     65  C   UNL A   1      37.621  29.788  27.842  1.00  0.00     0.012 A 
ATOM     66  C   UNL A   1      38.446  28.931  29.936  1.00  0.00     0.148 A 
ATOM     67  C   UNL A   1      36.791  30.681  28.529  1.00  0.00     0.002 A 
ATOM     68  C   UNL A   1      37.559  29.761  30.613  1.00  0.00     0.091 A 
ATOM     69  F   UNL A   1      39.344  28.251  30.653  1.00  0.00    -0.205 F 
ATOM     70  C   UNL A   1      36.755  30.665  29.916  1.00  0.00     0.022 A 
BRANCH  68  71
ATOM     71  S   UNL A   1      37.438  29.735  32.407  1.00  0.00     0.127 S 
ATOM     72  O   UNL A   1      38.636  30.472  32.791  1.00  0.00    -0.237 OA
ATOM     73  O   UNL A   1      36.174  30.437  32.632  1.00  0.00    -0.237 OA
ATOM     74  O   UNL A   1      37.405  28.324  32.775  1.00  0.00    -0.744 OA
ENDBRANCH  68  71
ENDBRANCH  50  64
BRANCH  51  75
ATOM     75  C   UNL A   1      44.621  26.379  33.697  1.00  0.00     0.023 A 
ATOM     76  C   UNL A   1      45.906  26.551  34.247  1.00  0.00     0.012 A 
ATOM     77  C   UNL A   1      43.530  26.233  34.583  1.00  0.00     0.148 A 
ATOM     78  C   UNL A   1      46.095  26.627  35.631  1.00  0.00     0.002 A 
ATOM     79  C   UNL A   1      43.723  26.307  35.960  1.00  0.00     0.091 A 
ATOM     80  F   UNL A   1      42.295  26.121  34.077  1.00  0.00    -0.205 F 
ATOM     81  C   UNL A   1      45.004  26.518  36.488  1.00  0.00     0.022 A 
BRANCH  79  82
ATOM     82  S   UNL A   1      42.352  26.212  37.121  1.00  0.00     0.127 S 
ATOM     83  O   UNL A   1      41.508  27.327  36.691  1.00  0.00    -0.237 OA
ATOM     84  O   UNL A   1      41.808  24.886  36.842  1.00  0.00    -0.237 OA
ATOM     85  O   UNL A   1      42.940  26.383  38.445  1.00  0.00    -0.744 OA
ENDBRANCH  79  82
ENDBRANCH  51  75
BRANCH  63  86
ATOM     86  C   UNL A   1      45.213  29.391  28.243  1.00  0.00     0.023 A 
ATOM     87  C   UNL A   1      46.140  30.444  28.380  1.00  0.00     0.012 A 
ATOM     88  C   UNL A   1      45.666  28.149  27.763  1.00  0.00     0.148 A 
ATOM     89  C   UNL A   1      47.482  30.273  28.027  1.00  0.00     0.002 A 
ATOM     90  C   UNL A   1      47.009  27.968  27.459  1.00  0.00     0.091 A 
ATOM     91  F   UNL A   1      44.775  27.153  27.642  1.00  0.00    -0.205 F 
ATOM     92  C   UNL A   1      47.920  29.030  27.579  1.00  0.00     0.022 A 
BRANCH  90  93
ATOM     93  S   UNL A   1      47.655  26.357  27.002  1.00  0.00     0.127 S 
ATOM     94  O   UNL A   1      47.401  25.573  28.210  1.00  0.00    -0.237 OA
ATOM     95  O   UNL A   1      46.824  25.998  25.852  1.00  0.00    -0.237 OA
ATOM     96  O   UNL A   1      49.060  26.569  26.674  1.00  0.00    -0.744 OA
ENDBRANCH  90  93
ENDBRANCH  63  86
ENDBRANCH  37  38
ENDBRANCH  29  32
ENDBRANCH  27  28
ENDBRANCH  26  27
ENDBRANCH  25  26
ENDBRANCH   1  25
TORSDOF 20
ENDMDL
MODEL 3
REMARK VINA RESULT:     -10.3      5.185     10.565
REMARK SMILES CC(C)(C)SCC(=O)N1CC(n2cc(C(=O)NCCCCCCNC(=O)c3ccc(-c4c5nc(c(-c6cccc(S(=O)(=O)[O-])c6F)c6ccc([nH]6)c(-c6cccc(S(=O)(=O)[O-])c6F)c6nc(c(-c7cccc(S(=O)(=O)[O-])c7F)c7ccc4[nH]7)C=C6)C=C5)cc3)nn2)C1
REMARK SMILES IDX 20 1 19 2 18 3 17 4 15 5 16 6 14 8 12 9 13 10 91 11 90 12
REMARK SMILES IDX 11 13 7 14 8 15 9 16 10 17 92 18 6 19 5 20 2 21 1 22 3 23
REMARK SMILES IDX 4 24 21 25 22 26 23 27 24 28 25 29 26 31 27 32 28 33 89 34
REMARK SMILES IDX 29 35 88 36 30 37 31 38 32 39 82 40 33 41 87 42 81 43 83 44
REMARK SMILES IDX 34 45 86 46 80 47 79 48 35 50 67 51 47 52 66 53 48 54 51 55
REMARK SMILES IDX 65 56 84 57 49 58 50 59 64 61 85 62 52 63 36 64 37 65 45 66
REMARK SMILES IDX 38 67 40 68 46 69 39 70 41 71 42 72 43 73 44 74 68 75 69 76
REMARK SMILES IDX 77 77 70 78 72 79 78 80 71 81 73 82 74 83 75 84 76 85 53 86
REMARK SMILES IDX 54 87 62 88 55 89 57 90 63 91 56 92 58 93 59 94 60 95 61 96
REMARK H PARENT 17 7 24 30 83 49 51 60
REMARK Flexibility Score: inf
ROOT
ATOM      1  C   UNL A   1      44.869  22.861  34.386  1.00  0.00     0.002 C 
ENDROOT
BRANCH   1   2
ATOM      2  C   UNL A   1      43.402  22.894  34.838  1.00  0.00     0.021 C 
BRANCH   2   3
ATOM      3  C   UNL A   1      42.787  24.292  34.869  1.00  0.00     0.116 C 
BRANCH   3   4
ATOM      4  N   UNL A   1      41.795  24.412  35.921  1.00  0.00    -0.351 N 
ATOM      5  C   UNL A   1      41.468  25.462  36.750  1.00  0.00     0.273 C 
ATOM      6  O   UNL A   1      40.447  25.336  37.428  1.00  0.00    -0.267 OA
ATOM      7  H   UNL A   1      41.261  23.598  36.068  1.00  0.00     0.163 HD
BRANCH   5   8
ATOM      8  C   UNL A   1      42.261  26.685  36.765  1.00  0.00     0.170 A 
ATOM      9  N   UNL A   1      43.110  28.667  36.501  1.00  0.00    -0.245 N 
ATOM     10  C   UNL A   1      42.227  27.788  35.936  1.00  0.00     0.145 A 
ATOM     11  N   UNL A   1      43.728  28.121  37.559  1.00  0.00    -0.066 NA
ATOM     12  N   UNL A   1      43.246  26.894  37.711  1.00  0.00    -0.125 NA
BRANCH   9  13
ATOM     13  C   UNL A   1      43.178  30.042  36.123  1.00  0.00     0.148 C 
ATOM     14  C   UNL A   1      42.024  33.141  36.365  1.00  0.00     0.232 C 
ATOM     15  O   UNL A   1      42.782  33.931  36.940  1.00  0.00    -0.274 OA
ATOM     16  N   UNL A   1      42.227  31.800  36.482  1.00  0.00    -0.338 N 
ATOM     17  C   UNL A   1      43.234  31.077  37.257  1.00  0.00     0.148 C 
ATOM     18  C   UNL A   1      41.752  30.594  35.847  1.00  0.00     0.148 C 
BRANCH  14  19
ATOM     19  C   UNL A   1      40.769  33.686  35.704  1.00  0.00     0.170 C 
BRANCH  19  20
ATOM     20  S   UNL A   1      39.147  33.312  36.414  1.00  0.00    -0.146 SA
BRANCH  20  21
ATOM     21  C   UNL A   1      38.316  32.270  35.122  1.00  0.00     0.008 C 
ATOM     22  C   UNL A   1      39.255  32.320  33.903  1.00  0.00     0.022 C 
ATOM     23  C   UNL A   1      36.956  32.851  34.730  1.00  0.00     0.022 C 
ATOM     24  C   UNL A   1      38.173  30.812  35.572  1.00  0.00     0.022 C 
ENDBRANCH  20  21
ENDBRANCH  19  20
ENDBRANCH  14  19
ENDBRANCH   9  13
ENDBRANCH   5   8
ENDBRANCH   3   4
ENDBRANCH   2   3
ENDBRANCH   1   2
BRANCH   1  25
ATOM     25  C   UNL A   1      45.885  22.352  35.422  1.00  0.00     0.002 C 
BRANCH  25  26
ATOM     26  C   UNL A   1      45.612  22.714  36.889  1.00  0.00     0.021 C 
BRANCH  26  27
ATOM     27  C   UNL A   1      45.533  24.211  37.152  1.00  0.00     0.116 C 
BRANCH  27  28
ATOM     28  N   UNL A   1      46.857  24.816  37.306  1.00  0.00    -0.352 N 
ATOM     29  C   UNL A   1      47.663  25.383  36.335  1.00  0.00     0.251 C 
ATOM     30  H   UNL A   1      47.221  24.819  38.220  1.00  0.00     0.163 HD
ATOM     31  O   UNL A   1      48.860  25.522  36.517  1.00  0.00    -0.269 OA
BRANCH  29  32
ATOM     32  C   UNL A   1      47.038  25.815  35.073  1.00  0.00     0.039 A 
ATOM     33  C   UNL A   1      47.571  25.447  33.834  1.00  0.00     0.014 A 
ATOM     34  C   UNL A   1      45.874  26.572  35.153  1.00  0.00     0.014 A 
ATOM     35  C   UNL A   1      46.869  25.777  32.678  1.00  0.00     0.010 A 
ATOM     36  C   UNL A   1      45.104  26.746  34.033  1.00  0.00     0.010 A 
ATOM     37  C   UNL A   1      45.623  26.413  32.787  1.00  0.00    -0.014 A 
BRANCH  37  38
ATOM     38  C   UNL A   1      44.794  26.650  31.610  1.00  0.00     0.031 A 
ATOM     39  C   UNL A   1      44.861  25.594  30.564  1.00  0.00     0.074 A 
ATOM     40  C   UNL A   1      43.856  27.622  31.571  1.00  0.00     0.049 A 
ATOM     41  N   UNL A   1      45.337  25.700  29.367  1.00  0.00    -0.248 NA
ATOM     42  C   UNL A   1      44.471  24.223  30.928  1.00  0.00     0.031 C 
ATOM     43  C   UNL A   1      43.444  28.533  32.649  1.00  0.00     0.029 A 
ATOM     44  N   UNL A   1      42.948  27.890  30.596  1.00  0.00    -0.354 N 
ATOM     45  C   UNL A   1      45.081  24.478  28.747  1.00  0.00     0.074 A 
ATOM     46  C   UNL A   1      44.746  23.559  29.803  1.00  0.00     0.031 C 
ATOM     47  C   UNL A   1      42.219  29.028  32.374  1.00  0.00     0.029 A 
ATOM     48  C   UNL A   1      41.851  28.627  31.031  1.00  0.00     0.049 A 
ATOM     49  H   UNL A   1      43.056  27.588  29.665  1.00  0.00     0.167 HD
ATOM     50  C   UNL A   1      44.913  24.388  27.398  1.00  0.00     0.034 A 
ATOM     51  C   UNL A   1      40.702  28.845  30.349  1.00  0.00     0.034 A 
ATOM     52  C   UNL A   1      45.365  25.585  26.731  1.00  0.00     0.049 A 
ATOM     53  C   UNL A   1      41.002  28.613  28.918  1.00  0.00     0.074 A 
ATOM     54  C   UNL A   1      46.549  26.294  26.687  1.00  0.00     0.029 A 
ATOM     55  N   UNL A   1      44.398  26.449  26.271  1.00  0.00    -0.354 N 
ATOM     56  N   UNL A   1      41.806  29.367  28.221  1.00  0.00    -0.248 NA
ATOM     57  C   UNL A   1      40.749  27.291  28.371  1.00  0.00     0.031 C 
ATOM     58  C   UNL A   1      46.150  27.665  26.701  1.00  0.00     0.029 A 
ATOM     59  C   UNL A   1      44.756  27.706  26.677  1.00  0.00     0.049 A 
ATOM     60  H   UNL A   1      43.599  26.207  25.749  1.00  0.00     0.167 HD
ATOM     61  C   UNL A   1      42.513  28.473  27.429  1.00  0.00     0.074 A 
ATOM     62  C   UNL A   1      41.740  27.233  27.477  1.00  0.00     0.031 C 
ATOM     63  C   UNL A   1      43.803  28.725  27.057  1.00  0.00     0.034 A 
BRANCH  50  64
ATOM     64  C   UNL A   1      44.003  23.404  26.691  1.00  0.00     0.023 A 
ATOM     65  C   UNL A   1      42.610  23.565  26.878  1.00  0.00     0.012 A 
ATOM     66  C   UNL A   1      44.430  22.192  26.105  1.00  0.00     0.148 A 
ATOM     67  C   UNL A   1      41.702  22.546  26.569  1.00  0.00     0.002 A 
ATOM     68  C   UNL A   1      43.516  21.215  25.722  1.00  0.00     0.091 A 
ATOM     69  F   UNL A   1      45.731  21.898  26.035  1.00  0.00    -0.205 F 
ATOM     70  C   UNL A   1      42.154  21.371  25.985  1.00  0.00     0.022 A 
BRANCH  68  71
ATOM     71  S   UNL A   1      44.050  19.701  24.913  1.00  0.00     0.127 S 
ATOM     72  O   UNL A   1      42.823  18.914  24.925  1.00  0.00    -0.237 OA
ATOM     73  O   UNL A   1      44.463  20.193  23.598  1.00  0.00    -0.237 OA
ATOM     74  O   UNL A   1      45.149  19.192  25.726  1.00  0.00    -0.744 OA
ENDBRANCH  68  71
ENDBRANCH  50  64
BRANCH  51  75
ATOM     75  C   UNL A   1      39.316  29.012  30.842  1.00  0.00     0.023 A 
ATOM     76  C   UNL A   1      38.872  28.228  31.925  1.00  0.00     0.012 A 
ATOM     77  C   UNL A   1      38.536  30.126  30.460  1.00  0.00     0.148 A 
ATOM     78  C   UNL A   1      37.717  28.570  32.637  1.00  0.00     0.002 A 
ATOM     79  C   UNL A   1      37.387  30.462  31.170  1.00  0.00     0.091 A 
ATOM     80  F   UNL A   1      38.972  30.912  29.466  1.00  0.00    -0.205 F 
ATOM     81  C   UNL A   1      36.982  29.693  32.269  1.00  0.00     0.022 A 
BRANCH  79  82
ATOM     82  S   UNL A   1      36.412  31.920  30.773  1.00  0.00     0.127 S 
ATOM     83  O   UNL A   1      35.383  31.894  31.812  1.00  0.00    -0.237 OA
ATOM     84  O   UNL A   1      37.396  32.990  30.909  1.00  0.00    -0.237 OA
ATOM     85  O   UNL A   1      35.904  31.703  29.423  1.00  0.00    -0.744 OA
ENDBRANCH  79  82
ENDBRANCH  51  75
BRANCH  63  86
ATOM     86  C   UNL A   1      44.370  30.101  27.315  1.00  0.00     0.023 A 
ATOM     87  C   UNL A   1      44.112  31.197  26.466  1.00  0.00     0.012 A 
ATOM     88  C   UNL A   1      45.023  30.332  28.538  1.00  0.00     0.148 A 
ATOM     89  C   UNL A   1      44.514  32.489  26.816  1.00  0.00     0.002 A 
ATOM     90  C   UNL A   1      45.379  31.624  28.905  1.00  0.00     0.091 A 
ATOM     91  F   UNL A   1      45.259  29.282  29.339  1.00  0.00    -0.205 F 
ATOM     92  C   UNL A   1      45.136  32.705  28.043  1.00  0.00     0.022 A 
BRANCH  90  93
ATOM     93  S   UNL A   1      46.063  31.981  30.525  1.00  0.00     0.127 S 
ATOM     94  O   UNL A   1      47.341  31.272  30.479  1.00  0.00    -0.237 OA
ATOM     95  O   UNL A   1      46.171  33.440  30.507  1.00  0.00    -0.237 OA
ATOM     96  O   UNL A   1      45.095  31.471  31.488  1.00  0.00    -0.744 OA
ENDBRANCH  90  93
ENDBRANCH  63  86
ENDBRANCH  37  38
ENDBRANCH  29  32
ENDBRANCH  27  28
ENDBRANCH  26  27
ENDBRANCH  25  26
ENDBRANCH   1  25
TORSDOF 20
ENDMDL
