MODEL 1
REMARK VINA RESULT:     -11.7      0.000      0.000
REMARK SMILES O=C(NCCCCCCNC(=O)[C@@H](CCCCl)[P@TB4](=O)(c1ccccc1)c1ccccc1)c1ccc(-c2c3nc(c(-c4cccc(S(=O)(=O)[O-])c4F)c4ccc([nH]4)c(-c4cccc(S(=O)(=O)[O-])c4F)c4nc(c(-c5cccc(S(=O)(=O)[O-])c5F)c5ccc2[nH]5)C=C4)C=C3)cc1
REMARK SMILES IDX 6 1 5 2 4 3 3 4 1 5 2 6 32 8 33 9 94 10 34 11 93 12 35 13
REMARK SMILES IDX 36 14 37 15 87 16 38 17 92 18 86 19 88 20 39 21 91 22 85 23
REMARK SMILES IDX 84 24 40 26 72 27 52 28 71 29 53 30 56 31 70 32 89 33 54 34
REMARK SMILES IDX 55 35 69 37 90 38 57 39 41 40 42 41 50 42 43 43 45 44 51 45
REMARK SMILES IDX 44 46 46 47 47 48 48 49 49 50 73 51 74 52 82 53 75 54 77 55
REMARK SMILES IDX 83 56 76 57 78 58 79 59 80 60 81 61 58 62 59 63 67 64 60 65
REMARK SMILES IDX 62 66 68 67 61 68 63 69 64 70 65 71 66 72 7 73 8 74 9 75
REMARK SMILES IDX 10 76 11 77 12 79 13 80 14 81 15 82 16 83 17 84 18 85 19 86
REMARK SMILES IDX 20 87 21 88 25 89 22 90 24 91 23 92 26 93 27 94 31 95 28 96
REMARK SMILES IDX 30 97 29 98
REMARK H PARENT 3 7 88 25 56 36 10 78
REMARK Flexibility Score: inf
ROOT
ATOM      1  C   UNL A   1      31.237  31.318  25.691  1.00  0.00       nan C 
ENDROOT
BRANCH   1   2
ATOM      2  C   UNL A   1      31.369  32.158  26.960  1.00  0.00       nan C 
BRANCH   2   3
ATOM      3  C   UNL A   1      32.704  32.845  27.220  1.00  0.00       nan C 
BRANCH   3   4
ATOM      4  N   UNL A   1      32.555  34.207  27.691  1.00  0.00       nan N 
ATOM      5  O   UNL A   1      32.754  35.983  29.043  1.00  0.00       inf OA
ATOM      6  C   UNL A   1      33.168  34.868  28.729  1.00  0.00       nan C 
ATOM      7  H   UNL A   1      31.908  34.749  27.184  1.00  0.00       nan HD
BRANCH   6   8
ATOM      8  C   UNL A   1      34.295  34.262  29.480  1.00  0.00       inf A 
ATOM      9  C   UNL A   1      34.083  33.409  30.566  1.00  0.00     0.014 A 
ATOM     10  C   UNL A   1      35.603  34.494  29.036  1.00  0.00     0.014 A 
ATOM     11  C   UNL A   1      35.169  32.888  31.272  1.00  0.00     0.010 A 
ATOM     12  C   UNL A   1      36.689  33.908  29.697  1.00  0.00     0.010 A 
ATOM     13  C   UNL A   1      36.485  33.115  30.836  1.00  0.00    -0.014 A 
BRANCH  13  14
ATOM     14  C   UNL A   1      37.619  32.439  31.525  1.00  0.00     0.031 A 
ATOM     15  C   UNL A   1      38.361  31.298  30.884  1.00  0.00     0.074 A 
ATOM     16  C   UNL A   1      37.964  32.853  32.760  1.00  0.00     0.049 A 
ATOM     17  N   UNL A   1      39.383  30.621  31.346  1.00  0.00    -0.248 NA
ATOM     18  C   UNL A   1      37.899  30.851  29.561  1.00  0.00     0.031 C 
ATOM     19  C   UNL A   1      37.282  33.906  33.515  1.00  0.00     0.029 A 
ATOM     20  N   UNL A   1      38.963  32.434  33.605  1.00  0.00    -0.354 N 
ATOM     21  C   UNL A   1      39.663  29.648  30.393  1.00  0.00     0.074 A 
ATOM     22  C   UNL A   1      38.699  29.817  29.328  1.00  0.00     0.031 C 
ATOM     23  C   UNL A   1      37.889  34.064  34.700  1.00  0.00     0.029 A 
ATOM     24  C   UNL A   1      38.971  33.093  34.814  1.00  0.00     0.049 A 
ATOM     25  H   UNL A   1      39.611  31.732  33.370  1.00  0.00     0.167 HD
ATOM     26  C   UNL A   1      40.641  28.709  30.401  1.00  0.00     0.034 A 
ATOM     27  C   UNL A   1      39.746  32.925  35.902  1.00  0.00     0.034 A 
ATOM     28  C   UNL A   1      41.614  28.559  31.452  1.00  0.00     0.049 A 
ATOM     29  C   UNL A   1      40.839  31.895  35.870  1.00  0.00     0.074 A 
ATOM     30  C   UNL A   1      42.689  27.688  31.510  1.00  0.00     0.029 A 
ATOM     31  N   UNL A   1      41.625  29.282  32.635  1.00  0.00    -0.354 N 
ATOM     32  N   UNL A   1      41.179  31.087  34.896  1.00  0.00    -0.248 NA
ATOM     33  C   UNL A   1      41.675  31.775  37.072  1.00  0.00     0.031 C 
ATOM     34  C   UNL A   1      43.331  27.863  32.741  1.00  0.00     0.029 A 
ATOM     35  C   UNL A   1      42.678  28.868  33.435  1.00  0.00     0.049 A 
ATOM     36  H   UNL A   1      40.980  29.987  32.872  1.00  0.00     0.167 HD
ATOM     37  C   UNL A   1      42.283  30.380  35.357  1.00  0.00     0.074 A 
ATOM     38  C   UNL A   1      42.571  30.877  36.687  1.00  0.00     0.031 C 
ATOM     39  C   UNL A   1      42.984  29.398  34.740  1.00  0.00     0.034 A 
BRANCH  26  40
ATOM     40  C   UNL A   1      40.738  27.779  29.217  1.00  0.00     0.023 A 
ATOM     41  C   UNL A   1      39.910  26.640  29.156  1.00  0.00     0.012 A 
ATOM     42  C   UNL A   1      41.581  28.079  28.128  1.00  0.00     0.148 A 
ATOM     43  C   UNL A   1      39.940  25.798  28.044  1.00  0.00     0.002 A 
ATOM     44  C   UNL A   1      41.576  27.258  27.006  1.00  0.00     0.091 A 
ATOM     45  F   UNL A   1      42.372  29.157  28.210  1.00  0.00    -0.205 F 
ATOM     46  C   UNL A   1      40.763  26.112  26.966  1.00  0.00     0.022 A 
BRANCH  44  47
ATOM     47  S   UNL A   1      42.541  27.617  25.534  1.00  0.00     0.127 S 
ATOM     48  O   UNL A   1      43.899  27.650  26.072  1.00  0.00    -0.237 OA
ATOM     49  O   UNL A   1      42.250  26.462  24.685  1.00  0.00    -0.237 OA
ATOM     50  O   UNL A   1      42.039  28.888  25.025  1.00  0.00    -0.744 OA
ENDBRANCH  44  47
ENDBRANCH  26  40
BRANCH  27  51
ATOM     51  C   UNL A   1      39.531  33.785  37.100  1.00  0.00     0.023 A 
ATOM     52  C   UNL A   1      39.956  35.127  37.079  1.00  0.00     0.012 A 
ATOM     53  C   UNL A   1      38.867  33.291  38.239  1.00  0.00     0.148 A 
ATOM     54  C   UNL A   1      39.744  35.955  38.183  1.00  0.00     0.002 A 
ATOM     55  C   UNL A   1      38.605  34.137  39.309  1.00  0.00     0.091 A 
ATOM     56  F   UNL A   1      38.484  32.006  38.243  1.00  0.00    -0.205 F 
ATOM     57  C   UNL A   1      39.059  35.465  39.292  1.00  0.00     0.022 A 
BRANCH  55  58
ATOM     58  S   UNL A   1      37.603  33.631  40.712  1.00  0.00     0.127 S 
ATOM     59  O   UNL A   1      37.481  34.880  41.457  1.00  0.00    -0.237 OA
ATOM     60  O   UNL A   1      36.375  33.178  40.057  1.00  0.00    -0.237 OA
ATOM     61  O   UNL A   1      38.357  32.572  41.370  1.00  0.00    -0.744 OA
ENDBRANCH  55  58
ENDBRANCH  27  51
BRANCH  39  62
ATOM     62  C   UNL A   1      44.156  28.809  35.480  1.00  0.00     0.023 A 
ATOM     63  C   UNL A   1      45.450  29.329  35.276  1.00  0.00     0.012 A 
ATOM     64  C   UNL A   1      43.967  27.780  36.423  1.00  0.00     0.148 A 
ATOM     65  C   UNL A   1      46.541  28.811  35.972  1.00  0.00     0.002 A 
ATOM     66  C   UNL A   1      45.051  27.304  37.150  1.00  0.00     0.091 A 
ATOM     67  F   UNL A   1      42.732  27.284  36.589  1.00  0.00    -0.205 F 
ATOM     68  C   UNL A   1      46.340  27.809  36.917  1.00  0.00     0.022 A 
BRANCH  66  69
ATOM     69  S   UNL A   1      44.870  26.080  38.454  1.00  0.00     0.127 S 
ATOM     70  O   UNL A   1      43.946  26.752  39.366  1.00  0.00    -0.237 OA
ATOM     71  O   UNL A   1      44.297  24.942  37.735  1.00  0.00    -0.237 OA
ATOM     72  O   UNL A   1      46.210  25.851  38.977  1.00  0.00    -0.744 OA
ENDBRANCH  66  69
ENDBRANCH  39  62
ENDBRANCH  13  14
ENDBRANCH   6   8
ENDBRANCH   3   4
ENDBRANCH   2   3
ENDBRANCH   1   2
BRANCH   1  73
ATOM     73  C   UNL A   1      31.727  29.864  25.755  1.00  0.00       nan C 
BRANCH  73  74
ATOM     74  C   UNL A   1      31.843  29.194  27.130  1.00  0.00       nan C 
BRANCH  74  75
ATOM     75  C   UNL A   1      32.235  27.725  27.165  1.00  0.00       nan C 
BRANCH  75  76
ATOM     76  N   UNL A   1      31.188  26.746  27.056  1.00  0.00       nan N 
ATOM     77  C   UNL A   1      31.103  25.726  26.156  1.00  0.00       nan C 
ATOM     78  H   UNL A   1      30.450  26.821  27.703  1.00  0.00       nan HD
ATOM     79  O   UNL A   1      30.325  24.810  26.452  1.00  0.00       nan OA
BRANCH  77  80
ATOM     80  C   UNL A   1      31.853  25.677  24.815  1.00  0.00       nan C 
BRANCH  80  81
ATOM     81  C   UNL A   1      31.383  26.715  23.750  1.00  0.00       nan C 
BRANCH  81  82
ATOM     82  C   UNL A   1      29.985  27.347  23.718  1.00  0.00       nan C 
BRANCH  82  83
ATOM     83  C   UNL A   1      29.681  28.376  22.614  1.00  0.00       nan C 
ATOM     84  Cl  UNL A   1      29.013  29.893  23.251  1.00  0.00       nan Cl
ENDBRANCH  82  83
ENDBRANCH  81  82
ENDBRANCH  80  81
BRANCH  80  85
ATOM     85  P   UNL A   1      33.393  24.690  24.774  1.00  0.00       nan P 
ATOM     86  O   UNL A   1      33.509  24.835  26.305  1.00  0.00       nan OA
BRANCH  85  87
ATOM     87  C   UNL A   1      32.583  22.873  24.260  1.00  0.00       nan A 
ATOM     88  C   UNL A   1      32.609  21.763  25.113  1.00  0.00       nan A 
ATOM     89  C   UNL A   1      32.297  22.628  22.892  1.00  0.00       nan A 
ATOM     90  C   UNL A   1      32.364  20.466  24.649  1.00  0.00       nan A 
ATOM     91  C   UNL A   1      32.156  21.317  22.414  1.00  0.00       nan A 
ATOM     92  C   UNL A   1      32.185  20.237  23.292  1.00  0.00       nan A 
ENDBRANCH  85  87
BRANCH  85  93
ATOM     93  C   UNL A   1      34.934  23.704  24.732  1.00  0.00       nan A 
ATOM     94  C   UNL A   1      35.507  23.515  23.457  1.00  0.00       nan A 
ATOM     95  C   UNL A   1      35.604  23.168  25.847  1.00  0.00       nan A 
ATOM     96  C   UNL A   1      36.651  22.734  23.294  1.00  0.00       nan A 
ATOM     97  C   UNL A   1      36.727  22.354  25.676  1.00  0.00       nan A 
ATOM     98  C   UNL A   1      37.243  22.130  24.401  1.00  0.00       nan A 
ENDBRANCH  85  93
ENDBRANCH  80  85
ENDBRANCH  77  80
ENDBRANCH  75  76
ENDBRANCH  74  75
ENDBRANCH  73  74
ENDBRANCH   1  73
TORSDOF 22
ENDMDL
MODEL 2
REMARK VINA RESULT:     -11.6      3.694      8.553
REMARK SMILES O=C(NCCCCCCNC(=O)[C@@H](CCCCl)[P@TB4](=O)(c1ccccc1)c1ccccc1)c1ccc(-c2c3nc(c(-c4cccc(S(=O)(=O)[O-])c4F)c4ccc([nH]4)c(-c4cccc(S(=O)(=O)[O-])c4F)c4nc(c(-c5cccc(S(=O)(=O)[O-])c5F)c5ccc2[nH]5)C=C4)C=C3)cc1
REMARK SMILES IDX 6 1 5 2 4 3 3 4 1 5 2 6 32 8 33 9 94 10 34 11 93 12 35 13
REMARK SMILES IDX 36 14 37 15 87 16 38 17 92 18 86 19 88 20 39 21 91 22 85 23
REMARK SMILES IDX 84 24 40 26 72 27 52 28 71 29 53 30 56 31 70 32 89 33 54 34
REMARK SMILES IDX 55 35 69 37 90 38 57 39 41 40 42 41 50 42 43 43 45 44 51 45
REMARK SMILES IDX 44 46 46 47 47 48 48 49 49 50 73 51 74 52 82 53 75 54 77 55
REMARK SMILES IDX 83 56 76 57 78 58 79 59 80 60 81 61 58 62 59 63 67 64 60 65
REMARK SMILES IDX 62 66 68 67 61 68 63 69 64 70 65 71 66 72 7 73 8 74 9 75
REMARK SMILES IDX 10 76 11 77 12 79 13 80 14 81 15 82 16 83 17 84 18 85 19 86
REMARK SMILES IDX 20 87 21 88 25 89 22 90 24 91 23 92 26 93 27 94 31 95 28 96
REMARK SMILES IDX 30 97 29 98
REMARK H PARENT 3 7 88 25 56 36 10 78
REMARK Flexibility Score: inf
ROOT
ATOM      1  C   UNL A   1      31.510  27.962  25.506  1.00  0.00       nan C 
ENDROOT
BRANCH   1   2
ATOM      2  C   UNL A   1      32.733  28.826  25.201  1.00  0.00       nan C 
BRANCH   2   3
ATOM      3  C   UNL A   1      33.722  29.080  26.332  1.00  0.00       nan C 
BRANCH   3   4
ATOM      4  N   UNL A   1      33.696  30.448  26.807  1.00  0.00       nan N 
ATOM      5  O   UNL A   1      34.206  32.233  28.061  1.00  0.00       inf OA
ATOM      6  C   UNL A   1      34.528  31.109  27.679  1.00  0.00       nan C 
ATOM      7  H   UNL A   1      32.962  30.995  26.445  1.00  0.00       nan HD
BRANCH   6   8
ATOM      8  C   UNL A   1      35.783  30.493  28.176  1.00  0.00       inf A 
ATOM      9  C   UNL A   1      36.970  30.542  27.442  1.00  0.00     0.014 A 
ATOM     10  C   UNL A   1      35.789  29.913  29.452  1.00  0.00     0.014 A 
ATOM     11  C   UNL A   1      38.121  29.917  27.925  1.00  0.00     0.010 A 
ATOM     12  C   UNL A   1      36.965  29.355  29.969  1.00  0.00     0.010 A 
ATOM     13  C   UNL A   1      38.138  29.332  29.203  1.00  0.00    -0.014 A 
BRANCH  13  14
ATOM     14  C   UNL A   1      39.413  28.792  29.750  1.00  0.00     0.031 A 
ATOM     15  C   UNL A   1      40.060  29.386  30.972  1.00  0.00     0.074 A 
ATOM     16  C   UNL A   1      40.005  27.760  29.115  1.00  0.00     0.049 A 
ATOM     17  N   UNL A   1      41.157  29.015  31.583  1.00  0.00    -0.248 NA
ATOM     18  C   UNL A   1      39.400  30.549  31.585  1.00  0.00     0.031 C 
ATOM     19  C   UNL A   1      39.511  27.137  27.886  1.00  0.00     0.029 A 
ATOM     20  N   UNL A   1      41.151  27.061  29.404  1.00  0.00    -0.354 N 
ATOM     21  C   UNL A   1      41.341  29.915  32.627  1.00  0.00     0.074 A 
ATOM     22  C   UNL A   1      40.244  30.857  32.563  1.00  0.00     0.031 C 
ATOM     23  C   UNL A   1      40.336  26.140  27.534  1.00  0.00     0.029 A 
ATOM     24  C   UNL A   1      41.443  26.082  28.482  1.00  0.00     0.049 A 
ATOM     25  H   UNL A   1      41.709  27.241  30.193  1.00  0.00     0.167 HD
ATOM     26  C   UNL A   1      42.325  29.946  33.559  1.00  0.00     0.034 A 
ATOM     27  C   UNL A   1      42.492  25.243  28.391  1.00  0.00     0.034 A 
ATOM     28  C   UNL A   1      43.401  28.992  33.633  1.00  0.00     0.049 A 
ATOM     29  C   UNL A   1      43.554  25.282  29.454  1.00  0.00     0.074 A 
ATOM     30  C   UNL A   1      44.400  28.897  34.588  1.00  0.00     0.029 A 
ATOM     31  N   UNL A   1      43.633  27.980  32.714  1.00  0.00    -0.354 N 
ATOM     32  N   UNL A   1      43.626  26.046  30.516  1.00  0.00    -0.248 NA
ATOM     33  C   UNL A   1      44.660  24.324  29.325  1.00  0.00     0.031 C 
ATOM     34  C   UNL A   1      45.253  27.847  34.228  1.00  0.00     0.029 A 
ATOM     35  C   UNL A   1      44.766  27.266  33.070  1.00  0.00     0.049 A 
ATOM     36  H   UNL A   1      43.074  27.796  31.925  1.00  0.00     0.167 HD
ATOM     37  C   UNL A   1      44.770  25.646  31.196  1.00  0.00     0.074 A 
ATOM     38  C   UNL A   1      45.343  24.552  30.438  1.00  0.00     0.031 C 
ATOM     39  C   UNL A   1      45.305  26.149  32.334  1.00  0.00     0.034 A 
BRANCH  26  40
ATOM     40  C   UNL A   1      42.274  31.031  34.605  1.00  0.00     0.023 A 
ATOM     41  C   UNL A   1      41.664  30.771  35.849  1.00  0.00     0.012 A 
ATOM     42  C   UNL A   1      42.905  32.273  34.392  1.00  0.00     0.148 A 
ATOM     43  C   UNL A   1      41.655  31.740  36.853  1.00  0.00     0.002 A 
ATOM     44  C   UNL A   1      42.929  33.218  35.411  1.00  0.00     0.091 A 
ATOM     45  F   UNL A   1      43.467  32.508  33.198  1.00  0.00    -0.205 F 
ATOM     46  C   UNL A   1      42.297  32.957  36.639  1.00  0.00     0.022 A 
BRANCH  44  47
ATOM     47  S   UNL A   1      43.795  34.785  35.264  1.00  0.00     0.127 S 
ATOM     48  O   UNL A   1      43.029  35.447  34.210  1.00  0.00    -0.237 OA
ATOM     49  O   UNL A   1      43.620  35.360  36.597  1.00  0.00    -0.237 OA
ATOM     50  O   UNL A   1      45.172  34.453  34.921  1.00  0.00    -0.744 OA
ENDBRANCH  44  47
ENDBRANCH  26  40
BRANCH  27  51
ATOM     51  C   UNL A   1      42.564  24.269  27.266  1.00  0.00     0.023 A 
ATOM     52  C   UNL A   1      43.287  24.600  26.104  1.00  0.00     0.012 A 
ATOM     53  C   UNL A   1      41.960  23.001  27.363  1.00  0.00     0.148 A 
ATOM     54  C   UNL A   1      43.385  23.692  25.048  1.00  0.00     0.002 A 
ATOM     55  C   UNL A   1      42.113  22.080  26.334  1.00  0.00     0.091 A 
ATOM     56  F   UNL A   1      41.265  22.712  28.472  1.00  0.00    -0.205 F 
ATOM     57  C   UNL A   1      42.810  22.430  25.167  1.00  0.00     0.022 A 
BRANCH  55  58
ATOM     58  S   UNL A   1      41.532  20.386  26.466  1.00  0.00     0.127 S 
ATOM     59  O   UNL A   1      42.124  19.965  27.733  1.00  0.00    -0.237 OA
ATOM     60  O   UNL A   1      40.080  20.567  26.493  1.00  0.00    -0.237 OA
ATOM     61  O   UNL A   1      42.030  19.707  25.278  1.00  0.00    -0.744 OA
ENDBRANCH  55  58
ENDBRANCH  27  51
BRANCH  39  62
ATOM     62  C   UNL A   1      46.562  25.505  32.857  1.00  0.00     0.023 A 
ATOM     63  C   UNL A   1      47.821  25.973  32.429  1.00  0.00     0.012 A 
ATOM     64  C   UNL A   1      46.497  24.476  33.816  1.00  0.00     0.148 A 
ATOM     65  C   UNL A   1      48.995  25.404  32.923  1.00  0.00     0.002 A 
ATOM     66  C   UNL A   1      47.671  23.949  34.341  1.00  0.00     0.091 A 
ATOM     67  F   UNL A   1      45.290  24.030  34.195  1.00  0.00    -0.205 F 
ATOM     68  C   UNL A   1      48.920  24.402  33.887  1.00  0.00     0.022 A 
BRANCH  66  69
ATOM     69  S   UNL A   1      47.669  22.722  35.655  1.00  0.00     0.127 S 
ATOM     70  O   UNL A   1      47.012  21.590  35.003  1.00  0.00    -0.237 OA
ATOM     71  O   UNL A   1      49.098  22.535  35.906  1.00  0.00    -0.237 OA
ATOM     72  O   UNL A   1      46.935  23.320  36.761  1.00  0.00    -0.744 OA
ENDBRANCH  66  69
ENDBRANCH  39  62
ENDBRANCH  13  14
ENDBRANCH   6   8
ENDBRANCH   3   4
ENDBRANCH   2   3
ENDBRANCH   1   2
BRANCH   1  73
ATOM     73  C   UNL A   1      30.585  27.611  24.331  1.00  0.00       nan C 
BRANCH  73  74
ATOM     74  C   UNL A   1      29.890  26.244  24.335  1.00  0.00       nan C 
BRANCH  74  75
ATOM     75  C   UNL A   1      30.729  25.029  24.696  1.00  0.00       nan C 
BRANCH  75  76
ATOM     76  N   UNL A   1      30.250  24.165  25.739  1.00  0.00       nan N 
ATOM     77  C   UNL A   1      30.991  23.343  26.536  1.00  0.00       nan C 
ATOM     78  H   UNL A   1      29.277  24.166  25.896  1.00  0.00       nan HD
ATOM     79  O   UNL A   1      30.440  22.964  27.578  1.00  0.00       nan OA
BRANCH  77  80
ATOM     80  C   UNL A   1      32.401  22.836  26.198  1.00  0.00       nan C 
BRANCH  80  81
ATOM     81  C   UNL A   1      33.571  23.616  26.873  1.00  0.00       nan C 
BRANCH  81  82
ATOM     82  C   UNL A   1      34.649  24.391  26.103  1.00  0.00       nan C 
BRANCH  82  83
ATOM     83  C   UNL A   1      34.278  25.771  25.530  1.00  0.00       nan C 
ATOM     84  Cl  UNL A   1      33.908  25.719  23.794  1.00  0.00       nan Cl
ENDBRANCH  82  83
ENDBRANCH  81  82
ENDBRANCH  80  81
BRANCH  80  85
ATOM     85  P   UNL A   1      32.509  21.207  25.371  1.00  0.00       nan P 
ATOM     86  O   UNL A   1      31.459  21.676  24.344  1.00  0.00       nan OA
BRANCH  85  87
ATOM     87  C   UNL A   1      34.412  21.371  24.612  1.00  0.00       nan A 
ATOM     88  C   UNL A   1      35.546  20.936  25.308  1.00  0.00       nan A 
ATOM     89  C   UNL A   1      34.624  22.251  23.520  1.00  0.00       nan A 
ATOM     90  C   UNL A   1      36.837  21.341  24.949  1.00  0.00       nan A 
ATOM     91  C   UNL A   1      35.908  22.737  23.230  1.00  0.00       nan A 
ATOM     92  C   UNL A   1      37.014  22.278  23.942  1.00  0.00       nan A 
ENDBRANCH  85  87
BRANCH  85  93
ATOM     93  C   UNL A   1      32.617  19.578  24.545  1.00  0.00       nan A 
ATOM     94  C   UNL A   1      32.909  18.483  25.384  1.00  0.00       nan A 
ATOM     95  C   UNL A   1      32.395  19.327  23.179  1.00  0.00       nan A 
ATOM     96  C   UNL A   1      33.071  17.200  24.859  1.00  0.00       nan A 
ATOM     97  C   UNL A   1      32.596  18.049  22.650  1.00  0.00       nan A 
ATOM     98  C   UNL A   1      32.943  16.990  23.488  1.00  0.00       nan A 
ENDBRANCH  85  93
ENDBRANCH  80  85
ENDBRANCH  77  80
ENDBRANCH  75  76
ENDBRANCH  74  75
ENDBRANCH  73  74
ENDBRANCH   1  73
TORSDOF 22
ENDMDL
MODEL 3
REMARK VINA RESULT:     -11.5      1.373      2.468
REMARK SMILES O=C(NCCCCCCNC(=O)[C@@H](CCCCl)[P@TB4](=O)(c1ccccc1)c1ccccc1)c1ccc(-c2c3nc(c(-c4cccc(S(=O)(=O)[O-])c4F)c4ccc([nH]4)c(-c4cccc(S(=O)(=O)[O-])c4F)c4nc(c(-c5cccc(S(=O)(=O)[O-])c5F)c5ccc2[nH]5)C=C4)C=C3)cc1
REMARK SMILES IDX 6 1 5 2 4 3 3 4 1 5 2 6 32 8 33 9 94 10 34 11 93 12 35 13
REMARK SMILES IDX 36 14 37 15 87 16 38 17 92 18 86 19 88 20 39 21 91 22 85 23
REMARK SMILES IDX 84 24 40 26 72 27 52 28 71 29 53 30 56 31 70 32 89 33 54 34
REMARK SMILES IDX 55 35 69 37 90 38 57 39 41 40 42 41 50 42 43 43 45 44 51 45
REMARK SMILES IDX 44 46 46 47 47 48 48 49 49 50 73 51 74 52 82 53 75 54 77 55
REMARK SMILES IDX 83 56 76 57 78 58 79 59 80 60 81 61 58 62 59 63 67 64 60 65
REMARK SMILES IDX 62 66 68 67 61 68 63 69 64 70 65 71 66 72 7 73 8 74 9 75
REMARK SMILES IDX 10 76 11 77 12 79 13 80 14 81 15 82 16 83 17 84 18 85 19 86
REMARK SMILES IDX 20 87 21 88 25 89 22 90 24 91 23 92 26 93 27 94 31 95 28 96
REMARK SMILES IDX 30 97 29 98
REMARK H PARENT 3 7 88 25 56 36 10 78
REMARK Flexibility Score: inf
ROOT
ATOM      1  C   UNL A   1      31.064  31.138  25.184  1.00  0.00       nan C 
ENDROOT
BRANCH   1   2
ATOM      2  C   UNL A   1      31.360  31.570  26.619  1.00  0.00       nan C 
BRANCH   2   3
ATOM      3  C   UNL A   1      32.682  32.279  26.889  1.00  0.00       nan C 
BRANCH   3   4
ATOM      4  N   UNL A   1      32.506  33.640  27.356  1.00  0.00       nan N 
ATOM      5  O   UNL A   1      32.670  35.422  28.702  1.00  0.00       inf OA
ATOM      6  C   UNL A   1      33.105  34.315  28.392  1.00  0.00       nan C 
ATOM      7  H   UNL A   1      31.849  34.167  26.846  1.00  0.00       nan HD
BRANCH   6   8
ATOM      8  C   UNL A   1      34.242  33.732  29.147  1.00  0.00       inf A 
ATOM      9  C   UNL A   1      34.056  32.736  30.108  1.00  0.00     0.014 A 
ATOM     10  C   UNL A   1      35.543  34.142  28.828  1.00  0.00     0.014 A 
ATOM     11  C   UNL A   1      35.146  32.239  30.824  1.00  0.00     0.010 A 
ATOM     12  C   UNL A   1      36.643  33.586  29.492  1.00  0.00     0.010 A 
ATOM     13  C   UNL A   1      36.455  32.644  30.513  1.00  0.00    -0.014 A 
BRANCH  13  14
ATOM     14  C   UNL A   1      37.610  32.001  31.198  1.00  0.00     0.031 A 
ATOM     15  C   UNL A   1      38.382  30.880  30.556  1.00  0.00     0.074 A 
ATOM     16  C   UNL A   1      37.949  32.424  32.432  1.00  0.00     0.049 A 
ATOM     17  N   UNL A   1      39.424  30.233  31.014  1.00  0.00    -0.248 NA
ATOM     18  C   UNL A   1      37.928  30.420  29.234  1.00  0.00     0.031 C 
ATOM     19  C   UNL A   1      37.240  33.459  33.189  1.00  0.00     0.029 A 
ATOM     20  N   UNL A   1      38.961  32.035  33.274  1.00  0.00    -0.354 N 
ATOM     21  C   UNL A   1      39.729  29.268  30.060  1.00  0.00     0.074 A 
ATOM     22  C   UNL A   1      38.756  29.409  28.998  1.00  0.00     0.031 C 
ATOM     23  C   UNL A   1      37.846  33.634  34.372  1.00  0.00     0.029 A 
ATOM     24  C   UNL A   1      38.956  32.695  34.482  1.00  0.00     0.049 A 
ATOM     25  H   UNL A   1      39.628  31.351  33.036  1.00  0.00     0.167 HD
ATOM     26  C   UNL A   1      40.733  28.357  30.065  1.00  0.00     0.034 A 
ATOM     27  C   UNL A   1      39.738  32.549  35.567  1.00  0.00     0.034 A 
ATOM     28  C   UNL A   1      41.714  28.236  31.112  1.00  0.00     0.049 A 
ATOM     29  C   UNL A   1      40.860  31.550  35.532  1.00  0.00     0.074 A 
ATOM     30  C   UNL A   1      42.813  27.395  31.166  1.00  0.00     0.029 A 
ATOM     31  N   UNL A   1      41.708  28.959  32.295  1.00  0.00    -0.354 N 
ATOM     32  N   UNL A   1      41.220  30.752  34.557  1.00  0.00    -0.248 NA
ATOM     33  C   UNL A   1      41.704  31.455  36.731  1.00  0.00     0.031 C 
ATOM     34  C   UNL A   1      43.454  27.589  32.395  1.00  0.00     0.029 A 
ATOM     35  C   UNL A   1      42.775  28.575  33.091  1.00  0.00     0.049 A 
ATOM     36  H   UNL A   1      41.044  29.646  32.533  1.00  0.00     0.167 HD
ATOM     37  C   UNL A   1      42.345  30.077  35.014  1.00  0.00     0.074 A 
ATOM     38  C   UNL A   1      42.623  30.582  36.343  1.00  0.00     0.031 C 
ATOM     39  C   UNL A   1      43.071  29.115  34.395  1.00  0.00     0.034 A 
BRANCH  26  40
ATOM     40  C   UNL A   1      40.851  27.430  28.880  1.00  0.00     0.023 A 
ATOM     41  C   UNL A   1      39.933  26.372  28.729  1.00  0.00     0.012 A 
ATOM     42  C   UNL A   1      41.813  27.658  27.876  1.00  0.00     0.148 A 
ATOM     43  C   UNL A   1      39.987  25.537  27.613  1.00  0.00     0.002 A 
ATOM     44  C   UNL A   1      41.835  26.848  26.746  1.00  0.00     0.091 A 
ATOM     45  F   UNL A   1      42.688  28.659  28.044  1.00  0.00    -0.205 F 
ATOM     46  C   UNL A   1      40.929  25.782  26.617  1.00  0.00     0.022 A 
BRANCH  44  47
ATOM     47  S   UNL A   1      42.958  27.127  25.371  1.00  0.00     0.127 S 
ATOM     48  O   UNL A   1      42.930  25.828  24.701  1.00  0.00    -0.237 OA
ATOM     49  O   UNL A   1      42.290  28.203  24.641  1.00  0.00    -0.237 OA
ATOM     50  O   UNL A   1      44.236  27.496  25.966  1.00  0.00    -0.744 OA
ENDBRANCH  44  47
ENDBRANCH  26  40
BRANCH  27  51
ATOM     51  C   UNL A   1      39.504  33.403  36.766  1.00  0.00     0.023 A 
ATOM     52  C   UNL A   1      39.948  34.739  36.766  1.00  0.00     0.012 A 
ATOM     53  C   UNL A   1      38.802  32.910  37.883  1.00  0.00     0.148 A 
ATOM     54  C   UNL A   1      39.718  35.562  37.870  1.00  0.00     0.002 A 
ATOM     55  C   UNL A   1      38.524  33.752  38.952  1.00  0.00     0.091 A 
ATOM     56  F   UNL A   1      38.401  31.631  37.867  1.00  0.00    -0.205 F 
ATOM     57  C   UNL A   1      38.997  35.073  38.957  1.00  0.00     0.022 A 
BRANCH  55  58
ATOM     58  S   UNL A   1      37.479  33.250  40.323  1.00  0.00     0.127 S 
ATOM     59  O   UNL A   1      36.255  32.850  39.635  1.00  0.00    -0.237 OA
ATOM     60  O   UNL A   1      38.249  32.149  40.903  1.00  0.00    -0.237 OA
ATOM     61  O   UNL A   1      37.368  34.421  41.182  1.00  0.00    -0.744 OA
ENDBRANCH  55  58
ENDBRANCH  27  51
BRANCH  39  62
ATOM     62  C   UNL A   1      44.262  28.559  35.131  1.00  0.00     0.023 A 
ATOM     63  C   UNL A   1      45.552  29.057  34.857  1.00  0.00     0.012 A 
ATOM     64  C   UNL A   1      44.096  27.587  36.136  1.00  0.00     0.148 A 
ATOM     65  C   UNL A   1      46.662  28.570  35.547  1.00  0.00     0.002 A 
ATOM     66  C   UNL A   1      45.200  27.145  36.856  1.00  0.00     0.091 A 
ATOM     67  F   UNL A   1      42.864  27.112  36.369  1.00  0.00    -0.205 F 
ATOM     68  C   UNL A   1      46.484  27.625  36.554  1.00  0.00     0.022 A 
BRANCH  66  69
ATOM     69  S   UNL A   1      45.052  26.000  38.233  1.00  0.00     0.127 S 
ATOM     70  O   UNL A   1      44.532  24.804  37.571  1.00  0.00    -0.237 OA
ATOM     71  O   UNL A   1      46.437  25.887  38.693  1.00  0.00    -0.237 OA
ATOM     72  O   UNL A   1      44.149  26.631  39.185  1.00  0.00    -0.744 OA
ENDBRANCH  66  69
ENDBRANCH  39  62
ENDBRANCH  13  14
ENDBRANCH   6   8
ENDBRANCH   3   4
ENDBRANCH   2   3
ENDBRANCH   1   2
BRANCH   1  73
ATOM     73  C   UNL A   1      30.996  29.630  24.902  1.00  0.00       nan C 
BRANCH  73  74
ATOM     74  C   UNL A   1      30.318  29.160  23.609  1.00  0.00       nan C 
BRANCH  74  75
ATOM     75  C   UNL A   1      30.742  27.815  23.040  1.00  0.00       nan C 
BRANCH  75  76
ATOM     76  N   UNL A   1      31.898  27.779  22.188  1.00  0.00       nan N 
ATOM     77  C   UNL A   1      33.038  27.054  22.374  1.00  0.00       nan C 
ATOM     78  H   UNL A   1      31.864  28.341  21.380  1.00  0.00       nan HD
ATOM     79  O   UNL A   1      33.744  26.896  21.369  1.00  0.00       nan OA
BRANCH  77  80
ATOM     80  C   UNL A   1      33.505  26.489  23.724  1.00  0.00       nan C 
BRANCH  80  81
ATOM     81  C   UNL A   1      33.925  27.553  24.784  1.00  0.00       nan C 
BRANCH  81  82
ATOM     82  C   UNL A   1      33.875  27.326  26.301  1.00  0.00       nan C 
BRANCH  82  83
ATOM     83  C   UNL A   1      33.394  28.487  27.191  1.00  0.00       nan C 
ATOM     84  Cl  UNL A   1      34.733  29.414  27.898  1.00  0.00       nan Cl
ENDBRANCH  82  83
ENDBRANCH  81  82
ENDBRANCH  80  81
BRANCH  80  85
ATOM     85  P   UNL A   1      33.169  24.716  24.031  1.00  0.00       nan P 
ATOM     86  O   UNL A   1      32.712  24.565  22.565  1.00  0.00       nan OA
BRANCH  85  87
ATOM     87  C   UNL A   1      35.105  24.072  24.273  1.00  0.00       nan A 
ATOM     88  C   UNL A   1      35.738  23.214  23.366  1.00  0.00       nan A 
ATOM     89  C   UNL A   1      35.705  24.215  25.551  1.00  0.00       nan A 
ATOM     90  C   UNL A   1      36.911  22.524  23.692  1.00  0.00       nan A 
ATOM     91  C   UNL A   1      36.820  23.442  25.909  1.00  0.00       nan A 
ATOM     92  C   UNL A   1      37.424  22.600  24.979  1.00  0.00       nan A 
ENDBRANCH  85  87
BRANCH  85  93
ATOM     93  C   UNL A   1      32.833  22.944  24.338  1.00  0.00       nan A 
ATOM     94  C   UNL A   1      32.686  22.140  23.188  1.00  0.00       nan A 
ATOM     95  C   UNL A   1      32.754  22.323  25.597  1.00  0.00       nan A 
ATOM     96  C   UNL A   1      32.371  20.785  23.297  1.00  0.00       nan A 
ATOM     97  C   UNL A   1      32.402  20.975  25.702  1.00  0.00       nan A 
ATOM     98  C   UNL A   1      32.202  20.210  24.554  1.00  0.00       nan A 
ENDBRANCH  85  93
ENDBRANCH  80  85
ENDBRANCH  77  80
ENDBRANCH  75  76
ENDBRANCH  74  75
ENDBRANCH  73  74
ENDBRANCH   1  73
TORSDOF 22
ENDMDL
