MODEL 1
REMARK VINA RESULT:      -9.7      0.000      0.000
REMARK SMILES CCOCCS(=O)(=O)NCC(=O)NCCCCCCNC(=O)c1ccc(-c2c3nc(c(-c4cccc(S(=O)(=O)[O-])c4F)c4ccc([nH]4)c(-c4cccc(S(=O)(=O)[O-])c4F)c4nc(c(-c5cccc(S(=O)(=O)[O-])c5F)c5ccc2[nH]5)C=C4)C=C3)cc1
REMARK SMILES IDX 15 1 14 2 13 3 11 4 12 5 10 7 9 8 6 10 7 11 8 12 5 13 4 14
REMARK SMILES IDX 3 15 2 16 1 17 16 18 17 19 18 20 19 21 20 22 21 23 22 25
REMARK SMILES IDX 23 26 24 27 85 28 25 29 84 30 26 31 27 32 28 33 78 34 29 35
REMARK SMILES IDX 83 36 77 37 79 38 30 39 82 40 76 41 75 42 31 44 63 45 43 46
REMARK SMILES IDX 62 47 44 48 47 49 61 50 80 51 45 52 46 53 60 55 81 56 48 57
REMARK SMILES IDX 32 58 33 59 41 60 34 61 36 62 42 63 35 64 37 65 38 66 39 67
REMARK SMILES IDX 40 68 64 69 65 70 73 71 66 72 68 73 74 74 67 75 69 76 70 77
REMARK SMILES IDX 71 78 72 79 49 80 50 81 58 82 51 83 53 84 59 85 52 86 54 87
REMARK SMILES IDX 55 88 56 89 57 90
REMARK H PARENT 13 6 9 9 20 24 79 43 47 54
REMARK Flexibility Score: inf
ROOT
ATOM      1  C   UNL A   1      34.162  25.054  25.656  1.00  0.00     0.021 C 
ENDROOT
BRANCH   1   2
ATOM      2  C   UNL A   1      32.918  24.553  24.929  1.00  0.00     0.116 C 
BRANCH   2   3
ATOM      3  N   UNL A   1      31.915  24.090  25.843  1.00  0.00    -0.355 N 
ATOM      4  C   UNL A   1      30.724  24.620  26.197  1.00  0.00     0.235 C 
ATOM      5  O   UNL A   1      30.126  23.987  27.084  1.00  0.00    -0.274 OA
ATOM      6  H   UNL A   1      32.132  23.239  26.290  1.00  0.00     0.163 HD
BRANCH   4   7
ATOM      7  C   UNL A   1      29.983  25.742  25.515  1.00  0.00     0.198 C 
BRANCH   7   8
ATOM      8  N   UNL A   1      29.612  26.215  24.179  1.00  0.00    -0.206 NA
ATOM      9  H   UNL A   1      29.875  25.452  23.556  1.00  0.00     0.141 HD
BRANCH   8  10
ATOM     10  S   UNL A   1      30.107  27.581  23.391  1.00  0.00     0.214 S 
ATOM     11  O   UNL A   1      29.003  28.502  23.262  1.00  0.00    -0.212 OA
ATOM     12  O   UNL A   1      30.767  27.080  22.208  1.00  0.00    -0.212 OA
BRANCH  10  13
ATOM     13  C   UNL A   1      31.390  28.251  24.461  1.00  0.00     0.182 C 
BRANCH  13  14
ATOM     14  C   UNL A   1      31.294  29.704  24.908  1.00  0.00     0.177 C 
BRANCH  14  15
ATOM     15  O   UNL A   1      32.215  30.075  25.937  1.00  0.00    -0.381 OA
BRANCH  15  16
ATOM     16  C   UNL A   1      32.787  29.045  26.733  1.00  0.00     0.156 C 
ATOM     17  C   UNL A   1      34.303  29.080  26.828  1.00  0.00     0.035 C 
ENDBRANCH  15  16
ENDBRANCH  14  15
ENDBRANCH  13  14
ENDBRANCH  10  13
ENDBRANCH   8  10
ENDBRANCH   7   8
ENDBRANCH   4   7
ENDBRANCH   2   3
ENDBRANCH   1   2
BRANCH   1  18
ATOM     18  C   UNL A   1      35.366  24.136  25.465  1.00  0.00     0.002 C 
BRANCH  18  19
ATOM     19  C   UNL A   1      35.128  22.691  25.921  1.00  0.00     0.002 C 
BRANCH  19  20
ATOM     20  C   UNL A   1      35.682  21.601  24.996  1.00  0.00     0.021 C 
BRANCH  20  21
ATOM     21  C   UNL A   1      37.166  21.727  24.660  1.00  0.00     0.116 C 
BRANCH  21  22
ATOM     22  N   UNL A   1      37.958  20.669  25.269  1.00  0.00    -0.352 N 
ATOM     23  C   UNL A   1      39.125  20.748  25.981  1.00  0.00     0.251 C 
ATOM     24  H   UNL A   1      37.602  19.759  25.150  1.00  0.00     0.163 HD
ATOM     25  O   UNL A   1      39.740  19.724  26.265  1.00  0.00    -0.269 OA
BRANCH  23  26
ATOM     26  C   UNL A   1      39.647  22.067  26.388  1.00  0.00     0.039 A 
ATOM     27  C   UNL A   1      40.798  22.119  27.177  1.00  0.00     0.014 A 
ATOM     28  C   UNL A   1      39.000  23.243  26.000  1.00  0.00     0.014 A 
ATOM     29  C   UNL A   1      41.330  23.357  27.538  1.00  0.00     0.010 A 
ATOM     30  C   UNL A   1      39.574  24.474  26.298  1.00  0.00     0.010 A 
ATOM     31  C   UNL A   1      40.737  24.544  27.079  1.00  0.00    -0.014 A 
BRANCH  31  32
ATOM     32  C   UNL A   1      41.321  25.868  27.407  1.00  0.00     0.031 A 
ATOM     33  C   UNL A   1      42.727  26.199  26.989  1.00  0.00     0.074 A 
ATOM     34  C   UNL A   1      40.612  26.739  28.152  1.00  0.00     0.049 A 
ATOM     35  N   UNL A   1      43.420  27.284  27.218  1.00  0.00    -0.248 NA
ATOM     36  C   UNL A   1      43.461  25.166  26.239  1.00  0.00     0.031 C 
ATOM     37  C   UNL A   1      39.269  26.498  28.682  1.00  0.00     0.029 A 
ATOM     38  N   UNL A   1      40.931  27.990  28.612  1.00  0.00    -0.354 N 
ATOM     39  C   UNL A   1      44.678  27.052  26.676  1.00  0.00     0.074 A 
ATOM     40  C   UNL A   1      44.666  25.709  26.139  1.00  0.00     0.031 C 
ATOM     41  C   UNL A   1      38.876  27.570  29.387  1.00  0.00     0.029 A 
ATOM     42  C   UNL A   1      39.948  28.560  29.386  1.00  0.00     0.049 A 
ATOM     43  H   UNL A   1      41.784  28.438  28.407  1.00  0.00     0.167 HD
ATOM     44  C   UNL A   1      45.740  27.890  26.604  1.00  0.00     0.034 A 
ATOM     45  C   UNL A   1      39.917  29.744  30.028  1.00  0.00     0.034 A 
ATOM     46  C   UNL A   1      45.733  29.237  27.108  1.00  0.00     0.049 A 
ATOM     47  C   UNL A   1      41.095  30.672  29.905  1.00  0.00     0.074 A 
ATOM     48  C   UNL A   1      46.721  30.199  27.005  1.00  0.00     0.029 A 
ATOM     49  N   UNL A   1      44.691  29.809  27.822  1.00  0.00    -0.354 N 
ATOM     50  N   UNL A   1      42.216  30.498  29.248  1.00  0.00    -0.248 NA
ATOM     51  C   UNL A   1      40.989  31.972  30.582  1.00  0.00     0.031 C 
ATOM     52  C   UNL A   1      46.289  31.343  27.685  1.00  0.00     0.029 A 
ATOM     53  C   UNL A   1      45.017  31.106  28.180  1.00  0.00     0.049 A 
ATOM     54  H   UNL A   1      43.844  29.359  28.041  1.00  0.00     0.167 HD
ATOM     55  C   UNL A   1      42.935  31.678  29.400  1.00  0.00     0.074 A 
ATOM     56  C   UNL A   1      42.111  32.566  30.197  1.00  0.00     0.031 C 
ATOM     57  C   UNL A   1      44.169  31.994  28.935  1.00  0.00     0.034 A 
BRANCH  44  58
ATOM     58  C   UNL A   1      46.983  27.384  25.917  1.00  0.00     0.023 A 
ATOM     59  C   UNL A   1      47.142  27.576  24.529  1.00  0.00     0.012 A 
ATOM     60  C   UNL A   1      48.010  26.754  26.648  1.00  0.00     0.148 A 
ATOM     61  C   UNL A   1      48.280  27.111  23.871  1.00  0.00     0.002 A 
ATOM     62  C   UNL A   1      49.163  26.337  25.993  1.00  0.00     0.091 A 
ATOM     63  F   UNL A   1      47.835  26.560  27.963  1.00  0.00    -0.205 F 
ATOM     64  C   UNL A   1      49.293  26.501  24.604  1.00  0.00     0.022 A 
BRANCH  62  65
ATOM     65  S   UNL A   1      50.561  25.616  26.861  1.00  0.00     0.127 S 
ATOM     66  O   UNL A   1      51.486  25.350  25.761  1.00  0.00    -0.237 OA
ATOM     67  O   UNL A   1      50.968  26.707  27.748  1.00  0.00    -0.237 OA
ATOM     68  O   UNL A   1      50.045  24.440  27.546  1.00  0.00    -0.744 OA
ENDBRANCH  62  65
ENDBRANCH  44  58
BRANCH  45  69
ATOM     69  C   UNL A   1      38.697  30.145  30.785  1.00  0.00     0.023 A 
ATOM     70  C   UNL A   1      38.566  29.764  32.134  1.00  0.00     0.012 A 
ATOM     71  C   UNL A   1      37.693  30.935  30.191  1.00  0.00     0.148 A 
ATOM     72  C   UNL A   1      37.441  30.136  32.872  1.00  0.00     0.002 A 
ATOM     73  C   UNL A   1      36.603  31.350  30.948  1.00  0.00     0.091 A 
ATOM     74  F   UNL A   1      37.836  31.282  28.905  1.00  0.00    -0.205 F 
ATOM     75  C   UNL A   1      36.466  30.937  32.282  1.00  0.00     0.022 A 
BRANCH  73  76
ATOM     76  S   UNL A   1      35.367  32.490  30.316  1.00  0.00     0.127 S 
ATOM     77  O   UNL A   1      36.180  33.656  29.978  1.00  0.00    -0.237 OA
ATOM     78  O   UNL A   1      34.838  31.753  29.169  1.00  0.00    -0.237 OA
ATOM     79  O   UNL A   1      34.413  32.679  31.400  1.00  0.00    -0.744 OA
ENDBRANCH  73  76
ENDBRANCH  45  69
BRANCH  57  80
ATOM     80  C   UNL A   1      44.699  33.370  29.240  1.00  0.00     0.023 A 
ATOM     81  C   UNL A   1      45.371  33.612  30.455  1.00  0.00     0.012 A 
ATOM     82  C   UNL A   1      44.595  34.405  28.289  1.00  0.00     0.148 A 
ATOM     83  C   UNL A   1      45.902  34.871  30.732  1.00  0.00     0.002 A 
ATOM     84  C   UNL A   1      45.173  35.642  28.551  1.00  0.00     0.091 A 
ATOM     85  F   UNL A   1      43.937  34.161  27.147  1.00  0.00    -0.205 F 
ATOM     86  C   UNL A   1      45.815  35.881  29.777  1.00  0.00     0.022 A 
BRANCH  84  87
ATOM     87  S   UNL A   1      45.195  36.970  27.341  1.00  0.00     0.127 S 
ATOM     88  O   UNL A   1      45.996  36.382  26.269  1.00  0.00    -0.237 OA
ATOM     89  O   UNL A   1      43.775  37.125  27.026  1.00  0.00    -0.237 OA
ATOM     90  O   UNL A   1      45.795  38.116  28.012  1.00  0.00    -0.744 OA
ENDBRANCH  84  87
ENDBRANCH  57  80
ENDBRANCH  31  32
ENDBRANCH  23  26
ENDBRANCH  21  22
ENDBRANCH  20  21
ENDBRANCH  19  20
ENDBRANCH  18  19
ENDBRANCH   1  18
TORSDOF 22
ENDMDL
MODEL 2
REMARK VINA RESULT:      -9.4      3.065      4.706
REMARK SMILES CCOCCS(=O)(=O)NCC(=O)NCCCCCCNC(=O)c1ccc(-c2c3nc(c(-c4cccc(S(=O)(=O)[O-])c4F)c4ccc([nH]4)c(-c4cccc(S(=O)(=O)[O-])c4F)c4nc(c(-c5cccc(S(=O)(=O)[O-])c5F)c5ccc2[nH]5)C=C4)C=C3)cc1
REMARK SMILES IDX 15 1 14 2 13 3 11 4 12 5 10 7 9 8 6 10 7 11 8 12 5 13 4 14
REMARK SMILES IDX 3 15 2 16 1 17 16 18 17 19 18 20 19 21 20 22 21 23 22 25
REMARK SMILES IDX 23 26 24 27 85 28 25 29 84 30 26 31 27 32 28 33 78 34 29 35
REMARK SMILES IDX 83 36 77 37 79 38 30 39 82 40 76 41 75 42 31 44 63 45 43 46
REMARK SMILES IDX 62 47 44 48 47 49 61 50 80 51 45 52 46 53 60 55 81 56 48 57
REMARK SMILES IDX 32 58 33 59 41 60 34 61 36 62 42 63 35 64 37 65 38 66 39 67
REMARK SMILES IDX 40 68 64 69 65 70 73 71 66 72 68 73 74 74 67 75 69 76 70 77
REMARK SMILES IDX 71 78 72 79 49 80 50 81 58 82 51 83 53 84 59 85 52 86 54 87
REMARK SMILES IDX 55 88 56 89 57 90
REMARK H PARENT 13 6 9 9 20 24 79 43 47 54
REMARK Flexibility Score: inf
ROOT
ATOM      1  C   UNL A   1      37.222  21.857  24.252  1.00  0.00     0.021 C 
ENDROOT
BRANCH   1   2
ATOM      2  C   UNL A   1      35.697  21.810  24.236  1.00  0.00     0.116 C 
BRANCH   2   3
ATOM      3  N   UNL A   1      35.122  22.767  25.137  1.00  0.00    -0.355 N 
ATOM      4  C   UNL A   1      34.207  22.622  26.119  1.00  0.00     0.235 C 
ATOM      5  O   UNL A   1      33.872  23.686  26.667  1.00  0.00    -0.274 OA
ATOM      6  H   UNL A   1      35.451  23.687  25.018  1.00  0.00     0.163 HD
BRANCH   4   7
ATOM      7  C   UNL A   1      33.718  21.333  26.731  1.00  0.00     0.198 C 
BRANCH   7   8
ATOM      8  N   UNL A   1      33.538  19.915  26.408  1.00  0.00    -0.206 NA
ATOM      9  H   UNL A   1      34.486  19.541  26.370  1.00  0.00     0.141 HD
BRANCH   8  10
ATOM     10  S   UNL A   1      32.774  19.239  25.109  1.00  0.00     0.214 S 
ATOM     11  O   UNL A   1      32.125  20.267  24.330  1.00  0.00    -0.212 OA
ATOM     12  O   UNL A   1      31.992  18.169  25.683  1.00  0.00    -0.212 OA
BRANCH  10  13
ATOM     13  C   UNL A   1      34.111  18.469  24.180  1.00  0.00     0.182 C 
BRANCH  13  14
ATOM     14  C   UNL A   1      33.799  17.269  23.294  1.00  0.00     0.177 C 
BRANCH  14  15
ATOM     15  O   UNL A   1      34.316  16.025  23.770  1.00  0.00    -0.381 OA
BRANCH  15  16
ATOM     16  C   UNL A   1      34.508  15.865  25.170  1.00  0.00     0.156 C 
ATOM     17  C   UNL A   1      35.960  15.837  25.616  1.00  0.00     0.035 C 
ENDBRANCH  15  16
ENDBRANCH  14  15
ENDBRANCH  13  14
ENDBRANCH  10  13
ENDBRANCH   8  10
ENDBRANCH   7   8
ENDBRANCH   4   7
ENDBRANCH   2   3
ENDBRANCH   1   2
BRANCH   1  18
ATOM     18  C   UNL A   1      37.773  22.700  25.399  1.00  0.00     0.002 C 
BRANCH  18  19
ATOM     19  C   UNL A   1      38.959  22.059  26.132  1.00  0.00     0.002 C 
BRANCH  19  20
ATOM     20  C   UNL A   1      39.397  20.685  25.614  1.00  0.00     0.021 C 
BRANCH  20  21
ATOM     21  C   UNL A   1      40.145  19.818  26.622  1.00  0.00     0.116 C 
BRANCH  21  22
ATOM     22  N   UNL A   1      41.345  19.225  26.054  1.00  0.00    -0.352 N 
ATOM     23  C   UNL A   1      42.529  19.813  25.698  1.00  0.00     0.251 C 
ATOM     24  H   UNL A   1      41.299  18.253  25.900  1.00  0.00     0.163 HD
ATOM     25  O   UNL A   1      43.367  19.174  25.067  1.00  0.00    -0.269 OA
BRANCH  23  26
ATOM     26  C   UNL A   1      42.786  21.221  26.059  1.00  0.00     0.039 A 
ATOM     27  C   UNL A   1      42.881  21.561  27.410  1.00  0.00     0.014 A 
ATOM     28  C   UNL A   1      42.922  22.199  25.071  1.00  0.00     0.014 A 
ATOM     29  C   UNL A   1      43.164  22.879  27.770  1.00  0.00     0.010 A 
ATOM     30  C   UNL A   1      43.277  23.495  25.429  1.00  0.00     0.010 A 
ATOM     31  C   UNL A   1      43.390  23.850  26.781  1.00  0.00    -0.014 A 
BRANCH  31  32
ATOM     32  C   UNL A   1      43.745  25.244  27.146  1.00  0.00     0.031 A 
ATOM     33  C   UNL A   1      45.180  25.694  27.106  1.00  0.00     0.074 A 
ATOM     34  C   UNL A   1      42.785  26.078  27.590  1.00  0.00     0.049 A 
ATOM     35  N   UNL A   1      45.687  26.857  27.425  1.00  0.00    -0.248 NA
ATOM     36  C   UNL A   1      46.179  24.701  26.677  1.00  0.00     0.031 C 
ATOM     37  C   UNL A   1      41.371  25.730  27.747  1.00  0.00     0.029 A 
ATOM     38  N   UNL A   1      42.855  27.380  28.014  1.00  0.00    -0.354 N 
ATOM     39  C   UNL A   1      47.062  26.725  27.273  1.00  0.00     0.074 A 
ATOM     40  C   UNL A   1      47.313  25.359  26.868  1.00  0.00     0.031 C 
ATOM     41  C   UNL A   1      40.707  26.795  28.224  1.00  0.00     0.029 A 
ATOM     42  C   UNL A   1      41.650  27.888  28.435  1.00  0.00     0.049 A 
ATOM     43  H   UNL A   1      43.691  27.902  28.015  1.00  0.00     0.167 HD
ATOM     44  C   UNL A   1      48.027  27.663  27.426  1.00  0.00     0.034 A 
ATOM     45  C   UNL A   1      41.340  29.098  28.942  1.00  0.00     0.034 A 
ATOM     46  C   UNL A   1      47.765  29.028  27.794  1.00  0.00     0.049 A 
ATOM     47  C   UNL A   1      42.423  30.134  29.071  1.00  0.00     0.074 A 
ATOM     48  C   UNL A   1      48.659  30.080  27.888  1.00  0.00     0.029 A 
ATOM     49  N   UNL A   1      46.520  29.530  28.142  1.00  0.00    -0.354 N 
ATOM     50  N   UNL A   1      43.695  30.039  28.766  1.00  0.00    -0.248 NA
ATOM     51  C   UNL A   1      42.023  31.453  29.581  1.00  0.00     0.031 C 
ATOM     52  C   UNL A   1      47.958  31.210  28.323  1.00  0.00     0.029 A 
ATOM     53  C   UNL A   1      46.622  30.871  28.466  1.00  0.00     0.049 A 
ATOM     54  H   UNL A   1      45.686  29.008  28.156  1.00  0.00     0.167 HD
ATOM     55  C   UNL A   1      44.240  31.294  29.011  1.00  0.00     0.074 A 
ATOM     56  C   UNL A   1      43.154  32.137  29.472  1.00  0.00     0.031 C 
ATOM     57  C   UNL A   1      45.525  31.709  28.880  1.00  0.00     0.034 A 
BRANCH  44  58
ATOM     58  C   UNL A   1      49.450  27.250  27.155  1.00  0.00     0.023 A 
ATOM     59  C   UNL A   1      50.172  26.539  28.137  1.00  0.00     0.012 A 
ATOM     60  C   UNL A   1      50.064  27.529  25.918  1.00  0.00     0.148 A 
ATOM     61  C   UNL A   1      51.492  26.152  27.912  1.00  0.00     0.002 A 
ATOM     62  C   UNL A   1      51.365  27.098  25.682  1.00  0.00     0.091 A 
ATOM     63  F   UNL A   1      49.374  28.224  25.003  1.00  0.00    -0.205 F 
ATOM     64  C   UNL A   1      52.084  26.423  26.682  1.00  0.00     0.022 A 
BRANCH  62  65
ATOM     65  S   UNL A   1      52.187  27.324  24.102  1.00  0.00     0.127 S 
ATOM     66  O   UNL A   1      52.371  28.774  24.068  1.00  0.00    -0.237 OA
ATOM     67  O   UNL A   1      53.421  26.559  24.284  1.00  0.00    -0.237 OA
ATOM     68  O   UNL A   1      51.283  26.783  23.097  1.00  0.00    -0.744 OA
ENDBRANCH  62  65
ENDBRANCH  44  58
BRANCH  45  69
ATOM     69  C   UNL A   1      39.927  29.413  29.296  1.00  0.00     0.023 A 
ATOM     70  C   UNL A   1      38.991  29.635  28.268  1.00  0.00     0.012 A 
ATOM     71  C   UNL A   1      39.499  29.451  30.638  1.00  0.00     0.148 A 
ATOM     72  C   UNL A   1      37.657  29.919  28.570  1.00  0.00     0.002 A 
ATOM     73  C   UNL A   1      38.158  29.678  30.929  1.00  0.00     0.091 A 
ATOM     74  F   UNL A   1      40.407  29.242  31.600  1.00  0.00    -0.205 F 
ATOM     75  C   UNL A   1      37.240  29.930  29.898  1.00  0.00     0.022 A 
BRANCH  73  76
ATOM     76  S   UNL A   1      37.503  29.579  32.599  1.00  0.00     0.127 S 
ATOM     77  O   UNL A   1      38.440  30.421  33.338  1.00  0.00    -0.237 OA
ATOM     78  O   UNL A   1      36.165  30.145  32.430  1.00  0.00    -0.237 OA
ATOM     79  O   UNL A   1      37.518  28.165  32.946  1.00  0.00    -0.744 OA
ENDBRANCH  73  76
ENDBRANCH  45  69
BRANCH  57  80
ATOM     80  C   UNL A   1      45.830  33.148  29.203  1.00  0.00     0.023 A 
ATOM     81  C   UNL A   1      46.259  33.503  30.497  1.00  0.00     0.012 A 
ATOM     82  C   UNL A   1      45.763  34.137  28.200  1.00  0.00     0.148 A 
ATOM     83  C   UNL A   1      46.584  34.825  30.798  1.00  0.00     0.002 A 
ATOM     84  C   UNL A   1      46.139  35.442  28.495  1.00  0.00     0.091 A 
ATOM     85  F   UNL A   1      45.336  33.784  26.980  1.00  0.00    -0.205 F 
ATOM     86  C   UNL A   1      46.537  35.791  29.796  1.00  0.00     0.022 A 
BRANCH  84  87
ATOM     87  S   UNL A   1      46.204  36.731  27.244  1.00  0.00     0.127 S 
ATOM     88  O   UNL A   1      47.263  37.595  27.762  1.00  0.00    -0.237 OA
ATOM     89  O   UNL A   1      46.564  35.977  26.043  1.00  0.00    -0.237 OA
ATOM     90  O   UNL A   1      44.874  37.325  27.209  1.00  0.00    -0.744 OA
ENDBRANCH  84  87
ENDBRANCH  57  80
ENDBRANCH  31  32
ENDBRANCH  23  26
ENDBRANCH  21  22
ENDBRANCH  20  21
ENDBRANCH  19  20
ENDBRANCH  18  19
ENDBRANCH   1  18
TORSDOF 22
ENDMDL
MODEL 3
REMARK VINA RESULT:      -9.4      1.321      8.080
REMARK SMILES CCOCCS(=O)(=O)NCC(=O)NCCCCCCNC(=O)c1ccc(-c2c3nc(c(-c4cccc(S(=O)(=O)[O-])c4F)c4ccc([nH]4)c(-c4cccc(S(=O)(=O)[O-])c4F)c4nc(c(-c5cccc(S(=O)(=O)[O-])c5F)c5ccc2[nH]5)C=C4)C=C3)cc1
REMARK SMILES IDX 15 1 14 2 13 3 11 4 12 5 10 7 9 8 6 10 7 11 8 12 5 13 4 14
REMARK SMILES IDX 3 15 2 16 1 17 16 18 17 19 18 20 19 21 20 22 21 23 22 25
REMARK SMILES IDX 23 26 24 27 85 28 25 29 84 30 26 31 27 32 28 33 78 34 29 35
REMARK SMILES IDX 83 36 77 37 79 38 30 39 82 40 76 41 75 42 31 44 63 45 43 46
REMARK SMILES IDX 62 47 44 48 47 49 61 50 80 51 45 52 46 53 60 55 81 56 48 57
REMARK SMILES IDX 32 58 33 59 41 60 34 61 36 62 42 63 35 64 37 65 38 66 39 67
REMARK SMILES IDX 40 68 64 69 65 70 73 71 66 72 68 73 74 74 67 75 69 76 70 77
REMARK SMILES IDX 71 78 72 79 49 80 50 81 58 82 51 83 53 84 59 85 52 86 54 87
REMARK SMILES IDX 55 88 56 89 57 90
REMARK H PARENT 13 6 9 9 20 24 79 43 47 54
REMARK Flexibility Score: inf
ROOT
ATOM      1  C   UNL A   1      32.654  22.504  23.422  1.00  0.00     0.021 C 
ENDROOT
BRANCH   1   2
ATOM      2  C   UNL A   1      33.167  23.909  23.720  1.00  0.00     0.116 C 
BRANCH   2   3
ATOM      3  N   UNL A   1      33.489  24.627  22.521  1.00  0.00    -0.355 N 
ATOM      4  C   UNL A   1      32.843  25.630  21.887  1.00  0.00     0.235 C 
ATOM      5  O   UNL A   1      33.367  25.979  20.815  1.00  0.00    -0.274 OA
ATOM      6  H   UNL A   1      34.324  24.340  22.086  1.00  0.00     0.163 HD
BRANCH   4   7
ATOM      7  C   UNL A   1      31.710  26.470  22.421  1.00  0.00     0.198 C 
BRANCH   7   8
ATOM      8  N   UNL A   1      30.704  27.439  21.977  1.00  0.00    -0.206 NA
ATOM      9  H   UNL A   1      31.136  27.907  21.181  1.00  0.00     0.141 HD
BRANCH   8  10
ATOM     10  S   UNL A   1      29.991  28.657  22.837  1.00  0.00     0.214 S 
ATOM     11  O   UNL A   1      28.600  28.347  23.067  1.00  0.00    -0.212 OA
ATOM     12  O   UNL A   1      30.351  29.852  22.111  1.00  0.00    -0.212 OA
BRANCH  10  13
ATOM     13  C   UNL A   1      30.914  28.686  24.382  1.00  0.00     0.182 C 
BRANCH  13  14
ATOM     14  C   UNL A   1      32.331  29.246  24.386  1.00  0.00     0.177 C 
BRANCH  14  15
ATOM     15  O   UNL A   1      32.660  30.028  25.536  1.00  0.00    -0.381 OA
BRANCH  15  16
ATOM     16  C   UNL A   1      33.563  29.481  26.488  1.00  0.00     0.156 C 
ATOM     17  C   UNL A   1      33.947  28.031  26.245  1.00  0.00     0.035 C 
ENDBRANCH  15  16
ENDBRANCH  14  15
ENDBRANCH  13  14
ENDBRANCH  10  13
ENDBRANCH   8  10
ENDBRANCH   7   8
ENDBRANCH   4   7
ENDBRANCH   2   3
ENDBRANCH   1   2
BRANCH   1  18
ATOM     18  C   UNL A   1      32.518  21.648  24.678  1.00  0.00     0.002 C 
BRANCH  18  19
ATOM     19  C   UNL A   1      33.826  20.987  25.130  1.00  0.00     0.002 C 
BRANCH  19  20
ATOM     20  C   UNL A   1      34.565  21.688  26.275  1.00  0.00     0.021 C 
BRANCH  20  21
ATOM     21  C   UNL A   1      35.944  22.237  25.920  1.00  0.00     0.116 C 
BRANCH  21  22
ATOM     22  N   UNL A   1      36.920  21.179  25.714  1.00  0.00    -0.352 N 
ATOM     23  C   UNL A   1      38.288  21.230  25.751  1.00  0.00     0.251 C 
ATOM     24  H   UNL A   1      36.540  20.292  25.518  1.00  0.00     0.163 HD
ATOM     25  O   UNL A   1      38.948  20.265  25.376  1.00  0.00    -0.269 OA
BRANCH  23  26
ATOM     26  C   UNL A   1      38.963  22.454  26.224  1.00  0.00     0.039 A 
ATOM     27  C   UNL A   1      40.019  22.331  27.130  1.00  0.00     0.014 A 
ATOM     28  C   UNL A   1      38.552  23.714  25.783  1.00  0.00     0.014 A 
ATOM     29  C   UNL A   1      40.696  23.474  27.558  1.00  0.00     0.010 A 
ATOM     30  C   UNL A   1      39.275  24.843  26.152  1.00  0.00     0.010 A 
ATOM     31  C   UNL A   1      40.345  24.736  27.052  1.00  0.00    -0.014 A 
BRANCH  31  32
ATOM     32  C   UNL A   1      41.091  25.954  27.454  1.00  0.00     0.031 A 
ATOM     33  C   UNL A   1      40.392  27.054  28.205  1.00  0.00     0.074 A 
ATOM     34  C   UNL A   1      42.374  26.102  27.072  1.00  0.00     0.049 A 
ATOM     35  N   UNL A   1      40.865  28.206  28.607  1.00  0.00    -0.248 NA
ATOM     36  C   UNL A   1      38.970  26.847  28.524  1.00  0.00     0.031 C 
ATOM     37  C   UNL A   1      43.134  25.138  26.274  1.00  0.00     0.029 A 
ATOM     38  N   UNL A   1      43.258  27.130  27.282  1.00  0.00    -0.354 N 
ATOM     39  C   UNL A   1      39.795  28.873  29.189  1.00  0.00     0.074 A 
ATOM     40  C   UNL A   1      38.639  28.014  29.056  1.00  0.00     0.031 C 
ATOM     41  C   UNL A   1      44.371  25.616  26.069  1.00  0.00     0.029 A 
ATOM     42  C   UNL A   1      44.484  26.930  26.693  1.00  0.00     0.049 A 
ATOM     43  H   UNL A   1      43.035  27.933  27.806  1.00  0.00     0.167 HD
ATOM     44  C   UNL A   1      39.780  30.079  29.806  1.00  0.00     0.034 A 
ATOM     45  C   UNL A   1      45.574  27.720  26.655  1.00  0.00     0.034 A 
ATOM     46  C   UNL A   1      40.941  30.911  29.965  1.00  0.00     0.049 A 
ATOM     47  C   UNL A   1      45.544  29.041  27.375  1.00  0.00     0.074 A 
ATOM     48  C   UNL A   1      41.055  32.107  30.652  1.00  0.00     0.029 A 
ATOM     49  N   UNL A   1      42.188  30.644  29.421  1.00  0.00    -0.354 N 
ATOM     50  N   UNL A   1      44.567  29.583  28.063  1.00  0.00    -0.248 NA
ATOM     51  C   UNL A   1      46.776  29.841  27.346  1.00  0.00     0.031 C 
ATOM     52  C   UNL A   1      42.363  32.577  30.496  1.00  0.00     0.029 A 
ATOM     53  C   UNL A   1      43.074  31.657  29.742  1.00  0.00     0.049 A 
ATOM     54  H   UNL A   1      42.410  29.849  28.884  1.00  0.00     0.167 HD
ATOM     55  C   UNL A   1      45.076  30.769  28.578  1.00  0.00     0.074 A 
ATOM     56  C   UNL A   1      46.455  30.856  28.139  1.00  0.00     0.031 C 
ATOM     57  C   UNL A   1      44.456  31.708  29.335  1.00  0.00     0.034 A 
BRANCH  44  58
ATOM     58  C   UNL A   1      38.472  30.548  30.390  1.00  0.00     0.023 A 
ATOM     59  C   UNL A   1      38.123  30.184  31.707  1.00  0.00     0.012 A 
ATOM     60  C   UNL A   1      37.604  31.378  29.653  1.00  0.00     0.148 A 
ATOM     61  C   UNL A   1      36.916  30.599  32.267  1.00  0.00     0.002 A 
ATOM     62  C   UNL A   1      36.424  31.829  30.235  1.00  0.00     0.091 A 
ATOM     63  F   UNL A   1      37.938  31.698  28.395  1.00  0.00    -0.205 F 
ATOM     64  C   UNL A   1      36.072  31.429  31.534  1.00  0.00     0.022 A 
BRANCH  62  65
ATOM     65  S   UNL A   1      35.311  32.968  29.406  1.00  0.00     0.127 S 
ATOM     66  O   UNL A   1      36.054  34.224  29.492  1.00  0.00    -0.237 OA
ATOM     67  O   UNL A   1      35.234  32.399  28.060  1.00  0.00    -0.237 OA
ATOM     68  O   UNL A   1      34.062  32.925  30.153  1.00  0.00    -0.744 OA
ENDBRANCH  62  65
ENDBRANCH  44  58
BRANCH  45  69
ATOM     69  C   UNL A   1      46.808  27.248  25.966  1.00  0.00     0.023 A 
ATOM     70  C   UNL A   1      46.956  27.473  24.584  1.00  0.00     0.012 A 
ATOM     71  C   UNL A   1      47.850  26.620  26.677  1.00  0.00     0.148 A 
ATOM     72  C   UNL A   1      48.107  27.054  23.914  1.00  0.00     0.002 A 
ATOM     73  C   UNL A   1      49.017  26.256  26.014  1.00  0.00     0.091 A 
ATOM     74  F   UNL A   1      47.686  26.410  27.990  1.00  0.00    -0.205 F 
ATOM     75  C   UNL A   1      49.140  26.456  24.631  1.00  0.00     0.022 A 
BRANCH  73  76
ATOM     76  S   UNL A   1      50.452  25.602  26.875  1.00  0.00     0.127 S 
ATOM     77  O   UNL A   1      51.361  25.316  25.768  1.00  0.00    -0.237 OA
ATOM     78  O   UNL A   1      50.839  26.735  27.715  1.00  0.00    -0.237 OA
ATOM     79  O   UNL A   1      49.973  24.442  27.615  1.00  0.00    -0.744 OA
ENDBRANCH  73  76
ENDBRANCH  45  69
BRANCH  57  80
ATOM     80  C   UNL A   1      45.267  32.900  29.772  1.00  0.00     0.023 A 
ATOM     81  C   UNL A   1      46.010  32.844  30.968  1.00  0.00     0.012 A 
ATOM     82  C   UNL A   1      45.351  34.047  28.958  1.00  0.00     0.148 A 
ATOM     83  C   UNL A   1      46.798  33.925  31.363  1.00  0.00     0.002 A 
ATOM     84  C   UNL A   1      46.179  35.098  29.333  1.00  0.00     0.091 A 
ATOM     85  F   UNL A   1      44.622  34.088  27.834  1.00  0.00    -0.205 F 
ATOM     86  C   UNL A   1      46.892  35.045  30.541  1.00  0.00     0.022 A 
BRANCH  84  87
ATOM     87  S   UNL A   1      46.439  36.538  28.289  1.00  0.00     0.127 S 
ATOM     88  O   UNL A   1      47.477  37.256  29.026  1.00  0.00    -0.237 OA
ATOM     89  O   UNL A   1      46.888  35.934  27.035  1.00  0.00    -0.237 OA
ATOM     90  O   UNL A   1      45.150  37.214  28.207  1.00  0.00    -0.744 OA
ENDBRANCH  84  87
ENDBRANCH  57  80
ENDBRANCH  31  32
ENDBRANCH  23  26
ENDBRANCH  21  22
ENDBRANCH  20  21
ENDBRANCH  19  20
ENDBRANCH  18  19
ENDBRANCH   1  18
TORSDOF 22
ENDMDL
