MODEL 1
REMARK VINA RESULT:     -10.2      0.000      0.000
REMARK SMILES C[C@H](Sc1ccc(S(C)(=O)=O)cc1)c1ccc(C(=O)NCCCCCCNC(=O)c2ccc(-c3c4nc(c(-c5cccc(S(=O)(=O)[O-])c5F)c5ccc([nH]5)c(-c5cccc(S(=O)(=O)[O-])c5F)c5nc(c(-c6cccc(S(=O)(=O)[O-])c6F)c6ccc3[nH]6)C=C5)C=C4)cc2)o1
REMARK SMILES IDX 23 1 22 2 21 3 20 4 18 5 19 6 17 8 14 9 15 10 93 11 16 12
REMARK SMILES IDX 2 13 1 14 3 15 4 16 5 17 13 18 6 19 12 20 7 21 8 22 9 23
REMARK SMILES IDX 10 24 11 25 24 26 25 27 26 28 27 29 28 30 29 32 30 33 31 34
REMARK SMILES IDX 92 35 32 36 91 37 33 38 34 39 35 40 85 41 36 42 90 43 84 44
REMARK SMILES IDX 86 45 37 46 89 47 83 48 82 49 38 51 70 52 50 53 69 54 51 55
REMARK SMILES IDX 54 56 68 57 87 58 52 59 53 60 67 62 88 63 55 64 39 65 40 66
REMARK SMILES IDX 48 67 41 68 43 69 49 70 42 71 44 72 45 73 46 74 47 75 71 76
REMARK SMILES IDX 72 77 80 78 73 79 75 80 81 81 74 82 76 83 77 84 78 85 79 86
REMARK SMILES IDX 56 87 57 88 65 89 58 90 60 91 66 92 59 93 61 94 62 95 63 96
REMARK SMILES IDX 64 97
REMARK H PARENT 20 7 27 31 86 50 54 61
REMARK Flexibility Score: inf
ROOT
ATOM      1  C   UNL A   1      35.040  35.121  33.892  1.00  0.00     0.002 C 
ENDROOT
BRANCH   1   2
ATOM      2  C   UNL A   1      34.192  35.885  32.864  1.00  0.00     0.021 C 
BRANCH   2   3
ATOM      3  C   UNL A   1      33.041  35.063  32.283  1.00  0.00     0.116 C 
BRANCH   3   4
ATOM      4  N   UNL A   1      32.698  35.521  30.954  1.00  0.00    -0.349 N 
ATOM      5  C   UNL A   1      33.182  35.195  29.710  1.00  0.00     0.286 C 
ATOM      6  O   UNL A   1      32.617  35.761  28.769  1.00  0.00    -0.266 OA
ATOM      7  H   UNL A   1      31.980  36.194  30.937  1.00  0.00     0.163 HD
BRANCH   5   8
ATOM      8  C   UNL A   1      34.273  34.252  29.514  1.00  0.00     0.191 A 
ATOM      9  C   UNL A   1      35.035  32.250  28.904  1.00  0.00     0.118 A 
ATOM     10  C   UNL A   1      36.135  32.983  29.288  1.00  0.00     0.047 A 
ATOM     11  O   UNL A   1      33.912  33.010  29.046  1.00  0.00    -0.455 OA
ATOM     12  C   UNL A   1      35.652  34.270  29.645  1.00  0.00     0.056 A 
BRANCH   9  13
ATOM     13  C   UNL A   1      34.858  30.879  28.335  1.00  0.00     0.115 C 
ATOM     14  C   UNL A   1      36.137  30.412  27.621  1.00  0.00     0.028 C 
BRANCH  13  15
ATOM     15  S   UNL A   1      33.441  30.827  27.163  1.00  0.00    -0.115 SA
BRANCH  15  16
ATOM     16  C   UNL A   1      33.135  29.097  26.830  1.00  0.00     0.008 A 
ATOM     17  C   UNL A   1      33.958  28.236  26.095  1.00  0.00     0.016 A 
ATOM     18  C   UNL A   1      31.936  28.583  27.354  1.00  0.00     0.016 A 
ATOM     19  C   UNL A   1      33.583  26.904  25.867  1.00  0.00     0.021 A 
ATOM     20  C   UNL A   1      31.552  27.257  27.133  1.00  0.00     0.021 A 
ATOM     21  C   UNL A   1      32.373  26.428  26.373  1.00  0.00     0.067 A 
BRANCH  21  22
ATOM     22  S   UNL A   1      31.894  24.745  26.064  1.00  0.00     0.175 S 
ATOM     23  C   UNL A   1      33.388  23.824  26.321  1.00  0.00     0.163 C 
ATOM     24  O   UNL A   1      30.948  24.374  27.095  1.00  0.00    -0.224 OA
ATOM     25  O   UNL A   1      31.559  24.632  24.656  1.00  0.00    -0.224 OA
ENDBRANCH  21  22
ENDBRANCH  15  16
ENDBRANCH  13  15
ENDBRANCH   9  13
ENDBRANCH   5   8
ENDBRANCH   3   4
ENDBRANCH   2   3
ENDBRANCH   1   2
BRANCH   1  26
ATOM     26  C   UNL A   1      34.923  33.592  33.835  1.00  0.00     0.002 C 
BRANCH  26  27
ATOM     27  C   UNL A   1      35.937  32.890  32.927  1.00  0.00     0.021 C 
BRANCH  27  28
ATOM     28  C   UNL A   1      36.883  31.934  33.647  1.00  0.00     0.116 C 
BRANCH  28  29
ATOM     29  N   UNL A   1      36.719  30.561  33.194  1.00  0.00    -0.352 N 
ATOM     30  C   UNL A   1      37.435  29.870  32.247  1.00  0.00     0.251 C 
ATOM     31  H   UNL A   1      35.993  30.056  33.628  1.00  0.00     0.163 HD
ATOM     32  O   UNL A   1      37.038  28.779  31.849  1.00  0.00    -0.269 OA
BRANCH  30  33
ATOM     33  C   UNL A   1      38.679  30.452  31.698  1.00  0.00     0.039 A 
ATOM     34  C   UNL A   1      39.774  30.641  32.546  1.00  0.00     0.014 A 
ATOM     35  C   UNL A   1      38.762  30.811  30.350  1.00  0.00     0.014 A 
ATOM     36  C   UNL A   1      40.973  31.137  32.027  1.00  0.00     0.010 A 
ATOM     37  C   UNL A   1      39.976  31.243  29.823  1.00  0.00     0.010 A 
ATOM     38  C   UNL A   1      41.092  31.415  30.656  1.00  0.00    -0.014 A 
BRANCH  38  39
ATOM     39  C   UNL A   1      42.377  31.870  30.066  1.00  0.00     0.031 A 
ATOM     40  C   UNL A   1      42.603  33.329  29.775  1.00  0.00     0.074 A 
ATOM     41  C   UNL A   1      43.300  30.959  29.698  1.00  0.00     0.049 A 
ATOM     42  N   UNL A   1      43.623  33.905  29.194  1.00  0.00    -0.248 NA
ATOM     43  C   UNL A   1      41.529  34.260  30.160  1.00  0.00     0.031 C 
ATOM     44  C   UNL A   1      43.163  29.508  29.851  1.00  0.00     0.029 A 
ATOM     45  N   UNL A   1      44.522  31.115  29.091  1.00  0.00    -0.354 N 
ATOM     46  C   UNL A   1      43.299  35.254  29.107  1.00  0.00     0.074 A 
ATOM     47  C   UNL A   1      41.975  35.407  29.669  1.00  0.00     0.031 C 
ATOM     48  C   UNL A   1      44.255  28.908  29.350  1.00  0.00     0.029 A 
ATOM     49  C   UNL A   1      45.157  29.925  28.818  1.00  0.00     0.049 A 
ATOM     50  H   UNL A   1      44.905  31.994  28.871  1.00  0.00     0.167 HD
ATOM     51  C   UNL A   1      44.048  36.277  28.632  1.00  0.00     0.034 A 
ATOM     52  C   UNL A   1      46.333  29.681  28.205  1.00  0.00     0.034 A 
ATOM     53  C   UNL A   1      45.385  36.129  28.125  1.00  0.00     0.049 A 
ATOM     54  C   UNL A   1      47.170  30.840  27.739  1.00  0.00     0.074 A 
ATOM     55  C   UNL A   1      46.261  37.116  27.709  1.00  0.00     0.029 A 
ATOM     56  N   UNL A   1      46.040  34.918  27.964  1.00  0.00    -0.354 N 
ATOM     57  N   UNL A   1      46.915  32.124  27.816  1.00  0.00    -0.248 NA
ATOM     58  C   UNL A   1      48.474  30.522  27.138  1.00  0.00     0.031 C 
ATOM     59  C   UNL A   1      47.443  36.499  27.284  1.00  0.00     0.029 A 
ATOM     60  C   UNL A   1      47.309  35.131  27.452  1.00  0.00     0.049 A 
ATOM     61  H   UNL A   1      45.660  34.037  28.182  1.00  0.00     0.167 HD
ATOM     62  C   UNL A   1      48.040  32.767  27.311  1.00  0.00     0.074 A 
ATOM     63  C   UNL A   1      48.984  31.732  26.946  1.00  0.00     0.031 C 
ATOM     64  C   UNL A   1      48.264  34.095  27.153  1.00  0.00     0.034 A 
BRANCH  51  65
ATOM     65  C   UNL A   1      43.461  37.663  28.696  1.00  0.00     0.023 A 
ATOM     66  C   UNL A   1      43.706  38.466  29.829  1.00  0.00     0.012 A 
ATOM     67  C   UNL A   1      42.723  38.194  27.621  1.00  0.00     0.148 A 
ATOM     68  C   UNL A   1      43.197  39.761  29.906  1.00  0.00     0.002 A 
ATOM     69  C   UNL A   1      42.254  39.501  27.687  1.00  0.00     0.091 A 
ATOM     70  F   UNL A   1      42.480  37.408  26.561  1.00  0.00    -0.205 F 
ATOM     71  C   UNL A   1      42.481  40.281  28.832  1.00  0.00     0.022 A 
BRANCH  69  72
ATOM     72  S   UNL A   1      41.387  40.287  26.323  1.00  0.00     0.127 S 
ATOM     73  O   UNL A   1      42.499  40.799  25.524  1.00  0.00    -0.237 OA
ATOM     74  O   UNL A   1      40.672  39.162  25.721  1.00  0.00    -0.237 OA
ATOM     75  O   UNL A   1      40.528  41.298  26.925  1.00  0.00    -0.744 OA
ENDBRANCH  69  72
ENDBRANCH  51  65
BRANCH  52  76
ATOM     76  C   UNL A   1      46.819  28.279  28.070  1.00  0.00     0.023 A 
ATOM     77  C   UNL A   1      47.611  27.724  29.094  1.00  0.00     0.012 A 
ATOM     78  C   UNL A   1      46.473  27.485  26.962  1.00  0.00     0.148 A 
ATOM     79  C   UNL A   1      48.073  26.411  29.004  1.00  0.00     0.002 A 
ATOM     80  C   UNL A   1      46.892  26.160  26.903  1.00  0.00     0.091 A 
ATOM     81  F   UNL A   1      45.731  28.035  25.991  1.00  0.00    -0.205 F 
ATOM     82  C   UNL A   1      47.704  25.626  27.915  1.00  0.00     0.022 A 
BRANCH  80  83
ATOM     83  S   UNL A   1      46.352  25.040  25.606  1.00  0.00     0.127 S 
ATOM     84  O   UNL A   1      46.912  25.673  24.415  1.00  0.00    -0.237 OA
ATOM     85  O   UNL A   1      46.996  23.786  26.000  1.00  0.00    -0.237 OA
ATOM     86  O   UNL A   1      44.898  25.018  25.691  1.00  0.00    -0.744 OA
ENDBRANCH  80  83
ENDBRANCH  52  76
BRANCH  64  87
ATOM     87  C   UNL A   1      49.595  34.521  26.596  1.00  0.00     0.023 A 
ATOM     88  C   UNL A   1      49.742  34.722  25.210  1.00  0.00     0.012 A 
ATOM     89  C   UNL A   1      50.673  34.810  27.456  1.00  0.00     0.148 A 
ATOM     90  C   UNL A   1      50.950  35.181  24.685  1.00  0.00     0.002 A 
ATOM     91  C   UNL A   1      51.859  35.311  26.931  1.00  0.00     0.091 A 
ATOM     92  F   UNL A   1      50.518  34.593  28.771  1.00  0.00    -0.205 F 
ATOM     93  C   UNL A   1      52.002  35.487  25.546  1.00  0.00     0.022 A 
BRANCH  91  94
ATOM     94  S   UNL A   1      53.230  35.822  27.973  1.00  0.00     0.127 S 
ATOM     95  O   UNL A   1      52.570  36.726  28.913  1.00  0.00    -0.237 OA
ATOM     96  O   UNL A   1      53.670  34.553  28.554  1.00  0.00    -0.237 OA
ATOM     97  O   UNL A   1      54.199  36.444  27.081  1.00  0.00    -0.744 OA
ENDBRANCH  91  94
ENDBRANCH  64  87
ENDBRANCH  38  39
ENDBRANCH  30  33
ENDBRANCH  28  29
ENDBRANCH  27  28
ENDBRANCH  26  27
ENDBRANCH   1  26
TORSDOF 20
ENDMDL
MODEL 2
REMARK VINA RESULT:     -10.0      1.869      2.198
REMARK SMILES C[C@H](Sc1ccc(S(C)(=O)=O)cc1)c1ccc(C(=O)NCCCCCCNC(=O)c2ccc(-c3c4nc(c(-c5cccc(S(=O)(=O)[O-])c5F)c5ccc([nH]5)c(-c5cccc(S(=O)(=O)[O-])c5F)c5nc(c(-c6cccc(S(=O)(=O)[O-])c6F)c6ccc3[nH]6)C=C5)C=C4)cc2)o1
REMARK SMILES IDX 23 1 22 2 21 3 20 4 18 5 19 6 17 8 14 9 15 10 93 11 16 12
REMARK SMILES IDX 2 13 1 14 3 15 4 16 5 17 13 18 6 19 12 20 7 21 8 22 9 23
REMARK SMILES IDX 10 24 11 25 24 26 25 27 26 28 27 29 28 30 29 32 30 33 31 34
REMARK SMILES IDX 92 35 32 36 91 37 33 38 34 39 35 40 85 41 36 42 90 43 84 44
REMARK SMILES IDX 86 45 37 46 89 47 83 48 82 49 38 51 70 52 50 53 69 54 51 55
REMARK SMILES IDX 54 56 68 57 87 58 52 59 53 60 67 62 88 63 55 64 39 65 40 66
REMARK SMILES IDX 48 67 41 68 43 69 49 70 42 71 44 72 45 73 46 74 47 75 71 76
REMARK SMILES IDX 72 77 80 78 73 79 75 80 81 81 74 82 76 83 77 84 78 85 79 86
REMARK SMILES IDX 56 87 57 88 65 89 58 90 60 91 66 92 59 93 61 94 62 95 63 96
REMARK SMILES IDX 64 97
REMARK H PARENT 20 7 27 31 86 50 54 61
REMARK Flexibility Score: inf
ROOT
ATOM      1  C   UNL A   1      34.840  35.310  33.984  1.00  0.00     0.002 C 
ENDROOT
BRANCH   1   2
ATOM      2  C   UNL A   1      34.306  35.858  32.652  1.00  0.00     0.021 C 
BRANCH   2   3
ATOM      3  C   UNL A   1      33.033  35.163  32.168  1.00  0.00     0.116 C 
BRANCH   3   4
ATOM      4  N   UNL A   1      32.602  35.701  30.895  1.00  0.00    -0.349 N 
ATOM      5  C   UNL A   1      32.992  35.444  29.602  1.00  0.00     0.286 C 
ATOM      6  O   UNL A   1      32.369  36.069  28.739  1.00  0.00    -0.266 OA
ATOM      7  H   UNL A   1      31.894  36.381  30.969  1.00  0.00     0.163 HD
BRANCH   5   8
ATOM      8  C   UNL A   1      34.054  34.504  29.275  1.00  0.00     0.191 A 
ATOM      9  C   UNL A   1      34.748  32.461  28.726  1.00  0.00     0.118 A 
ATOM     10  C   UNL A   1      35.874  33.250  28.784  1.00  0.00     0.047 A 
ATOM     11  O   UNL A   1      33.652  33.212  29.028  1.00  0.00    -0.455 OA
ATOM     12  C   UNL A   1      35.427  34.560  29.101  1.00  0.00     0.056 A 
BRANCH   9  13
ATOM     13  C   UNL A   1      34.510  31.032  28.356  1.00  0.00     0.115 C 
ATOM     14  C   UNL A   1      35.806  30.371  27.857  1.00  0.00     0.028 C 
BRANCH  13  15
ATOM     15  S   UNL A   1      33.208  30.892  27.065  1.00  0.00    -0.115 SA
BRANCH  15  16
ATOM     16  C   UNL A   1      32.987  29.142  26.771  1.00  0.00     0.008 A 
ATOM     17  C   UNL A   1      33.874  28.296  26.096  1.00  0.00     0.016 A 
ATOM     18  C   UNL A   1      31.787  28.593  27.259  1.00  0.00     0.016 A 
ATOM     19  C   UNL A   1      33.564  26.944  25.891  1.00  0.00     0.021 A 
ATOM     20  C   UNL A   1      31.468  27.247  27.061  1.00  0.00     0.021 A 
ATOM     21  C   UNL A   1      32.354  26.432  26.361  1.00  0.00     0.067 A 
BRANCH  21  22
ATOM     22  S   UNL A   1      31.958  24.723  26.081  1.00  0.00     0.175 S 
ATOM     23  C   UNL A   1      33.538  23.919  26.049  1.00  0.00     0.163 C 
ATOM     24  O   UNL A   1      31.234  24.256  27.245  1.00  0.00    -0.224 OA
ATOM     25  O   UNL A   1      31.394  24.611  24.747  1.00  0.00    -0.224 OA
ENDBRANCH  21  22
ENDBRANCH  15  16
ENDBRANCH  13  15
ENDBRANCH   9  13
ENDBRANCH   5   8
ENDBRANCH   3   4
ENDBRANCH   2   3
ENDBRANCH   1   2
BRANCH   1  26
ATOM     26  C   UNL A   1      35.116  33.801  34.012  1.00  0.00     0.002 C 
BRANCH  26  27
ATOM     27  C   UNL A   1      36.180  33.310  33.027  1.00  0.00     0.021 C 
BRANCH  27  28
ATOM     28  C   UNL A   1      36.958  32.082  33.488  1.00  0.00     0.116 C 
BRANCH  28  29
ATOM     29  N   UNL A   1      36.458  30.859  32.877  1.00  0.00    -0.352 N 
ATOM     30  C   UNL A   1      37.003  30.114  31.860  1.00  0.00     0.251 C 
ATOM     31  H   UNL A   1      35.610  30.518  33.244  1.00  0.00     0.163 HD
ATOM     32  O   UNL A   1      36.349  29.217  31.335  1.00  0.00    -0.269 OA
BRANCH  30  33
ATOM     33  C   UNL A   1      38.374  30.405  31.389  1.00  0.00     0.039 A 
ATOM     34  C   UNL A   1      38.558  30.909  30.098  1.00  0.00     0.014 A 
ATOM     35  C   UNL A   1      39.475  30.179  32.220  1.00  0.00     0.014 A 
ATOM     36  C   UNL A   1      39.843  31.242  29.662  1.00  0.00     0.010 A 
ATOM     37  C   UNL A   1      40.745  30.571  31.807  1.00  0.00     0.010 A 
ATOM     38  C   UNL A   1      40.943  31.103  30.523  1.00  0.00    -0.014 A 
BRANCH  38  39
ATOM     39  C   UNL A   1      42.308  31.520  30.111  1.00  0.00     0.031 A 
ATOM     40  C   UNL A   1      42.650  32.979  29.984  1.00  0.00     0.074 A 
ATOM     41  C   UNL A   1      43.209  30.583  29.753  1.00  0.00     0.049 A 
ATOM     42  N   UNL A   1      43.758  33.533  29.564  1.00  0.00    -0.248 NA
ATOM     43  C   UNL A   1      41.598  33.944  30.346  1.00  0.00     0.031 C 
ATOM     44  C   UNL A   1      42.971  29.137  29.754  1.00  0.00     0.029 A 
ATOM     45  N   UNL A   1      44.495  30.707  29.289  1.00  0.00    -0.354 N 
ATOM     46  C   UNL A   1      43.526  34.902  29.574  1.00  0.00     0.074 A 
ATOM     47  C   UNL A   1      42.161  35.096  30.012  1.00  0.00     0.031 C 
ATOM     48  C   UNL A   1      44.073  28.510  29.310  1.00  0.00     0.029 A 
ATOM     49  C   UNL A   1      45.084  29.505  28.970  1.00  0.00     0.049 A 
ATOM     50  H   UNL A   1      44.952  31.574  29.193  1.00  0.00     0.167 HD
ATOM     51  C   UNL A   1      44.380  35.910  29.275  1.00  0.00     0.034 A 
ATOM     52  C   UNL A   1      46.302  29.236  28.457  1.00  0.00     0.034 A 
ATOM     53  C   UNL A   1      45.753  35.715  28.893  1.00  0.00     0.049 A 
ATOM     54  C   UNL A   1      47.251  30.371  28.189  1.00  0.00     0.074 A 
ATOM     55  C   UNL A   1      46.725  36.672  28.662  1.00  0.00     0.029 A 
ATOM     56  N   UNL A   1      46.348  34.481  28.684  1.00  0.00    -0.354 N 
ATOM     57  N   UNL A   1      47.066  31.657  28.362  1.00  0.00    -0.248 NA
ATOM     58  C   UNL A   1      48.590  30.018  27.694  1.00  0.00     0.031 C 
ATOM     59  C   UNL A   1      47.907  36.016  28.301  1.00  0.00     0.029 A 
ATOM     60  C   UNL A   1      47.674  34.651  28.325  1.00  0.00     0.049 A 
ATOM     61  H   UNL A   1      45.896  33.612  28.779  1.00  0.00     0.167 HD
ATOM     62  C   UNL A   1      48.275  32.264  28.035  1.00  0.00     0.074 A 
ATOM     63  C   UNL A   1      49.189  31.202  27.669  1.00  0.00     0.031 C 
ATOM     64  C   UNL A   1      48.592  33.582  28.026  1.00  0.00     0.034 A 
BRANCH  51  65
ATOM     65  C   UNL A   1      43.873  37.321  29.411  1.00  0.00     0.023 A 
ATOM     66  C   UNL A   1      43.144  37.901  28.351  1.00  0.00     0.012 A 
ATOM     67  C   UNL A   1      44.060  38.053  30.600  1.00  0.00     0.148 A 
ATOM     68  C   UNL A   1      42.641  39.196  28.458  1.00  0.00     0.002 A 
ATOM     69  C   UNL A   1      43.519  39.329  30.716  1.00  0.00     0.091 A 
ATOM     70  F   UNL A   1      44.774  37.495  31.589  1.00  0.00    -0.205 F 
ATOM     71  C   UNL A   1      42.819  39.905  29.643  1.00  0.00     0.022 A 
BRANCH  69  72
ATOM     72  S   UNL A   1      43.628  40.290  32.229  1.00  0.00     0.127 S 
ATOM     73  O   UNL A   1      43.013  39.385  33.199  1.00  0.00    -0.237 OA
ATOM     74  O   UNL A   1      45.073  40.459  32.385  1.00  0.00    -0.237 OA
ATOM     75  O   UNL A   1      42.899  41.525  31.972  1.00  0.00    -0.744 OA
ENDBRANCH  69  72
ENDBRANCH  51  65
BRANCH  52  76
ATOM     76  C   UNL A   1      46.717  27.821  28.240  1.00  0.00     0.023 A 
ATOM     77  C   UNL A   1      47.383  27.133  29.272  1.00  0.00     0.012 A 
ATOM     78  C   UNL A   1      46.422  27.145  27.042  1.00  0.00     0.148 A 
ATOM     79  C   UNL A   1      47.774  25.804  29.104  1.00  0.00     0.002 A 
ATOM     80  C   UNL A   1      46.766  25.804  26.901  1.00  0.00     0.091 A 
ATOM     81  F   UNL A   1      45.799  27.820  26.066  1.00  0.00    -0.205 F 
ATOM     82  C   UNL A   1      47.456  25.138  27.925  1.00  0.00     0.022 A 
BRANCH  80  83
ATOM     83  S   UNL A   1      46.276  24.834  25.471  1.00  0.00     0.127 S 
ATOM     84  O   UNL A   1      47.233  25.283  24.464  1.00  0.00    -0.237 OA
ATOM     85  O   UNL A   1      46.480  23.465  25.949  1.00  0.00    -0.237 OA
ATOM     86  O   UNL A   1      44.882  25.179  25.226  1.00  0.00    -0.744 OA
ENDBRANCH  80  83
ENDBRANCH  52  76
BRANCH  64  87
ATOM     87  C   UNL A   1      49.998  33.962  27.648  1.00  0.00     0.023 A 
ATOM     88  C   UNL A   1      50.992  34.046  28.642  1.00  0.00     0.012 A 
ATOM     89  C   UNL A   1      50.352  34.145  26.296  1.00  0.00     0.148 A 
ATOM     90  C   UNL A   1      52.313  34.332  28.299  1.00  0.00     0.002 A 
ATOM     91  C   UNL A   1      51.679  34.383  25.958  1.00  0.00     0.091 A 
ATOM     92  F   UNL A   1      49.386  34.080  25.367  1.00  0.00    -0.205 F 
ATOM     93  C   UNL A   1      52.658  34.487  26.958  1.00  0.00     0.022 A 
BRANCH  91  94
ATOM     94  S   UNL A   1      52.229  34.501  24.251  1.00  0.00     0.127 S 
ATOM     95  O   UNL A   1      51.703  33.262  23.682  1.00  0.00    -0.237 OA
ATOM     96  O   UNL A   1      51.558  35.718  23.791  1.00  0.00    -0.237 OA
ATOM     97  O   UNL A   1      53.681  34.599  24.305  1.00  0.00    -0.744 OA
ENDBRANCH  91  94
ENDBRANCH  64  87
ENDBRANCH  38  39
ENDBRANCH  30  33
ENDBRANCH  28  29
ENDBRANCH  27  28
ENDBRANCH  26  27
ENDBRANCH   1  26
TORSDOF 20
ENDMDL
MODEL 3
REMARK VINA RESULT:      -9.5      4.614      7.672
REMARK SMILES C[C@H](Sc1ccc(S(C)(=O)=O)cc1)c1ccc(C(=O)NCCCCCCNC(=O)c2ccc(-c3c4nc(c(-c5cccc(S(=O)(=O)[O-])c5F)c5ccc([nH]5)c(-c5cccc(S(=O)(=O)[O-])c5F)c5nc(c(-c6cccc(S(=O)(=O)[O-])c6F)c6ccc3[nH]6)C=C5)C=C4)cc2)o1
REMARK SMILES IDX 23 1 22 2 21 3 20 4 18 5 19 6 17 8 14 9 15 10 93 11 16 12
REMARK SMILES IDX 2 13 1 14 3 15 4 16 5 17 13 18 6 19 12 20 7 21 8 22 9 23
REMARK SMILES IDX 10 24 11 25 24 26 25 27 26 28 27 29 28 30 29 32 30 33 31 34
REMARK SMILES IDX 92 35 32 36 91 37 33 38 34 39 35 40 85 41 36 42 90 43 84 44
REMARK SMILES IDX 86 45 37 46 89 47 83 48 82 49 38 51 70 52 50 53 69 54 51 55
REMARK SMILES IDX 54 56 68 57 87 58 52 59 53 60 67 62 88 63 55 64 39 65 40 66
REMARK SMILES IDX 48 67 41 68 43 69 49 70 42 71 44 72 45 73 46 74 47 75 71 76
REMARK SMILES IDX 72 77 80 78 73 79 75 80 81 81 74 82 76 83 77 84 78 85 79 86
REMARK SMILES IDX 56 87 57 88 65 89 58 90 60 91 66 92 59 93 61 94 62 95 63 96
REMARK SMILES IDX 64 97
REMARK H PARENT 20 7 27 31 86 50 54 61
REMARK Flexibility Score: inf
ROOT
ATOM      1  C   UNL A   1      38.673  33.572  38.520  1.00  0.00     0.002 C 
ENDROOT
BRANCH   1   2
ATOM      2  C   UNL A   1      37.385  33.496  37.686  1.00  0.00     0.021 C 
BRANCH   2   3
ATOM      3  C   UNL A   1      37.575  32.836  36.320  1.00  0.00     0.116 C 
BRANCH   3   4
ATOM      4  N   UNL A   1      38.287  31.582  36.447  1.00  0.00    -0.349 N 
ATOM      5  C   UNL A   1      38.892  30.764  35.522  1.00  0.00     0.286 C 
ATOM      6  O   UNL A   1      39.454  29.772  35.997  1.00  0.00    -0.266 OA
ATOM      7  H   UNL A   1      38.351  31.252  37.371  1.00  0.00     0.163 HD
BRANCH   5   8
ATOM      8  C   UNL A   1      38.876  31.047  34.095  1.00  0.00     0.191 A 
ATOM      9  C   UNL A   1      38.013  30.768  32.061  1.00  0.00     0.118 A 
ATOM     10  C   UNL A   1      39.055  31.656  31.921  1.00  0.00     0.047 A 
ATOM     11  O   UNL A   1      37.907  30.395  33.367  1.00  0.00    -0.455 OA
ATOM     12  C   UNL A   1      39.584  31.859  33.224  1.00  0.00     0.056 A 
BRANCH   9  13
ATOM     13  C   UNL A   1      36.995  30.217  31.115  1.00  0.00     0.115 C 
ATOM     14  C   UNL A   1      37.466  28.878  30.522  1.00  0.00     0.028 C 
BRANCH  13  15
ATOM     15  S   UNL A   1      36.643  31.406  29.756  1.00  0.00    -0.115 SA
BRANCH  15  16
ATOM     16  C   UNL A   1      35.589  32.667  30.459  1.00  0.00     0.008 A 
ATOM     17  C   UNL A   1      35.119  32.715  31.777  1.00  0.00     0.016 A 
ATOM     18  C   UNL A   1      35.194  33.687  29.576  1.00  0.00     0.016 A 
ATOM     19  C   UNL A   1      34.259  33.739  32.197  1.00  0.00     0.021 A 
ATOM     20  C   UNL A   1      34.336  34.713  29.983  1.00  0.00     0.021 A 
ATOM     21  C   UNL A   1      33.859  34.722  31.291  1.00  0.00     0.067 A 
BRANCH  21  22
ATOM     22  S   UNL A   1      32.752  36.006  31.824  1.00  0.00     0.175 S 
ATOM     23  C   UNL A   1      33.684  36.892  33.046  1.00  0.00     0.163 C 
ATOM     24  O   UNL A   1      32.538  36.883  30.692  1.00  0.00    -0.224 OA
ATOM     25  O   UNL A   1      31.638  35.375  32.510  1.00  0.00    -0.224 OA
ENDBRANCH  21  22
ENDBRANCH  15  16
ENDBRANCH  13  15
ENDBRANCH   9  13
ENDBRANCH   5   8
ENDBRANCH   3   4
ENDBRANCH   2   3
ENDBRANCH   1   2
BRANCH   1  26
ATOM     26  C   UNL A   1      38.469  33.664  40.039  1.00  0.00     0.002 C 
BRANCH  26  27
ATOM     27  C   UNL A   1      39.589  34.370  40.809  1.00  0.00     0.021 C 
BRANCH  27  28
ATOM     28  C   UNL A   1      40.874  34.580  40.015  1.00  0.00     0.116 C 
BRANCH  28  29
ATOM     29  N   UNL A   1      41.174  35.992  39.827  1.00  0.00    -0.352 N 
ATOM     30  C   UNL A   1      41.818  36.608  38.782  1.00  0.00     0.251 C 
ATOM     31  H   UNL A   1      40.872  36.588  40.550  1.00  0.00     0.163 HD
ATOM     32  O   UNL A   1      42.158  37.784  38.877  1.00  0.00    -0.269 OA
BRANCH  30  33
ATOM     33  C   UNL A   1      42.112  35.848  37.549  1.00  0.00     0.039 A 
ATOM     34  C   UNL A   1      43.432  35.475  37.278  1.00  0.00     0.014 A 
ATOM     35  C   UNL A   1      41.087  35.504  36.663  1.00  0.00     0.014 A 
ATOM     36  C   UNL A   1      43.716  34.706  36.146  1.00  0.00     0.010 A 
ATOM     37  C   UNL A   1      41.364  34.685  35.571  1.00  0.00     0.010 A 
ATOM     38  C   UNL A   1      42.679  34.281  35.299  1.00  0.00    -0.014 A 
BRANCH  38  39
ATOM     39  C   UNL A   1      42.944  33.402  34.132  1.00  0.00     0.031 A 
ATOM     40  C   UNL A   1      43.079  33.990  32.754  1.00  0.00     0.074 A 
ATOM     41  C   UNL A   1      42.962  32.064  34.298  1.00  0.00     0.049 A 
ATOM     42  N   UNL A   1      43.233  33.379  31.608  1.00  0.00    -0.248 NA
ATOM     43  C   UNL A   1      43.000  35.456  32.644  1.00  0.00     0.031 C 
ATOM     44  C   UNL A   1      42.761  31.368  35.571  1.00  0.00     0.029 A 
ATOM     45  N   UNL A   1      43.126  31.049  33.388  1.00  0.00    -0.354 N 
ATOM     46  C   UNL A   1      43.229  34.377  30.641  1.00  0.00     0.074 A 
ATOM     47  C   UNL A   1      43.028  35.632  31.331  1.00  0.00     0.031 C 
ATOM     48  C   UNL A   1      42.811  30.042  35.360  1.00  0.00     0.029 A 
ATOM     49  C   UNL A   1      43.022  29.793  33.938  1.00  0.00     0.049 A 
ATOM     50  H   UNL A   1      43.300  31.207  32.432  1.00  0.00     0.167 HD
ATOM     51  C   UNL A   1      43.408  34.263  29.303  1.00  0.00     0.034 A 
ATOM     52  C   UNL A   1      43.086  28.576  33.361  1.00  0.00     0.034 A 
ATOM     53  C   UNL A   1      43.662  33.019  28.628  1.00  0.00     0.049 A 
ATOM     54  C   UNL A   1      43.343  28.479  31.882  1.00  0.00     0.074 A 
ATOM     55  C   UNL A   1      43.951  32.811  27.291  1.00  0.00     0.029 A 
ATOM     56  N   UNL A   1      43.658  31.774  29.236  1.00  0.00    -0.354 N 
ATOM     57  N   UNL A   1      43.501  29.444  31.009  1.00  0.00    -0.248 NA
ATOM     58  C   UNL A   1      43.471  27.129  31.314  1.00  0.00     0.031 C 
ATOM     59  C   UNL A   1      44.109  31.435  27.088  1.00  0.00     0.029 A 
ATOM     60  C   UNL A   1      43.937  30.791  28.302  1.00  0.00     0.049 A 
ATOM     61  H   UNL A   1      43.485  31.612  30.191  1.00  0.00     0.167 HD
ATOM     62  C   UNL A   1      43.785  28.821  29.799  1.00  0.00     0.074 A 
ATOM     63  C   UNL A   1      43.794  27.396  30.055  1.00  0.00     0.031 C 
ATOM     64  C   UNL A   1      44.006  29.380  28.583  1.00  0.00     0.034 A 
BRANCH  51  65
ATOM     65  C   UNL A   1      43.398  35.528  28.486  1.00  0.00     0.023 A 
ATOM     66  C   UNL A   1      42.182  35.993  27.943  1.00  0.00     0.012 A 
ATOM     67  C   UNL A   1      44.570  36.288  28.303  1.00  0.00     0.148 A 
ATOM     68  C   UNL A   1      42.139  37.173  27.204  1.00  0.00     0.002 A 
ATOM     69  C   UNL A   1      44.511  37.486  27.600  1.00  0.00     0.091 A 
ATOM     70  F   UNL A   1      45.721  35.819  28.806  1.00  0.00    -0.205 F 
ATOM     71  C   UNL A   1      43.299  37.924  27.041  1.00  0.00     0.022 A 
BRANCH  69  72
ATOM     72  S   UNL A   1      45.936  38.561  27.403  1.00  0.00     0.127 S 
ATOM     73  O   UNL A   1      45.624  39.237  26.144  1.00  0.00    -0.237 OA
ATOM     74  O   UNL A   1      45.848  39.413  28.589  1.00  0.00    -0.237 OA
ATOM     75  O   UNL A   1      47.098  37.684  27.372  1.00  0.00    -0.744 OA
ENDBRANCH  69  72
ENDBRANCH  51  65
BRANCH  52  76
ATOM     76  C   UNL A   1      42.982  27.351  34.203  1.00  0.00     0.023 A 
ATOM     77  C   UNL A   1      41.709  26.889  34.591  1.00  0.00     0.012 A 
ATOM     78  C   UNL A   1      44.123  26.624  34.587  1.00  0.00     0.148 A 
ATOM     79  C   UNL A   1      41.576  25.739  35.369  1.00  0.00     0.002 A 
ATOM     80  C   UNL A   1      43.981  25.449  35.318  1.00  0.00     0.091 A 
ATOM     81  F   UNL A   1      45.326  27.087  34.221  1.00  0.00    -0.205 F 
ATOM     82  C   UNL A   1      42.710  25.014  35.723  1.00  0.00     0.022 A 
BRANCH  80  83
ATOM     83  S   UNL A   1      45.375  24.383  35.700  1.00  0.00     0.127 S 
ATOM     84  O   UNL A   1      44.722  23.270  36.382  1.00  0.00    -0.237 OA
ATOM     85  O   UNL A   1      45.894  24.072  34.367  1.00  0.00    -0.237 OA
ATOM     86  O   UNL A   1      46.272  25.192  36.515  1.00  0.00    -0.744 OA
ENDBRANCH  80  83
ENDBRANCH  52  76
BRANCH  64  87
ATOM     87  C   UNL A   1      44.317  28.459  27.434  1.00  0.00     0.023 A 
ATOM     88  C   UNL A   1      43.269  27.940  26.650  1.00  0.00     0.012 A 
ATOM     89  C   UNL A   1      45.652  28.185  27.077  1.00  0.00     0.148 A 
ATOM     90  C   UNL A   1      43.544  27.140  25.541  1.00  0.00     0.002 A 
ATOM     91  C   UNL A   1      45.920  27.425  25.943  1.00  0.00     0.091 A 
ATOM     92  F   UNL A   1      46.634  28.673  27.848  1.00  0.00    -0.205 F 
ATOM     93  C   UNL A   1      44.868  26.894  25.181  1.00  0.00     0.022 A 
BRANCH  91  94
ATOM     94  S   UNL A   1      47.592  27.139  25.351  1.00  0.00     0.127 S 
ATOM     95  O   UNL A   1      48.134  26.276  26.398  1.00  0.00    -0.237 OA
ATOM     96  O   UNL A   1      47.358  26.471  24.070  1.00  0.00    -0.237 OA
ATOM     97  O   UNL A   1      48.208  28.453  25.242  1.00  0.00    -0.744 OA
ENDBRANCH  91  94
ENDBRANCH  64  87
ENDBRANCH  38  39
ENDBRANCH  30  33
ENDBRANCH  28  29
ENDBRANCH  27  28
ENDBRANCH  26  27
ENDBRANCH   1  26
TORSDOF 20
ENDMDL
