MODEL 1
REMARK VINA RESULT:     -10.6      0.000      0.000
REMARK SMILES CCCN1CCC[C@@]2(CCN(c3ccc(C(=O)NCCCCCCNC(=O)c4ccc(-c5c6nc(c(-c7cccc(S(=O)(=O)[O-])c7F)c7ccc([nH]7)c(-c7cccc(S(=O)(=O)[O-])c7F)c7nc(c(-c8cccc(S(=O)(=O)[O-])c8F)c8ccc5[nH]8)C=C7)C=C6)cc4)cn3)C2)C1=O
REMARK SMILES IDX 21 1 20 2 19 3 18 4 16 5 17 6 15 8 12 9 13 10 92 11 14 12
REMARK SMILES IDX 91 13 11 14 4 15 5 16 94 17 6 18 8 19 95 20 7 21 9 22 93 23
REMARK SMILES IDX 10 24 3 25 2 26 1 27 22 28 23 29 24 30 25 31 26 32 27 34
REMARK SMILES IDX 28 35 29 36 90 37 30 38 89 39 31 40 32 41 33 42 83 43 34 44
REMARK SMILES IDX 88 45 82 46 84 47 35 48 87 49 81 50 80 51 36 53 68 54 48 55
REMARK SMILES IDX 67 56 49 57 52 58 66 59 85 60 50 61 51 62 65 64 86 65 53 66
REMARK SMILES IDX 37 67 38 68 46 69 39 70 41 71 47 72 40 73 42 74 43 75 44 76
REMARK SMILES IDX 45 77 69 78 70 79 78 80 71 81 73 82 79 83 72 84 74 85 75 86
REMARK SMILES IDX 76 87 77 88 54 89 55 90 63 91 56 92 58 93 64 94 57 95 59 96
REMARK SMILES IDX 60 97 61 98 62 99
REMARK H PARENT 18 7 25 33 84 52 52 63
REMARK Flexibility Score: inf
ROOT
ATOM      1  C   UNL A   1      31.283  31.318  26.332  1.00  0.00     0.002 C 
ENDROOT
BRANCH   1   2
ATOM      2  C   UNL A   1      30.609  31.928  25.096  1.00  0.00     0.021 C 
BRANCH   2   3
ATOM      3  C   UNL A   1      29.483  31.049  24.545  1.00  0.00     0.116 C 
BRANCH   3   4
ATOM      4  N   UNL A   1      29.750  30.708  23.159  1.00  0.00    -0.352 N 
ATOM      5  C   UNL A   1      30.088  29.538  22.532  1.00  0.00     0.252 C 
ATOM      6  O   UNL A   1      30.269  29.585  21.313  1.00  0.00    -0.269 OA
ATOM      7  H   UNL A   1      29.674  31.474  22.547  1.00  0.00     0.163 HD
BRANCH   5   8
ATOM      8  C   UNL A   1      30.198  28.228  23.222  1.00  0.00     0.058 A 
ATOM      9  C   UNL A   1      30.680  25.725  24.336  1.00  0.00     0.128 A 
ATOM     10  C   UNL A   1      29.383  26.212  24.241  1.00  0.00     0.048 A 
ATOM     11  N   UNL A   1      31.733  26.472  23.952  1.00  0.00    -0.239 NA
ATOM     12  C   UNL A   1      29.147  27.487  23.740  1.00  0.00     0.019 A 
ATOM     13  C   UNL A   1      31.469  27.682  23.382  1.00  0.00     0.127 A 
BRANCH   9  14
ATOM     14  N   UNL A   1      30.868  24.482  24.872  1.00  0.00    -0.356 N 
ATOM     15  N   UNL A   1      34.375  22.130  25.832  1.00  0.00    -0.342 N 
ATOM     16  C   UNL A   1      34.369  20.824  25.186  1.00  0.00     0.119 C 
ATOM     17  C   UNL A   1      33.162  22.603  26.343  1.00  0.00     0.230 C 
ATOM     18  C   UNL A   1      33.345  20.794  24.067  1.00  0.00     0.023 C 
ATOM     19  C   UNL A   1      31.954  22.437  25.407  1.00  0.00     0.069 C 
ATOM     20  O   UNL A   1      33.096  23.222  27.404  1.00  0.00    -0.274 OA
ATOM     21  C   UNL A   1      31.973  21.100  24.650  1.00  0.00     0.021 C 
ATOM     22  C   UNL A   1      30.622  22.609  26.170  1.00  0.00     0.040 C 
ATOM     23  C   UNL A   1      31.976  23.643  24.434  1.00  0.00     0.135 C 
ATOM     24  C   UNL A   1      30.383  24.118  26.181  1.00  0.00     0.119 C 
BRANCH  15  25
ATOM     25  C   UNL A   1      35.601  22.678  26.410  1.00  0.00     0.119 C 
BRANCH  25  26
ATOM     26  C   UNL A   1      36.256  23.843  25.664  1.00  0.00     0.018 C 
ATOM     27  C   UNL A   1      37.766  23.938  25.844  1.00  0.00     0.006 C 
ENDBRANCH  25  26
ENDBRANCH  15  25
ENDBRANCH   9  14
ENDBRANCH   5   8
ENDBRANCH   3   4
ENDBRANCH   2   3
ENDBRANCH   1   2
BRANCH   1  28
ATOM     28  C   UNL A   1      31.741  29.864  26.154  1.00  0.00     0.002 C 
BRANCH  28  29
ATOM     29  C   UNL A   1      33.235  29.693  25.863  1.00  0.00     0.021 C 
BRANCH  29  30
ATOM     30  C   UNL A   1      34.114  29.718  27.108  1.00  0.00     0.116 C 
BRANCH  30  31
ATOM     31  N   UNL A   1      34.061  31.016  27.767  1.00  0.00    -0.352 N 
ATOM     32  C   UNL A   1      34.847  31.505  28.781  1.00  0.00     0.251 C 
ATOM     33  H   UNL A   1      33.366  31.629  27.438  1.00  0.00     0.163 HD
ATOM     34  O   UNL A   1      34.505  32.509  29.394  1.00  0.00    -0.269 OA
BRANCH  32  35
ATOM     35  C   UNL A   1      36.102  30.808  29.128  1.00  0.00     0.039 A 
ATOM     36  C   UNL A   1      37.296  31.218  28.534  1.00  0.00     0.014 A 
ATOM     37  C   UNL A   1      36.093  29.747  30.039  1.00  0.00     0.014 A 
ATOM     38  C   UNL A   1      38.493  30.597  28.895  1.00  0.00     0.010 A 
ATOM     39  C   UNL A   1      37.294  29.182  30.453  1.00  0.00     0.010 A 
ATOM     40  C   UNL A   1      38.506  29.596  29.881  1.00  0.00    -0.014 A 
BRANCH  40  41
ATOM     41  C   UNL A   1      39.777  28.981  30.337  1.00  0.00     0.031 A 
ATOM     42  C   UNL A   1      40.497  29.530  31.539  1.00  0.00     0.074 A 
ATOM     43  C   UNL A   1      40.328  27.985  29.616  1.00  0.00     0.049 A 
ATOM     44  N   UNL A   1      41.646  29.167  32.048  1.00  0.00    -0.248 NA
ATOM     45  C   UNL A   1      39.855  30.650  32.248  1.00  0.00     0.031 C 
ATOM     46  C   UNL A   1      39.765  27.421  28.387  1.00  0.00     0.029 A 
ATOM     47  N   UNL A   1      41.498  27.290  29.793  1.00  0.00    -0.354 N 
ATOM     48  C   UNL A   1      41.880  30.030  33.110  1.00  0.00     0.074 A 
ATOM     49  C   UNL A   1      40.773  30.960  33.151  1.00  0.00     0.031 C 
ATOM     50  C   UNL A   1      40.589  26.468  27.922  1.00  0.00     0.029 A 
ATOM     51  C   UNL A   1      41.753  26.377  28.797  1.00  0.00     0.049 A 
ATOM     52  H   UNL A   1      42.098  27.433  30.561  1.00  0.00     0.167 HD
ATOM     53  C   UNL A   1      42.909  30.032  33.991  1.00  0.00     0.034 A 
ATOM     54  C   UNL A   1      42.813  25.569  28.600  1.00  0.00     0.034 A 
ATOM     55  C   UNL A   1      43.992  29.087  33.964  1.00  0.00     0.049 A 
ATOM     56  C   UNL A   1      43.931  25.573  29.607  1.00  0.00     0.074 A 
ATOM     57  C   UNL A   1      45.040  28.953  34.859  1.00  0.00     0.029 A 
ATOM     58  N   UNL A   1      44.177  28.123  32.985  1.00  0.00    -0.354 N 
ATOM     59  N   UNL A   1      44.059  26.294  30.694  1.00  0.00    -0.248 NA
ATOM     60  C   UNL A   1      45.033  24.628  29.379  1.00  0.00     0.031 C 
ATOM     61  C   UNL A   1      45.875  27.928  34.402  1.00  0.00     0.029 A 
ATOM     62  C   UNL A   1      45.327  27.398  33.245  1.00  0.00     0.049 A 
ATOM     63  H   UNL A   1      43.577  27.973  32.219  1.00  0.00     0.167 HD
ATOM     64  C   UNL A   1      45.236  25.867  31.298  1.00  0.00     0.074 A 
ATOM     65  C   UNL A   1      45.772  24.809  30.465  1.00  0.00     0.031 C 
ATOM     66  C   UNL A   1      45.826  26.318  32.432  1.00  0.00     0.034 A 
BRANCH  53  67
ATOM     67  C   UNL A   1      42.887  31.065  35.090  1.00  0.00     0.023 A 
ATOM     68  C   UNL A   1      42.344  30.734  36.348  1.00  0.00     0.012 A 
ATOM     69  C   UNL A   1      43.453  32.341  34.898  1.00  0.00     0.148 A 
ATOM     70  C   UNL A   1      42.326  31.666  37.384  1.00  0.00     0.002 A 
ATOM     71  C   UNL A   1      43.475  33.249  35.949  1.00  0.00     0.091 A 
ATOM     72  F   UNL A   1      43.948  32.646  33.690  1.00  0.00    -0.205 F 
ATOM     73  C   UNL A   1      42.901  32.919  37.188  1.00  0.00     0.022 A 
BRANCH  71  74
ATOM     74  S   UNL A   1      44.264  34.858  35.826  1.00  0.00     0.127 S 
ATOM     75  O   UNL A   1      45.647  34.485  35.524  1.00  0.00    -0.237 OA
ATOM     76  O   UNL A   1      43.541  35.470  34.711  1.00  0.00    -0.237 OA
ATOM     77  O   UNL A   1      44.060  35.506  37.114  1.00  0.00    -0.744 OA
ENDBRANCH  71  74
ENDBRANCH  53  67
BRANCH  54  78
ATOM     78  C   UNL A   1      42.841  24.655  27.423  1.00  0.00     0.023 A 
ATOM     79  C   UNL A   1      43.453  25.079  26.228  1.00  0.00     0.012 A 
ATOM     80  C   UNL A   1      42.292  23.360  27.493  1.00  0.00     0.148 A 
ATOM     81  C   UNL A   1      43.488  24.242  25.112  1.00  0.00     0.002 A 
ATOM     82  C   UNL A   1      42.381  22.511  26.397  1.00  0.00     0.091 A 
ATOM     83  F   UNL A   1      41.707  22.980  28.638  1.00  0.00    -0.205 F 
ATOM     84  C   UNL A   1      42.961  22.955  25.199  1.00  0.00     0.022 A 
BRANCH  82  85
ATOM     85  S   UNL A   1      41.851  20.795  26.463  1.00  0.00     0.127 S 
ATOM     86  O   UNL A   1      42.383  20.366  27.754  1.00  0.00    -0.237 OA
ATOM     87  O   UNL A   1      40.396  20.927  26.406  1.00  0.00    -0.237 OA
ATOM     88  O   UNL A   1      42.440  20.155  25.294  1.00  0.00    -0.744 OA
ENDBRANCH  82  85
ENDBRANCH  54  78
BRANCH  66  89
ATOM     89  C   UNL A   1      47.104  25.649  32.869  1.00  0.00     0.023 A 
ATOM     90  C   UNL A   1      48.347  26.153  32.434  1.00  0.00     0.012 A 
ATOM     91  C   UNL A   1      47.073  24.569  33.772  1.00  0.00     0.148 A 
ATOM     92  C   UNL A   1      49.537  25.569  32.865  1.00  0.00     0.002 A 
ATOM     93  C   UNL A   1      48.265  24.027  34.238  1.00  0.00     0.091 A 
ATOM     94  F   UNL A   1      45.881  24.094  34.161  1.00  0.00    -0.205 F 
ATOM     95  C   UNL A   1      49.496  24.516  33.775  1.00  0.00     0.022 A 
BRANCH  93  96
ATOM     96  S   UNL A   1      48.314  22.734  35.484  1.00  0.00     0.127 S 
ATOM     97  O   UNL A   1      49.676  22.866  35.998  1.00  0.00    -0.237 OA
ATOM     98  O   UNL A   1      47.267  23.161  36.413  1.00  0.00    -0.237 OA
ATOM     99  O   UNL A   1      48.031  21.488  34.784  1.00  0.00    -0.744 OA
ENDBRANCH  93  96
ENDBRANCH  66  89
ENDBRANCH  40  41
ENDBRANCH  32  35
ENDBRANCH  30  31
ENDBRANCH  29  30
ENDBRANCH  28  29
ENDBRANCH   1  28
TORSDOF 19
ENDMDL
MODEL 2
REMARK VINA RESULT:     -10.4      5.174      9.594
REMARK SMILES CCCN1CCC[C@@]2(CCN(c3ccc(C(=O)NCCCCCCNC(=O)c4ccc(-c5c6nc(c(-c7cccc(S(=O)(=O)[O-])c7F)c7ccc([nH]7)c(-c7cccc(S(=O)(=O)[O-])c7F)c7nc(c(-c8cccc(S(=O)(=O)[O-])c8F)c8ccc5[nH]8)C=C7)C=C6)cc4)cn3)C2)C1=O
REMARK SMILES IDX 21 1 20 2 19 3 18 4 16 5 17 6 15 8 12 9 13 10 92 11 14 12
REMARK SMILES IDX 91 13 11 14 4 15 5 16 94 17 6 18 8 19 95 20 7 21 9 22 93 23
REMARK SMILES IDX 10 24 3 25 2 26 1 27 22 28 23 29 24 30 25 31 26 32 27 34
REMARK SMILES IDX 28 35 29 36 90 37 30 38 89 39 31 40 32 41 33 42 83 43 34 44
REMARK SMILES IDX 88 45 82 46 84 47 35 48 87 49 81 50 80 51 36 53 68 54 48 55
REMARK SMILES IDX 67 56 49 57 52 58 66 59 85 60 50 61 51 62 65 64 86 65 53 66
REMARK SMILES IDX 37 67 38 68 46 69 39 70 41 71 47 72 40 73 42 74 43 75 44 76
REMARK SMILES IDX 45 77 69 78 70 79 78 80 71 81 73 82 79 83 72 84 74 85 75 86
REMARK SMILES IDX 76 87 77 88 54 89 55 90 63 91 56 92 58 93 64 94 57 95 59 96
REMARK SMILES IDX 60 97 61 98 62 99
REMARK H PARENT 18 7 25 33 84 52 52 63
REMARK Flexibility Score: inf
ROOT
ATOM      1  C   UNL A   1      36.705  33.245  31.749  1.00  0.00     0.002 C 
ENDROOT
BRANCH   1   2
ATOM      2  C   UNL A   1      37.965  32.513  31.265  1.00  0.00     0.021 C 
BRANCH   2   3
ATOM      3  C   UNL A   1      38.169  32.627  29.752  1.00  0.00     0.116 C 
BRANCH   3   4
ATOM      4  N   UNL A   1      37.219  31.779  29.056  1.00  0.00    -0.352 N 
ATOM      5  C   UNL A   1      37.326  30.556  28.447  1.00  0.00     0.252 C 
ATOM      6  O   UNL A   1      36.310  30.102  27.916  1.00  0.00    -0.269 OA
ATOM      7  H   UNL A   1      36.313  32.162  29.013  1.00  0.00     0.163 HD
BRANCH   5   8
ATOM      8  C   UNL A   1      38.566  29.741  28.435  1.00  0.00     0.058 A 
ATOM      9  C   UNL A   1      40.777  28.080  28.131  1.00  0.00     0.128 A 
ATOM     10  C   UNL A   1      40.371  28.482  29.396  1.00  0.00     0.048 A 
ATOM     11  N   UNL A   1      40.155  28.532  27.026  1.00  0.00    -0.239 NA
ATOM     12  C   UNL A   1      39.304  29.360  29.546  1.00  0.00     0.019 A 
ATOM     13  C   UNL A   1      39.056  29.320  27.202  1.00  0.00     0.127 A 
BRANCH   9  14
ATOM     14  N   UNL A   1      41.856  27.249  28.030  1.00  0.00    -0.356 N 
ATOM     15  N   UNL A   1      42.316  23.014  27.246  1.00  0.00    -0.342 N 
ATOM     16  C   UNL A   1      43.066  22.329  28.289  1.00  0.00     0.119 C 
ATOM     17  C   UNL A   1      42.758  24.285  26.863  1.00  0.00     0.230 C 
ATOM     18  C   UNL A   1      43.147  23.192  29.535  1.00  0.00     0.023 C 
ATOM     19  C   UNL A   1      43.108  25.228  28.025  1.00  0.00     0.069 C 
ATOM     20  O   UNL A   1      42.739  24.658  25.691  1.00  0.00    -0.274 OA
ATOM     21  C   UNL A   1      43.825  24.506  29.177  1.00  0.00     0.021 C 
ATOM     22  C   UNL A   1      43.942  26.434  27.540  1.00  0.00     0.040 C 
ATOM     23  C   UNL A   1      41.778  25.869  28.494  1.00  0.00     0.135 C 
ATOM     24  C   UNL A   1      42.903  27.445  27.057  1.00  0.00     0.119 C 
BRANCH  15  25
ATOM     25  C   UNL A   1      41.518  22.266  26.276  1.00  0.00     0.119 C 
BRANCH  25  26
ATOM     26  C   UNL A   1      41.781  20.761  26.178  1.00  0.00     0.018 C 
ATOM     27  C   UNL A   1      40.524  19.900  26.177  1.00  0.00     0.006 C 
ENDBRANCH  25  26
ENDBRANCH  15  25
ENDBRANCH   9  14
ENDBRANCH   5   8
ENDBRANCH   3   4
ENDBRANCH   2   3
ENDBRANCH   1   2
BRANCH   1  28
ATOM     28  C   UNL A   1      36.095  32.674  33.036  1.00  0.00     0.002 C 
BRANCH  28  29
ATOM     29  C   UNL A   1      36.018  33.663  34.203  1.00  0.00     0.021 C 
BRANCH  29  30
ATOM     30  C   UNL A   1      37.315  33.790  34.993  1.00  0.00     0.116 C 
BRANCH  30  31
ATOM     31  N   UNL A   1      37.301  32.938  36.173  1.00  0.00    -0.352 N 
ATOM     32  C   UNL A   1      37.937  31.740  36.385  1.00  0.00     0.251 C 
ATOM     33  H   UNL A   1      36.759  33.267  36.926  1.00  0.00     0.163 HD
ATOM     34  O   UNL A   1      37.614  31.029  37.328  1.00  0.00    -0.269 OA
BRANCH  32  35
ATOM     35  C   UNL A   1      39.010  31.315  35.463  1.00  0.00     0.039 A 
ATOM     36  C   UNL A   1      38.690  30.504  34.372  1.00  0.00     0.014 A 
ATOM     37  C   UNL A   1      40.332  31.716  35.681  1.00  0.00     0.014 A 
ATOM     38  C   UNL A   1      39.690  30.139  33.469  1.00  0.00     0.010 A 
ATOM     39  C   UNL A   1      41.310  31.415  34.740  1.00  0.00     0.010 A 
ATOM     40  C   UNL A   1      41.001  30.618  33.629  1.00  0.00    -0.014 A 
BRANCH  40  41
ATOM     41  C   UNL A   1      42.060  30.308  32.635  1.00  0.00     0.031 A 
ATOM     42  C   UNL A   1      42.846  29.030  32.738  1.00  0.00     0.074 A 
ATOM     43  C   UNL A   1      42.372  31.220  31.694  1.00  0.00     0.049 A 
ATOM     44  N   UNL A   1      43.848  28.618  32.005  1.00  0.00    -0.248 NA
ATOM     45  C   UNL A   1      42.477  28.105  33.823  1.00  0.00     0.031 C 
ATOM     46  C   UNL A   1      41.734  32.530  31.542  1.00  0.00     0.029 A 
ATOM     47  N   UNL A   1      43.323  31.199  30.705  1.00  0.00    -0.354 N 
ATOM     48  C   UNL A   1      44.248  27.407  32.555  1.00  0.00     0.074 A 
ATOM     49  C   UNL A   1      43.408  27.168  33.708  1.00  0.00     0.031 C 
ATOM     50  C   UNL A   1      42.311  33.185  30.523  1.00  0.00     0.029 A 
ATOM     51  C   UNL A   1      43.381  32.360  29.971  1.00  0.00     0.049 A 
ATOM     52  H   UNL A   1      43.910  30.425  30.538  1.00  0.00     0.167 HD
ATOM     53  C   UNL A   1      45.210  26.556  32.125  1.00  0.00     0.034 A 
ATOM     54  C   UNL A   1      44.212  32.727  28.976  1.00  0.00     0.034 A 
ATOM     55  C   UNL A   1      46.023  26.784  30.960  1.00  0.00     0.049 A 
ATOM     56  C   UNL A   1      45.255  31.753  28.500  1.00  0.00     0.074 A 
ATOM     57  C   UNL A   1      46.968  25.946  30.394  1.00  0.00     0.029 A 
ATOM     58  N   UNL A   1      45.998  27.937  30.192  1.00  0.00    -0.354 N 
ATOM     59  N   UNL A   1      45.517  30.546  28.937  1.00  0.00    -0.248 NA
ATOM     60  C   UNL A   1      46.095  32.178  27.371  1.00  0.00     0.031 C 
ATOM     61  C   UNL A   1      47.537  26.608  29.301  1.00  0.00     0.029 A 
ATOM     62  C   UNL A   1      46.920  27.841  29.164  1.00  0.00     0.049 A 
ATOM     63  H   UNL A   1      45.411  28.711  30.352  1.00  0.00     0.167 HD
ATOM     64  C   UNL A   1      46.525  30.053  28.118  1.00  0.00     0.074 A 
ATOM     65  C   UNL A   1      46.812  31.086  27.142  1.00  0.00     0.031 C 
ATOM     66  C   UNL A   1      47.165  28.859  28.173  1.00  0.00     0.034 A 
BRANCH  53  67
ATOM     67  C   UNL A   1      45.404  25.274  32.893  1.00  0.00     0.023 A 
ATOM     68  C   UNL A   1      44.504  24.205  32.706  1.00  0.00     0.012 A 
ATOM     69  C   UNL A   1      46.504  25.104  33.757  1.00  0.00     0.148 A 
ATOM     70  C   UNL A   1      44.671  23.003  33.394  1.00  0.00     0.002 A 
ATOM     71  C   UNL A   1      46.692  23.888  34.402  1.00  0.00     0.091 A 
ATOM     72  F   UNL A   1      47.339  26.137  33.938  1.00  0.00    -0.205 F 
ATOM     73  C   UNL A   1      45.770  22.841  34.232  1.00  0.00     0.022 A 
BRANCH  71  74
ATOM     74  S   UNL A   1      48.119  23.550  35.439  1.00  0.00     0.127 S 
ATOM     75  O   UNL A   1      48.037  24.636  36.416  1.00  0.00    -0.237 OA
ATOM     76  O   UNL A   1      47.804  22.225  35.973  1.00  0.00    -0.237 OA
ATOM     77  O   UNL A   1      49.277  23.591  34.557  1.00  0.00    -0.744 OA
ENDBRANCH  71  74
ENDBRANCH  53  67
BRANCH  54  78
ATOM     78  C   UNL A   1      44.057  34.062  28.333  1.00  0.00     0.023 A 
ATOM     79  C   UNL A   1      43.295  34.183  27.154  1.00  0.00     0.012 A 
ATOM     80  C   UNL A   1      44.634  35.216  28.899  1.00  0.00     0.148 A 
ATOM     81  C   UNL A   1      43.140  35.422  26.532  1.00  0.00     0.002 A 
ATOM     82  C   UNL A   1      44.427  36.455  28.306  1.00  0.00     0.091 A 
ATOM     83  F   UNL A   1      45.362  35.077  30.017  1.00  0.00    -0.205 F 
ATOM     84  C   UNL A   1      43.697  36.558  27.112  1.00  0.00     0.022 A 
BRANCH  82  85
ATOM     85  S   UNL A   1      44.993  37.987  29.055  1.00  0.00     0.127 S 
ATOM     86  O   UNL A   1      44.511  37.846  30.427  1.00  0.00    -0.237 OA
ATOM     87  O   UNL A   1      46.443  37.883  28.896  1.00  0.00    -0.237 OA
ATOM     88  O   UNL A   1      44.380  39.056  28.279  1.00  0.00    -0.744 OA
ENDBRANCH  82  85
ENDBRANCH  54  78
BRANCH  66  89
ATOM     89  C   UNL A   1      48.217  28.579  27.132  1.00  0.00     0.023 A 
ATOM     90  C   UNL A   1      49.580  28.766  27.439  1.00  0.00     0.012 A 
ATOM     91  C   UNL A   1      47.857  28.059  25.873  1.00  0.00     0.148 A 
ATOM     92  C   UNL A   1      50.565  28.470  26.498  1.00  0.00     0.002 A 
ATOM     93  C   UNL A   1      48.847  27.718  24.960  1.00  0.00     0.091 A 
ATOM     94  F   UNL A   1      46.554  27.905  25.594  1.00  0.00    -0.205 F 
ATOM     95  C   UNL A   1      50.200  27.936  25.265  1.00  0.00     0.022 A 
BRANCH  93  96
ATOM     96  S   UNL A   1      48.479  26.934  23.386  1.00  0.00     0.127 S 
ATOM     97  O   UNL A   1      49.816  26.748  22.825  1.00  0.00    -0.237 OA
ATOM     98  O   UNL A   1      47.815  25.699  23.805  1.00  0.00    -0.237 OA
ATOM     99  O   UNL A   1      47.624  27.865  22.662  1.00  0.00    -0.744 OA
ENDBRANCH  93  96
ENDBRANCH  66  89
ENDBRANCH  40  41
ENDBRANCH  32  35
ENDBRANCH  30  31
ENDBRANCH  29  30
ENDBRANCH  28  29
ENDBRANCH   1  28
TORSDOF 19
ENDMDL
MODEL 3
REMARK VINA RESULT:     -10.3      5.553     10.236
REMARK SMILES CCCN1CCC[C@@]2(CCN(c3ccc(C(=O)NCCCCCCNC(=O)c4ccc(-c5c6nc(c(-c7cccc(S(=O)(=O)[O-])c7F)c7ccc([nH]7)c(-c7cccc(S(=O)(=O)[O-])c7F)c7nc(c(-c8cccc(S(=O)(=O)[O-])c8F)c8ccc5[nH]8)C=C7)C=C6)cc4)cn3)C2)C1=O
REMARK SMILES IDX 21 1 20 2 19 3 18 4 16 5 17 6 15 8 12 9 13 10 92 11 14 12
REMARK SMILES IDX 91 13 11 14 4 15 5 16 94 17 6 18 8 19 95 20 7 21 9 22 93 23
REMARK SMILES IDX 10 24 3 25 2 26 1 27 22 28 23 29 24 30 25 31 26 32 27 34
REMARK SMILES IDX 28 35 29 36 90 37 30 38 89 39 31 40 32 41 33 42 83 43 34 44
REMARK SMILES IDX 88 45 82 46 84 47 35 48 87 49 81 50 80 51 36 53 68 54 48 55
REMARK SMILES IDX 67 56 49 57 52 58 66 59 85 60 50 61 51 62 65 64 86 65 53 66
REMARK SMILES IDX 37 67 38 68 46 69 39 70 41 71 47 72 40 73 42 74 43 75 44 76
REMARK SMILES IDX 45 77 69 78 70 79 78 80 71 81 73 82 79 83 72 84 74 85 75 86
REMARK SMILES IDX 76 87 77 88 54 89 55 90 63 91 56 92 58 93 64 94 57 95 59 96
REMARK SMILES IDX 60 97 61 98 62 99
REMARK H PARENT 18 7 25 33 84 52 52 63
REMARK Flexibility Score: inf
ROOT
ATOM      1  C   UNL A   1      39.241  27.531  29.276  1.00  0.00     0.002 C 
ENDROOT
BRANCH   1   2
ATOM      2  C   UNL A   1      38.920  27.910  30.728  1.00  0.00     0.021 C 
BRANCH   2   3
ATOM      3  C   UNL A   1      37.586  28.647  30.865  1.00  0.00     0.116 C 
BRANCH   3   4
ATOM      4  N   UNL A   1      37.775  30.067  30.632  1.00  0.00    -0.352 N 
ATOM      5  C   UNL A   1      37.270  30.940  29.705  1.00  0.00     0.252 C 
ATOM      6  O   UNL A   1      37.652  32.110  29.767  1.00  0.00    -0.269 OA
ATOM      7  H   UNL A   1      38.394  30.488  31.272  1.00  0.00     0.163 HD
BRANCH   5   8
ATOM      8  C   UNL A   1      36.266  30.568  28.677  1.00  0.00     0.058 A 
ATOM      9  C   UNL A   1      34.164  30.045  26.930  1.00  0.00     0.128 A 
ATOM     10  C   UNL A   1      35.215  29.145  27.052  1.00  0.00     0.048 A 
ATOM     11  N   UNL A   1      34.169  31.212  27.601  1.00  0.00    -0.239 NA
ATOM     12  C   UNL A   1      36.295  29.434  27.879  1.00  0.00     0.019 A 
ATOM     13  C   UNL A   1      35.193  31.432  28.473  1.00  0.00     0.127 A 
BRANCH   9  14
ATOM     14  N   UNL A   1      33.145  29.737  26.074  1.00  0.00    -0.356 N 
ATOM     15  N   UNL A   1      31.701  26.042  24.335  1.00  0.00    -0.342 N 
ATOM     16  C   UNL A   1      31.660  26.086  22.880  1.00  0.00     0.119 C 
ATOM     17  C   UNL A   1      31.305  27.192  25.027  1.00  0.00     0.230 C 
ATOM     18  C   UNL A   1      32.483  27.252  22.363  1.00  0.00     0.023 C 
ATOM     19  C   UNL A   1      31.880  28.509  24.481  1.00  0.00     0.069 C 
ATOM     20  O   UNL A   1      30.656  27.136  26.070  1.00  0.00    -0.274 OA
ATOM     21  C   UNL A   1      31.924  28.542  22.945  1.00  0.00     0.021 C 
ATOM     22  C   UNL A   1      31.107  29.730  25.026  1.00  0.00     0.040 C 
ATOM     23  C   UNL A   1      33.293  28.667  25.096  1.00  0.00     0.135 C 
ATOM     24  C   UNL A   1      31.763  30.024  26.374  1.00  0.00     0.119 C 
BRANCH  15  25
ATOM     25  C   UNL A   1      31.621  24.771  25.053  1.00  0.00     0.119 C 
BRANCH  25  26
ATOM     26  C   UNL A   1      32.759  24.454  26.027  1.00  0.00     0.018 C 
ATOM     27  C   UNL A   1      34.129  24.940  25.575  1.00  0.00     0.006 C 
ENDBRANCH  25  26
ENDBRANCH  15  25
ENDBRANCH   9  14
ENDBRANCH   5   8
ENDBRANCH   3   4
ENDBRANCH   2   3
ENDBRANCH   1   2
BRANCH   1  28
ATOM     28  C   UNL A   1      40.163  26.313  29.127  1.00  0.00     0.002 C 
BRANCH  28  29
ATOM     29  C   UNL A   1      39.811  25.381  27.964  1.00  0.00     0.021 C 
BRANCH  29  30
ATOM     30  C   UNL A   1      40.005  26.009  26.588  1.00  0.00     0.116 C 
BRANCH  30  31
ATOM     31  N   UNL A   1      41.171  25.456  25.914  1.00  0.00    -0.352 N 
ATOM     32  C   UNL A   1      42.381  26.048  25.649  1.00  0.00     0.251 C 
ATOM     33  H   UNL A   1      41.079  24.526  25.605  1.00  0.00     0.163 HD
ATOM     34  O   UNL A   1      43.154  25.537  24.848  1.00  0.00    -0.269 OA
BRANCH  32  35
ATOM     35  C   UNL A   1      42.738  27.308  26.333  1.00  0.00     0.039 A 
ATOM     36  C   UNL A   1      42.201  28.510  25.871  1.00  0.00     0.014 A 
ATOM     37  C   UNL A   1      43.608  27.296  27.428  1.00  0.00     0.014 A 
ATOM     38  C   UNL A   1      42.495  29.699  26.542  1.00  0.00     0.010 A 
ATOM     39  C   UNL A   1      43.837  28.468  28.140  1.00  0.00     0.010 A 
ATOM     40  C   UNL A   1      43.290  29.682  27.701  1.00  0.00    -0.014 A 
BRANCH  40  41
ATOM     41  C   UNL A   1      43.546  30.922  28.476  1.00  0.00     0.031 A 
ATOM     42  C   UNL A   1      42.622  31.323  29.594  1.00  0.00     0.074 A 
ATOM     43  C   UNL A   1      44.561  31.731  28.114  1.00  0.00     0.049 A 
ATOM     44  N   UNL A   1      42.648  32.398  30.338  1.00  0.00    -0.248 NA
ATOM     45  C   UNL A   1      41.509  30.409  29.900  1.00  0.00     0.031 C 
ATOM     46  C   UNL A   1      45.476  31.490  26.996  1.00  0.00     0.029 A 
ATOM     47  N   UNL A   1      44.974  32.935  28.626  1.00  0.00    -0.354 N 
ATOM     48  C   UNL A   1      41.543  32.308  31.173  1.00  0.00     0.074 A 
ATOM     49  C   UNL A   1      40.844  31.092  30.820  1.00  0.00     0.031 C 
ATOM     50  C   UNL A   1      46.343  32.512  26.908  1.00  0.00     0.029 A 
ATOM     51  C   UNL A   1      46.024  33.496  27.938  1.00  0.00     0.049 A 
ATOM     52  H   UNL A   1      44.558  33.358  29.413  1.00  0.00     0.167 HD
ATOM     53  C   UNL A   1      41.158  33.146  32.166  1.00  0.00     0.034 A 
ATOM     54  C   UNL A   1      46.649  34.678  28.104  1.00  0.00     0.034 A 
ATOM     55  C   UNL A   1      41.873  34.339  32.532  1.00  0.00     0.049 A 
ATOM     56  C   UNL A   1      46.219  35.579  29.229  1.00  0.00     0.074 A 
ATOM     57  C   UNL A   1      41.612  35.212  33.574  1.00  0.00     0.029 A 
ATOM     58  N   UNL A   1      42.981  34.835  31.863  1.00  0.00    -0.354 N 
ATOM     59  N   UNL A   1      45.264  35.402  30.108  1.00  0.00    -0.248 NA
ATOM     60  C   UNL A   1      46.974  36.828  29.406  1.00  0.00     0.031 C 
ATOM     61  C   UNL A   1      42.544  36.254  33.514  1.00  0.00     0.029 A 
ATOM     62  C   UNL A   1      43.408  36.009  32.459  1.00  0.00     0.049 A 
ATOM     63  H   UNL A   1      43.403  34.414  31.079  1.00  0.00     0.167 HD
ATOM     64  C   UNL A   1      45.324  36.495  30.964  1.00  0.00     0.074 A 
ATOM     65  C   UNL A   1      46.426  37.320  30.508  1.00  0.00     0.031 C 
ATOM     66  C   UNL A   1      44.533  36.797  32.023  1.00  0.00     0.034 A 
BRANCH  53  67
ATOM     67  C   UNL A   1      39.929  32.777  32.956  1.00  0.00     0.023 A 
ATOM     68  C   UNL A   1      40.032  31.849  34.013  1.00  0.00     0.012 A 
ATOM     69  C   UNL A   1      38.686  33.386  32.693  1.00  0.00     0.148 A 
ATOM     70  C   UNL A   1      38.912  31.502  34.769  1.00  0.00     0.002 A 
ATOM     71  C   UNL A   1      37.586  33.073  33.481  1.00  0.00     0.091 A 
ATOM     72  F   UNL A   1      38.602  34.252  31.673  1.00  0.00    -0.205 F 
ATOM     73  C   UNL A   1      37.693  32.122  34.510  1.00  0.00     0.022 A 
BRANCH  71  74
ATOM     74  S   UNL A   1      35.990  33.874  33.283  1.00  0.00     0.127 S 
ATOM     75  O   UNL A   1      36.360  35.288  33.357  1.00  0.00    -0.237 OA
ATOM     76  O   UNL A   1      35.581  33.420  31.954  1.00  0.00    -0.237 OA
ATOM     77  O   UNL A   1      35.158  33.389  34.376  1.00  0.00    -0.744 OA
ENDBRANCH  71  74
ENDBRANCH  53  67
BRANCH  54  78
ATOM     78  C   UNL A   1      47.781  35.051  27.210  1.00  0.00     0.023 A 
ATOM     79  C   UNL A   1      47.522  35.744  26.011  1.00  0.00     0.012 A 
ATOM     80  C   UNL A   1      49.113  34.751  27.555  1.00  0.00     0.148 A 
ATOM     81  C   UNL A   1      48.565  36.100  25.156  1.00  0.00     0.002 A 
ATOM     82  C   UNL A   1      50.152  35.160  26.728  1.00  0.00     0.091 A 
ATOM     83  F   UNL A   1      49.337  34.084  28.697  1.00  0.00    -0.205 F 
ATOM     84  C   UNL A   1      49.880  35.817  25.519  1.00  0.00     0.022 A 
BRANCH  82  85
ATOM     85  S   UNL A   1      51.879  34.957  27.179  1.00  0.00     0.127 S 
ATOM     86  O   UNL A   1      51.944  35.677  28.448  1.00  0.00    -0.237 OA
ATOM     87  O   UNL A   1      51.994  33.503  27.287  1.00  0.00    -0.237 OA
ATOM     88  O   UNL A   1      52.644  35.539  26.085  1.00  0.00    -0.744 OA
ENDBRANCH  82  85
ENDBRANCH  54  78
BRANCH  66  89
ATOM     89  C   UNL A   1      44.844  38.054  32.793  1.00  0.00     0.023 A 
ATOM     90  C   UNL A   1      45.812  38.032  33.817  1.00  0.00     0.012 A 
ATOM     91  C   UNL A   1      44.230  39.274  32.449  1.00  0.00     0.148 A 
ATOM     92  C   UNL A   1      46.139  39.197  34.508  1.00  0.00     0.002 A 
ATOM     93  C   UNL A   1      44.599  40.441  33.107  1.00  0.00     0.091 A 
ATOM     94  F   UNL A   1      43.299  39.271  31.483  1.00  0.00    -0.205 F 
ATOM     95  C   UNL A   1      45.542  40.402  34.145  1.00  0.00     0.022 A 
BRANCH  93  96
ATOM     96  S   UNL A   1      43.957  42.054  32.644  1.00  0.00     0.127 S 
ATOM     97  O   UNL A   1      44.346  42.138  31.237  1.00  0.00    -0.237 OA
ATOM     98  O   UNL A   1      42.521  41.891  32.872  1.00  0.00    -0.237 OA
ATOM     99  O   UNL A   1      44.606  43.014  33.528  1.00  0.00    -0.744 OA
ENDBRANCH  93  96
ENDBRANCH  66  89
ENDBRANCH  40  41
ENDBRANCH  32  35
ENDBRANCH  30  31
ENDBRANCH  29  30
ENDBRANCH  28  29
ENDBRANCH   1  28
TORSDOF 19
ENDMDL
