MODEL 1
REMARK VINA RESULT:     -10.3      0.000      0.000
REMARK SMILES CC(C)[NH2+][C@]1(C(=O)NCCCCCCNC(=O)c2ccc(-c3c4nc(c(-c5cccc(S(=O)(=O)[O-])c5F)c5ccc([nH]5)c(-c5cccc(S(=O)(=O)[O-])c5F)c5nc(c(-c6cccc(S(=O)(=O)[O-])c6F)c6ccc3[nH]6)C=C5)C=C4)cc2)CC[C@@H]([N@@H+](C)[C@@H](C)C(C)C)C1
REMARK SMILES IDX 11 1 10 2 9 3 8 4 6 5 7 6 5 8 81 9 91 10 82 11 83 12 4 13
REMARK SMILES IDX 2 16 1 17 3 18 84 19 85 20 86 22 87 23 88 24 89 25 90 26
REMARK SMILES IDX 12 27 13 28 14 29 15 30 16 31 17 33 18 34 19 35 80 36 20 37
REMARK SMILES IDX 79 38 21 39 22 40 23 41 73 42 24 43 78 44 72 45 74 46 25 47
REMARK SMILES IDX 77 48 71 49 70 50 26 52 58 53 38 54 57 55 39 56 42 57 56 58
REMARK SMILES IDX 75 59 40 60 41 61 55 63 76 64 43 65 27 66 28 67 36 68 29 69
REMARK SMILES IDX 31 70 37 71 30 72 32 73 33 74 34 75 35 76 59 77 60 78 68 79
REMARK SMILES IDX 61 80 63 81 69 82 62 83 64 84 65 85 66 86 67 87 44 88 45 89
REMARK SMILES IDX 53 90 46 91 48 92 54 93 47 94 49 95 50 96 51 97 52 98
REMARK H PARENT 8 7 4 14 4 15 84 21 15 32 74 51 42 62
REMARK Flexibility Score: inf
ROOT
ATOM      1  C   UNL A   1      35.398  30.825  27.534  1.00  0.00     0.002 C 
ENDROOT
BRANCH   1   2
ATOM      2  C   UNL A   1      35.338  29.298  27.547  1.00  0.00     0.021 C 
BRANCH   2   3
ATOM      3  C   UNL A   1      34.221  28.701  26.700  1.00  0.00     0.116 C 
BRANCH   3   4
ATOM      4  N   UNL A   1      32.986  28.565  27.446  1.00  0.00    -0.351 N 
ATOM      5  C   UNL A   1      31.890  27.773  27.236  1.00  0.00     0.281 C 
ATOM      6  O   UNL A   1      30.971  27.897  28.052  1.00  0.00    -0.268 OA
ATOM      7  H   UNL A   1      32.925  29.143  28.240  1.00  0.00     0.163 HD
BRANCH   5   8
ATOM      8  C   UNL A   1      31.813  26.791  26.001  1.00  0.00     0.181 C 
ATOM      9  C   UNL A   1      30.511  25.970  26.108  1.00  0.00     0.085 C 
ATOM     10  C   UNL A   1      31.585  27.617  24.709  1.00  0.00     0.144 C 
ATOM     11  C   UNL A   1      30.027  25.704  24.702  1.00  0.00     0.072 C 
ATOM     12  C   UNL A   1      30.526  26.876  23.863  1.00  0.00     0.191 C 
BRANCH   8  13
ATOM     13  N   UNL A   1      33.056  25.995  26.043  1.00  0.00    -0.331 N 
ATOM     14  H   UNL A   1      33.761  26.559  25.566  1.00  0.00     0.347 HD
ATOM     15  H   UNL A   1      33.128  25.800  27.041  1.00  0.00     0.347 HD
BRANCH  13  16
ATOM     16  C   UNL A   1      33.186  24.655  25.490  1.00  0.00     0.176 C 
ATOM     17  C   UNL A   1      34.563  24.601  24.812  1.00  0.00     0.075 C 
ATOM     18  C   UNL A   1      33.112  23.545  26.535  1.00  0.00     0.075 C 
ENDBRANCH  13  16
ENDBRANCH   8  13
BRANCH  12  19
ATOM     19  N   UNL A   1      29.505  27.684  23.162  1.00  0.00    -0.332 N 
ATOM     20  C   UNL A   1      28.168  27.317  23.657  1.00  0.00     0.333 C 
ATOM     21  H   UNL A   1      29.677  27.420  22.192  1.00  0.00     0.348 HD
BRANCH  19  22
ATOM     22  C   UNL A   1      29.639  29.166  23.026  1.00  0.00     0.183 C 
ATOM     23  C   UNL A   1      30.702  29.665  22.032  1.00  0.00     0.075 C 
BRANCH  22  24
ATOM     24  C   UNL A   1      28.288  29.930  22.850  1.00  0.00     0.041 C 
ATOM     25  C   UNL A   1      28.276  31.224  23.680  1.00  0.00     0.013 C 
ATOM     26  C   UNL A   1      27.964  30.292  21.394  1.00  0.00     0.013 C 
ENDBRANCH  22  24
ENDBRANCH  19  22
ENDBRANCH  12  19
ENDBRANCH   5   8
ENDBRANCH   3   4
ENDBRANCH   2   3
ENDBRANCH   1   2
BRANCH   1  27
ATOM     27  C   UNL A   1      34.464  31.525  28.528  1.00  0.00     0.002 C 
BRANCH  27  28
ATOM     28  C   UNL A   1      33.259  32.239  27.911  1.00  0.00     0.021 C 
BRANCH  28  29
ATOM     29  C   UNL A   1      33.532  33.649  27.400  1.00  0.00     0.116 C 
BRANCH  29  30
ATOM     30  N   UNL A   1      32.923  34.668  28.237  1.00  0.00    -0.352 N 
ATOM     31  C   UNL A   1      33.199  35.004  29.539  1.00  0.00     0.251 C 
ATOM     32  H   UNL A   1      32.208  35.192  27.809  1.00  0.00     0.163 HD
ATOM     33  O   UNL A   1      32.461  35.774  30.142  1.00  0.00    -0.269 OA
BRANCH  31  34
ATOM     34  C   UNL A   1      34.376  34.418  30.217  1.00  0.00     0.039 A 
ATOM     35  C   UNL A   1      34.174  33.621  31.346  1.00  0.00     0.014 A 
ATOM     36  C   UNL A   1      35.671  34.652  29.745  1.00  0.00     0.014 A 
ATOM     37  C   UNL A   1      35.267  33.015  31.969  1.00  0.00     0.010 A 
ATOM     38  C   UNL A   1      36.749  33.985  30.319  1.00  0.00     0.010 A 
ATOM     39  C   UNL A   1      36.561  33.165  31.442  1.00  0.00    -0.014 A 
BRANCH  39  40
ATOM     40  C   UNL A   1      37.721  32.458  32.044  1.00  0.00     0.031 A 
ATOM     41  C   UNL A   1      38.307  32.924  33.349  1.00  0.00     0.074 A 
ATOM     42  C   UNL A   1      38.301  31.443  31.372  1.00  0.00     0.049 A 
ATOM     43  N   UNL A   1      39.340  32.458  34.001  1.00  0.00    -0.248 NA
ATOM     44  C   UNL A   1      37.667  34.082  33.994  1.00  0.00     0.031 C 
ATOM     45  C   UNL A   1      37.881  30.952  30.058  1.00  0.00     0.029 A 
ATOM     46  N   UNL A   1      39.387  30.663  31.686  1.00  0.00    -0.354 N 
ATOM     47  C   UNL A   1      39.500  33.285  35.106  1.00  0.00     0.074 A 
ATOM     48  C   UNL A   1      38.473  34.302  35.021  1.00  0.00     0.031 C 
ATOM     49  C   UNL A   1      38.696  29.955  29.679  1.00  0.00     0.029 A 
ATOM     50  C   UNL A   1      39.717  29.759  30.704  1.00  0.00     0.049 A 
ATOM     51  H   UNL A   1      39.881  30.744  32.533  1.00  0.00     0.167 HD
ATOM     52  C   UNL A   1      40.401  33.195  36.112  1.00  0.00     0.034 A 
ATOM     53  C   UNL A   1      40.736  28.880  30.627  1.00  0.00     0.034 A 
ATOM     54  C   UNL A   1      41.397  32.162  36.211  1.00  0.00     0.049 A 
ATOM     55  C   UNL A   1      41.699  28.771  31.776  1.00  0.00     0.074 A 
ATOM     56  C   UNL A   1      42.287  31.923  37.244  1.00  0.00     0.029 A 
ATOM     57  N   UNL A   1      41.650  31.208  35.238  1.00  0.00    -0.354 N 
ATOM     58  N   UNL A   1      41.727  29.454  32.896  1.00  0.00    -0.248 NA
ATOM     59  C   UNL A   1      42.749  27.748  31.672  1.00  0.00     0.031 C 
ATOM     60  C   UNL A   1      43.107  30.851  36.875  1.00  0.00     0.029 A 
ATOM     61  C   UNL A   1      42.696  30.393  35.633  1.00  0.00     0.049 A 
ATOM     62  H   UNL A   1      41.156  31.123  34.390  1.00  0.00     0.167 HD
ATOM     63  C   UNL A   1      42.772  28.922  33.642  1.00  0.00     0.074 A 
ATOM     64  C   UNL A   1      43.339  27.846  32.856  1.00  0.00     0.031 C 
ATOM     65  C   UNL A   1      43.228  29.298  34.862  1.00  0.00     0.034 A 
BRANCH  52  66
ATOM     66  C   UNL A   1      40.335  34.227  37.209  1.00  0.00     0.023 A 
ATOM     67  C   UNL A   1      40.850  35.522  36.988  1.00  0.00     0.012 A 
ATOM     68  C   UNL A   1      39.713  33.933  38.438  1.00  0.00     0.148 A 
ATOM     69  C   UNL A   1      40.783  36.493  37.986  1.00  0.00     0.002 A 
ATOM     70  C   UNL A   1      39.605  34.922  39.410  1.00  0.00     0.091 A 
ATOM     71  F   UNL A   1      39.247  32.692  38.639  1.00  0.00    -0.205 F 
ATOM     72  C   UNL A   1      40.152  36.197  39.191  1.00  0.00     0.022 A 
BRANCH  70  73
ATOM     73  S   UNL A   1      38.738  34.665  40.961  1.00  0.00     0.127 S 
ATOM     74  O   UNL A   1      37.552  33.933  40.517  1.00  0.00    -0.237 OA
ATOM     75  O   UNL A   1      39.698  33.865  41.721  1.00  0.00    -0.237 OA
ATOM     76  O   UNL A   1      38.486  35.991  41.506  1.00  0.00    -0.744 OA
ENDBRANCH  70  73
ENDBRANCH  52  66
BRANCH  53  77
ATOM     77  C   UNL A   1      40.867  28.002  29.430  1.00  0.00     0.023 A 
ATOM     78  C   UNL A   1      40.171  26.780  29.381  1.00  0.00     0.012 A 
ATOM     79  C   UNL A   1      41.651  28.392  28.326  1.00  0.00     0.148 A 
ATOM     80  C   UNL A   1      40.279  25.945  28.268  1.00  0.00     0.002 A 
ATOM     81  C   UNL A   1      41.707  27.585  27.197  1.00  0.00     0.091 A 
ATOM     82  F   UNL A   1      42.311  29.557  28.397  1.00  0.00    -0.205 F 
ATOM     83  C   UNL A   1      41.036  26.352  27.172  1.00  0.00     0.022 A 
BRANCH  81  84
ATOM     84  S   UNL A   1      42.545  28.091  25.692  1.00  0.00     0.127 S 
ATOM     85  O   UNL A   1      43.893  28.371  26.178  1.00  0.00    -0.237 OA
ATOM     86  O   UNL A   1      42.425  26.890  24.863  1.00  0.00    -0.237 OA
ATOM     87  O   UNL A   1      41.802  29.240  25.192  1.00  0.00    -0.744 OA
ENDBRANCH  81  84
ENDBRANCH  53  77
BRANCH  65  88
ATOM     88  C   UNL A   1      44.375  28.519  35.452  1.00  0.00     0.023 A 
ATOM     89  C   UNL A   1      45.699  28.815  35.074  1.00  0.00     0.012 A 
ATOM     90  C   UNL A   1      44.141  27.540  36.439  1.00  0.00     0.148 A 
ATOM     91  C   UNL A   1      46.770  28.125  35.641  1.00  0.00     0.002 A 
ATOM     92  C   UNL A   1      45.215  26.895  37.039  1.00  0.00     0.091 A 
ATOM     93  F   UNL A   1      42.874  27.260  36.774  1.00  0.00    -0.205 F 
ATOM     94  C   UNL A   1      46.530  27.175  36.632  1.00  0.00     0.022 A 
BRANCH  92  95
ATOM     95  S   UNL A   1      45.008  25.731  38.392  1.00  0.00     0.127 S 
ATOM     96  O   UNL A   1      44.192  26.505  39.327  1.00  0.00    -0.237 OA
ATOM     97  O   UNL A   1      44.305  24.624  37.742  1.00  0.00    -0.237 OA
ATOM     98  O   UNL A   1      46.350  25.407  38.854  1.00  0.00    -0.744 OA
ENDBRANCH  92  95
ENDBRANCH  65  88
ENDBRANCH  39  40
ENDBRANCH  31  34
ENDBRANCH  29  30
ENDBRANCH  28  29
ENDBRANCH  27  28
ENDBRANCH   1  27
TORSDOF 21
ENDMDL
MODEL 2
REMARK VINA RESULT:     -10.0      0.632      7.699
REMARK SMILES CC(C)[NH2+][C@]1(C(=O)NCCCCCCNC(=O)c2ccc(-c3c4nc(c(-c5cccc(S(=O)(=O)[O-])c5F)c5ccc([nH]5)c(-c5cccc(S(=O)(=O)[O-])c5F)c5nc(c(-c6cccc(S(=O)(=O)[O-])c6F)c6ccc3[nH]6)C=C5)C=C4)cc2)CC[C@@H]([N@@H+](C)[C@@H](C)C(C)C)C1
REMARK SMILES IDX 11 1 10 2 9 3 8 4 6 5 7 6 5 8 81 9 91 10 82 11 83 12 4 13
REMARK SMILES IDX 2 16 1 17 3 18 84 19 85 20 86 22 87 23 88 24 89 25 90 26
REMARK SMILES IDX 12 27 13 28 14 29 15 30 16 31 17 33 18 34 19 35 80 36 20 37
REMARK SMILES IDX 79 38 21 39 22 40 23 41 73 42 24 43 78 44 72 45 74 46 25 47
REMARK SMILES IDX 77 48 71 49 70 50 26 52 58 53 38 54 57 55 39 56 42 57 56 58
REMARK SMILES IDX 75 59 40 60 41 61 55 63 76 64 43 65 27 66 28 67 36 68 29 69
REMARK SMILES IDX 31 70 37 71 30 72 32 73 33 74 34 75 35 76 59 77 60 78 68 79
REMARK SMILES IDX 61 80 63 81 69 82 62 83 64 84 65 85 66 86 67 87 44 88 45 89
REMARK SMILES IDX 53 90 46 91 48 92 54 93 47 94 49 95 50 96 51 97 52 98
REMARK H PARENT 8 7 4 14 4 15 84 21 15 32 74 51 42 62
REMARK Flexibility Score: inf
ROOT
ATOM      1  C   UNL A   1      35.308  30.871  27.554  1.00  0.00     0.002 C 
ENDROOT
BRANCH   1   2
ATOM      2  C   UNL A   1      35.225  29.351  27.425  1.00  0.00     0.021 C 
BRANCH   2   3
ATOM      3  C   UNL A   1      34.069  28.851  26.567  1.00  0.00     0.116 C 
BRANCH   3   4
ATOM      4  N   UNL A   1      32.870  28.627  27.349  1.00  0.00    -0.351 N 
ATOM      5  C   UNL A   1      31.812  27.780  27.152  1.00  0.00     0.281 C 
ATOM      6  O   UNL A   1      30.916  27.831  28.000  1.00  0.00    -0.268 OA
ATOM      7  H   UNL A   1      32.804  29.178  28.161  1.00  0.00     0.163 HD
BRANCH   5   8
ATOM      8  C   UNL A   1      31.747  26.829  25.892  1.00  0.00     0.181 C 
ATOM      9  C   UNL A   1      30.483  25.951  26.005  1.00  0.00     0.085 C 
ATOM     10  C   UNL A   1      31.455  27.679  24.629  1.00  0.00     0.144 C 
ATOM     11  C   UNL A   1      29.978  25.703  24.604  1.00  0.00     0.072 C 
ATOM     12  C   UNL A   1      30.409  26.917  23.787  1.00  0.00     0.191 C 
BRANCH   8  13
ATOM     13  N   UNL A   1      33.023  26.085  25.884  1.00  0.00    -0.331 N 
ATOM     14  H   UNL A   1      33.653  26.612  26.490  1.00  0.00     0.347 HD
ATOM     15  H   UNL A   1      32.704  25.152  26.144  1.00  0.00     0.347 HD
BRANCH  13  16
ATOM     16  C   UNL A   1      33.788  25.791  24.682  1.00  0.00     0.176 C 
ATOM     17  C   UNL A   1      33.201  24.494  24.105  1.00  0.00     0.075 C 
ATOM     18  C   UNL A   1      33.707  26.880  23.616  1.00  0.00     0.075 C 
ENDBRANCH  13  16
ENDBRANCH   8  13
BRANCH  12  19
ATOM     19  N   UNL A   1      29.339  27.700  23.130  1.00  0.00    -0.332 N 
ATOM     20  C   UNL A   1      28.037  27.317  23.699  1.00  0.00     0.333 C 
ATOM     21  H   UNL A   1      29.465  27.428  22.155  1.00  0.00     0.348 HD
BRANCH  19  22
ATOM     22  C   UNL A   1      29.441  29.182  22.971  1.00  0.00     0.183 C 
ATOM     23  C   UNL A   1      30.579  29.693  22.070  1.00  0.00     0.075 C 
BRANCH  22  24
ATOM     24  C   UNL A   1      28.091  29.898  22.650  1.00  0.00     0.041 C 
ATOM     25  C   UNL A   1      27.839  31.061  23.623  1.00  0.00     0.013 C 
ATOM     26  C   UNL A   1      28.003  30.445  21.218  1.00  0.00     0.013 C 
ENDBRANCH  22  24
ENDBRANCH  19  22
ENDBRANCH  12  19
ENDBRANCH   5   8
ENDBRANCH   3   4
ENDBRANCH   2   3
ENDBRANCH   1   2
BRANCH   1  27
ATOM     27  C   UNL A   1      34.343  31.495  28.568  1.00  0.00     0.002 C 
BRANCH  27  28
ATOM     28  C   UNL A   1      33.117  32.191  27.970  1.00  0.00     0.021 C 
BRANCH  28  29
ATOM     29  C   UNL A   1      33.406  33.502  27.247  1.00  0.00     0.116 C 
BRANCH  29  30
ATOM     30  N   UNL A   1      32.870  34.653  27.953  1.00  0.00    -0.352 N 
ATOM     31  C   UNL A   1      33.206  35.149  29.188  1.00  0.00     0.251 C 
ATOM     32  H   UNL A   1      32.165  35.148  27.478  1.00  0.00     0.163 HD
ATOM     33  O   UNL A   1      32.524  36.028  29.701  1.00  0.00    -0.269 OA
BRANCH  31  34
ATOM     34  C   UNL A   1      34.380  34.605  29.906  1.00  0.00     0.039 A 
ATOM     35  C   UNL A   1      34.181  33.961  31.129  1.00  0.00     0.014 A 
ATOM     36  C   UNL A   1      35.669  34.728  29.379  1.00  0.00     0.014 A 
ATOM     37  C   UNL A   1      35.268  33.394  31.797  1.00  0.00     0.010 A 
ATOM     38  C   UNL A   1      36.737  34.094  30.006  1.00  0.00     0.010 A 
ATOM     39  C   UNL A   1      36.551  33.427  31.226  1.00  0.00    -0.014 A 
BRANCH  39  40
ATOM     40  C   UNL A   1      37.700  32.754  31.883  1.00  0.00     0.031 A 
ATOM     41  C   UNL A   1      38.397  31.601  31.212  1.00  0.00     0.074 A 
ATOM     42  C   UNL A   1      38.066  33.126  33.127  1.00  0.00     0.049 A 
ATOM     43  N   UNL A   1      39.387  30.868  31.651  1.00  0.00    -0.248 NA
ATOM     44  C   UNL A   1      37.900  31.200  29.886  1.00  0.00     0.031 C 
ATOM     45  C   UNL A   1      37.417  34.172  33.919  1.00  0.00     0.029 A 
ATOM     46  N   UNL A   1      39.053  32.649  33.953  1.00  0.00    -0.354 N 
ATOM     47  C   UNL A   1      39.605  29.899  30.680  1.00  0.00     0.074 A 
ATOM     48  C   UNL A   1      38.624  30.119  29.640  1.00  0.00     0.031 C 
ATOM     49  C   UNL A   1      38.021  34.259  35.114  1.00  0.00     0.029 A 
ATOM     50  C   UNL A   1      39.077  33.253  35.189  1.00  0.00     0.049 A 
ATOM     51  H   UNL A   1      39.684  31.942  33.687  1.00  0.00     0.167 HD
ATOM     52  C   UNL A   1      40.550  28.929  30.644  1.00  0.00     0.034 A 
ATOM     53  C   UNL A   1      39.849  33.017  36.267  1.00  0.00     0.034 A 
ATOM     54  C   UNL A   1      41.545  28.736  31.663  1.00  0.00     0.049 A 
ATOM     55  C   UNL A   1      40.918  31.961  36.186  1.00  0.00     0.074 A 
ATOM     56  C   UNL A   1      42.609  27.850  31.669  1.00  0.00     0.029 A 
ATOM     57  N   UNL A   1      41.593  29.423  32.866  1.00  0.00    -0.354 N 
ATOM     58  N   UNL A   1      41.219  31.168  35.186  1.00  0.00    -0.248 NA
ATOM     59  C   UNL A   1      41.779  31.793  37.365  1.00  0.00     0.031 C 
ATOM     60  C   UNL A   1      43.273  27.973  32.894  1.00  0.00     0.029 A 
ATOM     61  C   UNL A   1      42.652  28.968  33.632  1.00  0.00     0.049 A 
ATOM     62  H   UNL A   1      40.965  30.133  33.135  1.00  0.00     0.167 HD
ATOM     63  C   UNL A   1      42.322  30.431  35.602  1.00  0.00     0.074 A 
ATOM     64  C   UNL A   1      42.649  30.889  36.937  1.00  0.00     0.031 C 
ATOM     65  C   UNL A   1      42.995  29.457  34.943  1.00  0.00     0.034 A 
BRANCH  52  66
ATOM     66  C   UNL A   1      40.572  28.014  29.445  1.00  0.00     0.023 A 
ATOM     67  C   UNL A   1      39.677  26.927  29.374  1.00  0.00     0.012 A 
ATOM     68  C   UNL A   1      41.439  28.265  28.364  1.00  0.00     0.148 A 
ATOM     69  C   UNL A   1      39.674  26.080  28.266  1.00  0.00     0.002 A 
ATOM     70  C   UNL A   1      41.396  27.447  27.241  1.00  0.00     0.091 A 
ATOM     71  F   UNL A   1      42.298  29.291  28.457  1.00  0.00    -0.205 F 
ATOM     72  C   UNL A   1      40.524  26.347  27.196  1.00  0.00     0.022 A 
BRANCH  70  73
ATOM     73  S   UNL A   1      42.390  27.756  25.778  1.00  0.00     0.127 S 
ATOM     74  O   UNL A   1      42.042  26.612  24.938  1.00  0.00    -0.237 OA
ATOM     75  O   UNL A   1      41.861  29.038  25.312  1.00  0.00    -0.237 OA
ATOM     76  O   UNL A   1      43.773  27.799  26.233  1.00  0.00    -0.744 OA
ENDBRANCH  70  73
ENDBRANCH  52  66
BRANCH  53  77
ATOM     77  C   UNL A   1      39.664  33.829  37.502  1.00  0.00     0.023 A 
ATOM     78  C   UNL A   1      40.245  35.109  37.590  1.00  0.00     0.012 A 
ATOM     79  C   UNL A   1      38.886  33.351  38.575  1.00  0.00     0.148 A 
ATOM     80  C   UNL A   1      40.081  35.886  38.737  1.00  0.00     0.002 A 
ATOM     81  C   UNL A   1      38.678  34.153  39.690  1.00  0.00     0.091 A 
ATOM     82  F   UNL A   1      38.349  32.127  38.474  1.00  0.00    -0.205 F 
ATOM     83  C   UNL A   1      39.289  35.414  39.782  1.00  0.00     0.022 A 
BRANCH  81  84
ATOM     84  S   UNL A   1      37.565  33.686  41.020  1.00  0.00     0.127 S 
ATOM     85  O   UNL A   1      36.439  33.120  40.283  1.00  0.00    -0.237 OA
ATOM     86  O   UNL A   1      38.372  32.713  41.758  1.00  0.00    -0.237 OA
ATOM     87  O   UNL A   1      37.288  34.913  41.754  1.00  0.00    -0.744 OA
ENDBRANCH  81  84
ENDBRANCH  53  77
BRANCH  65  88
ATOM     88  C   UNL A   1      44.184  28.837  35.632  1.00  0.00     0.023 A 
ATOM     89  C   UNL A   1      45.474  29.363  35.426  1.00  0.00     0.012 A 
ATOM     90  C   UNL A   1      44.008  27.775  36.542  1.00  0.00     0.148 A 
ATOM     91  C   UNL A   1      46.575  28.820  36.086  1.00  0.00     0.002 A 
ATOM     92  C   UNL A   1      45.101  27.275  37.237  1.00  0.00     0.091 A 
ATOM     93  F   UNL A   1      42.775  27.276  36.712  1.00  0.00    -0.205 F 
ATOM     94  C   UNL A   1      46.388  27.786  37.001  1.00  0.00     0.022 A 
BRANCH  92  95
ATOM     95  S   UNL A   1      44.942  26.013  38.506  1.00  0.00     0.127 S 
ATOM     96  O   UNL A   1      46.330  25.839  38.928  1.00  0.00    -0.237 OA
ATOM     97  O   UNL A   1      44.083  26.672  39.491  1.00  0.00    -0.237 OA
ATOM     98  O   UNL A   1      44.338  24.859  37.854  1.00  0.00    -0.744 OA
ENDBRANCH  92  95
ENDBRANCH  65  88
ENDBRANCH  39  40
ENDBRANCH  31  34
ENDBRANCH  29  30
ENDBRANCH  28  29
ENDBRANCH  27  28
ENDBRANCH   1  27
TORSDOF 21
ENDMDL
MODEL 3
REMARK VINA RESULT:      -9.9      1.761      3.393
REMARK SMILES CC(C)[NH2+][C@]1(C(=O)NCCCCCCNC(=O)c2ccc(-c3c4nc(c(-c5cccc(S(=O)(=O)[O-])c5F)c5ccc([nH]5)c(-c5cccc(S(=O)(=O)[O-])c5F)c5nc(c(-c6cccc(S(=O)(=O)[O-])c6F)c6ccc3[nH]6)C=C5)C=C4)cc2)CC[C@@H]([N@@H+](C)[C@@H](C)C(C)C)C1
REMARK SMILES IDX 11 1 10 2 9 3 8 4 6 5 7 6 5 8 81 9 91 10 82 11 83 12 4 13
REMARK SMILES IDX 2 16 1 17 3 18 84 19 85 20 86 22 87 23 88 24 89 25 90 26
REMARK SMILES IDX 12 27 13 28 14 29 15 30 16 31 17 33 18 34 19 35 80 36 20 37
REMARK SMILES IDX 79 38 21 39 22 40 23 41 73 42 24 43 78 44 72 45 74 46 25 47
REMARK SMILES IDX 77 48 71 49 70 50 26 52 58 53 38 54 57 55 39 56 42 57 56 58
REMARK SMILES IDX 75 59 40 60 41 61 55 63 76 64 43 65 27 66 28 67 36 68 29 69
REMARK SMILES IDX 31 70 37 71 30 72 32 73 33 74 34 75 35 76 59 77 60 78 68 79
REMARK SMILES IDX 61 80 63 81 69 82 62 83 64 84 65 85 66 86 67 87 44 88 45 89
REMARK SMILES IDX 53 90 46 91 48 92 54 93 47 94 49 95 50 96 51 97 52 98
REMARK H PARENT 8 7 4 14 4 15 84 21 15 32 74 51 42 62
REMARK Flexibility Score: inf
ROOT
ATOM      1  C   UNL A   1      35.448  31.120  27.754  1.00  0.00     0.002 C 
ENDROOT
BRANCH   1   2
ATOM      2  C   UNL A   1      35.039  29.687  27.416  1.00  0.00     0.021 C 
BRANCH   2   3
ATOM      3  C   UNL A   1      33.749  29.569  26.615  1.00  0.00     0.116 C 
BRANCH   3   4
ATOM      4  N   UNL A   1      32.668  29.012  27.403  1.00  0.00    -0.351 N 
ATOM      5  C   UNL A   1      31.789  27.997  27.136  1.00  0.00     0.281 C 
ATOM      6  O   UNL A   1      30.954  27.762  28.015  1.00  0.00    -0.268 OA
ATOM      7  H   UNL A   1      32.544  29.438  28.281  1.00  0.00     0.163 HD
BRANCH   5   8
ATOM      8  C   UNL A   1      31.838  27.210  25.766  1.00  0.00     0.181 C 
ATOM      9  C   UNL A   1      33.290  26.753  25.515  1.00  0.00     0.085 C 
ATOM     10  C   UNL A   1      31.085  25.865  25.928  1.00  0.00     0.144 C 
ATOM     11  C   UNL A   1      33.228  25.431  24.787  1.00  0.00     0.072 C 
ATOM     12  C   UNL A   1      31.926  24.773  25.232  1.00  0.00     0.191 C 
BRANCH   8  13
ATOM     13  N   UNL A   1      31.291  28.133  24.752  1.00  0.00    -0.331 N 
ATOM     14  H   UNL A   1      30.516  28.617  25.208  1.00  0.00     0.347 HD
ATOM     15  H   UNL A   1      32.133  28.637  24.476  1.00  0.00     0.347 HD
BRANCH  13  16
ATOM     16  C   UNL A   1      30.782  27.712  23.456  1.00  0.00     0.176 C 
ATOM     17  C   UNL A   1      29.290  27.408  23.657  1.00  0.00     0.075 C 
ATOM     18  C   UNL A   1      30.921  28.769  22.364  1.00  0.00     0.075 C 
ENDBRANCH  13  16
ENDBRANCH   8  13
BRANCH  12  19
ATOM     19  N   UNL A   1      32.030  23.450  25.885  1.00  0.00    -0.332 N 
ATOM     20  C   UNL A   1      30.680  22.907  26.103  1.00  0.00     0.333 C 
ATOM     21  H   UNL A   1      32.525  23.693  26.743  1.00  0.00     0.348 HD
BRANCH  19  22
ATOM     22  C   UNL A   1      32.957  22.397  25.373  1.00  0.00     0.183 C 
ATOM     23  C   UNL A   1      33.228  22.406  23.859  1.00  0.00     0.075 C 
BRANCH  22  24
ATOM     24  C   UNL A   1      34.279  22.238  26.190  1.00  0.00     0.041 C 
ATOM     25  C   UNL A   1      33.981  21.869  27.652  1.00  0.00     0.013 C 
ATOM     26  C   UNL A   1      35.240  21.186  25.617  1.00  0.00     0.013 C 
ENDBRANCH  22  24
ENDBRANCH  19  22
ENDBRANCH  12  19
ENDBRANCH   5   8
ENDBRANCH   3   4
ENDBRANCH   2   3
ENDBRANCH   1   2
BRANCH   1  27
ATOM     27  C   UNL A   1      34.469  31.886  28.650  1.00  0.00     0.002 C 
BRANCH  27  28
ATOM     28  C   UNL A   1      33.638  32.964  27.949  1.00  0.00     0.021 C 
BRANCH  28  29
ATOM     29  C   UNL A   1      34.056  34.400  28.246  1.00  0.00     0.116 C 
BRANCH  29  30
ATOM     30  N   UNL A   1      33.289  34.986  29.331  1.00  0.00    -0.352 N 
ATOM     31  C   UNL A   1      33.454  34.848  30.687  1.00  0.00     0.251 C 
ATOM     32  H   UNL A   1      32.543  35.566  29.054  1.00  0.00     0.163 HD
ATOM     33  O   UNL A   1      32.601  35.277  31.454  1.00  0.00    -0.269 OA
BRANCH  31  34
ATOM     34  C   UNL A   1      34.652  34.161  31.216  1.00  0.00     0.039 A 
ATOM     35  C   UNL A   1      34.480  33.037  32.027  1.00  0.00     0.014 A 
ATOM     36  C   UNL A   1      35.939  34.620  30.917  1.00  0.00     0.014 A 
ATOM     37  C   UNL A   1      35.598  32.342  32.494  1.00  0.00     0.010 A 
ATOM     38  C   UNL A   1      37.049  33.881  31.317  1.00  0.00     0.010 A 
ATOM     39  C   UNL A   1      36.892  32.739  32.116  1.00  0.00    -0.014 A 
BRANCH  39  40
ATOM     40  C   UNL A   1      38.085  31.960  32.535  1.00  0.00     0.031 A 
ATOM     41  C   UNL A   1      38.804  32.291  33.815  1.00  0.00     0.074 A 
ATOM     42  C   UNL A   1      38.574  31.004  31.719  1.00  0.00     0.049 A 
ATOM     43  N   UNL A   1      39.883  31.749  34.318  1.00  0.00    -0.248 NA
ATOM     44  C   UNL A   1      38.257  33.393  34.623  1.00  0.00     0.031 C 
ATOM     45  C   UNL A   1      38.019  30.646  30.411  1.00  0.00     0.029 A 
ATOM     46  N   UNL A   1      39.665  30.181  31.852  1.00  0.00    -0.354 N 
ATOM     47  C   UNL A   1      40.167  32.465  35.474  1.00  0.00     0.074 A 
ATOM     48  C   UNL A   1      39.163  33.501  35.583  1.00  0.00     0.031 C 
ATOM     49  C   UNL A   1      38.770  29.676  29.865  1.00  0.00     0.029 A 
ATOM     50  C   UNL A   1      39.878  29.368  30.763  1.00  0.00     0.049 A 
ATOM     51  H   UNL A   1      40.239  30.173  32.651  1.00  0.00     0.167 HD
ATOM     52  C   UNL A   1      41.157  32.265  36.375  1.00  0.00     0.034 A 
ATOM     53  C   UNL A   1      40.863  28.485  30.507  1.00  0.00     0.034 A 
ATOM     54  C   UNL A   1      42.132  31.213  36.281  1.00  0.00     0.049 A 
ATOM     55  C   UNL A   1      41.928  28.253  31.543  1.00  0.00     0.074 A 
ATOM     56  C   UNL A   1      43.110  30.863  37.196  1.00  0.00     0.029 A 
ATOM     57  N   UNL A   1      42.268  30.351  35.204  1.00  0.00    -0.354 N 
ATOM     58  N   UNL A   1      42.079  28.825  32.713  1.00  0.00    -0.248 NA
ATOM     59  C   UNL A   1      42.937  27.227  31.243  1.00  0.00     0.031 C 
ATOM     60  C   UNL A   1      43.864  29.818  36.651  1.00  0.00     0.029 A 
ATOM     61  C   UNL A   1      43.326  29.486  35.418  1.00  0.00     0.049 A 
ATOM     62  H   UNL A   1      41.694  30.354  34.403  1.00  0.00     0.167 HD
ATOM     63  C   UNL A   1      43.176  28.209  33.302  1.00  0.00     0.074 A 
ATOM     64  C   UNL A   1      43.639  27.203  32.368  1.00  0.00     0.031 C 
ATOM     65  C   UNL A   1      43.755  28.461  34.501  1.00  0.00     0.034 A 
BRANCH  52  66
ATOM     66  C   UNL A   1      41.221  33.191  37.565  1.00  0.00     0.023 A 
ATOM     67  C   UNL A   1      40.429  32.930  38.702  1.00  0.00     0.012 A 
ATOM     68  C   UNL A   1      42.108  34.285  37.578  1.00  0.00     0.148 A 
ATOM     69  C   UNL A   1      40.488  33.766  39.816  1.00  0.00     0.002 A 
ATOM     70  C   UNL A   1      42.197  35.085  38.712  1.00  0.00     0.091 A 
ATOM     71  F   UNL A   1      42.838  34.531  36.481  1.00  0.00    -0.205 F 
ATOM     72  C   UNL A   1      41.378  34.835  39.825  1.00  0.00     0.022 A 
BRANCH  70  73
ATOM     73  S   UNL A   1      43.373  36.435  38.854  1.00  0.00     0.127 S 
ATOM     74  O   UNL A   1      42.999  37.272  37.715  1.00  0.00    -0.237 OA
ATOM     75  O   UNL A   1      43.036  36.998  40.162  1.00  0.00    -0.237 OA
ATOM     76  O   UNL A   1      44.694  35.828  38.776  1.00  0.00    -0.744 OA
ENDBRANCH  70  73
ENDBRANCH  52  66
BRANCH  53  77
ATOM     77  C   UNL A   1      40.858  27.722  29.227  1.00  0.00     0.023 A 
ATOM     78  C   UNL A   1      39.964  26.648  29.057  1.00  0.00     0.012 A 
ATOM     79  C   UNL A   1      41.712  28.081  28.165  1.00  0.00     0.148 A 
ATOM     80  C   UNL A   1      39.942  25.924  27.864  1.00  0.00     0.002 A 
ATOM     81  C   UNL A   1      41.644  27.394  26.960  1.00  0.00     0.091 A 
ATOM     82  F   UNL A   1      42.561  29.102  28.351  1.00  0.00    -0.205 F 
ATOM     83  C   UNL A   1      40.773  26.302  26.813  1.00  0.00     0.022 A 
BRANCH  81  84
ATOM     84  S   UNL A   1      42.577  27.896  25.510  1.00  0.00     0.127 S 
ATOM     85  O   UNL A   1      42.474  26.712  24.662  1.00  0.00    -0.237 OA
ATOM     86  O   UNL A   1      41.811  29.055  25.047  1.00  0.00    -0.237 OA
ATOM     87  O   UNL A   1      43.915  28.216  25.991  1.00  0.00    -0.744 OA
ENDBRANCH  81  84
ENDBRANCH  53  77
BRANCH  65  88
ATOM     88  C   UNL A   1      44.934  27.611  34.903  1.00  0.00     0.023 A 
ATOM     89  C   UNL A   1      46.246  28.065  34.664  1.00  0.00     0.012 A 
ATOM     90  C   UNL A   1      44.737  26.393  35.585  1.00  0.00     0.148 A 
ATOM     91  C   UNL A   1      47.343  27.303  35.064  1.00  0.00     0.002 A 
ATOM     92  C   UNL A   1      45.834  25.666  36.028  1.00  0.00     0.091 A 
ATOM     93  F   UNL A   1      43.482  25.970  35.787  1.00  0.00    -0.205 F 
ATOM     94  C   UNL A   1      47.138  26.112  35.757  1.00  0.00     0.022 A 
BRANCH  92  95
ATOM     95  S   UNL A   1      45.667  24.174  37.014  1.00  0.00     0.127 S 
ATOM     96  O   UNL A   1      45.024  23.263  36.068  1.00  0.00    -0.237 OA
ATOM     97  O   UNL A   1      47.060  23.849  37.321  1.00  0.00    -0.237 OA
ATOM     98  O   UNL A   1      44.864  24.542  38.171  1.00  0.00    -0.744 OA
ENDBRANCH  92  95
ENDBRANCH  65  88
ENDBRANCH  39  40
ENDBRANCH  31  34
ENDBRANCH  29  30
ENDBRANCH  28  29
ENDBRANCH  27  28
ENDBRANCH   1  27
TORSDOF 21
ENDMDL
