MODEL 1
REMARK VINA RESULT:     -10.2      0.000      0.000
REMARK SMILES O=C(NCCCCCCNC(=O)[C@@H]1C[C@@H]2CC(=O)[C@H]1C2)c1ccc(-c2c3nc(c(-c4cccc(S(=O)(=O)[O-])c4F)c4ccc([nH]4)c(-c4cccc(S(=O)(=O)[O-])c4F)c4nc(c(-c5cccc(S(=O)(=O)[O-])c5F)c5ccc2[nH]5)C=C4)C=C3)cc1
REMARK SMILES IDX 5 1 4 2 3 3 1 4 2 5 21 7 22 8 83 9 23 10 82 11 24 12 25 13
REMARK SMILES IDX 26 14 76 15 27 16 81 17 75 18 77 19 28 20 80 21 74 22 73 23
REMARK SMILES IDX 29 25 61 26 41 27 60 28 42 29 45 30 59 31 78 32 43 33 44 34
REMARK SMILES IDX 58 36 79 37 46 38 30 39 31 40 39 41 32 42 34 43 40 44 33 45
REMARK SMILES IDX 35 46 36 47 37 48 38 49 62 50 63 51 71 52 64 53 66 54 72 55
REMARK SMILES IDX 65 56 67 57 68 58 69 59 70 60 47 61 48 62 56 63 49 64 51 65
REMARK SMILES IDX 57 66 50 67 52 68 53 69 54 70 55 71 6 72 7 73 8 74 9 75
REMARK SMILES IDX 10 76 11 77 12 79 13 80 14 81 19 82 15 83 17 84 20 85 16 86
REMARK SMILES IDX 18 87
REMARK H PARENT 3 6 77 24 45 35 10 78
REMARK Flexibility Score: inf
ROOT
ATOM      1  C   UNL A   1      34.483  34.534  28.021  1.00  0.00     0.021 C 
ENDROOT
BRANCH   1   2
ATOM      2  C   UNL A   1      35.110  33.174  28.303  1.00  0.00     0.116 C 
BRANCH   2   3
ATOM      3  N   UNL A   1      34.282  32.093  27.792  1.00  0.00    -0.352 N 
ATOM      4  O   UNL A   1      33.887  30.082  26.859  1.00  0.00    -0.269 OA
ATOM      5  C   UNL A   1      34.621  30.787  27.544  1.00  0.00     0.251 C 
ATOM      6  H   UNL A   1      33.346  32.332  27.596  1.00  0.00     0.163 HD
BRANCH   5   7
ATOM      7  C   UNL A   1      35.878  30.247  28.103  1.00  0.00     0.039 A 
ATOM      8  C   UNL A   1      37.064  30.327  27.369  1.00  0.00     0.014 A 
ATOM      9  C   UNL A   1      35.876  29.675  29.377  1.00  0.00     0.014 A 
ATOM     10  C   UNL A   1      38.217  29.721  27.850  1.00  0.00     0.010 A 
ATOM     11  C   UNL A   1      37.060  29.147  29.899  1.00  0.00     0.010 A 
ATOM     12  C   UNL A   1      38.235  29.148  29.130  1.00  0.00    -0.014 A 
BRANCH  12  13
ATOM     13  C   UNL A   1      39.520  28.646  29.677  1.00  0.00     0.031 A 
ATOM     14  C   UNL A   1      40.149  29.262  30.893  1.00  0.00     0.074 A 
ATOM     15  C   UNL A   1      40.120  27.616  29.047  1.00  0.00     0.049 A 
ATOM     16  N   UNL A   1      41.258  28.926  31.501  1.00  0.00    -0.248 NA
ATOM     17  C   UNL A   1      39.453  30.404  31.506  1.00  0.00     0.031 C 
ATOM     18  C   UNL A   1      39.621  26.970  27.829  1.00  0.00     0.029 A 
ATOM     19  N   UNL A   1      41.275  26.935  29.332  1.00  0.00    -0.354 N 
ATOM     20  C   UNL A   1      41.417  29.835  32.539  1.00  0.00     0.074 A 
ATOM     21  C   UNL A   1      40.291  30.743  32.477  1.00  0.00     0.031 C 
ATOM     22  C   UNL A   1      40.448  25.974  27.487  1.00  0.00     0.029 A 
ATOM     23  C   UNL A   1      41.566  25.946  28.422  1.00  0.00     0.049 A 
ATOM     24  H   UNL A   1      41.840  27.133  30.114  1.00  0.00     0.167 HD
ATOM     25  C   UNL A   1      42.403  29.896  33.466  1.00  0.00     0.034 A 
ATOM     26  C   UNL A   1      42.625  25.121  28.334  1.00  0.00     0.034 A 
ATOM     27  C   UNL A   1      43.506  28.971  33.533  1.00  0.00     0.049 A 
ATOM     28  C   UNL A   1      43.695  25.206  29.382  1.00  0.00     0.074 A 
ATOM     29  C   UNL A   1      44.520  28.909  34.471  1.00  0.00     0.029 A 
ATOM     30  N   UNL A   1      43.747  27.956  32.618  1.00  0.00    -0.354 N 
ATOM     31  N   UNL A   1      43.759  25.986  30.433  1.00  0.00    -0.248 NA
ATOM     32  C   UNL A   1      44.826  24.279  29.249  1.00  0.00     0.031 C 
ATOM     33  C   UNL A   1      45.390  27.875  34.108  1.00  0.00     0.029 A 
ATOM     34  C   UNL A   1      44.901  27.272  32.961  1.00  0.00     0.049 A 
ATOM     35  H   UNL A   1      43.180  27.752  31.839  1.00  0.00     0.167 HD
ATOM     36  C   UNL A   1      44.921  25.629  31.102  1.00  0.00     0.074 A 
ATOM     37  C   UNL A   1      45.516  24.541  30.352  1.00  0.00     0.031 C 
ATOM     38  C   UNL A   1      45.457  26.164  32.227  1.00  0.00     0.034 A 
BRANCH  25  39
ATOM     39  C   UNL A   1      42.327  30.984  34.508  1.00  0.00     0.023 A 
ATOM     40  C   UNL A   1      41.727  30.715  35.755  1.00  0.00     0.012 A 
ATOM     41  C   UNL A   1      42.913  32.246  34.282  1.00  0.00     0.148 A 
ATOM     42  C   UNL A   1      41.683  31.694  36.748  1.00  0.00     0.002 A 
ATOM     43  C   UNL A   1      42.902  33.201  35.292  1.00  0.00     0.091 A 
ATOM     44  F   UNL A   1      43.463  32.490  33.084  1.00  0.00    -0.205 F 
ATOM     45  C   UNL A   1      42.278  32.931  36.520  1.00  0.00     0.022 A 
BRANCH  43  46
ATOM     46  S   UNL A   1      43.710  34.798  35.126  1.00  0.00     0.127 S 
ATOM     47  O   UNL A   1      45.073  34.404  34.773  1.00  0.00    -0.237 OA
ATOM     48  O   UNL A   1      42.952  35.413  34.034  1.00  0.00    -0.237 OA
ATOM     49  O   UNL A   1      43.562  35.459  36.414  1.00  0.00    -0.744 OA
ENDBRANCH  43  46
ENDBRANCH  25  39
BRANCH  26  50
ATOM     50  C   UNL A   1      42.697  24.128  27.227  1.00  0.00     0.023 A 
ATOM     51  C   UNL A   1      43.416  24.440  26.058  1.00  0.00     0.012 A 
ATOM     52  C   UNL A   1      42.096  22.859  27.347  1.00  0.00     0.148 A 
ATOM     53  C   UNL A   1      43.514  23.516  25.018  1.00  0.00     0.002 A 
ATOM     54  C   UNL A   1      42.248  21.923  26.332  1.00  0.00     0.091 A 
ATOM     55  F   UNL A   1      41.405  22.587  28.463  1.00  0.00    -0.205 F 
ATOM     56  C   UNL A   1      42.942  22.254  25.159  1.00  0.00     0.022 A 
BRANCH  54  57
ATOM     57  S   UNL A   1      41.665  20.231  26.493  1.00  0.00     0.127 S 
ATOM     58  O   UNL A   1      40.217  20.408  26.439  1.00  0.00    -0.237 OA
ATOM     59  O   UNL A   1      42.253  19.595  25.313  1.00  0.00    -0.237 OA
ATOM     60  O   UNL A   1      42.199  19.751  27.761  1.00  0.00    -0.744 OA
ENDBRANCH  54  57
ENDBRANCH  26  50
BRANCH  38  61
ATOM     61  C   UNL A   1      46.741  25.560  32.733  1.00  0.00     0.023 A 
ATOM     62  C   UNL A   1      47.978  26.078  32.300  1.00  0.00     0.012 A 
ATOM     63  C   UNL A   1      46.720  24.520  33.683  1.00  0.00     0.148 A 
ATOM     64  C   UNL A   1      49.175  25.544  32.777  1.00  0.00     0.002 A 
ATOM     65  C   UNL A   1      47.915  24.028  34.192  1.00  0.00     0.091 A 
ATOM     66  F   UNL A   1      45.533  24.028  34.066  1.00  0.00    -0.205 F 
ATOM     67  C   UNL A   1      49.143  24.529  33.730  1.00  0.00     0.022 A 
BRANCH  65  68
ATOM     68  S   UNL A   1      47.970  22.789  35.492  1.00  0.00     0.127 S 
ATOM     69  O   UNL A   1      47.334  21.645  34.840  1.00  0.00    -0.237 OA
ATOM     70  O   UNL A   1      49.408  22.641  35.718  1.00  0.00    -0.237 OA
ATOM     71  O   UNL A   1      47.236  23.355  36.616  1.00  0.00    -0.744 OA
ENDBRANCH  65  68
ENDBRANCH  38  61
ENDBRANCH  12  13
ENDBRANCH   5   7
ENDBRANCH   2   3
ENDBRANCH   1   2
BRANCH   1  72
ATOM     72  C   UNL A   1      33.481  34.992  29.083  1.00  0.00     0.002 C 
BRANCH  72  73
ATOM     73  C   UNL A   1      33.280  36.510  29.172  1.00  0.00     0.002 C 
BRANCH  73  74
ATOM     74  C   UNL A   1      33.129  37.049  30.597  1.00  0.00     0.021 C 
BRANCH  74  75
ATOM     75  C   UNL A   1      32.603  36.011  31.587  1.00  0.00     0.116 C 
BRANCH  75  76
ATOM     76  N   UNL A   1      33.392  36.018  32.796  1.00  0.00    -0.356 N 
ATOM     77  C   UNL A   1      34.466  35.299  33.184  1.00  0.00     0.223 C 
ATOM     78  H   UNL A   1      33.087  36.673  33.466  1.00  0.00     0.163 HD
ATOM     79  O   UNL A   1      34.823  35.447  34.360  1.00  0.00    -0.275 OA
BRANCH  77  80
ATOM     80  C   UNL A   1      35.269  34.374  32.283  1.00  0.00     0.089 C 
ATOM     81  C   UNL A   1      34.748  32.953  31.997  1.00  0.00     0.018 C 
ATOM     82  C   UNL A   1      36.773  34.171  32.499  1.00  0.00     0.069 C 
ATOM     83  C   UNL A   1      36.057  32.135  31.840  1.00  0.00    -0.002 C 
ATOM     84  C   UNL A   1      37.057  33.198  33.628  1.00  0.00     0.137 C 
ATOM     85  C   UNL A   1      37.063  33.189  31.348  1.00  0.00     0.016 C 
ATOM     86  C   UNL A   1      36.630  31.800  33.226  1.00  0.00     0.079 C 
ATOM     87  O   UNL A   1      37.562  33.493  34.696  1.00  0.00    -0.299 OA
ENDBRANCH  77  80
ENDBRANCH  75  76
ENDBRANCH  74  75
ENDBRANCH  73  74
ENDBRANCH  72  73
ENDBRANCH   1  72
TORSDOF 16
ENDMDL
MODEL 2
REMARK VINA RESULT:     -10.2      1.946      2.331
REMARK SMILES O=C(NCCCCCCNC(=O)[C@@H]1C[C@@H]2CC(=O)[C@H]1C2)c1ccc(-c2c3nc(c(-c4cccc(S(=O)(=O)[O-])c4F)c4ccc([nH]4)c(-c4cccc(S(=O)(=O)[O-])c4F)c4nc(c(-c5cccc(S(=O)(=O)[O-])c5F)c5ccc2[nH]5)C=C4)C=C3)cc1
REMARK SMILES IDX 5 1 4 2 3 3 1 4 2 5 21 7 22 8 83 9 23 10 82 11 24 12 25 13
REMARK SMILES IDX 26 14 76 15 27 16 81 17 75 18 77 19 28 20 80 21 74 22 73 23
REMARK SMILES IDX 29 25 61 26 41 27 60 28 42 29 45 30 59 31 78 32 43 33 44 34
REMARK SMILES IDX 58 36 79 37 46 38 30 39 31 40 39 41 32 42 34 43 40 44 33 45
REMARK SMILES IDX 35 46 36 47 37 48 38 49 62 50 63 51 71 52 64 53 66 54 72 55
REMARK SMILES IDX 65 56 67 57 68 58 69 59 70 60 47 61 48 62 56 63 49 64 51 65
REMARK SMILES IDX 57 66 50 67 52 68 53 69 54 70 55 71 6 72 7 73 8 74 9 75
REMARK SMILES IDX 10 76 11 77 12 79 13 80 14 81 19 82 15 83 17 84 20 85 16 86
REMARK SMILES IDX 18 87
REMARK H PARENT 3 6 77 24 45 35 10 78
REMARK Flexibility Score: inf
ROOT
ATOM      1  C   UNL A   1      34.032  34.127  27.956  1.00  0.00     0.021 C 
ENDROOT
BRANCH   1   2
ATOM      2  C   UNL A   1      34.825  32.844  28.173  1.00  0.00     0.116 C 
BRANCH   2   3
ATOM      3  N   UNL A   1      34.043  31.671  27.814  1.00  0.00    -0.352 N 
ATOM      4  O   UNL A   1      33.729  29.576  27.051  1.00  0.00    -0.269 OA
ATOM      5  C   UNL A   1      34.463  30.380  27.616  1.00  0.00     0.251 C 
ATOM      6  H   UNL A   1      33.077  31.825  27.697  1.00  0.00     0.163 HD
BRANCH   5   7
ATOM      7  C   UNL A   1      35.806  29.976  28.082  1.00  0.00     0.039 A 
ATOM      8  C   UNL A   1      35.969  29.418  29.352  1.00  0.00     0.014 A 
ATOM      9  C   UNL A   1      36.906  30.137  27.236  1.00  0.00     0.014 A 
ATOM     10  C   UNL A   1      37.245  29.143  29.828  1.00  0.00     0.010 A 
ATOM     11  C   UNL A   1      38.180  29.773  27.683  1.00  0.00     0.010 A 
ATOM     12  C   UNL A   1      38.361  29.293  28.990  1.00  0.00    -0.014 A 
BRANCH  12  13
ATOM     13  C   UNL A   1      39.690  28.847  29.475  1.00  0.00     0.031 A 
ATOM     14  C   UNL A   1      40.385  29.540  30.612  1.00  0.00     0.074 A 
ATOM     15  C   UNL A   1      40.271  27.797  28.861  1.00  0.00     0.049 A 
ATOM     16  N   UNL A   1      41.539  29.260  31.160  1.00  0.00    -0.248 NA
ATOM     17  C   UNL A   1      39.704  30.701  31.209  1.00  0.00     0.031 C 
ATOM     18  C   UNL A   1      39.708  27.076  27.715  1.00  0.00     0.029 A 
ATOM     19  N   UNL A   1      41.458  27.155  29.103  1.00  0.00    -0.354 N 
ATOM     20  C   UNL A   1      41.745  30.227  32.136  1.00  0.00     0.074 A 
ATOM     21  C   UNL A   1      40.597  31.108  32.102  1.00  0.00     0.031 C 
ATOM     22  C   UNL A   1      40.534  26.079  27.371  1.00  0.00     0.029 A 
ATOM     23  C   UNL A   1      41.711  26.125  28.229  1.00  0.00     0.049 A 
ATOM     24  H   UNL A   1      42.069  27.406  29.834  1.00  0.00     0.167 HD
ATOM     25  C   UNL A   1      42.789  30.357  32.990  1.00  0.00     0.034 A 
ATOM     26  C   UNL A   1      42.781  25.317  28.113  1.00  0.00     0.034 A 
ATOM     27  C   UNL A   1      43.914  29.459  33.030  1.00  0.00     0.049 A 
ATOM     28  C   UNL A   1      43.916  25.480  29.081  1.00  0.00     0.074 A 
ATOM     29  C   UNL A   1      44.990  29.468  33.901  1.00  0.00     0.029 A 
ATOM     30  N   UNL A   1      44.118  28.401  32.157  1.00  0.00    -0.354 N 
ATOM     31  N   UNL A   1      44.031  26.316  30.083  1.00  0.00    -0.248 NA
ATOM     32  C   UNL A   1      45.057  24.569  28.921  1.00  0.00     0.031 C 
ATOM     33  C   UNL A   1      45.858  28.433  33.534  1.00  0.00     0.029 A 
ATOM     34  C   UNL A   1      45.308  27.759  32.456  1.00  0.00     0.049 A 
ATOM     35  H   UNL A   1      43.506  28.144  31.429  1.00  0.00     0.167 HD
ATOM     36  C   UNL A   1      45.243  26.019  30.690  1.00  0.00     0.074 A 
ATOM     37  C   UNL A   1      45.812  24.903  29.959  1.00  0.00     0.031 C 
ATOM     38  C   UNL A   1      45.840  26.624  31.746  1.00  0.00     0.034 A 
BRANCH  25  39
ATOM     39  C   UNL A   1      42.757  31.498  33.975  1.00  0.00     0.023 A 
ATOM     40  C   UNL A   1      43.411  32.707  33.664  1.00  0.00     0.012 A 
ATOM     41  C   UNL A   1      42.020  31.401  35.173  1.00  0.00     0.148 A 
ATOM     42  C   UNL A   1      43.360  33.790  34.543  1.00  0.00     0.002 A 
ATOM     43  C   UNL A   1      41.939  32.498  36.023  1.00  0.00     0.091 A 
ATOM     44  F   UNL A   1      41.420  30.238  35.461  1.00  0.00    -0.205 F 
ATOM     45  C   UNL A   1      42.617  33.689  35.715  1.00  0.00     0.022 A 
BRANCH  43  46
ATOM     46  S   UNL A   1      40.944  32.495  37.519  1.00  0.00     0.127 S 
ATOM     47  O   UNL A   1      41.795  31.741  38.439  1.00  0.00    -0.237 OA
ATOM     48  O   UNL A   1      40.837  33.923  37.821  1.00  0.00    -0.237 OA
ATOM     49  O   UNL A   1      39.686  31.855  37.164  1.00  0.00    -0.744 OA
ENDBRANCH  43  46
ENDBRANCH  25  39
BRANCH  26  50
ATOM     50  C   UNL A   1      42.802  24.266  27.058  1.00  0.00     0.023 A 
ATOM     51  C   UNL A   1      43.528  24.487  25.872  1.00  0.00     0.012 A 
ATOM     52  C   UNL A   1      42.147  23.033  27.244  1.00  0.00     0.148 A 
ATOM     53  C   UNL A   1      43.579  23.508  24.880  1.00  0.00     0.002 A 
ATOM     54  C   UNL A   1      42.251  22.041  26.278  1.00  0.00     0.091 A 
ATOM     55  F   UNL A   1      41.451  22.849  28.375  1.00  0.00    -0.205 F 
ATOM     56  C   UNL A   1      42.952  22.281  25.087  1.00  0.00     0.022 A 
BRANCH  54  57
ATOM     57  S   UNL A   1      41.596  20.387  26.526  1.00  0.00     0.127 S 
ATOM     58  O   UNL A   1      42.126  19.679  25.364  1.00  0.00    -0.237 OA
ATOM     59  O   UNL A   1      42.200  20.011  27.805  1.00  0.00    -0.237 OA
ATOM     60  O   UNL A   1      40.147  20.541  26.570  1.00  0.00    -0.744 OA
ENDBRANCH  54  57
ENDBRANCH  26  50
BRANCH  38  61
ATOM     61  C   UNL A   1      47.168  26.074  32.196  1.00  0.00     0.023 A 
ATOM     62  C   UNL A   1      47.227  25.201  33.302  1.00  0.00     0.012 A 
ATOM     63  C   UNL A   1      48.347  26.375  31.488  1.00  0.00     0.148 A 
ATOM     64  C   UNL A   1      48.446  24.666  33.717  1.00  0.00     0.002 A 
ATOM     65  C   UNL A   1      49.550  25.798  31.876  1.00  0.00     0.091 A 
ATOM     66  F   UNL A   1      48.272  27.223  30.452  1.00  0.00    -0.205 F 
ATOM     67  C   UNL A   1      49.603  24.954  32.998  1.00  0.00     0.022 A 
BRANCH  65  68
ATOM     68  S   UNL A   1      51.073  26.034  30.954  1.00  0.00     0.127 S 
ATOM     69  O   UNL A   1      50.706  25.520  29.635  1.00  0.00    -0.237 OA
ATOM     70  O   UNL A   1      51.251  27.485  31.016  1.00  0.00    -0.237 OA
ATOM     71  O   UNL A   1      52.092  25.270  31.660  1.00  0.00    -0.744 OA
ENDBRANCH  65  68
ENDBRANCH  38  61
ENDBRANCH  12  13
ENDBRANCH   5   7
ENDBRANCH   2   3
ENDBRANCH   1   2
BRANCH   1  72
ATOM     72  C   UNL A   1      33.228  34.579  29.178  1.00  0.00     0.002 C 
BRANCH  72  73
ATOM     73  C   UNL A   1      32.921  36.081  29.232  1.00  0.00     0.002 C 
BRANCH  73  74
ATOM     74  C   UNL A   1      33.200  36.738  30.586  1.00  0.00     0.021 C 
BRANCH  74  75
ATOM     75  C   UNL A   1      32.540  36.017  31.760  1.00  0.00     0.116 C 
BRANCH  75  76
ATOM     76  N   UNL A   1      33.420  36.000  32.905  1.00  0.00    -0.356 N 
ATOM     77  C   UNL A   1      34.483  35.231  33.221  1.00  0.00     0.223 C 
ATOM     78  H   UNL A   1      33.202  36.679  33.584  1.00  0.00     0.163 HD
ATOM     79  O   UNL A   1      34.938  35.377  34.363  1.00  0.00    -0.275 OA
BRANCH  77  80
ATOM     80  C   UNL A   1      35.165  34.253  32.277  1.00  0.00     0.089 C 
ATOM     81  C   UNL A   1      34.629  32.814  32.159  1.00  0.00     0.018 C 
ATOM     82  C   UNL A   1      36.687  34.071  32.294  1.00  0.00     0.069 C 
ATOM     83  C   UNL A   1      35.913  31.993  31.873  1.00  0.00    -0.002 C 
ATOM     84  C   UNL A   1      37.138  33.175  33.431  1.00  0.00     0.137 C 
ATOM     85  C   UNL A   1      36.826  33.017  31.178  1.00  0.00     0.016 C 
ATOM     86  C   UNL A   1      36.679  31.751  33.183  1.00  0.00     0.079 C 
ATOM     87  O   UNL A   1      37.783  33.541  34.397  1.00  0.00    -0.299 OA
ENDBRANCH  77  80
ENDBRANCH  75  76
ENDBRANCH  74  75
ENDBRANCH  73  74
ENDBRANCH  72  73
ENDBRANCH   1  72
TORSDOF 16
ENDMDL
MODEL 3
REMARK VINA RESULT:     -10.2      6.258     11.243
REMARK SMILES O=C(NCCCCCCNC(=O)[C@@H]1C[C@@H]2CC(=O)[C@H]1C2)c1ccc(-c2c3nc(c(-c4cccc(S(=O)(=O)[O-])c4F)c4ccc([nH]4)c(-c4cccc(S(=O)(=O)[O-])c4F)c4nc(c(-c5cccc(S(=O)(=O)[O-])c5F)c5ccc2[nH]5)C=C4)C=C3)cc1
REMARK SMILES IDX 5 1 4 2 3 3 1 4 2 5 21 7 22 8 83 9 23 10 82 11 24 12 25 13
REMARK SMILES IDX 26 14 76 15 27 16 81 17 75 18 77 19 28 20 80 21 74 22 73 23
REMARK SMILES IDX 29 25 61 26 41 27 60 28 42 29 45 30 59 31 78 32 43 33 44 34
REMARK SMILES IDX 58 36 79 37 46 38 30 39 31 40 39 41 32 42 34 43 40 44 33 45
REMARK SMILES IDX 35 46 36 47 37 48 38 49 62 50 63 51 71 52 64 53 66 54 72 55
REMARK SMILES IDX 65 56 67 57 68 58 69 59 70 60 47 61 48 62 56 63 49 64 51 65
REMARK SMILES IDX 57 66 50 67 52 68 53 69 54 70 55 71 6 72 7 73 8 74 9 75
REMARK SMILES IDX 10 76 11 77 12 79 13 80 14 81 19 82 15 83 17 84 20 85 16 86
REMARK SMILES IDX 18 87
REMARK H PARENT 3 6 77 24 45 35 10 78
REMARK Flexibility Score: inf
ROOT
ATOM      1  C   UNL A   1      37.955  20.217  24.672  1.00  0.00     0.021 C 
ENDROOT
BRANCH   1   2
ATOM      2  C   UNL A   1      38.632  20.298  26.034  1.00  0.00     0.116 C 
BRANCH   2   3
ATOM      3  N   UNL A   1      39.761  19.386  26.120  1.00  0.00    -0.352 N 
ATOM      4  O   UNL A   1      41.928  18.790  25.969  1.00  0.00    -0.269 OA
ATOM      5  C   UNL A   1      41.102  19.672  26.180  1.00  0.00     0.251 C 
ATOM      6  H   UNL A   1      39.532  18.428  26.136  1.00  0.00     0.163 HD
BRANCH   5   7
ATOM      7  C   UNL A   1      41.534  21.051  26.492  1.00  0.00     0.039 A 
ATOM      8  C   UNL A   1      41.692  21.985  25.466  1.00  0.00     0.014 A 
ATOM      9  C   UNL A   1      41.764  21.417  27.820  1.00  0.00     0.014 A 
ATOM     10  C   UNL A   1      42.203  23.245  25.750  1.00  0.00     0.010 A 
ATOM     11  C   UNL A   1      42.191  22.715  28.114  1.00  0.00     0.010 A 
ATOM     12  C   UNL A   1      42.434  23.632  27.079  1.00  0.00    -0.014 A 
BRANCH  12  13
ATOM     13  C   UNL A   1      42.834  25.032  27.363  1.00  0.00     0.031 A 
ATOM     14  C   UNL A   1      41.895  25.998  28.027  1.00  0.00     0.074 A 
ATOM     15  C   UNL A   1      44.072  25.426  27.000  1.00  0.00     0.049 A 
ATOM     16  N   UNL A   1      42.102  27.247  28.356  1.00  0.00    -0.248 NA
ATOM     17  C   UNL A   1      40.549  25.505  28.362  1.00  0.00     0.031 C 
ATOM     18  C   UNL A   1      45.052  24.585  26.306  1.00  0.00     0.029 A 
ATOM     19  N   UNL A   1      44.718  26.625  27.157  1.00  0.00    -0.354 N 
ATOM     20  C   UNL A   1      40.907  27.704  28.898  1.00  0.00     0.074 A 
ATOM     21  C   UNL A   1      39.975  26.598  28.848  1.00  0.00     0.031 C 
ATOM     22  C   UNL A   1      46.179  25.283  26.119  1.00  0.00     0.029 A 
ATOM     23  C   UNL A   1      45.985  26.636  26.624  1.00  0.00     0.049 A 
ATOM     24  H   UNL A   1      44.314  27.401  27.607  1.00  0.00     0.167 HD
ATOM     25  C   UNL A   1      40.621  28.928  29.402  1.00  0.00     0.034 A 
ATOM     26  C   UNL A   1      46.886  27.631  26.530  1.00  0.00     0.034 A 
ATOM     27  C   UNL A   1      41.566  30.014  29.468  1.00  0.00     0.049 A 
ATOM     28  C   UNL A   1      46.544  28.973  27.108  1.00  0.00     0.074 A 
ATOM     29  C   UNL A   1      41.393  31.271  30.019  1.00  0.00     0.029 A 
ATOM     30  N   UNL A   1      42.855  29.977  28.956  1.00  0.00    -0.354 N 
ATOM     31  N   UNL A   1      45.456  29.346  27.735  1.00  0.00    -0.248 NA
ATOM     32  C   UNL A   1      47.563  30.024  26.990  1.00  0.00     0.031 C 
ATOM     33  C   UNL A   1      42.567  32.005  29.813  1.00  0.00     0.029 A 
ATOM     34  C   UNL A   1      43.483  31.194  29.163  1.00  0.00     0.049 A 
ATOM     35  H   UNL A   1      43.263  29.200  28.509  1.00  0.00     0.167 HD
ATOM     36  C   UNL A   1      45.666  30.665  28.110  1.00  0.00     0.074 A 
ATOM     37  C   UNL A   1      47.000  31.017  27.664  1.00  0.00     0.031 C 
ATOM     38  C   UNL A   1      44.826  31.515  28.751  1.00  0.00     0.034 A 
BRANCH  25  39
ATOM     39  C   UNL A   1      39.236  29.160  29.951  1.00  0.00     0.023 A 
ATOM     40  C   UNL A   1      38.917  28.715  31.249  1.00  0.00     0.012 A 
ATOM     41  C   UNL A   1      38.275  29.881  29.213  1.00  0.00     0.148 A 
ATOM     42  C   UNL A   1      37.654  28.955  31.794  1.00  0.00     0.002 A 
ATOM     43  C   UNL A   1      37.034  30.152  29.778  1.00  0.00     0.091 A 
ATOM     44  F   UNL A   1      38.590  30.280  27.973  1.00  0.00    -0.205 F 
ATOM     45  C   UNL A   1      36.719  29.681  31.063  1.00  0.00     0.022 A 
BRANCH  43  46
ATOM     46  S   UNL A   1      35.787  31.147  28.949  1.00  0.00     0.127 S 
ATOM     47  O   UNL A   1      35.008  30.123  28.255  1.00  0.00    -0.237 OA
ATOM     48  O   UNL A   1      35.098  31.777  30.076  1.00  0.00    -0.237 OA
ATOM     49  O   UNL A   1      36.515  32.069  28.091  1.00  0.00    -0.744 OA
ENDBRANCH  43  46
ENDBRANCH  25  39
BRANCH  26  50
ATOM     50  C   UNL A   1      48.206  27.373  25.890  1.00  0.00     0.023 A 
ATOM     51  C   UNL A   1      49.270  26.879  26.668  1.00  0.00     0.012 A 
ATOM     52  C   UNL A   1      48.398  27.571  24.508  1.00  0.00     0.148 A 
ATOM     53  C   UNL A   1      50.509  26.610  26.085  1.00  0.00     0.002 A 
ATOM     54  C   UNL A   1      49.615  27.245  23.925  1.00  0.00     0.091 A 
ATOM     55  F   UNL A   1      47.375  28.055  23.788  1.00  0.00    -0.205 F 
ATOM     56  C   UNL A   1      50.678  26.780  24.713  1.00  0.00     0.022 A 
BRANCH  54  57
ATOM     57  S   UNL A   1      49.872  27.300  22.148  1.00  0.00     0.127 S 
ATOM     58  O   UNL A   1      51.278  26.920  22.039  1.00  0.00    -0.237 OA
ATOM     59  O   UNL A   1      48.923  26.292  21.673  1.00  0.00    -0.237 OA
ATOM     60  O   UNL A   1      49.550  28.663  21.746  1.00  0.00    -0.744 OA
ENDBRANCH  54  57
ENDBRANCH  26  50
BRANCH  38  61
ATOM     61  C   UNL A   1      45.335  32.903  29.036  1.00  0.00     0.023 A 
ATOM     62  C   UNL A   1      46.058  33.156  30.219  1.00  0.00     0.012 A 
ATOM     63  C   UNL A   1      45.148  33.942  28.104  1.00  0.00     0.148 A 
ATOM     64  C   UNL A   1      46.554  34.431  30.487  1.00  0.00     0.002 A 
ATOM     65  C   UNL A   1      45.690  35.197  28.353  1.00  0.00     0.091 A 
ATOM     66  F   UNL A   1      44.440  33.686  26.994  1.00  0.00    -0.205 F 
ATOM     67  C   UNL A   1      46.381  35.446  29.550  1.00  0.00     0.022 A 
BRANCH  65  68
ATOM     68  S   UNL A   1      45.599  36.538  27.162  1.00  0.00     0.127 S 
ATOM     69  O   UNL A   1      46.316  37.605  27.859  1.00  0.00    -0.237 OA
ATOM     70  O   UNL A   1      46.307  35.979  26.011  1.00  0.00    -0.237 OA
ATOM     71  O   UNL A   1      44.180  36.782  26.939  1.00  0.00    -0.744 OA
ENDBRANCH  65  68
ENDBRANCH  38  61
ENDBRANCH  12  13
ENDBRANCH   5   7
ENDBRANCH   2   3
ENDBRANCH   1   2
BRANCH   1  72
ATOM     72  C   UNL A   1      37.021  21.391  24.368  1.00  0.00     0.002 C 
BRANCH  72  73
ATOM     73  C   UNL A   1      37.055  22.530  25.395  1.00  0.00     0.002 C 
BRANCH  73  74
ATOM     74  C   UNL A   1      35.686  22.924  25.954  1.00  0.00     0.021 C 
BRANCH  74  75
ATOM     75  C   UNL A   1      34.748  21.735  26.158  1.00  0.00     0.116 C 
BRANCH  75  76
ATOM     76  N   UNL A   1      33.789  21.655  25.081  1.00  0.00    -0.356 N 
ATOM     77  C   UNL A   1      33.249  20.609  24.422  1.00  0.00     0.223 C 
ATOM     78  H   UNL A   1      33.470  22.533  24.768  1.00  0.00     0.163 HD
ATOM     79  O   UNL A   1      32.556  20.888  23.435  1.00  0.00    -0.275 OA
BRANCH  77  80
ATOM     80  C   UNL A   1      33.399  19.151  24.828  1.00  0.00     0.089 C 
ATOM     81  C   UNL A   1      34.784  18.483  24.759  1.00  0.00     0.018 C 
ATOM     82  C   UNL A   1      32.452  18.078  24.278  1.00  0.00     0.069 C 
ATOM     83  C   UNL A   1      34.438  17.012  24.406  1.00  0.00    -0.002 C 
ATOM     84  C   UNL A   1      32.834  17.651  22.874  1.00  0.00     0.137 C 
ATOM     85  C   UNL A   1      33.028  16.842  24.997  1.00  0.00     0.016 C 
ATOM     86  C   UNL A   1      34.147  16.892  22.903  1.00  0.00     0.079 C 
ATOM     87  O   UNL A   1      32.180  17.874  21.872  1.00  0.00    -0.299 OA
ENDBRANCH  77  80
ENDBRANCH  75  76
ENDBRANCH  74  75
ENDBRANCH  73  74
ENDBRANCH  72  73
ENDBRANCH   1  72
TORSDOF 16
ENDMDL
