MODEL 1
REMARK VINA RESULT:     -12.3      0.000      0.000
REMARK SMILES COC(=O)c1ccc(C)c(NC(=O)[C@H]2CC=CC[C@H]2C(=O)NCCCCCCNC(=O)c2ccc(-c3c4nc(c(-c5cccc(S(=O)(=O)[O-])c5F)c5ccc([nH]5)c(-c5cccc(S(=O)(=O)[O-])c5F)c5nc(c(-c6cccc(S(=O)(=O)[O-])c6F)c6ccc3[nH]6)C=C5)C=C4)cc2)c1
REMARK SMILES IDX 25 1 24 2 23 3 22 4 20 5 21 6 19 8 14 9 15 10 16 11 18 12
REMARK SMILES IDX 17 13 12 14 11 15 13 17 10 18 5 19 6 20 95 21 7 22 8 23 9 24
REMARK SMILES IDX 3 25 4 26 2 27 1 28 26 29 27 30 28 31 29 32 30 33 31 35
REMARK SMILES IDX 32 36 33 37 94 38 34 39 93 40 35 41 36 42 37 43 87 44 38 45
REMARK SMILES IDX 92 46 86 47 88 48 39 49 91 50 85 51 84 52 40 54 72 55 52 56
REMARK SMILES IDX 71 57 53 58 56 59 70 60 89 61 54 62 55 63 69 65 90 66 57 67
REMARK SMILES IDX 41 68 42 69 50 70 43 71 45 72 51 73 44 74 46 75 47 76 48 77
REMARK SMILES IDX 49 78 73 79 74 80 82 81 75 82 77 83 83 84 76 85 78 86 79 87
REMARK SMILES IDX 80 88 81 89 58 90 59 91 67 92 60 93 62 94 68 95 61 96 63 97
REMARK SMILES IDX 64 98 65 99 66 100
REMARK H PARENT 22 7 11 16 29 34 88 53 56 64
REMARK Flexibility Score: inf
ROOT
ATOM      1  C   UNL A   1      31.843  28.475  26.349  1.00  0.00     0.002 C 
ENDROOT
BRANCH   1   2
ATOM      2  C   UNL A   1      31.493  27.359  25.362  1.00  0.00     0.021 C 
BRANCH   2   3
ATOM      3  C   UNL A   1      30.367  26.417  25.791  1.00  0.00     0.116 C 
BRANCH   3   4
ATOM      4  N   UNL A   1      30.833  25.257  26.525  1.00  0.00    -0.356 N 
ATOM      5  C   UNL A   1      31.471  24.136  26.085  1.00  0.00     0.224 C 
ATOM      6  O   UNL A   1      31.773  23.275  26.918  1.00  0.00    -0.275 OA
ATOM      7  H   UNL A   1      30.660  25.283  27.494  1.00  0.00     0.163 HD
BRANCH   5   8
ATOM      8  C   UNL A   1      31.888  23.962  24.623  1.00  0.00     0.095 C 
ATOM      9  C   UNL A   1      33.287  24.519  24.185  1.00  0.00     0.095 C 
ATOM     10  C   UNL A   1      33.865  23.842  22.920  1.00  0.00     0.041 C 
ATOM     11  C   UNL A   1      33.111  22.706  22.306  1.00  0.00    -0.030 C 
ATOM     12  C   UNL A   1      31.484  22.547  24.168  1.00  0.00     0.041 C 
ATOM     13  C   UNL A   1      32.056  22.114  22.865  1.00  0.00    -0.030 C 
BRANCH   9  14
ATOM     14  C   UNL A   1      34.280  24.822  25.336  1.00  0.00     0.228 C 
ATOM     15  N   UNL A   1      34.826  23.834  26.099  1.00  0.00    -0.326 N 
ATOM     16  H   UNL A   1      34.731  23.956  27.071  1.00  0.00     0.169 HD
ATOM     17  O   UNL A   1      34.619  25.977  25.602  1.00  0.00    -0.274 OA
BRANCH  15  18
ATOM     18  C   UNL A   1      35.503  22.666  25.706  1.00  0.00     0.044 A 
ATOM     19  C   UNL A   1      35.236  20.334  25.055  1.00  0.00     0.062 A 
ATOM     20  C   UNL A   1      36.599  20.259  24.771  1.00  0.00     0.016 A 
ATOM     21  C   UNL A   1      34.699  21.533  25.541  1.00  0.00     0.042 A 
ATOM     22  C   UNL A   1      37.420  21.360  25.014  1.00  0.00     0.006 A 
ATOM     23  C   UNL A   1      36.891  22.562  25.522  1.00  0.00    -0.027 A 
ATOM     24  C   UNL A   1      37.870  23.628  25.926  1.00  0.00     0.046 C 
BRANCH  19  25
ATOM     25  C   UNL A   1      34.360  19.187  24.704  1.00  0.00     0.337 C 
ATOM     26  O   UNL A   1      33.140  19.237  24.754  1.00  0.00    -0.246 OA
BRANCH  25  27
ATOM     27  O   UNL A   1      35.132  18.101  24.488  1.00  0.00    -0.465 OA
ATOM     28  C   UNL A   1      34.503  16.825  24.619  1.00  0.00     0.282 C 
ENDBRANCH  25  27
ENDBRANCH  19  25
ENDBRANCH  15  18
ENDBRANCH   9  14
ENDBRANCH   5   8
ENDBRANCH   3   4
ENDBRANCH   2   3
ENDBRANCH   1   2
BRANCH   1  29
ATOM     29  C   UNL A   1      31.746  29.911  25.819  1.00  0.00     0.002 C 
BRANCH  29  30
ATOM     30  C   UNL A   1      32.235  31.014  26.757  1.00  0.00     0.021 C 
BRANCH  30  31
ATOM     31  C   UNL A   1      33.448  30.650  27.596  1.00  0.00     0.116 C 
BRANCH  31  32
ATOM     32  N   UNL A   1      34.358  31.759  27.784  1.00  0.00    -0.352 N 
ATOM     33  C   UNL A   1      35.603  31.783  28.382  1.00  0.00     0.251 C 
ATOM     34  H   UNL A   1      34.043  32.624  27.436  1.00  0.00     0.163 HD
ATOM     35  O   UNL A   1      36.070  32.869  28.712  1.00  0.00    -0.269 OA
BRANCH  33  36
ATOM     36  C   UNL A   1      36.422  30.543  28.444  1.00  0.00     0.039 A 
ATOM     37  C   UNL A   1      36.722  30.058  29.724  1.00  0.00     0.014 A 
ATOM     38  C   UNL A   1      37.110  30.049  27.339  1.00  0.00     0.014 A 
ATOM     39  C   UNL A   1      37.890  29.329  29.928  1.00  0.00     0.010 A 
ATOM     40  C   UNL A   1      38.304  29.392  27.543  1.00  0.00     0.010 A 
ATOM     41  C   UNL A   1      38.732  29.124  28.845  1.00  0.00    -0.014 A 
BRANCH  41  42
ATOM     42  C   UNL A   1      40.113  28.691  28.943  1.00  0.00     0.031 A 
ATOM     43  C   UNL A   1      40.445  27.264  28.811  1.00  0.00     0.074 A 
ATOM     44  C   UNL A   1      41.078  29.641  28.905  1.00  0.00     0.049 A 
ATOM     45  N   UNL A   1      41.636  26.799  28.960  1.00  0.00    -0.248 NA
ATOM     46  C   UNL A   1      39.449  26.235  28.517  1.00  0.00     0.031 C 
ATOM     47  C   UNL A   1      42.481  29.477  28.543  1.00  0.00     0.029 A 
ATOM     48  N   UNL A   1      41.019  30.947  29.409  1.00  0.00    -0.354 N 
ATOM     49  C   UNL A   1      41.628  25.526  28.450  1.00  0.00     0.074 A 
ATOM     50  C   UNL A   1      40.237  25.169  28.337  1.00  0.00     0.031 C 
ATOM     51  C   UNL A   1      43.188  30.477  29.092  1.00  0.00     0.029 A 
ATOM     52  C   UNL A   1      42.284  31.177  29.987  1.00  0.00     0.049 A 
ATOM     53  H   UNL A   1      40.258  31.570  29.367  1.00  0.00     0.167 HD
ATOM     54  C   UNL A   1      42.806  24.996  28.028  1.00  0.00     0.034 A 
ATOM     55  C   UNL A   1      42.467  31.312  31.338  1.00  0.00     0.034 A 
ATOM     56  C   UNL A   1      43.948  25.754  28.558  1.00  0.00     0.049 A 
ATOM     57  C   UNL A   1      43.392  30.255  31.943  1.00  0.00     0.074 A 
ATOM     58  C   UNL A   1      44.875  26.640  28.041  1.00  0.00     0.029 A 
ATOM     59  N   UNL A   1      44.077  25.834  29.936  1.00  0.00    -0.354 N 
ATOM     60  N   UNL A   1      44.008  29.322  31.267  1.00  0.00    -0.248 NA
ATOM     61  C   UNL A   1      43.606  30.116  33.386  1.00  0.00     0.031 C 
ATOM     62  C   UNL A   1      45.463  27.347  29.141  1.00  0.00     0.029 A 
ATOM     63  C   UNL A   1      44.933  26.850  30.321  1.00  0.00     0.049 A 
ATOM     64  H   UNL A   1      43.612  25.239  30.568  1.00  0.00     0.167 HD
ATOM     65  C   UNL A   1      44.513  28.388  32.135  1.00  0.00     0.074 A 
ATOM     66  C   UNL A   1      44.278  28.955  33.453  1.00  0.00     0.031 C 
ATOM     67  C   UNL A   1      45.021  27.181  31.741  1.00  0.00     0.034 A 
BRANCH  54  68
ATOM     68  C   UNL A   1      42.936  23.859  27.039  1.00  0.00     0.023 A 
ATOM     69  C   UNL A   1      43.617  24.125  25.833  1.00  0.00     0.012 A 
ATOM     70  C   UNL A   1      42.341  22.576  27.154  1.00  0.00     0.148 A 
ATOM     71  C   UNL A   1      43.714  23.176  24.807  1.00  0.00     0.002 A 
ATOM     72  C   UNL A   1      42.508  21.603  26.165  1.00  0.00     0.091 A 
ATOM     73  F   UNL A   1      41.505  22.307  28.161  1.00  0.00    -0.205 F 
ATOM     74  C   UNL A   1      43.182  21.905  24.981  1.00  0.00     0.022 A 
BRANCH  72  75
ATOM     75  S   UNL A   1      41.893  19.921  26.371  1.00  0.00     0.127 S 
ATOM     76  O   UNL A   1      40.446  20.109  26.292  1.00  0.00    -0.237 OA
ATOM     77  O   UNL A   1      42.481  19.225  25.226  1.00  0.00    -0.237 OA
ATOM     78  O   UNL A   1      42.393  19.469  27.664  1.00  0.00    -0.744 OA
ENDBRANCH  72  75
ENDBRANCH  54  68
BRANCH  55  79
ATOM     79  C   UNL A   1      41.279  31.899  32.034  1.00  0.00     0.023 A 
ATOM     80  C   UNL A   1      40.890  33.208  31.656  1.00  0.00     0.012 A 
ATOM     81  C   UNL A   1      40.352  31.092  32.717  1.00  0.00     0.148 A 
ATOM     82  C   UNL A   1      39.567  33.630  31.802  1.00  0.00     0.002 A 
ATOM     83  C   UNL A   1      39.041  31.531  32.879  1.00  0.00     0.091 A 
ATOM     84  F   UNL A   1      40.735  29.880  33.134  1.00  0.00    -0.205 F 
ATOM     85  C   UNL A   1      38.634  32.776  32.377  1.00  0.00     0.022 A 
BRANCH  83  86
ATOM     86  S   UNL A   1      37.802  30.471  33.635  1.00  0.00     0.127 S 
ATOM     87  O   UNL A   1      36.583  30.936  32.981  1.00  0.00    -0.237 OA
ATOM     88  O   UNL A   1      38.241  29.133  33.239  1.00  0.00    -0.237 OA
ATOM     89  O   UNL A   1      37.913  30.734  35.062  1.00  0.00    -0.744 OA
ENDBRANCH  83  86
ENDBRANCH  55  79
BRANCH  67  90
ATOM     90  C   UNL A   1      45.647  26.211  32.721  1.00  0.00     0.023 A 
ATOM     91  C   UNL A   1      47.038  25.977  32.684  1.00  0.00     0.012 A 
ATOM     92  C   UNL A   1      44.879  25.398  33.589  1.00  0.00     0.148 A 
ATOM     93  C   UNL A   1      47.645  25.020  33.502  1.00  0.00     0.002 A 
ATOM     94  C   UNL A   1      45.474  24.373  34.320  1.00  0.00     0.091 A 
ATOM     95  F   UNL A   1      43.575  25.646  33.753  1.00  0.00    -0.205 F 
ATOM     96  C   UNL A   1      46.861  24.200  34.302  1.00  0.00     0.022 A 
BRANCH  94  97
ATOM     97  S   UNL A   1      44.504  23.134  35.192  1.00  0.00     0.127 S 
ATOM     98  O   UNL A   1      43.835  23.940  36.216  1.00  0.00    -0.237 OA
ATOM     99  O   UNL A   1      43.625  22.638  34.137  1.00  0.00    -0.237 OA
ATOM    100  O   UNL A   1      45.468  22.179  35.722  1.00  0.00    -0.744 OA
ENDBRANCH  94  97
ENDBRANCH  67  90
ENDBRANCH  41  42
ENDBRANCH  33  36
ENDBRANCH  31  32
ENDBRANCH  30  31
ENDBRANCH  29  30
ENDBRANCH   1  29
TORSDOF 20
ENDMDL
MODEL 2
REMARK VINA RESULT:     -12.3      1.685      2.012
REMARK SMILES COC(=O)c1ccc(C)c(NC(=O)[C@H]2CC=CC[C@H]2C(=O)NCCCCCCNC(=O)c2ccc(-c3c4nc(c(-c5cccc(S(=O)(=O)[O-])c5F)c5ccc([nH]5)c(-c5cccc(S(=O)(=O)[O-])c5F)c5nc(c(-c6cccc(S(=O)(=O)[O-])c6F)c6ccc3[nH]6)C=C5)C=C4)cc2)c1
REMARK SMILES IDX 25 1 24 2 23 3 22 4 20 5 21 6 19 8 14 9 15 10 16 11 18 12
REMARK SMILES IDX 17 13 12 14 11 15 13 17 10 18 5 19 6 20 95 21 7 22 8 23 9 24
REMARK SMILES IDX 3 25 4 26 2 27 1 28 26 29 27 30 28 31 29 32 30 33 31 35
REMARK SMILES IDX 32 36 33 37 94 38 34 39 93 40 35 41 36 42 37 43 87 44 38 45
REMARK SMILES IDX 92 46 86 47 88 48 39 49 91 50 85 51 84 52 40 54 72 55 52 56
REMARK SMILES IDX 71 57 53 58 56 59 70 60 89 61 54 62 55 63 69 65 90 66 57 67
REMARK SMILES IDX 41 68 42 69 50 70 43 71 45 72 51 73 44 74 46 75 47 76 48 77
REMARK SMILES IDX 49 78 73 79 74 80 82 81 75 82 77 83 83 84 76 85 78 86 79 87
REMARK SMILES IDX 80 88 81 89 58 90 59 91 67 92 60 93 62 94 68 95 61 96 63 97
REMARK SMILES IDX 64 98 65 99 66 100
REMARK H PARENT 22 7 11 16 29 34 88 53 56 64
REMARK Flexibility Score: inf
ROOT
ATOM      1  C   UNL A   1      31.795  28.771  27.033  1.00  0.00     0.002 C 
ENDROOT
BRANCH   1   2
ATOM      2  C   UNL A   1      31.948  27.640  26.014  1.00  0.00     0.021 C 
BRANCH   2   3
ATOM      3  C   UNL A   1      30.779  26.658  25.925  1.00  0.00     0.116 C 
BRANCH   3   4
ATOM      4  N   UNL A   1      31.036  25.393  26.585  1.00  0.00    -0.356 N 
ATOM      5  C   UNL A   1      31.488  24.212  26.077  1.00  0.00     0.224 C 
ATOM      6  O   UNL A   1      31.631  23.261  26.853  1.00  0.00    -0.275 OA
ATOM      7  H   UNL A   1      30.855  25.385  27.552  1.00  0.00     0.163 HD
BRANCH   5   8
ATOM      8  C   UNL A   1      31.893  24.064  24.608  1.00  0.00     0.095 C 
ATOM      9  C   UNL A   1      33.343  24.496  24.198  1.00  0.00     0.095 C 
ATOM     10  C   UNL A   1      33.857  23.823  22.903  1.00  0.00     0.041 C 
ATOM     11  C   UNL A   1      32.996  22.798  22.237  1.00  0.00    -0.030 C 
ATOM     12  C   UNL A   1      31.351  22.719  24.088  1.00  0.00     0.041 C 
ATOM     13  C   UNL A   1      31.883  22.291  22.767  1.00  0.00    -0.030 C 
BRANCH   9  14
ATOM     14  C   UNL A   1      34.356  24.644  25.362  1.00  0.00     0.228 C 
ATOM     15  N   UNL A   1      34.738  23.584  26.127  1.00  0.00    -0.326 N 
ATOM     16  H   UNL A   1      34.650  23.716  27.099  1.00  0.00     0.169 HD
ATOM     17  O   UNL A   1      34.860  25.735  25.637  1.00  0.00    -0.274 OA
BRANCH  15  18
ATOM     18  C   UNL A   1      35.238  22.329  25.737  1.00  0.00     0.044 A 
ATOM     19  C   UNL A   1      34.636  20.050  25.121  1.00  0.00     0.062 A 
ATOM     20  C   UNL A   1      35.969  19.782  24.815  1.00  0.00     0.016 A 
ATOM     21  C   UNL A   1      34.281  21.318  25.601  1.00  0.00     0.042 A 
ATOM     22  C   UNL A   1      36.940  20.761  25.029  1.00  0.00     0.006 A 
ATOM     23  C   UNL A   1      36.594  22.030  25.530  1.00  0.00    -0.027 A 
ATOM     24  C   UNL A   1      37.719  22.953  25.903  1.00  0.00     0.046 C 
BRANCH  19  25
ATOM     25  C   UNL A   1      33.602  19.033  24.800  1.00  0.00     0.337 C 
ATOM     26  O   UNL A   1      32.556  18.922  25.423  1.00  0.00    -0.246 OA
BRANCH  25  27
ATOM     27  O   UNL A   1      34.087  18.206  23.850  1.00  0.00    -0.465 OA
ATOM     28  C   UNL A   1      33.337  17.020  23.583  1.00  0.00     0.282 C 
ENDBRANCH  25  27
ENDBRANCH  19  25
ENDBRANCH  15  18
ENDBRANCH   9  14
ENDBRANCH   5   8
ENDBRANCH   3   4
ENDBRANCH   2   3
ENDBRANCH   1   2
BRANCH   1  29
ATOM     29  C   UNL A   1      31.806  30.199  26.475  1.00  0.00     0.002 C 
BRANCH  29  30
ATOM     30  C   UNL A   1      32.797  31.170  27.117  1.00  0.00     0.021 C 
BRANCH  30  31
ATOM     31  C   UNL A   1      34.181  30.595  27.374  1.00  0.00     0.116 C 
BRANCH  31  32
ATOM     32  N   UNL A   1      35.170  31.610  27.659  1.00  0.00    -0.352 N 
ATOM     33  C   UNL A   1      36.405  31.489  28.268  1.00  0.00     0.251 C 
ATOM     34  H   UNL A   1      34.929  32.523  27.379  1.00  0.00     0.163 HD
ATOM     35  O   UNL A   1      36.949  32.506  28.688  1.00  0.00    -0.269 OA
BRANCH  33  36
ATOM     36  C   UNL A   1      37.125  30.188  28.236  1.00  0.00     0.039 A 
ATOM     37  C   UNL A   1      37.074  29.420  29.407  1.00  0.00     0.014 A 
ATOM     38  C   UNL A   1      38.041  29.868  27.239  1.00  0.00     0.014 A 
ATOM     39  C   UNL A   1      38.119  28.551  29.707  1.00  0.00     0.010 A 
ATOM     40  C   UNL A   1      39.115  29.068  27.560  1.00  0.00     0.010 A 
ATOM     41  C   UNL A   1      39.194  28.493  28.832  1.00  0.00    -0.014 A 
BRANCH  41  42
ATOM     42  C   UNL A   1      40.486  27.913  29.147  1.00  0.00     0.031 A 
ATOM     43  C   UNL A   1      40.760  26.508  28.810  1.00  0.00     0.074 A 
ATOM     44  C   UNL A   1      41.482  28.753  29.516  1.00  0.00     0.049 A 
ATOM     45  N   UNL A   1      41.854  25.907  29.125  1.00  0.00    -0.248 NA
ATOM     46  C   UNL A   1      39.809  25.654  28.101  1.00  0.00     0.031 C 
ATOM     47  C   UNL A   1      42.920  28.517  29.451  1.00  0.00     0.029 A 
ATOM     48  N   UNL A   1      41.377  29.945  30.244  1.00  0.00    -0.354 N 
ATOM     49  C   UNL A   1      41.898  24.755  28.382  1.00  0.00     0.074 A 
ATOM     50  C   UNL A   1      40.556  24.565  27.893  1.00  0.00     0.031 C 
ATOM     51  C   UNL A   1      43.530  29.326  30.332  1.00  0.00     0.029 A 
ATOM     52  C   UNL A   1      42.478  29.938  31.124  1.00  0.00     0.049 A 
ATOM     53  H   UNL A   1      40.683  30.639  30.159  1.00  0.00     0.167 HD
ATOM     54  C   UNL A   1      43.112  24.195  28.137  1.00  0.00     0.034 A 
ATOM     55  C   UNL A   1      42.341  29.807  32.481  1.00  0.00     0.034 A 
ATOM     56  C   UNL A   1      44.134  24.726  29.049  1.00  0.00     0.049 A 
ATOM     57  C   UNL A   1      43.035  28.570  33.053  1.00  0.00     0.074 A 
ATOM     58  C   UNL A   1      45.205  25.594  28.941  1.00  0.00     0.029 A 
ATOM     59  N   UNL A   1      43.935  24.542  30.409  1.00  0.00    -0.354 N 
ATOM     60  N   UNL A   1      43.743  27.719  32.360  1.00  0.00    -0.248 NA
ATOM     61  C   UNL A   1      42.891  28.152  34.450  1.00  0.00     0.031 C 
ATOM     62  C   UNL A   1      45.552  26.026  30.263  1.00  0.00     0.029 A 
ATOM     63  C   UNL A   1      44.729  25.380  31.170  1.00  0.00     0.049 A 
ATOM     64  H   UNL A   1      43.301  23.891  30.789  1.00  0.00     0.167 HD
ATOM     65  C   UNL A   1      43.974  26.598  33.115  1.00  0.00     0.074 A 
ATOM     66  C   UNL A   1      43.462  26.936  34.432  1.00  0.00     0.031 C 
ATOM     67  C   UNL A   1      44.494  25.437  32.611  1.00  0.00     0.034 A 
BRANCH  54  68
ATOM     68  C   UNL A   1      43.411  23.249  26.996  1.00  0.00     0.023 A 
ATOM     69  C   UNL A   1      44.163  23.756  25.915  1.00  0.00     0.012 A 
ATOM     70  C   UNL A   1      42.914  21.928  26.848  1.00  0.00     0.148 A 
ATOM     71  C   UNL A   1      44.418  22.999  24.764  1.00  0.00     0.002 A 
ATOM     72  C   UNL A   1      43.236  21.147  25.736  1.00  0.00     0.091 A 
ATOM     73  F   UNL A   1      42.024  21.441  27.719  1.00  0.00    -0.205 F 
ATOM     74  C   UNL A   1      43.977  21.685  24.683  1.00  0.00     0.022 A 
BRANCH  72  75
ATOM     75  S   UNL A   1      42.744  19.417  25.614  1.00  0.00     0.127 S 
ATOM     76  O   UNL A   1      43.559  18.941  24.498  1.00  0.00    -0.237 OA
ATOM     77  O   UNL A   1      43.128  18.883  26.921  1.00  0.00    -0.237 OA
ATOM     78  O   UNL A   1      41.305  19.428  25.375  1.00  0.00    -0.744 OA
ENDBRANCH  72  75
ENDBRANCH  54  68
BRANCH  55  79
ATOM     79  C   UNL A   1      41.055  30.374  32.997  1.00  0.00     0.023 A 
ATOM     80  C   UNL A   1      39.856  29.756  32.565  1.00  0.00     0.012 A 
ATOM     81  C   UNL A   1      41.017  31.191  34.141  1.00  0.00     0.148 A 
ATOM     82  C   UNL A   1      38.700  29.813  33.348  1.00  0.00     0.002 A 
ATOM     83  C   UNL A   1      39.854  31.262  34.902  1.00  0.00     0.091 A 
ATOM     84  F   UNL A   1      42.132  31.830  34.516  1.00  0.00    -0.205 F 
ATOM     85  C   UNL A   1      38.712  30.533  34.536  1.00  0.00     0.022 A 
BRANCH  83  86
ATOM     86  S   UNL A   1      39.812  32.195  36.437  1.00  0.00     0.127 S 
ATOM     87  O   UNL A   1      38.573  31.712  37.038  1.00  0.00    -0.237 OA
ATOM     88  O   UNL A   1      41.034  31.758  37.110  1.00  0.00    -0.237 OA
ATOM     89  O   UNL A   1      39.829  33.590  36.020  1.00  0.00    -0.744 OA
ENDBRANCH  83  86
ENDBRANCH  55  79
BRANCH  67  90
ATOM     90  C   UNL A   1      44.813  24.247  33.492  1.00  0.00     0.023 A 
ATOM     91  C   UNL A   1      43.773  23.397  33.925  1.00  0.00     0.012 A 
ATOM     92  C   UNL A   1      46.099  24.023  34.040  1.00  0.00     0.148 A 
ATOM     93  C   UNL A   1      44.004  22.346  34.817  1.00  0.00     0.002 A 
ATOM     94  C   UNL A   1      46.301  23.045  35.010  1.00  0.00     0.091 A 
ATOM     95  F   UNL A   1      47.146  24.721  33.585  1.00  0.00    -0.205 F 
ATOM     96  C   UNL A   1      45.263  22.185  35.380  1.00  0.00     0.022 A 
BRANCH  94  97
ATOM     97  S   UNL A   1      47.835  22.929  35.944  1.00  0.00     0.127 S 
ATOM     98  O   UNL A   1      47.964  24.286  36.481  1.00  0.00    -0.237 OA
ATOM     99  O   UNL A   1      47.508  21.910  36.938  1.00  0.00    -0.237 OA
ATOM    100  O   UNL A   1      48.861  22.571  34.975  1.00  0.00    -0.744 OA
ENDBRANCH  94  97
ENDBRANCH  67  90
ENDBRANCH  41  42
ENDBRANCH  33  36
ENDBRANCH  31  32
ENDBRANCH  30  31
ENDBRANCH  29  30
ENDBRANCH   1  29
TORSDOF 20
ENDMDL
MODEL 3
REMARK VINA RESULT:     -11.9      2.139      3.916
REMARK SMILES COC(=O)c1ccc(C)c(NC(=O)[C@H]2CC=CC[C@H]2C(=O)NCCCCCCNC(=O)c2ccc(-c3c4nc(c(-c5cccc(S(=O)(=O)[O-])c5F)c5ccc([nH]5)c(-c5cccc(S(=O)(=O)[O-])c5F)c5nc(c(-c6cccc(S(=O)(=O)[O-])c6F)c6ccc3[nH]6)C=C5)C=C4)cc2)c1
REMARK SMILES IDX 25 1 24 2 23 3 22 4 20 5 21 6 19 8 14 9 15 10 16 11 18 12
REMARK SMILES IDX 17 13 12 14 11 15 13 17 10 18 5 19 6 20 95 21 7 22 8 23 9 24
REMARK SMILES IDX 3 25 4 26 2 27 1 28 26 29 27 30 28 31 29 32 30 33 31 35
REMARK SMILES IDX 32 36 33 37 94 38 34 39 93 40 35 41 36 42 37 43 87 44 38 45
REMARK SMILES IDX 92 46 86 47 88 48 39 49 91 50 85 51 84 52 40 54 72 55 52 56
REMARK SMILES IDX 71 57 53 58 56 59 70 60 89 61 54 62 55 63 69 65 90 66 57 67
REMARK SMILES IDX 41 68 42 69 50 70 43 71 45 72 51 73 44 74 46 75 47 76 48 77
REMARK SMILES IDX 49 78 73 79 74 80 82 81 75 82 77 83 83 84 76 85 78 86 79 87
REMARK SMILES IDX 80 88 81 89 58 90 59 91 67 92 60 93 62 94 68 95 61 96 63 97
REMARK SMILES IDX 64 98 65 99 66 100
REMARK H PARENT 22 7 11 16 29 34 88 53 56 64
REMARK Flexibility Score: inf
ROOT
ATOM      1  C   UNL A   1      32.686  27.840  26.919  1.00  0.00     0.002 C 
ENDROOT
BRANCH   1   2
ATOM      2  C   UNL A   1      33.524  27.498  25.684  1.00  0.00     0.021 C 
BRANCH   2   3
ATOM      3  C   UNL A   1      33.823  26.013  25.471  1.00  0.00     0.116 C 
BRANCH   3   4
ATOM      4  N   UNL A   1      33.969  25.648  24.076  1.00  0.00    -0.356 N 
ATOM      5  C   UNL A   1      34.382  24.479  23.511  1.00  0.00     0.224 C 
ATOM      6  O   UNL A   1      34.420  24.411  22.278  1.00  0.00    -0.275 OA
ATOM      7  H   UNL A   1      33.735  26.358  23.435  1.00  0.00     0.163 HD
BRANCH   5   8
ATOM      8  C   UNL A   1      34.712  23.245  24.353  1.00  0.00     0.095 C 
ATOM      9  C   UNL A   1      33.609  22.141  24.506  1.00  0.00     0.095 C 
ATOM     10  C   UNL A   1      34.164  20.741  24.860  1.00  0.00     0.041 C 
ATOM     11  C   UNL A   1      35.646  20.556  24.934  1.00  0.00    -0.030 C 
ATOM     12  C   UNL A   1      36.152  22.805  24.028  1.00  0.00     0.041 C 
ATOM     13  C   UNL A   1      36.539  21.468  24.550  1.00  0.00    -0.030 C 
BRANCH   9  14
ATOM     14  C   UNL A   1      32.453  22.198  23.475  1.00  0.00     0.228 C 
ATOM     15  N   UNL A   1      31.209  22.645  23.808  1.00  0.00    -0.326 N 
ATOM     16  H   UNL A   1      30.470  22.038  23.572  1.00  0.00     0.169 HD
ATOM     17  O   UNL A   1      32.619  21.844  22.307  1.00  0.00    -0.274 OA
BRANCH  15  18
ATOM     18  C   UNL A   1      30.823  23.841  24.437  1.00  0.00     0.044 A 
ATOM     19  C   UNL A   1      30.167  26.159  24.075  1.00  0.00     0.062 A 
ATOM     20  C   UNL A   1      29.899  26.294  25.437  1.00  0.00     0.016 A 
ATOM     21  C   UNL A   1      30.648  24.938  23.586  1.00  0.00     0.042 A 
ATOM     22  C   UNL A   1      30.152  25.230  26.302  1.00  0.00     0.006 A 
ATOM     23  C   UNL A   1      30.654  24.006  25.821  1.00  0.00    -0.027 A 
ATOM     24  C   UNL A   1      31.070  22.985  26.841  1.00  0.00     0.046 C 
BRANCH  19  25
ATOM     25  C   UNL A   1      29.805  27.267  23.154  1.00  0.00     0.337 C 
ATOM     26  O   UNL A   1      28.706  27.802  23.150  1.00  0.00    -0.246 OA
BRANCH  25  27
ATOM     27  O   UNL A   1      30.811  27.443  22.271  1.00  0.00    -0.465 OA
ATOM     28  C   UNL A   1      31.785  28.437  22.592  1.00  0.00     0.282 C 
ENDBRANCH  25  27
ENDBRANCH  19  25
ENDBRANCH  15  18
ENDBRANCH   9  14
ENDBRANCH   5   8
ENDBRANCH   3   4
ENDBRANCH   2   3
ENDBRANCH   1   2
BRANCH   1  29
ATOM     29  C   UNL A   1      32.219  29.295  27.045  1.00  0.00     0.002 C 
BRANCH  29  30
ATOM     30  C   UNL A   1      33.218  30.277  27.655  1.00  0.00     0.021 C 
BRANCH  30  31
ATOM     31  C   UNL A   1      34.556  30.357  26.939  1.00  0.00     0.116 C 
BRANCH  31  32
ATOM     32  N   UNL A   1      35.440  31.352  27.504  1.00  0.00    -0.352 N 
ATOM     33  C   UNL A   1      36.597  31.183  28.240  1.00  0.00     0.251 C 
ATOM     34  H   UNL A   1      35.180  32.287  27.341  1.00  0.00     0.163 HD
ATOM     35  O   UNL A   1      37.024  32.140  28.881  1.00  0.00    -0.269 OA
BRANCH  33  36
ATOM     36  C   UNL A   1      37.392  29.935  28.100  1.00  0.00     0.039 A 
ATOM     37  C   UNL A   1      37.307  29.020  29.158  1.00  0.00     0.014 A 
ATOM     38  C   UNL A   1      38.393  29.793  27.143  1.00  0.00     0.014 A 
ATOM     39  C   UNL A   1      38.378  28.172  29.424  1.00  0.00     0.010 A 
ATOM     40  C   UNL A   1      39.487  29.011  27.441  1.00  0.00     0.010 A 
ATOM     41  C   UNL A   1      39.512  28.282  28.632  1.00  0.00    -0.014 A 
BRANCH  41  42
ATOM     42  C   UNL A   1      40.811  27.730  28.969  1.00  0.00     0.031 A 
ATOM     43  C   UNL A   1      41.139  26.346  28.595  1.00  0.00     0.074 A 
ATOM     44  C   UNL A   1      41.769  28.586  29.396  1.00  0.00     0.049 A 
ATOM     45  N   UNL A   1      42.241  25.768  28.925  1.00  0.00    -0.248 NA
ATOM     46  C   UNL A   1      40.236  25.488  27.830  1.00  0.00     0.031 C 
ATOM     47  C   UNL A   1      43.215  28.396  29.369  1.00  0.00     0.029 A 
ATOM     48  N   UNL A   1      41.605  29.750  30.159  1.00  0.00    -0.354 N 
ATOM     49  C   UNL A   1      42.343  24.643  28.147  1.00  0.00     0.074 A 
ATOM     50  C   UNL A   1      41.024  24.430  27.609  1.00  0.00     0.031 C 
ATOM     51  C   UNL A   1      43.772  29.193  30.295  1.00  0.00     0.029 A 
ATOM     52  C   UNL A   1      42.679  29.747  31.073  1.00  0.00     0.049 A 
ATOM     53  H   UNL A   1      40.893  30.425  30.075  1.00  0.00     0.167 HD
ATOM     54  C   UNL A   1      43.580  24.128  27.922  1.00  0.00     0.034 A 
ATOM     55  C   UNL A   1      42.504  29.566  32.420  1.00  0.00     0.034 A 
ATOM     56  C   UNL A   1      44.558  24.658  28.882  1.00  0.00     0.049 A 
ATOM     57  C   UNL A   1      43.219  28.332  32.973  1.00  0.00     0.074 A 
ATOM     58  C   UNL A   1      45.604  25.561  28.835  1.00  0.00     0.029 A 
ATOM     59  N   UNL A   1      44.323  24.423  30.228  1.00  0.00    -0.354 N 
ATOM     60  N   UNL A   1      43.973  27.526  32.275  1.00  0.00    -0.248 NA
ATOM     61  C   UNL A   1      43.046  27.863  34.350  1.00  0.00     0.031 C 
ATOM     62  C   UNL A   1      45.897  25.960  30.181  1.00  0.00     0.029 A 
ATOM     63  C   UNL A   1      45.067  25.259  31.041  1.00  0.00     0.049 A 
ATOM     64  H   UNL A   1      43.698  23.741  30.567  1.00  0.00     0.167 HD
ATOM     65  C   UNL A   1      44.216  26.387  32.999  1.00  0.00     0.074 A 
ATOM     66  C   UNL A   1      43.655  26.666  34.311  1.00  0.00     0.031 C 
ATOM     67  C   UNL A   1      44.787  25.260  32.475  1.00  0.00     0.034 A 
BRANCH  54  68
ATOM     68  C   UNL A   1      43.943  23.231  26.760  1.00  0.00     0.023 A 
ATOM     69  C   UNL A   1      44.687  23.803  25.707  1.00  0.00     0.012 A 
ATOM     70  C   UNL A   1      43.513  21.892  26.568  1.00  0.00     0.148 A 
ATOM     71  C   UNL A   1      44.996  23.092  24.540  1.00  0.00     0.002 A 
ATOM     72  C   UNL A   1      43.891  21.158  25.440  1.00  0.00     0.091 A 
ATOM     73  F   UNL A   1      42.635  21.338  27.409  1.00  0.00    -0.205 F 
ATOM     74  C   UNL A   1      44.621  21.761  24.415  1.00  0.00     0.022 A 
BRANCH  72  75
ATOM     75  S   UNL A   1      43.486  19.411  25.262  1.00  0.00     0.127 S 
ATOM     76  O   UNL A   1      44.094  18.829  26.457  1.00  0.00    -0.237 OA
ATOM     77  O   UNL A   1      42.022  19.422  25.266  1.00  0.00    -0.237 OA
ATOM     78  O   UNL A   1      44.074  18.992  23.995  1.00  0.00    -0.744 OA
ENDBRANCH  72  75
ENDBRANCH  54  68
BRANCH  55  79
ATOM     79  C   UNL A   1      41.186  30.077  32.914  1.00  0.00     0.023 A 
ATOM     80  C   UNL A   1      40.026  29.380  32.497  1.00  0.00     0.012 A 
ATOM     81  C   UNL A   1      41.098  30.925  34.031  1.00  0.00     0.148 A 
ATOM     82  C   UNL A   1      38.865  29.397  33.273  1.00  0.00     0.002 A 
ATOM     83  C   UNL A   1      39.929  30.955  34.785  1.00  0.00     0.091 A 
ATOM     84  F   UNL A   1      42.173  31.636  34.389  1.00  0.00    -0.205 F 
ATOM     85  C   UNL A   1      38.831  30.153  34.438  1.00  0.00     0.022 A 
BRANCH  83  86
ATOM     86  S   UNL A   1      39.827  31.932  36.290  1.00  0.00     0.127 S 
ATOM     87  O   UNL A   1      39.791  33.289  35.755  1.00  0.00    -0.237 OA
ATOM     88  O   UNL A   1      38.574  31.471  36.886  1.00  0.00    -0.237 OA
ATOM     89  O   UNL A   1      41.015  31.566  37.048  1.00  0.00    -0.744 OA
ENDBRANCH  83  86
ENDBRANCH  55  79
BRANCH  67  90
ATOM     90  C   UNL A   1      45.116  24.052  33.326  1.00  0.00     0.023 A 
ATOM     91  C   UNL A   1      44.098  23.133  33.661  1.00  0.00     0.012 A 
ATOM     92  C   UNL A   1      46.377  23.869  33.942  1.00  0.00     0.148 A 
ATOM     93  C   UNL A   1      44.332  22.058  34.523  1.00  0.00     0.002 A 
ATOM     94  C   UNL A   1      46.573  22.863  34.883  1.00  0.00     0.091 A 
ATOM     95  F   UNL A   1      47.411  24.637  33.580  1.00  0.00    -0.205 F 
ATOM     96  C   UNL A   1      45.562  21.937  35.155  1.00  0.00     0.022 A 
BRANCH  94  97
ATOM     97  S   UNL A   1      48.053  22.784  35.904  1.00  0.00     0.127 S 
ATOM     98  O   UNL A   1      48.089  24.128  36.487  1.00  0.00    -0.237 OA
ATOM     99  O   UNL A   1      47.716  21.720  36.846  1.00  0.00    -0.237 OA
ATOM    100  O   UNL A   1      49.150  22.503  34.988  1.00  0.00    -0.744 OA
ENDBRANCH  94  97
ENDBRANCH  67  90
ENDBRANCH  41  42
ENDBRANCH  33  36
ENDBRANCH  31  32
ENDBRANCH  30  31
ENDBRANCH  29  30
ENDBRANCH   1  29
TORSDOF 20
ENDMDL
