MODEL 1
REMARK VINA RESULT:     -11.9      0.000      0.000
REMARK SMILES CO[C@@H]1C[C@@H](C(=O)NCCCCCCNC(=O)c2ccc(-c3c4nc(c(-c5cccc(S(=O)(=O)[O-])c5F)c5ccc([nH]5)c(-c5cccc(S(=O)(=O)[O-])c5F)c5nc(c(-c6cccc(S(=O)(=O)[O-])c6F)c6ccc3[nH]6)C=C5)C=C4)cc2)N(S(=O)(=O)c2ccc(Cl)cc2F)C1
REMARK SMILES IDX 12 1 11 2 10 3 9 4 8 5 6 6 7 7 5 9 3 10 4 11 93 12 81 13
REMARK SMILES IDX 2 14 1 15 82 16 83 17 84 18 85 19 86 20 91 21 87 22 90 23
REMARK SMILES IDX 92 24 88 25 89 26 13 27 14 28 15 29 16 30 17 32 18 33 19 34
REMARK SMILES IDX 80 35 20 36 79 37 21 38 22 39 23 40 73 41 24 42 78 43 72 44
REMARK SMILES IDX 74 45 25 46 77 47 71 48 70 49 26 51 58 52 38 53 57 54 39 55
REMARK SMILES IDX 42 56 56 57 75 58 40 59 41 60 55 62 76 63 43 64 27 65 28 66
REMARK SMILES IDX 36 67 29 68 31 69 37 70 30 71 32 72 33 73 34 74 35 75 59 76
REMARK SMILES IDX 60 77 68 78 61 79 63 80 69 81 62 82 64 83 65 84 66 85 67 86
REMARK SMILES IDX 44 87 45 88 53 89 46 90 48 91 54 92 47 93 49 94 50 95 51 96
REMARK SMILES IDX 52 97
REMARK H PARENT 8 8 15 31 74 50 42 61
REMARK Flexibility Score: inf
ROOT
ATOM      1  C   UNL A   1      32.396  27.016  26.138  1.00  0.00     0.002 C 
ENDROOT
BRANCH   1   2
ATOM      2  C   UNL A   1      33.912  26.839  26.055  1.00  0.00     0.002 C 
BRANCH   2   3
ATOM      3  C   UNL A   1      34.364  25.538  25.384  1.00  0.00     0.021 C 
BRANCH   3   4
ATOM      4  C   UNL A   1      34.073  24.273  26.188  1.00  0.00     0.116 C 
BRANCH   4   5
ATOM      5  N   UNL A   1      35.150  23.320  26.021  1.00  0.00    -0.355 N 
ATOM      6  C   UNL A   1      35.189  22.022  25.650  1.00  0.00     0.238 C 
ATOM      7  O   UNL A   1      36.314  21.504  25.709  1.00  0.00    -0.273 OA
ATOM      8  H   UNL A   1      36.038  23.697  26.217  1.00  0.00     0.163 HD
BRANCH   6   9
ATOM      9  C   UNL A   1      34.012  21.230  25.124  1.00  0.00     0.165 C 
ATOM     10  C   UNL A   1      33.020  19.211  24.353  1.00  0.00     0.135 C 
ATOM     11  C   UNL A   1      34.373  19.816  24.681  1.00  0.00     0.064 C 
ATOM     12  C   UNL A   1      32.200  20.395  23.816  1.00  0.00     0.135 C 
ATOM     13  N   UNL A   1      32.918  21.674  24.221  1.00  0.00    -0.183 NA
BRANCH  10  14
ATOM     14  O   UNL A   1      32.446  18.678  25.551  1.00  0.00    -0.380 OA
ATOM     15  C   UNL A   1      32.614  17.268  25.638  1.00  0.00     0.195 C 
ENDBRANCH  10  14
BRANCH  13  16
ATOM     16  S   UNL A   1      33.062  22.705  22.899  1.00  0.00     0.246 S 
ATOM     17  O   UNL A   1      34.450  23.115  22.859  1.00  0.00    -0.207 OA
ATOM     18  O   UNL A   1      32.502  21.990  21.768  1.00  0.00    -0.207 OA
BRANCH  16  19
ATOM     19  C   UNL A   1      32.114  24.172  23.024  1.00  0.00     0.118 A 
ATOM     20  C   UNL A   1      31.059  24.158  23.957  1.00  0.00     0.026 A 
ATOM     21  C   UNL A   1      32.337  25.298  22.258  1.00  0.00     0.144 A 
ATOM     22  C   UNL A   1      30.193  25.248  24.055  1.00  0.00     0.022 A 
ATOM     23  C   UNL A   1      31.453  26.377  22.325  1.00  0.00     0.061 A 
ATOM     24  F   UNL A   1      33.399  25.397  21.454  1.00  0.00    -0.205 F 
ATOM     25  C   UNL A   1      30.379  26.343  23.215  1.00  0.00     0.044 A 
ATOM     26  Cl  UNL A   1      29.271  27.656  23.276  1.00  0.00    -0.084 Cl
ENDBRANCH  16  19
ENDBRANCH  13  16
ENDBRANCH   6   9
ENDBRANCH   4   5
ENDBRANCH   3   4
ENDBRANCH   2   3
ENDBRANCH   1   2
BRANCH   1  27
ATOM     27  C   UNL A   1      31.915  28.467  26.052  1.00  0.00     0.021 C 
BRANCH  27  28
ATOM     28  C   UNL A   1      32.991  29.478  25.660  1.00  0.00     0.116 C 
BRANCH  28  29
ATOM     29  N   UNL A   1      32.594  30.843  25.967  1.00  0.00    -0.352 N 
ATOM     30  C   UNL A   1      33.064  31.680  26.948  1.00  0.00     0.251 C 
ATOM     31  H   UNL A   1      31.890  31.218  25.392  1.00  0.00     0.163 HD
ATOM     32  O   UNL A   1      32.471  32.727  27.196  1.00  0.00    -0.269 OA
BRANCH  30  33
ATOM     33  C   UNL A   1      34.276  31.314  27.710  1.00  0.00     0.039 A 
ATOM     34  C   UNL A   1      34.383  30.018  28.221  1.00  0.00     0.014 A 
ATOM     35  C   UNL A   1      35.292  32.248  27.938  1.00  0.00     0.014 A 
ATOM     36  C   UNL A   1      35.531  29.645  28.923  1.00  0.00     0.010 A 
ATOM     37  C   UNL A   1      36.461  31.857  28.588  1.00  0.00     0.010 A 
ATOM     38  C   UNL A   1      36.587  30.555  29.095  1.00  0.00    -0.014 A 
BRANCH  38  39
ATOM     39  C   UNL A   1      37.833  30.142  29.787  1.00  0.00     0.031 A 
ATOM     40  C   UNL A   1      38.142  30.630  31.175  1.00  0.00     0.074 A 
ATOM     41  C   UNL A   1      38.723  29.368  29.135  1.00  0.00     0.049 A 
ATOM     42  N   UNL A   1      39.156  30.330  31.946  1.00  0.00    -0.248 NA
ATOM     43  C   UNL A   1      37.206  31.600  31.768  1.00  0.00     0.031 C 
ATOM     44  C   UNL A   1      38.591  28.917  27.747  1.00  0.00     0.029 A 
ATOM     45  N   UNL A   1      39.919  28.838  29.544  1.00  0.00    -0.354 N 
ATOM     46  C   UNL A   1      38.997  31.090  33.098  1.00  0.00     0.074 A 
ATOM     47  C   UNL A   1      37.808  31.893  32.913  1.00  0.00     0.031 C 
ATOM     48  C   UNL A   1      39.660  28.172  27.425  1.00  0.00     0.029 A 
ATOM     49  C   UNL A   1      40.554  28.094  28.577  1.00  0.00     0.049 A 
ATOM     50  H   UNL A   1      40.289  28.976  30.446  1.00  0.00     0.167 HD
ATOM     51  C   UNL A   1      39.752  31.092  34.223  1.00  0.00     0.034 A 
ATOM     52  C   UNL A   1      41.714  27.413  28.618  1.00  0.00     0.034 A 
ATOM     53  C   UNL A   1      40.903  30.254  34.424  1.00  0.00     0.049 A 
ATOM     54  C   UNL A   1      42.485  27.360  29.908  1.00  0.00     0.074 A 
ATOM     55  C   UNL A   1      41.667  30.099  35.567  1.00  0.00     0.029 A 
ATOM     56  N   UNL A   1      41.460  29.431  33.457  1.00  0.00    -0.354 N 
ATOM     57  N   UNL A   1      42.208  27.925  31.058  1.00  0.00    -0.248 NA
ATOM     58  C   UNL A   1      43.704  26.538  29.921  1.00  0.00     0.031 C 
ATOM     59  C   UNL A   1      42.693  29.188  35.287  1.00  0.00     0.029 A 
ATOM     60  C   UNL A   1      42.563  28.771  33.973  1.00  0.00     0.049 A 
ATOM     61  H   UNL A   1      41.122  29.331  32.538  1.00  0.00     0.167 HD
ATOM     62  C   UNL A   1      43.202  27.511  31.937  1.00  0.00     0.074 A 
ATOM     63  C   UNL A   1      44.070  26.620  31.193  1.00  0.00     0.031 C 
ATOM     64  C   UNL A   1      43.392  27.854  33.235  1.00  0.00     0.034 A 
BRANCH  51  65
ATOM     65  C   UNL A   1      39.307  31.978  35.356  1.00  0.00     0.023 A 
ATOM     66  C   UNL A   1      39.593  33.357  35.304  1.00  0.00     0.012 A 
ATOM     67  C   UNL A   1      38.568  31.467  36.440  1.00  0.00     0.148 A 
ATOM     68  C   UNL A   1      39.178  34.210  36.325  1.00  0.00     0.002 A 
ATOM     69  C   UNL A   1      38.124  32.330  37.437  1.00  0.00     0.091 A 
ATOM     70  F   UNL A   1      38.327  30.149  36.488  1.00  0.00    -0.205 F 
ATOM     71  C   UNL A   1      38.436  33.699  37.386  1.00  0.00     0.022 A 
BRANCH  69  72
ATOM     72  S   UNL A   1      37.102  31.775  38.808  1.00  0.00     0.127 S 
ATOM     73  O   UNL A   1      36.826  30.391  38.429  1.00  0.00    -0.237 OA
ATOM     74  O   UNL A   1      38.003  31.926  39.950  1.00  0.00    -0.237 OA
ATOM     75  O   UNL A   1      35.951  32.667  38.827  1.00  0.00    -0.744 OA
ENDBRANCH  69  72
ENDBRANCH  51  65
BRANCH  52  76
ATOM     76  C   UNL A   1      42.155  26.639  27.425  1.00  0.00     0.023 A 
ATOM     77  C   UNL A   1      42.888  27.292  26.413  1.00  0.00     0.012 A 
ATOM     78  C   UNL A   1      41.906  25.258  27.310  1.00  0.00     0.148 A 
ATOM     79  C   UNL A   1      43.342  26.589  25.298  1.00  0.00     0.002 A 
ATOM     80  C   UNL A   1      42.406  24.553  26.220  1.00  0.00     0.091 A 
ATOM     81  F   UNL A   1      41.193  24.657  28.274  1.00  0.00    -0.205 F 
ATOM     82  C   UNL A   1      43.112  25.219  25.207  1.00  0.00     0.022 A 
BRANCH  80  83
ATOM     83  S   UNL A   1      42.275  22.765  26.098  1.00  0.00     0.127 S 
ATOM     84  O   UNL A   1      40.829  22.568  26.112  1.00  0.00    -0.237 OA
ATOM     85  O   UNL A   1      42.921  22.496  24.813  1.00  0.00    -0.237 OA
ATOM     86  O   UNL A   1      43.003  22.245  27.249  1.00  0.00    -0.744 OA
ENDBRANCH  80  83
ENDBRANCH  52  76
BRANCH  64  87
ATOM     87  C   UNL A   1      44.589  27.268  33.936  1.00  0.00     0.023 A 
ATOM     88  C   UNL A   1      45.815  27.964  33.911  1.00  0.00     0.012 A 
ATOM     89  C   UNL A   1      44.493  26.067  34.665  1.00  0.00     0.148 A 
ATOM     90  C   UNL A   1      46.933  27.456  34.570  1.00  0.00     0.002 A 
ATOM     91  C   UNL A   1      45.601  25.589  35.355  1.00  0.00     0.091 A 
ATOM     92  F   UNL A   1      43.327  25.404  34.661  1.00  0.00    -0.205 F 
ATOM     93  C   UNL A   1      46.824  26.276  35.302  1.00  0.00     0.022 A 
BRANCH  91  94
ATOM     94  S   UNL A   1      45.512  24.121  36.389  1.00  0.00     0.127 S 
ATOM     95  O   UNL A   1      44.577  24.544  37.430  1.00  0.00    -0.237 OA
ATOM     96  O   UNL A   1      44.984  23.114  35.469  1.00  0.00    -0.237 OA
ATOM     97  O   UNL A   1      46.879  23.871  36.827  1.00  0.00    -0.744 OA
ENDBRANCH  91  94
ENDBRANCH  64  87
ENDBRANCH  38  39
ENDBRANCH  30  33
ENDBRANCH  28  29
ENDBRANCH  27  28
ENDBRANCH   1  27
TORSDOF 19
ENDMDL
MODEL 2
REMARK VINA RESULT:     -11.6      5.227     10.134
REMARK SMILES CO[C@@H]1C[C@@H](C(=O)NCCCCCCNC(=O)c2ccc(-c3c4nc(c(-c5cccc(S(=O)(=O)[O-])c5F)c5ccc([nH]5)c(-c5cccc(S(=O)(=O)[O-])c5F)c5nc(c(-c6cccc(S(=O)(=O)[O-])c6F)c6ccc3[nH]6)C=C5)C=C4)cc2)N(S(=O)(=O)c2ccc(Cl)cc2F)C1
REMARK SMILES IDX 12 1 11 2 10 3 9 4 8 5 6 6 7 7 5 9 3 10 4 11 93 12 81 13
REMARK SMILES IDX 2 14 1 15 82 16 83 17 84 18 85 19 86 20 91 21 87 22 90 23
REMARK SMILES IDX 92 24 88 25 89 26 13 27 14 28 15 29 16 30 17 32 18 33 19 34
REMARK SMILES IDX 80 35 20 36 79 37 21 38 22 39 23 40 73 41 24 42 78 43 72 44
REMARK SMILES IDX 74 45 25 46 77 47 71 48 70 49 26 51 58 52 38 53 57 54 39 55
REMARK SMILES IDX 42 56 56 57 75 58 40 59 41 60 55 62 76 63 43 64 27 65 28 66
REMARK SMILES IDX 36 67 29 68 31 69 37 70 30 71 32 72 33 73 34 74 35 75 59 76
REMARK SMILES IDX 60 77 68 78 61 79 63 80 69 81 62 82 64 83 65 84 66 85 67 86
REMARK SMILES IDX 44 87 45 88 53 89 46 90 48 91 54 92 47 93 49 94 50 95 51 96
REMARK SMILES IDX 52 97
REMARK H PARENT 8 8 15 31 74 50 42 61
REMARK Flexibility Score: inf
ROOT
ATOM      1  C   UNL A   1      34.334  22.672  27.175  1.00  0.00     0.002 C 
ENDROOT
BRANCH   1   2
ATOM      2  C   UNL A   1      32.810  22.568  27.137  1.00  0.00     0.002 C 
BRANCH   2   3
ATOM      3  C   UNL A   1      32.249  21.935  25.858  1.00  0.00     0.021 C 
BRANCH   3   4
ATOM      4  C   UNL A   1      31.633  22.928  24.874  1.00  0.00     0.116 C 
BRANCH   4   5
ATOM      5  N   UNL A   1      30.598  23.698  25.528  1.00  0.00    -0.355 N 
ATOM      6  C   UNL A   1      30.525  24.977  25.956  1.00  0.00     0.238 C 
ATOM      7  O   UNL A   1      29.481  25.258  26.564  1.00  0.00    -0.273 OA
ATOM      8  H   UNL A   1      29.775  23.183  25.695  1.00  0.00     0.163 HD
BRANCH   6   9
ATOM      9  C   UNL A   1      31.559  26.047  25.684  1.00  0.00     0.165 C 
ATOM     10  C   UNL A   1      32.537  28.174  26.104  1.00  0.00     0.135 C 
ATOM     11  C   UNL A   1      31.302  27.353  26.428  1.00  0.00     0.064 C 
ATOM     12  C   UNL A   1      32.918  27.734  24.682  1.00  0.00     0.135 C 
ATOM     13  N   UNL A   1      32.187  26.431  24.392  1.00  0.00    -0.183 NA
BRANCH  10  14
ATOM     14  O   UNL A   1      33.568  27.853  27.043  1.00  0.00    -0.380 OA
ATOM     15  C   UNL A   1      34.351  28.992  27.382  1.00  0.00     0.195 C 
ENDBRANCH  10  14
BRANCH  13  16
ATOM     16  S   UNL A   1      31.429  26.509  22.891  1.00  0.00     0.246 S 
ATOM     17  O   UNL A   1      32.468  26.828  21.933  1.00  0.00    -0.207 OA
ATOM     18  O   UNL A   1      30.692  25.267  22.748  1.00  0.00    -0.207 OA
BRANCH  16  19
ATOM     19  C   UNL A   1      30.224  27.771  22.756  1.00  0.00     0.118 A 
ATOM     20  C   UNL A   1      30.627  28.955  22.109  1.00  0.00     0.026 A 
ATOM     21  C   UNL A   1      28.942  27.666  23.258  1.00  0.00     0.144 A 
ATOM     22  C   UNL A   1      29.763  30.049  22.040  1.00  0.00     0.022 A 
ATOM     23  C   UNL A   1      28.086  28.769  23.225  1.00  0.00     0.061 A 
ATOM     24  F   UNL A   1      28.483  26.520  23.766  1.00  0.00    -0.205 F 
ATOM     25  C   UNL A   1      28.504  29.958  22.627  1.00  0.00     0.044 A 
ATOM     26  Cl  UNL A   1      27.462  31.326  22.615  1.00  0.00    -0.084 Cl
ENDBRANCH  16  19
ENDBRANCH  13  16
ENDBRANCH   6   9
ENDBRANCH   4   5
ENDBRANCH   3   4
ENDBRANCH   2   3
ENDBRANCH   1   2
BRANCH   1  27
ATOM     27  C   UNL A   1      35.067  21.677  26.270  1.00  0.00     0.021 C 
BRANCH  27  28
ATOM     28  C   UNL A   1      36.435  22.147  25.776  1.00  0.00     0.116 C 
BRANCH  28  29
ATOM     29  N   UNL A   1      37.431  21.090  25.845  1.00  0.00    -0.352 N 
ATOM     30  C   UNL A   1      38.781  21.187  26.067  1.00  0.00     0.251 C 
ATOM     31  H   UNL A   1      37.088  20.177  25.713  1.00  0.00     0.163 HD
ATOM     32  O   UNL A   1      39.503  20.210  25.888  1.00  0.00    -0.269 OA
BRANCH  30  33
ATOM     33  C   UNL A   1      39.364  22.471  26.511  1.00  0.00     0.039 A 
ATOM     34  C   UNL A   1      40.422  22.450  27.422  1.00  0.00     0.014 A 
ATOM     35  C   UNL A   1      38.856  23.689  26.048  1.00  0.00     0.014 A 
ATOM     36  C   UNL A   1      41.001  23.651  27.835  1.00  0.00     0.010 A 
ATOM     37  C   UNL A   1      39.473  24.883  26.416  1.00  0.00     0.010 A 
ATOM     38  C   UNL A   1      40.545  24.876  27.320  1.00  0.00    -0.014 A 
BRANCH  38  39
ATOM     39  C   UNL A   1      41.200  26.149  27.710  1.00  0.00     0.031 A 
ATOM     40  C   UNL A   1      42.616  26.444  27.296  1.00  0.00     0.074 A 
ATOM     41  C   UNL A   1      40.535  27.020  28.493  1.00  0.00     0.049 A 
ATOM     42  N   UNL A   1      43.325  27.524  27.505  1.00  0.00    -0.248 NA
ATOM     43  C   UNL A   1      43.339  25.382  26.578  1.00  0.00     0.031 C 
ATOM     44  C   UNL A   1      39.198  26.802  29.051  1.00  0.00     0.029 A 
ATOM     45  N   UNL A   1      40.897  28.254  28.970  1.00  0.00    -0.354 N 
ATOM     46  C   UNL A   1      44.581  27.264  26.970  1.00  0.00     0.074 A 
ATOM     47  C   UNL A   1      44.549  25.911  26.458  1.00  0.00     0.031 C 
ATOM     48  C   UNL A   1      38.850  27.870  29.786  1.00  0.00     0.029 A 
ATOM     49  C   UNL A   1      39.937  28.845  29.757  1.00  0.00     0.049 A 
ATOM     50  H   UNL A   1      41.763  28.676  28.769  1.00  0.00     0.167 HD
ATOM     51  C   UNL A   1      45.652  28.089  26.880  1.00  0.00     0.034 A 
ATOM     52  C   UNL A   1      39.925  30.043  30.372  1.00  0.00     0.034 A 
ATOM     53  C   UNL A   1      45.662  29.451  27.343  1.00  0.00     0.049 A 
ATOM     54  C   UNL A   1      41.090  30.974  30.180  1.00  0.00     0.074 A 
ATOM     55  C   UNL A   1      46.656  30.403  27.198  1.00  0.00     0.029 A 
ATOM     56  N   UNL A   1      44.631  30.055  28.046  1.00  0.00    -0.354 N 
ATOM     57  N   UNL A   1      42.191  30.786  29.494  1.00  0.00    -0.248 NA
ATOM     58  C   UNL A   1      40.992  32.301  30.807  1.00  0.00     0.031 C 
ATOM     59  C   UNL A   1      46.227  31.581  27.822  1.00  0.00     0.029 A 
ATOM     60  C   UNL A   1      44.965  31.364  28.349  1.00  0.00     0.049 A 
ATOM     61  H   UNL A   1      43.784  29.617  28.293  1.00  0.00     0.167 HD
ATOM     62  C   UNL A   1      42.907  31.974  29.587  1.00  0.00     0.074 A 
ATOM     63  C   UNL A   1      42.098  32.887  30.369  1.00  0.00     0.031 C 
ATOM     64  C   UNL A   1      44.132  32.275  29.090  1.00  0.00     0.034 A 
BRANCH  51  65
ATOM     65  C   UNL A   1      46.879  27.562  26.186  1.00  0.00     0.023 A 
ATOM     66  C   UNL A   1      47.770  26.734  26.898  1.00  0.00     0.012 A 
ATOM     67  C   UNL A   1      47.128  27.835  24.827  1.00  0.00     0.148 A 
ATOM     68  C   UNL A   1      48.905  26.211  26.281  1.00  0.00     0.002 A 
ATOM     69  C   UNL A   1      48.242  27.280  24.207  1.00  0.00     0.091 A 
ATOM     70  F   UNL A   1      46.285  28.646  24.171  1.00  0.00    -0.205 F 
ATOM     71  C   UNL A   1      49.135  26.475  24.934  1.00  0.00     0.022 A 
BRANCH  69  72
ATOM     72  S   UNL A   1      48.585  27.507  22.458  1.00  0.00     0.127 S 
ATOM     73  O   UNL A   1      47.425  28.285  22.028  1.00  0.00    -0.237 OA
ATOM     74  O   UNL A   1      49.844  28.252  22.480  1.00  0.00    -0.237 OA
ATOM     75  O   UNL A   1      48.689  26.166  21.898  1.00  0.00    -0.744 OA
ENDBRANCH  69  72
ENDBRANCH  51  65
BRANCH  52  76
ATOM     76  C   UNL A   1      38.718  30.466  31.135  1.00  0.00     0.023 A 
ATOM     77  C   UNL A   1      38.662  30.223  32.522  1.00  0.00     0.012 A 
ATOM     78  C   UNL A   1      37.657  31.152  30.514  1.00  0.00     0.148 A 
ATOM     79  C   UNL A   1      37.560  30.635  33.272  1.00  0.00     0.002 A 
ATOM     80  C   UNL A   1      36.585  31.604  31.276  1.00  0.00     0.091 A 
ATOM     81  F   UNL A   1      37.721  31.359  29.191  1.00  0.00    -0.205 F 
ATOM     82  C   UNL A   1      36.528  31.334  32.652  1.00  0.00     0.022 A 
BRANCH  80  83
ATOM     83  S   UNL A   1      35.287  32.633  30.581  1.00  0.00     0.127 S 
ATOM     84  O   UNL A   1      34.862  31.844  29.430  1.00  0.00    -0.237 OA
ATOM     85  O   UNL A   1      34.321  32.692  31.679  1.00  0.00    -0.237 OA
ATOM     86  O   UNL A   1      35.923  33.910  30.283  1.00  0.00    -0.744 OA
ENDBRANCH  80  83
ENDBRANCH  52  76
BRANCH  64  87
ATOM     87  C   UNL A   1      44.677  33.648  29.380  1.00  0.00     0.023 A 
ATOM     88  C   UNL A   1      45.367  33.878  30.587  1.00  0.00     0.012 A 
ATOM     89  C   UNL A   1      44.561  34.694  28.442  1.00  0.00     0.148 A 
ATOM     90  C   UNL A   1      45.902  35.133  30.872  1.00  0.00     0.002 A 
ATOM     91  C   UNL A   1      45.134  35.931  28.715  1.00  0.00     0.091 A 
ATOM     92  F   UNL A   1      43.882  34.467  27.308  1.00  0.00    -0.205 F 
ATOM     93  C   UNL A   1      45.796  36.156  29.932  1.00  0.00     0.022 A 
BRANCH  91  94
ATOM     94  S   UNL A   1      45.113  37.269  27.515  1.00  0.00     0.127 S 
ATOM     95  O   UNL A   1      45.944  36.724  26.443  1.00  0.00    -0.237 OA
ATOM     96  O   UNL A   1      43.691  37.380  27.186  1.00  0.00    -0.237 OA
ATOM     97  O   UNL A   1      45.655  38.426  28.215  1.00  0.00    -0.744 OA
ENDBRANCH  91  94
ENDBRANCH  64  87
ENDBRANCH  38  39
ENDBRANCH  30  33
ENDBRANCH  28  29
ENDBRANCH  27  28
ENDBRANCH   1  27
TORSDOF 19
ENDMDL
MODEL 3
REMARK VINA RESULT:     -11.4      1.901      3.100
REMARK SMILES CO[C@@H]1C[C@@H](C(=O)NCCCCCCNC(=O)c2ccc(-c3c4nc(c(-c5cccc(S(=O)(=O)[O-])c5F)c5ccc([nH]5)c(-c5cccc(S(=O)(=O)[O-])c5F)c5nc(c(-c6cccc(S(=O)(=O)[O-])c6F)c6ccc3[nH]6)C=C5)C=C4)cc2)N(S(=O)(=O)c2ccc(Cl)cc2F)C1
REMARK SMILES IDX 12 1 11 2 10 3 9 4 8 5 6 6 7 7 5 9 3 10 4 11 93 12 81 13
REMARK SMILES IDX 2 14 1 15 82 16 83 17 84 18 85 19 86 20 91 21 87 22 90 23
REMARK SMILES IDX 92 24 88 25 89 26 13 27 14 28 15 29 16 30 17 32 18 33 19 34
REMARK SMILES IDX 80 35 20 36 79 37 21 38 22 39 23 40 73 41 24 42 78 43 72 44
REMARK SMILES IDX 74 45 25 46 77 47 71 48 70 49 26 51 58 52 38 53 57 54 39 55
REMARK SMILES IDX 42 56 56 57 75 58 40 59 41 60 55 62 76 63 43 64 27 65 28 66
REMARK SMILES IDX 36 67 29 68 31 69 37 70 30 71 32 72 33 73 34 74 35 75 59 76
REMARK SMILES IDX 60 77 68 78 61 79 63 80 69 81 62 82 64 83 65 84 66 85 67 86
REMARK SMILES IDX 44 87 45 88 53 89 46 90 48 91 54 92 47 93 49 94 50 95 51 96
REMARK SMILES IDX 52 97
REMARK H PARENT 8 8 15 31 74 50 42 61
REMARK Flexibility Score: inf
ROOT
ATOM      1  C   UNL A   1      34.075  28.819  26.009  1.00  0.00     0.002 C 
ENDROOT
BRANCH   1   2
ATOM      2  C   UNL A   1      33.755  27.464  25.380  1.00  0.00     0.002 C 
BRANCH   2   3
ATOM      3  C   UNL A   1      32.350  26.935  25.689  1.00  0.00     0.021 C 
BRANCH   3   4
ATOM      4  C   UNL A   1      32.012  25.602  25.027  1.00  0.00     0.116 C 
BRANCH   4   5
ATOM      5  N   UNL A   1      32.513  25.580  23.669  1.00  0.00    -0.355 N 
ATOM      6  C   UNL A   1      33.515  24.909  23.063  1.00  0.00     0.238 C 
ATOM      7  O   UNL A   1      33.704  25.225  21.879  1.00  0.00    -0.273 OA
ATOM      8  H   UNL A   1      32.020  26.178  23.062  1.00  0.00     0.163 HD
BRANCH   6   9
ATOM      9  C   UNL A   1      34.328  23.800  23.694  1.00  0.00     0.165 C 
ATOM     10  C   UNL A   1      36.217  22.356  23.751  1.00  0.00     0.135 C 
ATOM     11  C   UNL A   1      35.504  23.338  22.839  1.00  0.00     0.064 C 
ATOM     12  C   UNL A   1      35.087  21.714  24.570  1.00  0.00     0.135 C 
ATOM     13  N   UNL A   1      33.854  22.593  24.422  1.00  0.00    -0.183 NA
BRANCH  10  14
ATOM     14  O   UNL A   1      37.125  23.078  24.590  1.00  0.00    -0.380 OA
ATOM     15  C   UNL A   1      37.139  22.567  25.919  1.00  0.00     0.195 C 
ENDBRANCH  10  14
BRANCH  13  16
ATOM     16  S   UNL A   1      32.510  21.655  24.042  1.00  0.00     0.246 S 
ATOM     17  O   UNL A   1      31.439  22.123  24.897  1.00  0.00    -0.207 OA
ATOM     18  O   UNL A   1      32.354  21.739  22.602  1.00  0.00    -0.207 OA
BRANCH  16  19
ATOM     19  C   UNL A   1      32.704  19.948  24.378  1.00  0.00     0.118 A 
ATOM     20  C   UNL A   1      32.637  19.080  23.271  1.00  0.00     0.026 A 
ATOM     21  C   UNL A   1      32.897  19.431  25.644  1.00  0.00     0.144 A 
ATOM     22  C   UNL A   1      32.686  17.698  23.457  1.00  0.00     0.022 A 
ATOM     23  C   UNL A   1      32.909  18.049  25.840  1.00  0.00     0.061 A 
ATOM     24  F   UNL A   1      33.090  20.225  26.700  1.00  0.00    -0.205 F 
ATOM     25  C   UNL A   1      32.793  17.188  24.748  1.00  0.00     0.044 A 
ATOM     26  Cl  UNL A   1      32.777  15.487  24.993  1.00  0.00    -0.084 Cl
ENDBRANCH  16  19
ENDBRANCH  13  16
ENDBRANCH   6   9
ENDBRANCH   4   5
ENDBRANCH   3   4
ENDBRANCH   2   3
ENDBRANCH   1   2
BRANCH   1  27
ATOM     27  C   UNL A   1      32.989  29.884  25.822  1.00  0.00     0.021 C 
BRANCH  27  28
ATOM     28  C   UNL A   1      32.496  30.530  27.116  1.00  0.00     0.116 C 
BRANCH  28  29
ATOM     29  N   UNL A   1      32.620  31.979  27.082  1.00  0.00    -0.352 N 
ATOM     30  C   UNL A   1      33.573  32.779  27.661  1.00  0.00     0.251 C 
ATOM     31  H   UNL A   1      31.924  32.451  26.572  1.00  0.00     0.163 HD
ATOM     32  O   UNL A   1      33.408  33.995  27.703  1.00  0.00    -0.269 OA
BRANCH  30  33
ATOM     33  C   UNL A   1      34.788  32.173  28.243  1.00  0.00     0.039 A 
ATOM     34  C   UNL A   1      35.997  32.867  28.149  1.00  0.00     0.014 A 
ATOM     35  C   UNL A   1      34.742  30.919  28.860  1.00  0.00     0.014 A 
ATOM     36  C   UNL A   1      37.152  32.322  28.714  1.00  0.00     0.010 A 
ATOM     37  C   UNL A   1      35.882  30.404  29.474  1.00  0.00     0.010 A 
ATOM     38  C   UNL A   1      37.100  31.096  29.398  1.00  0.00    -0.014 A 
BRANCH  38  39
ATOM     39  C   UNL A   1      38.312  30.546  30.053  1.00  0.00     0.031 A 
ATOM     40  C   UNL A   1      38.699  30.975  31.442  1.00  0.00     0.074 A 
ATOM     41  C   UNL A   1      39.104  29.699  29.367  1.00  0.00     0.049 A 
ATOM     42  N   UNL A   1      39.694  30.560  32.183  1.00  0.00    -0.248 NA
ATOM     43  C   UNL A   1      37.880  32.023  32.071  1.00  0.00     0.031 C 
ATOM     44  C   UNL A   1      38.897  29.290  27.976  1.00  0.00     0.029 A 
ATOM     45  N   UNL A   1      40.250  29.043  29.740  1.00  0.00    -0.354 N 
ATOM     46  C   UNL A   1      39.639  31.310  33.351  1.00  0.00     0.074 A 
ATOM     47  C   UNL A   1      38.533  32.232  33.207  1.00  0.00     0.031 C 
ATOM     48  C   UNL A   1      39.878  28.446  27.617  1.00  0.00     0.029 A 
ATOM     49  C   UNL A   1      40.784  28.257  28.746  1.00  0.00     0.049 A 
ATOM     50  H   UNL A   1      40.651  29.127  30.635  1.00  0.00     0.167 HD
ATOM     51  C   UNL A   1      40.414  31.216  34.457  1.00  0.00     0.034 A 
ATOM     52  C   UNL A   1      41.871  27.462  28.749  1.00  0.00     0.034 A 
ATOM     53  C   UNL A   1      41.478  30.262  34.618  1.00  0.00     0.049 A 
ATOM     54  C   UNL A   1      42.661  27.308  30.019  1.00  0.00     0.074 A 
ATOM     55  C   UNL A   1      42.248  30.010  35.740  1.00  0.00     0.029 A 
ATOM     56  N   UNL A   1      41.928  29.405  33.625  1.00  0.00    -0.354 N 
ATOM     57  N   UNL A   1      42.467  27.876  31.184  1.00  0.00    -0.248 NA
ATOM     58  C   UNL A   1      43.790  26.367  29.990  1.00  0.00     0.031 C 
ATOM     59  C   UNL A   1      43.170  29.005  35.421  1.00  0.00     0.029 A 
ATOM     60  C   UNL A   1      42.970  28.628  34.103  1.00  0.00     0.049 A 
ATOM     61  H   UNL A   1      41.561  29.357  32.712  1.00  0.00     0.167 HD
ATOM     62  C   UNL A   1      43.433  27.348  32.032  1.00  0.00     0.074 A 
ATOM     63  C   UNL A   1      44.190  26.388  31.254  1.00  0.00     0.031 C 
ATOM     64  C   UNL A   1      43.686  27.646  33.331  1.00  0.00     0.034 A 
BRANCH  51  65
ATOM     65  C   UNL A   1      40.086  32.120  35.615  1.00  0.00     0.023 A 
ATOM     66  C   UNL A   1      40.778  33.341  35.752  1.00  0.00     0.012 A 
ATOM     67  C   UNL A   1      39.068  31.798  36.533  1.00  0.00     0.148 A 
ATOM     68  C   UNL A   1      40.485  34.212  36.799  1.00  0.00     0.002 A 
ATOM     69  C   UNL A   1      38.756  32.689  37.554  1.00  0.00     0.091 A 
ATOM     70  F   UNL A   1      38.438  30.621  36.405  1.00  0.00    -0.205 F 
ATOM     71  C   UNL A   1      39.469  33.892  37.694  1.00  0.00     0.022 A 
BRANCH  69  72
ATOM     72  S   UNL A   1      37.415  32.395  38.714  1.00  0.00     0.127 S 
ATOM     73  O   UNL A   1      37.841  33.187  39.866  1.00  0.00    -0.237 OA
ATOM     74  O   UNL A   1      36.259  32.935  37.998  1.00  0.00    -0.237 OA
ATOM     75  O   UNL A   1      37.378  30.954  38.918  1.00  0.00    -0.744 OA
ENDBRANCH  69  72
ENDBRANCH  51  65
BRANCH  52  76
ATOM     76  C   UNL A   1      42.205  26.670  27.533  1.00  0.00     0.023 A 
ATOM     77  C   UNL A   1      42.889  27.295  26.471  1.00  0.00     0.012 A 
ATOM     78  C   UNL A   1      41.903  25.298  27.442  1.00  0.00     0.148 A 
ATOM     79  C   UNL A   1      43.245  26.573  25.332  1.00  0.00     0.002 A 
ATOM     80  C   UNL A   1      42.305  24.573  26.325  1.00  0.00     0.091 A 
ATOM     81  F   UNL A   1      41.237  24.724  28.455  1.00  0.00    -0.205 F 
ATOM     82  C   UNL A   1      42.964  25.211  25.264  1.00  0.00     0.022 A 
BRANCH  80  83
ATOM     83  S   UNL A   1      42.107  22.790  26.222  1.00  0.00     0.127 S 
ATOM     84  O   UNL A   1      40.656  22.645  26.283  1.00  0.00    -0.237 OA
ATOM     85  O   UNL A   1      42.704  22.489  24.920  1.00  0.00    -0.237 OA
ATOM     86  O   UNL A   1      42.852  22.252  27.354  1.00  0.00    -0.744 OA
ENDBRANCH  80  83
ENDBRANCH  52  76
BRANCH  64  87
ATOM     87  C   UNL A   1      44.832  26.929  33.994  1.00  0.00     0.023 A 
ATOM     88  C   UNL A   1      46.138  27.441  33.860  1.00  0.00     0.012 A 
ATOM     89  C   UNL A   1      44.617  25.789  34.794  1.00  0.00     0.148 A 
ATOM     90  C   UNL A   1      47.215  26.811  34.482  1.00  0.00     0.002 A 
ATOM     91  C   UNL A   1      45.690  25.192  35.445  1.00  0.00     0.091 A 
ATOM     92  F   UNL A   1      43.371  25.300  34.894  1.00  0.00    -0.205 F 
ATOM     93  C   UNL A   1      46.990  25.695  35.283  1.00  0.00     0.022 A 
BRANCH  91  94
ATOM     94  S   UNL A   1      45.464  23.802  36.563  1.00  0.00     0.127 S 
ATOM     95  O   UNL A   1      44.619  24.387  37.602  1.00  0.00    -0.237 OA
ATOM     96  O   UNL A   1      44.793  22.816  35.715  1.00  0.00    -0.237 OA
ATOM     97  O   UNL A   1      46.806  23.416  36.978  1.00  0.00    -0.744 OA
ENDBRANCH  91  94
ENDBRANCH  64  87
ENDBRANCH  38  39
ENDBRANCH  30  33
ENDBRANCH  28  29
ENDBRANCH  27  28
ENDBRANCH   1  27
TORSDOF 19
ENDMDL
