MODEL 1
REMARK VINA RESULT:     -13.5      0.000      0.000
REMARK SMILES O=C(NCCCCCCNC(=O)c1nccnc1C(=O)Nc1n[nH]c2ncccc12)c1ccc(-c2c3nc(c(-c4cccc(S(=O)(=O)[O-])c4F)c4ccc([nH]4)c(-c4cccc(S(=O)(=O)[O-])c4F)c4nc(c(-c5cccc(S(=O)(=O)[O-])c5F)c5ccc2[nH]5)C=C4)C=C3)cc1
REMARK SMILES IDX 6 1 5 2 4 3 3 4 1 5 2 6 31 8 32 9 93 10 33 11 92 12 34 13
REMARK SMILES IDX 35 14 36 15 86 16 37 17 91 18 85 19 87 20 38 21 90 22 84 23
REMARK SMILES IDX 83 24 39 26 71 27 51 28 70 29 52 30 55 31 69 32 88 33 53 34
REMARK SMILES IDX 54 35 68 37 89 38 56 39 40 40 41 41 49 42 42 43 44 44 50 45
REMARK SMILES IDX 43 46 45 47 46 48 47 49 48 50 72 51 73 52 81 53 74 54 76 55
REMARK SMILES IDX 82 56 75 57 77 58 78 59 79 60 80 61 57 62 58 63 66 64 59 65
REMARK SMILES IDX 61 66 67 67 60 68 62 69 63 70 64 71 65 72 7 73 8 74 9 75
REMARK SMILES IDX 10 76 11 77 12 79 13 80 14 81 18 82 15 83 17 84 16 85 19 86
REMARK SMILES IDX 20 87 21 88 22 90 23 91 30 92 24 93 25 94 29 95 26 97 28 98
REMARK SMILES IDX 27 99
REMARK H PARENT 3 7 87 25 55 36 10 78 21 89 24 96
REMARK Flexibility Score: inf
ROOT
ATOM      1  C   UNL A   1      31.423  30.752  25.815  1.00  0.00     0.002 C 
ENDROOT
BRANCH   1   2
ATOM      2  C   UNL A   1      31.318  32.110  26.502  1.00  0.00     0.021 C 
BRANCH   2   3
ATOM      3  C   UNL A   1      32.585  32.535  27.217  1.00  0.00     0.116 C 
BRANCH   3   4
ATOM      4  N   UNL A   1      32.534  33.942  27.573  1.00  0.00    -0.352 N 
ATOM      5  O   UNL A   1      32.750  35.684  28.985  1.00  0.00    -0.269 OA
ATOM      6  C   UNL A   1      33.166  34.594  28.607  1.00  0.00     0.251 C 
ATOM      7  H   UNL A   1      31.969  34.507  26.997  1.00  0.00     0.163 HD
BRANCH   6   8
ATOM      8  C   UNL A   1      34.333  33.964  29.266  1.00  0.00     0.039 A 
ATOM      9  C   UNL A   1      34.146  32.924  30.176  1.00  0.00     0.014 A 
ATOM     10  C   UNL A   1      35.626  34.394  28.958  1.00  0.00     0.014 A 
ATOM     11  C   UNL A   1      35.217  32.446  30.916  1.00  0.00     0.010 A 
ATOM     12  C   UNL A   1      36.721  33.809  29.603  1.00  0.00     0.010 A 
ATOM     13  C   UNL A   1      36.524  32.851  30.610  1.00  0.00    -0.014 A 
BRANCH  13  14
ATOM     14  C   UNL A   1      37.659  32.187  31.300  1.00  0.00     0.031 A 
ATOM     15  C   UNL A   1      38.428  31.072  30.648  1.00  0.00     0.074 A 
ATOM     16  C   UNL A   1      37.994  32.609  32.536  1.00  0.00     0.049 A 
ATOM     17  N   UNL A   1      39.455  30.405  31.111  1.00  0.00    -0.248 NA
ATOM     18  C   UNL A   1      37.987  30.640  29.313  1.00  0.00     0.031 C 
ATOM     19  C   UNL A   1      37.301  33.665  33.282  1.00  0.00     0.029 A 
ATOM     20  N   UNL A   1      38.997  32.215  33.383  1.00  0.00    -0.354 N 
ATOM     21  C   UNL A   1      39.749  29.441  30.154  1.00  0.00     0.074 A 
ATOM     22  C   UNL A   1      38.788  29.609  29.085  1.00  0.00     0.031 C 
ATOM     23  C   UNL A   1      37.924  33.865  34.451  1.00  0.00     0.029 A 
ATOM     24  C   UNL A   1      39.007  32.900  34.575  1.00  0.00     0.049 A 
ATOM     25  H   UNL A   1      39.647  31.510  33.159  1.00  0.00     0.167 HD
ATOM     26  C   UNL A   1      40.729  28.506  30.168  1.00  0.00     0.034 A 
ATOM     27  C   UNL A   1      39.783  32.755  35.665  1.00  0.00     0.034 A 
ATOM     28  C   UNL A   1      41.684  28.356  31.234  1.00  0.00     0.049 A 
ATOM     29  C   UNL A   1      40.854  31.706  35.652  1.00  0.00     0.074 A 
ATOM     30  C   UNL A   1      42.755  27.483  31.314  1.00  0.00     0.029 A 
ATOM     31  N   UNL A   1      41.670  29.076  32.421  1.00  0.00    -0.354 N 
ATOM     32  N   UNL A   1      41.186  30.880  34.691  1.00  0.00    -0.248 NA
ATOM     33  C   UNL A   1      41.676  31.589  36.862  1.00  0.00     0.031 C 
ATOM     34  C   UNL A   1      43.353  27.637  32.569  1.00  0.00     0.029 A 
ATOM     35  C   UNL A   1      42.697  28.653  33.247  1.00  0.00     0.049 A 
ATOM     36  H   UNL A   1      41.022  29.783  32.643  1.00  0.00     0.167 HD
ATOM     37  C   UNL A   1      42.284  30.172  35.163  1.00  0.00     0.074 A 
ATOM     38  C   UNL A   1      42.566  30.680  36.492  1.00  0.00     0.031 C 
ATOM     39  C   UNL A   1      42.993  29.192  34.551  1.00  0.00     0.034 A 
BRANCH  26  40
ATOM     40  C   UNL A   1      40.807  27.558  28.996  1.00  0.00     0.023 A 
ATOM     41  C   UNL A   1      39.958  26.433  28.931  1.00  0.00     0.012 A 
ATOM     42  C   UNL A   1      41.703  27.803  27.936  1.00  0.00     0.148 A 
ATOM     43  C   UNL A   1      40.038  25.541  27.861  1.00  0.00     0.002 A 
ATOM     44  C   UNL A   1      41.739  26.939  26.848  1.00  0.00     0.091 A 
ATOM     45  F   UNL A   1      42.516  28.866  28.018  1.00  0.00    -0.205 F 
ATOM     46  C   UNL A   1      40.922  25.799  26.816  1.00  0.00     0.022 A 
BRANCH  44  47
ATOM     47  S   UNL A   1      42.781  27.234  25.414  1.00  0.00     0.127 S 
ATOM     48  O   UNL A   1      44.085  27.451  26.038  1.00  0.00    -0.237 OA
ATOM     49  O   UNL A   1      42.658  25.972  24.683  1.00  0.00    -0.237 OA
ATOM     50  O   UNL A   1      42.212  28.388  24.734  1.00  0.00    -0.744 OA
ENDBRANCH  44  47
ENDBRANCH  26  40
BRANCH  27  51
ATOM     51  C   UNL A   1      39.592  33.654  36.836  1.00  0.00     0.023 A 
ATOM     52  C   UNL A   1      40.008  34.996  36.754  1.00  0.00     0.012 A 
ATOM     53  C   UNL A   1      38.964  33.198  38.012  1.00  0.00     0.148 A 
ATOM     54  C   UNL A   1      39.829  35.862  37.833  1.00  0.00     0.002 A 
ATOM     55  C   UNL A   1      38.737  34.080  39.060  1.00  0.00     0.091 A 
ATOM     56  F   UNL A   1      38.577  31.916  38.067  1.00  0.00    -0.205 F 
ATOM     57  C   UNL A   1      39.185  35.407  38.981  1.00  0.00     0.022 A 
BRANCH  55  58
ATOM     58  S   UNL A   1      37.804  33.620  40.524  1.00  0.00     0.127 S 
ATOM     59  O   UNL A   1      38.691  32.641  41.146  1.00  0.00    -0.237 OA
ATOM     60  O   UNL A   1      37.707  34.900  41.227  1.00  0.00    -0.237 OA
ATOM     61  O   UNL A   1      36.534  33.098  40.039  1.00  0.00    -0.744 OA
ENDBRANCH  55  58
ENDBRANCH  27  51
BRANCH  39  62
ATOM     62  C   UNL A   1      44.192  28.647  35.280  1.00  0.00     0.023 A 
ATOM     63  C   UNL A   1      45.479  29.167  35.036  1.00  0.00     0.012 A 
ATOM     64  C   UNL A   1      44.027  27.642  36.255  1.00  0.00     0.148 A 
ATOM     65  C   UNL A   1      46.587  28.664  35.718  1.00  0.00     0.002 A 
ATOM     66  C   UNL A   1      45.125  27.189  36.973  1.00  0.00     0.091 A 
ATOM     67  F   UNL A   1      42.799  27.145  36.457  1.00  0.00    -0.205 F 
ATOM     68  C   UNL A   1      46.409  27.686  36.694  1.00  0.00     0.022 A 
BRANCH  66  69
ATOM     69  S   UNL A   1      44.972  26.010  38.317  1.00  0.00     0.127 S 
ATOM     70  O   UNL A   1      46.343  25.956  38.824  1.00  0.00    -0.237 OA
ATOM     71  O   UNL A   1      44.019  26.677  39.206  1.00  0.00    -0.237 OA
ATOM     72  O   UNL A   1      44.480  24.777  37.719  1.00  0.00    -0.744 OA
ENDBRANCH  66  69
ENDBRANCH  39  62
ENDBRANCH  13  14
ENDBRANCH   6   8
ENDBRANCH   3   4
ENDBRANCH   2   3
ENDBRANCH   1   2
BRANCH   1  73
ATOM     73  C   UNL A   1      32.153  29.625  26.584  1.00  0.00     0.002 C 
BRANCH  73  74
ATOM     74  C   UNL A   1      31.387  28.090  26.961  1.00  0.00     0.021 C 
BRANCH  74  75
ATOM     75  C   UNL A   1      31.934  26.002  26.500  1.00  0.00     0.116 C 
BRANCH  75  76
ATOM     76  N   UNL A   1      31.131  24.622  26.660  1.00  0.00    -0.351 N 
ATOM     77  C   UNL A   1      31.470  23.361  26.215  1.00  0.00     0.272 C 
ATOM     78  H   UNL A   1      30.277  24.684  27.146  1.00  0.00     0.163 HD
ATOM     79  O   UNL A   1      30.696  22.415  26.276  1.00  0.00    -0.267 OA
BRANCH  77  80
ATOM     80  C   UNL A   1      32.835  23.200  25.690  1.00  0.00     0.159 A 
ATOM     81  N   UNL A   1      33.795  23.264  26.674  1.00  0.00    -0.247 NA
ATOM     82  C   UNL A   1      33.139  23.173  24.337  1.00  0.00     0.159 A 
ATOM     83  C   UNL A   1      35.071  23.280  26.253  1.00  0.00     0.132 A 
ATOM     84  N   UNL A   1      34.450  23.193  23.932  1.00  0.00    -0.247 NA
ATOM     85  C   UNL A   1      35.391  23.246  24.910  1.00  0.00     0.132 A 
BRANCH  82  86
ATOM     86  C   UNL A   1      32.157  23.005  23.224  1.00  0.00     0.277 C 
ATOM     87  O   UNL A   1      31.929  21.851  22.842  1.00  0.00    -0.267 OA
ATOM     88  N   UNL A   1      31.450  24.026  22.627  1.00  0.00    -0.303 N 
ATOM     89  H   UNL A   1      30.756  23.730  21.996  1.00  0.00     0.172 HD
BRANCH  88  90
ATOM     90  C   UNL A   1      31.552  25.387  22.766  1.00  0.00     0.164 A 
ATOM     91  N   UNL A   1      32.710  25.965  22.399  1.00  0.00    -0.155 NA
ATOM     92  C   UNL A   1      30.550  26.312  23.121  1.00  0.00     0.063 A 
ATOM     93  N   UNL A   1      32.467  27.265  22.055  1.00  0.00    -0.259 N 
ATOM     94  C   UNL A   1      31.208  27.708  22.338  1.00  0.00     0.157 A 
ATOM     95  C   UNL A   1      28.907  26.423  23.807  1.00  0.00     0.017 A 
ATOM     96  H   UNL A   1      33.149  27.838  21.634  1.00  0.00     0.192 HD
ATOM     97  N   UNL A   1      30.295  29.154  22.005  1.00  0.00    -0.237 NA
ATOM     98  C   UNL A   1      27.915  27.881  23.570  1.00  0.00     0.021 A 
ATOM     99  C   UNL A   1      28.646  29.224  22.707  1.00  0.00     0.113 A 
ENDBRANCH  88  90
ENDBRANCH  82  86
ENDBRANCH  77  80
ENDBRANCH  75  76
ENDBRANCH  74  75
ENDBRANCH  73  74
ENDBRANCH   1  73
TORSDOF 18
ENDMDL
MODEL 2
REMARK VINA RESULT:     -13.4      2.027      7.835
REMARK SMILES O=C(NCCCCCCNC(=O)c1nccnc1C(=O)Nc1n[nH]c2ncccc12)c1ccc(-c2c3nc(c(-c4cccc(S(=O)(=O)[O-])c4F)c4ccc([nH]4)c(-c4cccc(S(=O)(=O)[O-])c4F)c4nc(c(-c5cccc(S(=O)(=O)[O-])c5F)c5ccc2[nH]5)C=C4)C=C3)cc1
REMARK SMILES IDX 6 1 5 2 4 3 3 4 1 5 2 6 31 8 32 9 93 10 33 11 92 12 34 13
REMARK SMILES IDX 35 14 36 15 86 16 37 17 91 18 85 19 87 20 38 21 90 22 84 23
REMARK SMILES IDX 83 24 39 26 71 27 51 28 70 29 52 30 55 31 69 32 88 33 53 34
REMARK SMILES IDX 54 35 68 37 89 38 56 39 40 40 41 41 49 42 42 43 44 44 50 45
REMARK SMILES IDX 43 46 45 47 46 48 47 49 48 50 72 51 73 52 81 53 74 54 76 55
REMARK SMILES IDX 82 56 75 57 77 58 78 59 79 60 80 61 57 62 58 63 66 64 59 65
REMARK SMILES IDX 61 66 67 67 60 68 62 69 63 70 64 71 65 72 7 73 8 74 9 75
REMARK SMILES IDX 10 76 11 77 12 79 13 80 14 81 18 82 15 83 17 84 16 85 19 86
REMARK SMILES IDX 20 87 21 88 22 90 23 91 30 92 24 93 25 94 29 95 26 97 28 98
REMARK SMILES IDX 27 99
REMARK H PARENT 3 7 87 25 55 36 10 78 21 89 24 96
REMARK Flexibility Score: inf
ROOT
ATOM      1  C   UNL A   1      31.930  27.503  26.495  1.00  0.00     0.002 C 
ENDROOT
BRANCH   1   2
ATOM      2  C   UNL A   1      31.767  28.831  25.763  1.00  0.00     0.021 C 
BRANCH   2   3
ATOM      3  C   UNL A   1      33.029  29.669  25.723  1.00  0.00     0.116 C 
BRANCH   3   4
ATOM      4  N   UNL A   1      32.741  31.060  26.027  1.00  0.00    -0.352 N 
ATOM      5  O   UNL A   1      32.636  32.859  27.378  1.00  0.00    -0.269 OA
ATOM      6  C   UNL A   1      33.234  31.839  27.048  1.00  0.00     0.251 C 
ATOM      7  H   UNL A   1      32.106  31.505  25.421  1.00  0.00     0.163 HD
BRANCH   6   8
ATOM      8  C   UNL A   1      34.471  31.431  27.751  1.00  0.00     0.039 A 
ATOM      9  C   UNL A   1      34.607  30.127  28.229  1.00  0.00     0.014 A 
ATOM     10  C   UNL A   1      35.515  32.344  27.916  1.00  0.00     0.014 A 
ATOM     11  C   UNL A   1      35.688  29.789  29.028  1.00  0.00     0.010 A 
ATOM     12  C   UNL A   1      36.671  31.956  28.602  1.00  0.00     0.010 A 
ATOM     13  C   UNL A   1      36.754  30.684  29.191  1.00  0.00    -0.014 A 
BRANCH  13  14
ATOM     14  C   UNL A   1      37.973  30.224  29.904  1.00  0.00     0.031 A 
ATOM     15  C   UNL A   1      38.259  30.641  31.320  1.00  0.00     0.074 A 
ATOM     16  C   UNL A   1      38.829  29.412  29.252  1.00  0.00     0.049 A 
ATOM     17  N   UNL A   1      39.267  30.309  32.084  1.00  0.00    -0.248 NA
ATOM     18  C   UNL A   1      37.299  31.555  31.959  1.00  0.00     0.031 C 
ATOM     19  C   UNL A   1      38.672  28.962  27.864  1.00  0.00     0.029 A 
ATOM     20  N   UNL A   1      39.993  28.814  29.658  1.00  0.00    -0.354 N 
ATOM     21  C   UNL A   1      39.097  31.012  33.271  1.00  0.00     0.074 A 
ATOM     22  C   UNL A   1      37.888  31.793  33.123  1.00  0.00     0.031 C 
ATOM     23  C   UNL A   1      39.671  28.128  27.551  1.00  0.00     0.029 A 
ATOM     24  C   UNL A   1      40.584  28.046  28.683  1.00  0.00     0.049 A 
ATOM     25  H   UNL A   1      40.369  28.924  30.562  1.00  0.00     0.167 HD
ATOM     26  C   UNL A   1      39.877  31.005  34.379  1.00  0.00     0.034 A 
ATOM     27  C   UNL A   1      41.747  27.369  28.682  1.00  0.00     0.034 A 
ATOM     28  C   UNL A   1      41.073  30.217  34.516  1.00  0.00     0.049 A 
ATOM     29  C   UNL A   1      42.591  27.387  29.921  1.00  0.00     0.074 A 
ATOM     30  C   UNL A   1      41.898  30.089  35.620  1.00  0.00     0.029 A 
ATOM     31  N   UNL A   1      41.635  29.442  33.510  1.00  0.00    -0.354 N 
ATOM     32  N   UNL A   1      42.355  27.969  31.070  1.00  0.00    -0.248 NA
ATOM     33  C   UNL A   1      43.849  26.631  29.872  1.00  0.00     0.031 C 
ATOM     34  C   UNL A   1      42.985  29.284  35.265  1.00  0.00     0.029 A 
ATOM     35  C   UNL A   1      42.805  28.853  33.959  1.00  0.00     0.049 A 
ATOM     36  H   UNL A   1      41.257  29.330  32.608  1.00  0.00     0.167 HD
ATOM     37  C   UNL A   1      43.413  27.615  31.898  1.00  0.00     0.074 A 
ATOM     38  C   UNL A   1      44.283  26.757  31.117  1.00  0.00     0.031 C 
ATOM     39  C   UNL A   1      43.642  27.970  33.186  1.00  0.00     0.034 A 
BRANCH  26  40
ATOM     40  C   UNL A   1      39.467  31.893  35.528  1.00  0.00     0.023 A 
ATOM     41  C   UNL A   1      39.882  33.241  35.571  1.00  0.00     0.012 A 
ATOM     42  C   UNL A   1      38.637  31.398  36.554  1.00  0.00     0.148 A 
ATOM     43  C   UNL A   1      39.524  34.063  36.640  1.00  0.00     0.002 A 
ATOM     44  C   UNL A   1      38.240  32.238  37.587  1.00  0.00     0.091 A 
ATOM     45  F   UNL A   1      38.263  30.111  36.508  1.00  0.00    -0.205 F 
ATOM     46  C   UNL A   1      38.696  33.564  37.643  1.00  0.00     0.022 A 
BRANCH  44  47
ATOM     47  S   UNL A   1      37.105  31.713  38.877  1.00  0.00     0.127 S 
ATOM     48  O   UNL A   1      36.006  32.661  38.705  1.00  0.00    -0.237 OA
ATOM     49  O   UNL A   1      36.795  30.341  38.472  1.00  0.00    -0.237 OA
ATOM     50  O   UNL A   1      37.839  31.825  40.129  1.00  0.00    -0.744 OA
ENDBRANCH  44  47
ENDBRANCH  26  40
BRANCH  27  51
ATOM     51  C   UNL A   1      42.152  26.592  27.479  1.00  0.00     0.023 A 
ATOM     52  C   UNL A   1      42.839  27.240  26.435  1.00  0.00     0.012 A 
ATOM     53  C   UNL A   1      41.897  25.210  27.382  1.00  0.00     0.148 A 
ATOM     54  C   UNL A   1      43.239  26.531  25.302  1.00  0.00     0.002 A 
ATOM     55  C   UNL A   1      42.349  24.499  26.278  1.00  0.00     0.091 A 
ATOM     56  F   UNL A   1      41.241  24.615  28.389  1.00  0.00    -0.205 F 
ATOM     57  C   UNL A   1      43.003  25.161  25.228  1.00  0.00     0.022 A 
BRANCH  55  58
ATOM     58  S   UNL A   1      42.206  22.714  26.154  1.00  0.00     0.127 S 
ATOM     59  O   UNL A   1      42.814  22.457  24.850  1.00  0.00    -0.237 OA
ATOM     60  O   UNL A   1      42.998  22.272  27.302  1.00  0.00    -0.237 OA
ATOM     61  O   UNL A   1      40.783  22.421  26.250  1.00  0.00    -0.744 OA
ENDBRANCH  55  58
ENDBRANCH  27  51
BRANCH  39  62
ATOM     62  C   UNL A   1      44.846  27.373  33.865  1.00  0.00     0.023 A 
ATOM     63  C   UNL A   1      46.090  28.034  33.832  1.00  0.00     0.012 A 
ATOM     64  C   UNL A   1      44.724  26.167  34.584  1.00  0.00     0.148 A 
ATOM     65  C   UNL A   1      47.203  27.481  34.467  1.00  0.00     0.002 A 
ATOM     66  C   UNL A   1      45.819  25.654  35.265  1.00  0.00     0.091 A 
ATOM     67  F   UNL A   1      43.538  25.542  34.585  1.00  0.00    -0.205 F 
ATOM     68  C   UNL A   1      47.064  26.300  35.193  1.00  0.00     0.022 A 
BRANCH  66  69
ATOM     69  S   UNL A   1      45.705  24.198  36.308  1.00  0.00     0.127 S 
ATOM     70  O   UNL A   1      44.689  24.604  37.277  1.00  0.00    -0.237 OA
ATOM     71  O   UNL A   1      45.270  23.172  35.359  1.00  0.00    -0.237 OA
ATOM     72  O   UNL A   1      47.039  23.988  36.856  1.00  0.00    -0.744 OA
ENDBRANCH  66  69
ENDBRANCH  39  62
ENDBRANCH  13  14
ENDBRANCH   6   8
ENDBRANCH   3   4
ENDBRANCH   2   3
ENDBRANCH   1   2
BRANCH   1  73
ATOM     73  C   UNL A   1      33.174  26.651  26.146  1.00  0.00     0.002 C 
BRANCH  73  74
ATOM     74  C   UNL A   1      33.127  24.897  26.077  1.00  0.00     0.021 C 
BRANCH  74  75
ATOM     75  C   UNL A   1      31.518  23.436  26.454  1.00  0.00     0.116 C 
BRANCH  75  76
ATOM     76  N   UNL A   1      31.415  21.857  26.180  1.00  0.00    -0.351 N 
ATOM     77  C   UNL A   1      32.250  21.045  25.442  1.00  0.00     0.272 C 
ATOM     78  H   UNL A   1      30.647  21.406  26.599  1.00  0.00     0.163 HD
ATOM     79  O   UNL A   1      31.976  19.879  25.191  1.00  0.00    -0.267 OA
BRANCH  77  80
ATOM     80  C   UNL A   1      33.517  21.647  24.998  1.00  0.00     0.159 A 
ATOM     81  N   UNL A   1      34.483  21.639  25.977  1.00  0.00    -0.247 NA
ATOM     82  C   UNL A   1      33.668  22.313  23.791  1.00  0.00     0.159 A 
ATOM     83  C   UNL A   1      35.614  22.308  25.696  1.00  0.00     0.132 A 
ATOM     84  N   UNL A   1      34.832  22.992  23.528  1.00  0.00    -0.247 NA
ATOM     85  C   UNL A   1      35.783  22.971  24.497  1.00  0.00     0.132 A 
BRANCH  82  86
ATOM     86  C   UNL A   1      32.707  22.281  22.647  1.00  0.00     0.277 C 
ATOM     87  O   UNL A   1      32.449  21.176  22.158  1.00  0.00    -0.267 OA
ATOM     88  N   UNL A   1      32.051  23.377  22.132  1.00  0.00    -0.303 N 
ATOM     89  H   UNL A   1      31.361  23.164  21.463  1.00  0.00     0.172 HD
BRANCH  88  90
ATOM     90  C   UNL A   1      32.196  24.715  22.395  1.00  0.00     0.164 A 
ATOM     91  N   UNL A   1      33.313  25.318  21.951  1.00  0.00    -0.155 NA
ATOM     92  C   UNL A   1      31.263  25.607  22.961  1.00  0.00     0.063 A 
ATOM     93  N   UNL A   1      33.058  26.650  21.773  1.00  0.00    -0.259 N 
ATOM     94  C   UNL A   1      31.851  27.071  22.250  1.00  0.00     0.157 A 
ATOM     95  C   UNL A   1      29.717  25.660  23.849  1.00  0.00     0.017 A 
ATOM     96  H   UNL A   1      33.696  27.257  21.333  1.00  0.00     0.192 HD
ATOM     97  N   UNL A   1      30.934  28.550  22.179  1.00  0.00    -0.237 NA
ATOM     98  C   UNL A   1      28.733  27.142  23.883  1.00  0.00     0.021 A 
ATOM     99  C   UNL A   1      29.383  28.561  23.079  1.00  0.00     0.113 A 
ENDBRANCH  88  90
ENDBRANCH  82  86
ENDBRANCH  77  80
ENDBRANCH  75  76
ENDBRANCH  74  75
ENDBRANCH  73  74
ENDBRANCH   1  73
TORSDOF 18
ENDMDL
MODEL 3
REMARK VINA RESULT:     -13.2      6.081     11.352
REMARK SMILES O=C(NCCCCCCNC(=O)c1nccnc1C(=O)Nc1n[nH]c2ncccc12)c1ccc(-c2c3nc(c(-c4cccc(S(=O)(=O)[O-])c4F)c4ccc([nH]4)c(-c4cccc(S(=O)(=O)[O-])c4F)c4nc(c(-c5cccc(S(=O)(=O)[O-])c5F)c5ccc2[nH]5)C=C4)C=C3)cc1
REMARK SMILES IDX 6 1 5 2 4 3 3 4 1 5 2 6 31 8 32 9 93 10 33 11 92 12 34 13
REMARK SMILES IDX 35 14 36 15 86 16 37 17 91 18 85 19 87 20 38 21 90 22 84 23
REMARK SMILES IDX 83 24 39 26 71 27 51 28 70 29 52 30 55 31 69 32 88 33 53 34
REMARK SMILES IDX 54 35 68 37 89 38 56 39 40 40 41 41 49 42 42 43 44 44 50 45
REMARK SMILES IDX 43 46 45 47 46 48 47 49 48 50 72 51 73 52 81 53 74 54 76 55
REMARK SMILES IDX 82 56 75 57 77 58 78 59 79 60 80 61 57 62 58 63 66 64 59 65
REMARK SMILES IDX 61 66 67 67 60 68 62 69 63 70 64 71 65 72 7 73 8 74 9 75
REMARK SMILES IDX 10 76 11 77 12 79 13 80 14 81 18 82 15 83 17 84 16 85 19 86
REMARK SMILES IDX 20 87 21 88 22 90 23 91 30 92 24 93 25 94 29 95 26 97 28 98
REMARK SMILES IDX 27 99
REMARK H PARENT 3 7 87 25 55 36 10 78 21 89 24 96
REMARK Flexibility Score: inf
ROOT
ATOM      1  C   UNL A   1      36.214  20.301  25.011  1.00  0.00     0.002 C 
ENDROOT
BRANCH   1   2
ATOM      2  C   UNL A   1      37.491  19.466  24.999  1.00  0.00     0.021 C 
BRANCH   2   3
ATOM      3  C   UNL A   1      38.715  20.209  25.496  1.00  0.00     0.116 C 
BRANCH   3   4
ATOM      4  N   UNL A   1      39.756  19.282  25.902  1.00  0.00    -0.352 N 
ATOM      5  O   UNL A   1      41.895  18.626  26.166  1.00  0.00    -0.269 OA
ATOM      6  C   UNL A   1      41.077  19.540  26.188  1.00  0.00     0.251 C 
ATOM      7  H   UNL A   1      39.480  18.341  25.984  1.00  0.00     0.163 HD
BRANCH   6   8
ATOM      8  C   UNL A   1      41.503  20.923  26.501  1.00  0.00     0.039 A 
ATOM      9  C   UNL A   1      41.354  21.934  25.550  1.00  0.00     0.014 A 
ATOM     10  C   UNL A   1      42.032  21.224  27.757  1.00  0.00     0.014 A 
ATOM     11  C   UNL A   1      41.901  23.187  25.777  1.00  0.00     0.010 A 
ATOM     12  C   UNL A   1      42.453  22.528  28.037  1.00  0.00     0.010 A 
ATOM     13  C   UNL A   1      42.420  23.515  27.038  1.00  0.00    -0.014 A 
BRANCH  13  14
ATOM     14  C   UNL A   1      42.832  24.917  27.300  1.00  0.00     0.031 A 
ATOM     15  C   UNL A   1      41.925  25.881  28.012  1.00  0.00     0.074 A 
ATOM     16  C   UNL A   1      44.052  25.315  26.886  1.00  0.00     0.049 A 
ATOM     17  N   UNL A   1      42.147  27.130  28.333  1.00  0.00    -0.248 NA
ATOM     18  C   UNL A   1      40.596  25.389  28.406  1.00  0.00     0.031 C 
ATOM     19  C   UNL A   1      45.010  24.475  26.158  1.00  0.00     0.029 A 
ATOM     20  N   UNL A   1      44.703  26.514  27.016  1.00  0.00    -0.354 N 
ATOM     21  C   UNL A   1      40.972  27.591  28.915  1.00  0.00     0.074 A 
ATOM     22  C   UNL A   1      40.038  26.486  28.900  1.00  0.00     0.031 C 
ATOM     23  C   UNL A   1      46.137  25.167  25.947  1.00  0.00     0.029 A 
ATOM     24  C   UNL A   1      45.955  26.522  26.449  1.00  0.00     0.049 A 
ATOM     25  H   UNL A   1      44.311  27.294  27.472  1.00  0.00     0.167 HD
ATOM     26  C   UNL A   1      40.700  28.821  29.416  1.00  0.00     0.034 A 
ATOM     27  C   UNL A   1      46.855  27.515  26.319  1.00  0.00     0.034 A 
ATOM     28  C   UNL A   1      41.643  29.909  29.433  1.00  0.00     0.049 A 
ATOM     29  C   UNL A   1      46.522  28.866  26.877  1.00  0.00     0.074 A 
ATOM     30  C   UNL A   1      41.487  31.173  29.976  1.00  0.00     0.029 A 
ATOM     31  N   UNL A   1      42.906  29.876  28.859  1.00  0.00    -0.354 N 
ATOM     32  N   UNL A   1      45.448  29.248  27.522  1.00  0.00    -0.248 NA
ATOM     33  C   UNL A   1      47.535  29.914  26.713  1.00  0.00     0.031 C 
ATOM     34  C   UNL A   1      42.633  31.919  29.682  1.00  0.00     0.029 A 
ATOM     35  C   UNL A   1      43.532  31.101  29.014  1.00  0.00     0.049 A 
ATOM     36  H   UNL A   1      43.299  29.095  28.407  1.00  0.00     0.167 HD
ATOM     37  C   UNL A   1      45.674  30.571  27.882  1.00  0.00     0.074 A 
ATOM     38  C   UNL A   1      46.993  30.916  27.390  1.00  0.00     0.031 C 
ATOM     39  C   UNL A   1      44.861  31.421  28.556  1.00  0.00     0.034 A 
BRANCH  26  40
ATOM     40  C   UNL A   1      39.318  29.059  29.973  1.00  0.00     0.023 A 
ATOM     41  C   UNL A   1      38.988  28.619  31.272  1.00  0.00     0.012 A 
ATOM     42  C   UNL A   1      38.352  29.753  29.218  1.00  0.00     0.148 A 
ATOM     43  C   UNL A   1      37.706  28.817  31.787  1.00  0.00     0.002 A 
ATOM     44  C   UNL A   1      37.095  29.995  29.758  1.00  0.00     0.091 A 
ATOM     45  F   UNL A   1      38.674  30.152  27.979  1.00  0.00    -0.205 F 
ATOM     46  C   UNL A   1      36.764  29.512  31.034  1.00  0.00     0.022 A 
BRANCH  44  47
ATOM     47  S   UNL A   1      35.842  30.956  28.902  1.00  0.00     0.127 S 
ATOM     48  O   UNL A   1      35.085  31.515  30.020  1.00  0.00    -0.237 OA
ATOM     49  O   UNL A   1      36.653  31.929  28.168  1.00  0.00    -0.237 OA
ATOM     50  O   UNL A   1      35.117  30.015  28.062  1.00  0.00    -0.744 OA
ENDBRANCH  44  47
ENDBRANCH  26  40
BRANCH  27  51
ATOM     51  C   UNL A   1      48.165  27.247  25.666  1.00  0.00     0.023 A 
ATOM     52  C   UNL A   1      49.230  26.738  26.433  1.00  0.00     0.012 A 
ATOM     53  C   UNL A   1      48.348  27.453  24.285  1.00  0.00     0.148 A 
ATOM     54  C   UNL A   1      50.464  26.468  25.842  1.00  0.00     0.002 A 
ATOM     55  C   UNL A   1      49.560  27.127  23.692  1.00  0.00     0.091 A 
ATOM     56  F   UNL A   1      47.319  27.937  23.574  1.00  0.00    -0.205 F 
ATOM     57  C   UNL A   1      50.626  26.652  24.471  1.00  0.00     0.022 A 
BRANCH  55  58
ATOM     58  S   UNL A   1      49.822  27.209  21.917  1.00  0.00     0.127 S 
ATOM     59  O   UNL A   1      49.511  28.608  21.635  1.00  0.00    -0.237 OA
ATOM     60  O   UNL A   1      51.238  26.856  21.809  1.00  0.00    -0.237 OA
ATOM     61  O   UNL A   1      48.909  26.234  21.335  1.00  0.00    -0.744 OA
ENDBRANCH  55  58
ENDBRANCH  27  51
BRANCH  39  62
ATOM     62  C   UNL A   1      45.400  32.791  28.870  1.00  0.00     0.023 A 
ATOM     63  C   UNL A   1      46.116  33.026  30.061  1.00  0.00     0.012 A 
ATOM     64  C   UNL A   1      45.236  33.842  27.946  1.00  0.00     0.148 A 
ATOM     65  C   UNL A   1      46.620  34.295  30.347  1.00  0.00     0.002 A 
ATOM     66  C   UNL A   1      45.792  35.086  28.207  1.00  0.00     0.091 A 
ATOM     67  F   UNL A   1      44.533  33.605  26.828  1.00  0.00    -0.205 F 
ATOM     68  C   UNL A   1      46.469  35.320  29.415  1.00  0.00     0.022 A 
BRANCH  66  69
ATOM     69  S   UNL A   1      45.738  36.431  27.020  1.00  0.00     0.127 S 
ATOM     70  O   UNL A   1      44.302  36.687  26.925  1.00  0.00    -0.237 OA
ATOM     71  O   UNL A   1      46.501  37.477  27.703  1.00  0.00    -0.237 OA
ATOM     72  O   UNL A   1      46.361  35.923  25.805  1.00  0.00    -0.744 OA
ENDBRANCH  66  69
ENDBRANCH  39  62
ENDBRANCH  13  14
ENDBRANCH   6   8
ENDBRANCH   3   4
ENDBRANCH   2   3
ENDBRANCH   1   2
BRANCH   1  73
ATOM     73  C   UNL A   1      36.351  21.808  24.686  1.00  0.00     0.002 C 
BRANCH  73  74
ATOM     74  C   UNL A   1      35.314  22.622  23.525  1.00  0.00     0.021 C 
BRANCH  74  75
ATOM     75  C   UNL A   1      34.334  24.598  23.537  1.00  0.00     0.116 C 
BRANCH  75  76
ATOM     76  N   UNL A   1      33.372  25.326  22.478  1.00  0.00    -0.351 N 
ATOM     77  C   UNL A   1      32.418  26.298  22.694  1.00  0.00     0.272 C 
ATOM     78  H   UNL A   1      33.478  25.038  21.543  1.00  0.00     0.163 HD
ATOM     79  O   UNL A   1      31.647  26.665  21.817  1.00  0.00    -0.267 OA
BRANCH  77  80
ATOM     80  C   UNL A   1      32.396  26.904  24.035  1.00  0.00     0.159 A 
ATOM     81  N   UNL A   1      33.468  27.737  24.260  1.00  0.00    -0.247 NA
ATOM     82  C   UNL A   1      31.501  26.537  25.028  1.00  0.00     0.159 A 
ATOM     83  C   UNL A   1      33.598  28.205  25.513  1.00  0.00     0.132 A 
ATOM     84  N   UNL A   1      31.657  27.025  26.301  1.00  0.00    -0.247 NA
ATOM     85  C   UNL A   1      32.711  27.855  26.512  1.00  0.00     0.132 A 
BRANCH  82  86
ATOM     86  C   UNL A   1      30.265  25.720  24.833  1.00  0.00     0.277 C 
ATOM     87  O   UNL A   1      29.218  26.330  24.587  1.00  0.00    -0.267 OA
ATOM     88  N   UNL A   1      30.211  24.344  24.857  1.00  0.00    -0.303 N 
ATOM     89  H   UNL A   1      29.345  23.963  24.588  1.00  0.00     0.172 HD
BRANCH  88  90
ATOM     90  C   UNL A   1      31.164  23.415  25.190  1.00  0.00     0.164 A 
ATOM     91  N   UNL A   1      31.570  23.373  26.472  1.00  0.00    -0.155 NA
ATOM     92  C   UNL A   1      31.699  22.380  24.396  1.00  0.00     0.063 A 
ATOM     93  N   UNL A   1      32.028  22.116  26.751  1.00  0.00    -0.259 N 
ATOM     94  C   UNL A   1      32.145  21.294  25.668  1.00  0.00     0.157 A 
ATOM     95  C   UNL A   1      31.807  21.801  22.713  1.00  0.00     0.017 A 
ATOM     96  H   UNL A   1      32.255  21.825  27.664  1.00  0.00     0.192 HD
ATOM     97  N   UNL A   1      32.507  19.608  25.420  1.00  0.00    -0.237 NA
ATOM     98  C   UNL A   1      32.224  20.109  22.354  1.00  0.00     0.021 A 
ATOM     99  C   UNL A   1      32.599  19.064  23.714  1.00  0.00     0.113 A 
ENDBRANCH  88  90
ENDBRANCH  82  86
ENDBRANCH  77  80
ENDBRANCH  75  76
ENDBRANCH  74  75
ENDBRANCH  73  74
ENDBRANCH   1  73
TORSDOF 18
ENDMDL
