MODEL 1
REMARK VINA RESULT:     -11.3      0.000      0.000
REMARK SMILES CCC(CC)NC(=O)N[C@@H]1C=C[C@@H](C(=O)NCCCCCCNC(=O)c2ccc(-c3c4nc(c(-c5cccc(S(=O)(=O)[O-])c5F)c5ccc([nH]5)c(-c5cccc(S(=O)(=O)[O-])c5F)c5nc(c(-c6cccc(S(=O)(=O)[O-])c6F)c6ccc3[nH]6)C=C5)C=C4)cc2)C1
REMARK SMILES IDX 19 1 18 2 17 3 16 4 14 5 15 6 13 8 10 9 11 10 89 11 12 12
REMARK SMILES IDX 9 13 6 14 7 15 8 17 3 19 2 20 1 21 4 22 5 23 20 24 21 25
REMARK SMILES IDX 22 26 23 27 24 28 25 30 26 31 27 32 88 33 28 34 87 35 29 36
REMARK SMILES IDX 30 37 31 38 81 39 32 40 86 41 80 42 82 43 33 44 85 45 79 46
REMARK SMILES IDX 78 47 34 49 66 50 46 51 65 52 47 53 50 54 64 55 83 56 48 57
REMARK SMILES IDX 49 58 63 60 84 61 51 62 35 63 36 64 44 65 37 66 39 67 45 68
REMARK SMILES IDX 38 69 40 70 41 71 42 72 43 73 67 74 68 75 76 76 69 77 71 78
REMARK SMILES IDX 77 79 70 80 72 81 73 82 74 83 75 84 52 85 53 86 61 87 54 88
REMARK SMILES IDX 56 89 62 90 55 91 57 92 58 93 59 94 60 95
REMARK H PARENT 16 7 6 16 9 18 23 29 82 48 50 59
REMARK Flexibility Score: inf
ROOT
ATOM      1  C   UNL A   1      33.726  27.712  22.889  1.00  0.00     0.002 C 
ENDROOT
BRANCH   1   2
ATOM      2  C   UNL A   1      33.569  26.202  22.672  1.00  0.00     0.021 C 
BRANCH   2   3
ATOM      3  C   UNL A   1      32.181  25.785  22.193  1.00  0.00     0.116 C 
BRANCH   3   4
ATOM      4  N   UNL A   1      31.366  26.937  21.861  1.00  0.00    -0.356 N 
ATOM      5  C   UNL A   1      30.319  27.526  22.497  1.00  0.00     0.227 C 
ATOM      6  O   UNL A   1      29.827  28.522  21.953  1.00  0.00    -0.274 OA
ATOM      7  H   UNL A   1      31.618  27.374  21.016  1.00  0.00     0.163 HD
BRANCH   5   8
ATOM      8  C   UNL A   1      29.751  27.030  23.832  1.00  0.00     0.103 C 
ATOM      9  C   UNL A   1      30.562  25.150  25.208  1.00  0.00     0.107 C 
ATOM     10  C   UNL A   1      30.955  26.483  25.764  1.00  0.00    -0.006 C 
ATOM     11  C   UNL A   1      29.664  25.507  24.009  1.00  0.00     0.047 C 
ATOM     12  C   UNL A   1      30.531  27.503  25.014  1.00  0.00    -0.016 C 
BRANCH   9  13
ATOM     13  N   UNL A   1      29.911  24.407  26.252  1.00  0.00    -0.332 N 
ATOM     14  N   UNL A   1      31.301  22.517  26.608  1.00  0.00    -0.335 N 
ATOM     15  C   UNL A   1      30.220  23.263  26.879  1.00  0.00     0.315 C 
ATOM     16  H   UNL A   1      31.351  21.717  27.180  1.00  0.00     0.165 HD
ATOM     17  O   UNL A   1      29.459  22.882  27.773  1.00  0.00    -0.249 OA
ATOM     18  H   UNL A   1      29.074  24.819  26.569  1.00  0.00     0.165 HD
BRANCH  14  19
ATOM     19  C   UNL A   1      32.427  22.597  25.674  1.00  0.00     0.083 C 
BRANCH  19  20
ATOM     20  C   UNL A   1      33.711  23.009  26.410  1.00  0.00     0.021 C 
ATOM     21  C   UNL A   1      33.935  22.183  27.671  1.00  0.00     0.006 C 
ENDBRANCH  19  20
BRANCH  19  22
ATOM     22  C   UNL A   1      32.527  21.310  24.835  1.00  0.00     0.021 C 
ATOM     23  C   UNL A   1      32.167  21.465  23.365  1.00  0.00     0.006 C 
ENDBRANCH  19  22
ENDBRANCH  14  19
ENDBRANCH   9  13
ENDBRANCH   5   8
ENDBRANCH   3   4
ENDBRANCH   2   3
ENDBRANCH   1   2
BRANCH   1  24
ATOM     24  C   UNL A   1      34.008  28.130  24.337  1.00  0.00     0.002 C 
BRANCH  24  25
ATOM     25  C   UNL A   1      33.383  29.462  24.762  1.00  0.00     0.021 C 
BRANCH  25  26
ATOM     26  C   UNL A   1      33.174  29.617  26.266  1.00  0.00     0.116 C 
BRANCH  26  27
ATOM     27  N   UNL A   1      33.062  31.013  26.662  1.00  0.00    -0.352 N 
ATOM     28  C   UNL A   1      33.834  31.732  27.540  1.00  0.00     0.251 C 
ATOM     29  H   UNL A   1      32.328  31.513  26.239  1.00  0.00     0.163 HD
ATOM     30  O   UNL A   1      33.470  32.850  27.901  1.00  0.00    -0.269 OA
BRANCH  28  31
ATOM     31  C   UNL A   1      35.090  31.155  28.064  1.00  0.00     0.039 A 
ATOM     32  C   UNL A   1      36.244  31.941  28.071  1.00  0.00     0.014 A 
ATOM     33  C   UNL A   1      35.129  29.844  28.548  1.00  0.00     0.014 A 
ATOM     34  C   UNL A   1      37.422  31.435  28.623  1.00  0.00     0.010 A 
ATOM     35  C   UNL A   1      36.284  29.368  29.165  1.00  0.00     0.010 A 
ATOM     36  C   UNL A   1      37.442  30.159  29.210  1.00  0.00    -0.014 A 
BRANCH  36  37
ATOM     37  C   UNL A   1      38.652  29.650  29.907  1.00  0.00     0.031 A 
ATOM     38  C   UNL A   1      39.054  30.205  31.246  1.00  0.00     0.074 A 
ATOM     39  C   UNL A   1      39.441  28.749  29.288  1.00  0.00     0.049 A 
ATOM     40  N   UNL A   1      40.108  29.929  31.969  1.00  0.00    -0.248 NA
ATOM     41  C   UNL A   1      38.169  31.220  31.840  1.00  0.00     0.031 C 
ATOM     42  C   UNL A   1      39.200  28.188  27.957  1.00  0.00     0.029 A 
ATOM     43  N   UNL A   1      40.621  28.167  29.683  1.00  0.00    -0.354 N 
ATOM     44  C   UNL A   1      40.033  30.754  33.084  1.00  0.00     0.074 A 
ATOM     45  C   UNL A   1      38.845  31.566  32.927  1.00  0.00     0.031 C 
ATOM     46  C   UNL A   1      40.196  27.344  27.647  1.00  0.00     0.029 A 
ATOM     47  C   UNL A   1      41.166  27.330  28.737  1.00  0.00     0.049 A 
ATOM     48  H   UNL A   1      41.036  28.332  30.560  1.00  0.00     0.167 HD
ATOM     49  C   UNL A   1      40.863  30.816  34.153  1.00  0.00     0.034 A 
ATOM     50  C   UNL A   1      42.326  26.644  28.737  1.00  0.00     0.034 A 
ATOM     51  C   UNL A   1      42.027  29.989  34.319  1.00  0.00     0.049 A 
ATOM     52  C   UNL A   1      43.220  26.716  29.945  1.00  0.00     0.074 A 
ATOM     53  C   UNL A   1      42.884  29.918  35.404  1.00  0.00     0.029 A 
ATOM     54  N   UNL A   1      42.510  29.100  33.371  1.00  0.00    -0.354 N 
ATOM     55  N   UNL A   1      43.051  27.390  31.057  1.00  0.00    -0.248 NA
ATOM     56  C   UNL A   1      44.447  25.908  29.912  1.00  0.00     0.031 C 
ATOM     57  C   UNL A   1      43.905  29.013  35.097  1.00  0.00     0.029 A 
ATOM     58  C   UNL A   1      43.662  28.488  33.838  1.00  0.00     0.049 A 
ATOM     59  H   UNL A   1      42.096  28.928  32.495  1.00  0.00     0.167 HD
ATOM     60  C   UNL A   1      44.129  27.059  31.870  1.00  0.00     0.074 A 
ATOM     61  C   UNL A   1      44.933  26.108  31.130  1.00  0.00     0.031 C 
ATOM     62  C   UNL A   1      44.431  27.510  33.112  1.00  0.00     0.034 A 
BRANCH  49  63
ATOM     63  C   UNL A   1      40.522  31.790  35.252  1.00  0.00     0.023 A 
ATOM     64  C   UNL A   1      41.235  33.002  35.359  1.00  0.00     0.012 A 
ATOM     65  C   UNL A   1      39.455  31.538  36.138  1.00  0.00     0.148 A 
ATOM     66  C   UNL A   1      40.917  33.929  36.351  1.00  0.00     0.002 A 
ATOM     67  C   UNL A   1      39.112  32.488  37.092  1.00  0.00     0.091 A 
ATOM     68  F   UNL A   1      38.800  30.372  36.033  1.00  0.00    -0.205 F 
ATOM     69  C   UNL A   1      39.850  33.678  37.208  1.00  0.00     0.022 A 
BRANCH  67  70
ATOM     70  S   UNL A   1      37.704  32.297  38.190  1.00  0.00     0.127 S 
ATOM     71  O   UNL A   1      36.697  33.122  37.524  1.00  0.00    -0.237 OA
ATOM     72  O   UNL A   1      37.455  30.857  38.121  1.00  0.00    -0.237 OA
ATOM     73  O   UNL A   1      38.142  32.777  39.493  1.00  0.00    -0.744 OA
ENDBRANCH  67  70
ENDBRANCH  49  63
BRANCH  50  74
ATOM     74  C   UNL A   1      42.685  25.789  27.570  1.00  0.00     0.023 A 
ATOM     75  C   UNL A   1      43.527  26.303  26.564  1.00  0.00     0.012 A 
ATOM     76  C   UNL A   1      42.216  24.465  27.464  1.00  0.00     0.148 A 
ATOM     77  C   UNL A   1      43.864  25.527  25.455  1.00  0.00     0.002 A 
ATOM     78  C   UNL A   1      42.604  23.678  26.387  1.00  0.00     0.091 A 
ATOM     79  F   UNL A   1      41.408  23.998  28.426  1.00  0.00    -0.205 F 
ATOM     80  C   UNL A   1      43.412  24.213  25.371  1.00  0.00     0.022 A 
BRANCH  78  81
ATOM     81  S   UNL A   1      42.182  21.937  26.267  1.00  0.00     0.127 S 
ATOM     82  O   UNL A   1      40.752  21.995  25.973  1.00  0.00    -0.237 OA
ATOM     83  O   UNL A   1      43.025  21.499  25.153  1.00  0.00    -0.237 OA
ATOM     84  O   UNL A   1      42.539  21.353  27.554  1.00  0.00    -0.744 OA
ENDBRANCH  78  81
ENDBRANCH  50  74
BRANCH  62  85
ATOM     85  C   UNL A   1      45.665  26.955  33.776  1.00  0.00     0.023 A 
ATOM     86  C   UNL A   1      46.915  27.571  33.573  1.00  0.00     0.012 A 
ATOM     87  C   UNL A   1      45.570  25.858  34.657  1.00  0.00     0.148 A 
ATOM     88  C   UNL A   1      48.058  27.082  34.206  1.00  0.00     0.002 A 
ATOM     89  C   UNL A   1      46.702  25.410  35.326  1.00  0.00     0.091 A 
ATOM     90  F   UNL A   1      44.374  25.275  34.824  1.00  0.00    -0.205 F 
ATOM     91  C   UNL A   1      47.950  26.011  35.091  1.00  0.00     0.022 A 
BRANCH  89  92
ATOM     92  S   UNL A   1      46.643  24.103  36.556  1.00  0.00     0.127 S 
ATOM     93  O   UNL A   1      45.897  24.745  37.637  1.00  0.00    -0.237 OA
ATOM     94  O   UNL A   1      45.912  23.050  35.852  1.00  0.00    -0.237 OA
ATOM     95  O   UNL A   1      48.029  23.776  36.864  1.00  0.00    -0.744 OA
ENDBRANCH  89  92
ENDBRANCH  62  85
ENDBRANCH  36  37
ENDBRANCH  28  31
ENDBRANCH  26  27
ENDBRANCH  25  26
ENDBRANCH  24  25
ENDBRANCH   1  24
TORSDOF 20
ENDMDL
MODEL 2
REMARK VINA RESULT:     -11.2      2.111      2.493
REMARK SMILES CCC(CC)NC(=O)N[C@@H]1C=C[C@@H](C(=O)NCCCCCCNC(=O)c2ccc(-c3c4nc(c(-c5cccc(S(=O)(=O)[O-])c5F)c5ccc([nH]5)c(-c5cccc(S(=O)(=O)[O-])c5F)c5nc(c(-c6cccc(S(=O)(=O)[O-])c6F)c6ccc3[nH]6)C=C5)C=C4)cc2)C1
REMARK SMILES IDX 19 1 18 2 17 3 16 4 14 5 15 6 13 8 10 9 11 10 89 11 12 12
REMARK SMILES IDX 9 13 6 14 7 15 8 17 3 19 2 20 1 21 4 22 5 23 20 24 21 25
REMARK SMILES IDX 22 26 23 27 24 28 25 30 26 31 27 32 88 33 28 34 87 35 29 36
REMARK SMILES IDX 30 37 31 38 81 39 32 40 86 41 80 42 82 43 33 44 85 45 79 46
REMARK SMILES IDX 78 47 34 49 66 50 46 51 65 52 47 53 50 54 64 55 83 56 48 57
REMARK SMILES IDX 49 58 63 60 84 61 51 62 35 63 36 64 44 65 37 66 39 67 45 68
REMARK SMILES IDX 38 69 40 70 41 71 42 72 43 73 67 74 68 75 76 76 69 77 71 78
REMARK SMILES IDX 77 79 70 80 72 81 73 82 74 83 75 84 52 85 53 86 61 87 54 88
REMARK SMILES IDX 56 89 62 90 55 91 57 92 58 93 59 94 60 95
REMARK H PARENT 16 7 6 16 9 18 23 29 82 48 50 59
REMARK Flexibility Score: inf
ROOT
ATOM      1  C   UNL A   1      33.718  27.696  22.536  1.00  0.00     0.002 C 
ENDROOT
BRANCH   1   2
ATOM      2  C   UNL A   1      33.421  26.264  22.075  1.00  0.00     0.021 C 
BRANCH   2   3
ATOM      3  C   UNL A   1      31.932  25.945  21.962  1.00  0.00     0.116 C 
BRANCH   3   4
ATOM      4  N   UNL A   1      31.145  27.147  21.770  1.00  0.00    -0.356 N 
ATOM      5  C   UNL A   1      30.188  27.740  22.531  1.00  0.00     0.227 C 
ATOM      6  O   UNL A   1      29.696  28.785  22.089  1.00  0.00    -0.274 OA
ATOM      7  H   UNL A   1      31.340  27.623  20.931  1.00  0.00     0.163 HD
BRANCH   5   8
ATOM      8  C   UNL A   1      29.719  27.190  23.882  1.00  0.00     0.103 C 
ATOM      9  C   UNL A   1      30.508  25.158  25.037  1.00  0.00     0.107 C 
ATOM     10  C   UNL A   1      31.064  26.413  25.634  1.00  0.00    -0.006 C 
ATOM     11  C   UNL A   1      29.526  25.669  23.966  1.00  0.00     0.047 C 
ATOM     12  C   UNL A   1      30.650  27.515  25.003  1.00  0.00    -0.016 C 
BRANCH   9  13
ATOM     13  N   UNL A   1      29.907  24.390  26.093  1.00  0.00    -0.332 N 
ATOM     14  N   UNL A   1      31.501  22.707  26.601  1.00  0.00    -0.335 N 
ATOM     15  C   UNL A   1      30.326  23.324  26.790  1.00  0.00     0.315 C 
ATOM     16  H   UNL A   1      31.623  21.947  27.215  1.00  0.00     0.165 HD
ATOM     17  O   UNL A   1      29.579  22.895  27.674  1.00  0.00    -0.249 OA
ATOM     18  H   UNL A   1      29.013  24.710  26.356  1.00  0.00     0.165 HD
BRANCH  14  19
ATOM     19  C   UNL A   1      32.649  22.881  25.706  1.00  0.00     0.083 C 
BRANCH  19  20
ATOM     20  C   UNL A   1      33.665  23.857  26.319  1.00  0.00     0.021 C 
ATOM     21  C   UNL A   1      35.087  23.312  26.261  1.00  0.00     0.006 C 
ENDBRANCH  19  20
BRANCH  19  22
ATOM     22  C   UNL A   1      33.215  21.515  25.279  1.00  0.00     0.021 C 
ATOM     23  C   UNL A   1      32.354  20.737  24.295  1.00  0.00     0.006 C 
ENDBRANCH  19  22
ENDBRANCH  14  19
ENDBRANCH   9  13
ENDBRANCH   5   8
ENDBRANCH   3   4
ENDBRANCH   2   3
ENDBRANCH   1   2
BRANCH   1  24
ATOM     24  C   UNL A   1      34.105  27.833  24.013  1.00  0.00     0.002 C 
BRANCH  24  25
ATOM     25  C   UNL A   1      33.715  29.161  24.667  1.00  0.00     0.021 C 
BRANCH  25  26
ATOM     26  C   UNL A   1      33.807  29.173  26.190  1.00  0.00     0.116 C 
BRANCH  26  27
ATOM     27  N   UNL A   1      33.767  30.523  26.731  1.00  0.00    -0.352 N 
ATOM     28  C   UNL A   1      34.576  31.105  27.675  1.00  0.00     0.251 C 
ATOM     29  H   UNL A   1      33.060  31.102  26.367  1.00  0.00     0.163 HD
ATOM     30  O   UNL A   1      34.271  32.197  28.152  1.00  0.00    -0.269 OA
BRANCH  28  31
ATOM     31  C   UNL A   1      35.800  30.413  28.128  1.00  0.00     0.039 A 
ATOM     32  C   UNL A   1      36.947  30.476  27.333  1.00  0.00     0.014 A 
ATOM     33  C   UNL A   1      35.819  29.705  29.333  1.00  0.00     0.014 A 
ATOM     34  C   UNL A   1      38.130  29.884  27.778  1.00  0.00     0.010 A 
ATOM     35  C   UNL A   1      37.018  29.180  29.809  1.00  0.00     0.010 A 
ATOM     36  C   UNL A   1      38.186  29.264  29.038  1.00  0.00    -0.014 A 
BRANCH  36  37
ATOM     37  C   UNL A   1      39.464  28.733  29.579  1.00  0.00     0.031 A 
ATOM     38  C   UNL A   1      40.164  29.432  30.712  1.00  0.00     0.074 A 
ATOM     39  C   UNL A   1      40.041  27.668  28.986  1.00  0.00     0.049 A 
ATOM     40  N   UNL A   1      41.314  29.150  31.268  1.00  0.00    -0.248 NA
ATOM     41  C   UNL A   1      39.499  30.616  31.279  1.00  0.00     0.031 C 
ATOM     42  C   UNL A   1      39.499  26.947  27.833  1.00  0.00     0.029 A 
ATOM     43  N   UNL A   1      41.224  27.024  29.253  1.00  0.00    -0.354 N 
ATOM     44  C   UNL A   1      41.526  30.135  32.225  1.00  0.00     0.074 A 
ATOM     45  C   UNL A   1      40.401  31.042  32.153  1.00  0.00     0.031 C 
ATOM     46  C   UNL A   1      40.343  25.961  27.493  1.00  0.00     0.029 A 
ATOM     47  C   UNL A   1      41.504  26.001  28.376  1.00  0.00     0.049 A 
ATOM     48  H   UNL A   1      41.815  27.270  30.000  1.00  0.00     0.167 HD
ATOM     49  C   UNL A   1      42.552  30.262  33.100  1.00  0.00     0.034 A 
ATOM     50  C   UNL A   1      42.581  25.197  28.281  1.00  0.00     0.034 A 
ATOM     51  C   UNL A   1      43.655  29.344  33.189  1.00  0.00     0.049 A 
ATOM     52  C   UNL A   1      43.698  25.347  29.278  1.00  0.00     0.074 A 
ATOM     53  C   UNL A   1      44.700  29.339  34.097  1.00  0.00     0.029 A 
ATOM     54  N   UNL A   1      43.869  28.276  32.331  1.00  0.00    -0.354 N 
ATOM     55  N   UNL A   1      43.805  26.193  30.274  1.00  0.00    -0.248 NA
ATOM     56  C   UNL A   1      44.825  24.412  29.159  1.00  0.00     0.031 C 
ATOM     57  C   UNL A   1      45.564  28.291  33.766  1.00  0.00     0.029 A 
ATOM     58  C   UNL A   1      45.037  27.616  32.677  1.00  0.00     0.049 A 
ATOM     59  H   UNL A   1      43.279  28.023  31.585  1.00  0.00     0.167 HD
ATOM     60  C   UNL A   1      44.991  25.868  30.922  1.00  0.00     0.074 A 
ATOM     61  C   UNL A   1      45.555  24.735  30.218  1.00  0.00     0.031 C 
ATOM     62  C   UNL A   1      45.567  26.462  31.997  1.00  0.00     0.034 A 
BRANCH  49  63
ATOM     63  C   UNL A   1      42.513  31.419  34.066  1.00  0.00     0.023 A 
ATOM     64  C   UNL A   1      43.254  32.587  33.788  1.00  0.00     0.012 A 
ATOM     65  C   UNL A   1      41.695  31.379  35.212  1.00  0.00     0.148 A 
ATOM     66  C   UNL A   1      43.210  33.680  34.653  1.00  0.00     0.002 A 
ATOM     67  C   UNL A   1      41.618  32.490  36.043  1.00  0.00     0.091 A 
ATOM     68  F   UNL A   1      41.011  30.254  35.470  1.00  0.00    -0.205 F 
ATOM     69  C   UNL A   1      42.384  33.636  35.772  1.00  0.00     0.022 A 
BRANCH  67  70
ATOM     70  S   UNL A   1      40.523  32.565  37.465  1.00  0.00     0.127 S 
ATOM     71  O   UNL A   1      39.462  31.640  37.069  1.00  0.00    -0.237 OA
ATOM     72  O   UNL A   1      41.385  32.079  38.542  1.00  0.00    -0.237 OA
ATOM     73  O   UNL A   1      40.120  33.959  37.589  1.00  0.00    -0.744 OA
ENDBRANCH  67  70
ENDBRANCH  49  63
BRANCH  50  74
ATOM     74  C   UNL A   1      42.634  24.145  27.227  1.00  0.00     0.023 A 
ATOM     75  C   UNL A   1      43.322  24.398  26.024  1.00  0.00     0.012 A 
ATOM     76  C   UNL A   1      42.025  22.889  27.419  1.00  0.00     0.148 A 
ATOM     77  C   UNL A   1      43.372  23.434  25.018  1.00  0.00     0.002 A 
ATOM     78  C   UNL A   1      42.130  21.912  26.437  1.00  0.00     0.091 A 
ATOM     79  F   UNL A   1      41.367  22.671  28.566  1.00  0.00    -0.205 F 
ATOM     80  C   UNL A   1      42.786  22.189  25.227  1.00  0.00     0.022 A 
BRANCH  78  81
ATOM     81  S   UNL A   1      41.524  20.239  26.677  1.00  0.00     0.127 S 
ATOM     82  O   UNL A   1      42.257  19.823  27.869  1.00  0.00    -0.237 OA
ATOM     83  O   UNL A   1      40.092  20.464  26.878  1.00  0.00    -0.237 OA
ATOM     84  O   UNL A   1      41.851  19.520  25.452  1.00  0.00    -0.744 OA
ENDBRANCH  78  81
ENDBRANCH  50  74
BRANCH  62  85
ATOM     85  C   UNL A   1      46.858  25.878  32.510  1.00  0.00     0.023 A 
ATOM     86  C   UNL A   1      46.843  24.959  33.578  1.00  0.00     0.012 A 
ATOM     87  C   UNL A   1      48.082  26.191  31.885  1.00  0.00     0.148 A 
ATOM     88  C   UNL A   1      48.029  24.390  34.041  1.00  0.00     0.002 A 
ATOM     89  C   UNL A   1      49.253  25.579  32.315  1.00  0.00     0.091 A 
ATOM     90  F   UNL A   1      48.078  27.080  30.881  1.00  0.00    -0.205 F 
ATOM     91  C   UNL A   1      49.232  24.690  33.402  1.00  0.00     0.022 A 
BRANCH  89  92
ATOM     92  S   UNL A   1      50.830  25.828  31.494  1.00  0.00     0.127 S 
ATOM     93  O   UNL A   1      50.925  27.286  31.465  1.00  0.00    -0.237 OA
ATOM     94  O   UNL A   1      51.763  25.174  32.411  1.00  0.00    -0.237 OA
ATOM     95  O   UNL A   1      50.712  25.186  30.191  1.00  0.00    -0.744 OA
ENDBRANCH  89  92
ENDBRANCH  62  85
ENDBRANCH  36  37
ENDBRANCH  28  31
ENDBRANCH  26  27
ENDBRANCH  25  26
ENDBRANCH  24  25
ENDBRANCH   1  24
TORSDOF 20
ENDMDL
MODEL 3
REMARK VINA RESULT:     -11.2      1.373      7.698
REMARK SMILES CCC(CC)NC(=O)N[C@@H]1C=C[C@@H](C(=O)NCCCCCCNC(=O)c2ccc(-c3c4nc(c(-c5cccc(S(=O)(=O)[O-])c5F)c5ccc([nH]5)c(-c5cccc(S(=O)(=O)[O-])c5F)c5nc(c(-c6cccc(S(=O)(=O)[O-])c6F)c6ccc3[nH]6)C=C5)C=C4)cc2)C1
REMARK SMILES IDX 19 1 18 2 17 3 16 4 14 5 15 6 13 8 10 9 11 10 89 11 12 12
REMARK SMILES IDX 9 13 6 14 7 15 8 17 3 19 2 20 1 21 4 22 5 23 20 24 21 25
REMARK SMILES IDX 22 26 23 27 24 28 25 30 26 31 27 32 88 33 28 34 87 35 29 36
REMARK SMILES IDX 30 37 31 38 81 39 32 40 86 41 80 42 82 43 33 44 85 45 79 46
REMARK SMILES IDX 78 47 34 49 66 50 46 51 65 52 47 53 50 54 64 55 83 56 48 57
REMARK SMILES IDX 49 58 63 60 84 61 51 62 35 63 36 64 44 65 37 66 39 67 45 68
REMARK SMILES IDX 38 69 40 70 41 71 42 72 43 73 67 74 68 75 76 76 69 77 71 78
REMARK SMILES IDX 77 79 70 80 72 81 73 82 74 83 75 84 52 85 53 86 61 87 54 88
REMARK SMILES IDX 56 89 62 90 55 91 57 92 58 93 59 94 60 95
REMARK H PARENT 16 7 6 16 9 18 23 29 82 48 50 59
REMARK Flexibility Score: inf
ROOT
ATOM      1  C   UNL A   1      33.802  27.561  22.672  1.00  0.00     0.002 C 
ENDROOT
BRANCH   1   2
ATOM      2  C   UNL A   1      33.505  26.066  22.500  1.00  0.00     0.021 C 
BRANCH   2   3
ATOM      3  C   UNL A   1      32.084  25.767  22.030  1.00  0.00     0.116 C 
BRANCH   3   4
ATOM      4  N   UNL A   1      31.337  26.986  21.787  1.00  0.00    -0.356 N 
ATOM      5  C   UNL A   1      30.322  27.582  22.465  1.00  0.00     0.227 C 
ATOM      6  O   UNL A   1      29.890  28.644  21.999  1.00  0.00    -0.274 OA
ATOM      7  H   UNL A   1      31.619  27.472  20.980  1.00  0.00     0.163 HD
BRANCH   5   8
ATOM      8  C   UNL A   1      29.718  27.017  23.756  1.00  0.00     0.103 C 
ATOM      9  C   UNL A   1      30.594  25.180  25.150  1.00  0.00     0.107 C 
ATOM     10  C   UNL A   1      30.847  26.529  25.748  1.00  0.00    -0.006 C 
ATOM     11  C   UNL A   1      29.742  25.489  23.904  1.00  0.00     0.047 C 
ATOM     12  C   UNL A   1      30.387  27.527  24.989  1.00  0.00    -0.016 C 
BRANCH   9  13
ATOM     13  N   UNL A   1      29.943  24.368  26.141  1.00  0.00    -0.332 N 
ATOM     14  N   UNL A   1      31.485  22.623  26.601  1.00  0.00    -0.335 N 
ATOM     15  C   UNL A   1      30.318  23.255  26.790  1.00  0.00     0.315 C 
ATOM     16  H   UNL A   1      31.572  21.827  27.175  1.00  0.00     0.165 HD
ATOM     17  O   UNL A   1      29.534  22.794  27.624  1.00  0.00    -0.249 OA
ATOM     18  H   UNL A   1      29.049  24.692  26.395  1.00  0.00     0.165 HD
BRANCH  14  19
ATOM     19  C   UNL A   1      32.665  22.821  25.754  1.00  0.00     0.083 C 
BRANCH  19  20
ATOM     20  C   UNL A   1      33.556  23.936  26.324  1.00  0.00     0.021 C 
ATOM     21  C   UNL A   1      34.880  24.045  25.578  1.00  0.00     0.006 C 
ENDBRANCH  19  20
BRANCH  19  22
ATOM     22  C   UNL A   1      33.369  21.480  25.485  1.00  0.00     0.021 C 
ATOM     23  C   UNL A   1      32.665  20.566  24.493  1.00  0.00     0.006 C 
ENDBRANCH  19  22
ENDBRANCH  14  19
ENDBRANCH   9  13
ENDBRANCH   5   8
ENDBRANCH   3   4
ENDBRANCH   2   3
ENDBRANCH   1   2
BRANCH   1  24
ATOM     24  C   UNL A   1      33.981  28.022  24.123  1.00  0.00     0.002 C 
BRANCH  24  25
ATOM     25  C   UNL A   1      33.271  29.329  24.482  1.00  0.00     0.021 C 
BRANCH  25  26
ATOM     26  C   UNL A   1      32.931  29.484  25.962  1.00  0.00     0.116 C 
BRANCH  26  27
ATOM     27  N   UNL A   1      32.631  30.864  26.314  1.00  0.00    -0.352 N 
ATOM     28  C   UNL A   1      33.267  31.693  27.203  1.00  0.00     0.251 C 
ATOM     29  H   UNL A   1      31.861  31.260  25.845  1.00  0.00     0.163 HD
ATOM     30  O   UNL A   1      32.753  32.766  27.516  1.00  0.00    -0.269 OA
BRANCH  28  31
ATOM     31  C   UNL A   1      34.559  31.287  27.797  1.00  0.00     0.039 A 
ATOM     32  C   UNL A   1      35.593  32.223  27.869  1.00  0.00     0.014 A 
ATOM     33  C   UNL A   1      34.749  29.991  28.281  1.00  0.00     0.014 A 
ATOM     34  C   UNL A   1      36.796  31.878  28.487  1.00  0.00     0.010 A 
ATOM     35  C   UNL A   1      35.922  29.671  28.962  1.00  0.00     0.010 A 
ATOM     36  C   UNL A   1      36.957  30.611  29.074  1.00  0.00    -0.014 A 
BRANCH  36  37
ATOM     37  C   UNL A   1      38.184  30.265  29.837  1.00  0.00     0.031 A 
ATOM     38  C   UNL A   1      39.181  29.286  29.280  1.00  0.00     0.074 A 
ATOM     39  C   UNL A   1      38.355  30.768  31.076  1.00  0.00     0.049 A 
ATOM     40  N   UNL A   1      40.271  28.818  29.830  1.00  0.00    -0.248 NA
ATOM     41  C   UNL A   1      38.905  28.742  27.940  1.00  0.00     0.031 C 
ATOM     42  C   UNL A   1      37.424  31.669  31.758  1.00  0.00     0.029 A 
ATOM     43  N   UNL A   1      39.356  30.570  31.995  1.00  0.00    -0.354 N 
ATOM     44  C   UNL A   1      40.794  27.905  28.923  1.00  0.00     0.074 A 
ATOM     45  C   UNL A   1      39.884  27.859  27.799  1.00  0.00     0.031 C 
ATOM     46  C   UNL A   1      37.898  31.948  32.982  1.00  0.00     0.029 A 
ATOM     47  C   UNL A   1      39.143  31.217  33.190  1.00  0.00     0.049 A 
ATOM     48  H   UNL A   1      40.151  30.017  31.816  1.00  0.00     0.167 HD
ATOM     49  C   UNL A   1      41.939  27.186  29.006  1.00  0.00     0.034 A 
ATOM     50  C   UNL A   1      39.859  31.210  34.332  1.00  0.00     0.034 A 
ATOM     51  C   UNL A   1      42.857  27.254  30.112  1.00  0.00     0.049 A 
ATOM     52  C   UNL A   1      41.137  30.417  34.390  1.00  0.00     0.074 A 
ATOM     53  C   UNL A   1      44.084  26.629  30.252  1.00  0.00     0.029 A 
ATOM     54  N   UNL A   1      42.643  27.977  31.275  1.00  0.00    -0.354 N 
ATOM     55  N   UNL A   1      41.692  29.678  33.460  1.00  0.00    -0.248 NA
ATOM     56  C   UNL A   1      41.903  30.484  35.643  1.00  0.00     0.031 C 
ATOM     57  C   UNL A   1      44.595  26.944  31.515  1.00  0.00     0.029 A 
ATOM     58  C   UNL A   1      43.707  27.800  32.145  1.00  0.00     0.049 A 
ATOM     59  H   UNL A   1      41.853  28.534  31.457  1.00  0.00     0.167 HD
ATOM     60  C   UNL A   1      42.889  29.223  34.001  1.00  0.00     0.074 A 
ATOM     61  C   UNL A   1      42.988  29.788  35.331  1.00  0.00     0.031 C 
ATOM     62  C   UNL A   1      43.817  28.402  33.449  1.00  0.00     0.034 A 
BRANCH  49  63
ATOM     63  C   UNL A   1      42.290  26.286  27.849  1.00  0.00     0.023 A 
ATOM     64  C   UNL A   1      43.165  26.747  26.844  1.00  0.00     0.012 A 
ATOM     65  C   UNL A   1      41.807  24.963  27.788  1.00  0.00     0.148 A 
ATOM     66  C   UNL A   1      43.525  25.920  25.780  1.00  0.00     0.002 A 
ATOM     67  C   UNL A   1      42.208  24.130  26.751  1.00  0.00     0.091 A 
ATOM     68  F   UNL A   1      40.960  24.548  28.742  1.00  0.00    -0.205 F 
ATOM     69  C   UNL A   1      43.057  24.611  25.740  1.00  0.00     0.022 A 
BRANCH  67  70
ATOM     70  S   UNL A   1      41.727  22.402  26.652  1.00  0.00     0.127 S 
ATOM     71  O   UNL A   1      42.323  21.860  27.872  1.00  0.00    -0.237 OA
ATOM     72  O   UNL A   1      40.267  22.489  26.673  1.00  0.00    -0.237 OA
ATOM     73  O   UNL A   1      42.289  21.899  25.407  1.00  0.00    -0.744 OA
ENDBRANCH  67  70
ENDBRANCH  49  63
BRANCH  50  74
ATOM     74  C   UNL A   1      39.407  32.017  35.500  1.00  0.00     0.023 A 
ATOM     75  C   UNL A   1      38.561  31.434  36.463  1.00  0.00     0.012 A 
ATOM     76  C   UNL A   1      39.827  33.351  35.671  1.00  0.00     0.148 A 
ATOM     77  C   UNL A   1      38.112  32.176  37.557  1.00  0.00     0.002 A 
ATOM     78  C   UNL A   1      39.425  34.064  36.793  1.00  0.00     0.091 A 
ATOM     79  F   UNL A   1      40.624  33.891  34.738  1.00  0.00    -0.205 F 
ATOM     80  C   UNL A   1      38.551  33.486  37.727  1.00  0.00     0.022 A 
BRANCH  78  81
ATOM     81  S   UNL A   1      40.049  35.707  37.162  1.00  0.00     0.127 S 
ATOM     82  O   UNL A   1      41.482  35.461  37.292  1.00  0.00    -0.237 OA
ATOM     83  O   UNL A   1      39.656  36.454  35.967  1.00  0.00    -0.237 OA
ATOM     84  O   UNL A   1      39.367  36.125  38.381  1.00  0.00    -0.744 OA
ENDBRANCH  78  81
ENDBRANCH  50  74
BRANCH  62  85
ATOM     85  C   UNL A   1      45.046  28.091  34.263  1.00  0.00     0.023 A 
ATOM     86  C   UNL A   1      46.172  28.935  34.195  1.00  0.00     0.012 A 
ATOM     87  C   UNL A   1      45.058  26.994  35.149  1.00  0.00     0.148 A 
ATOM     88  C   UNL A   1      47.304  28.673  34.966  1.00  0.00     0.002 A 
ATOM     89  C   UNL A   1      46.168  26.770  35.954  1.00  0.00     0.091 A 
ATOM     90  F   UNL A   1      43.984  26.193  35.187  1.00  0.00    -0.205 F 
ATOM     91  C   UNL A   1      47.298  27.598  35.854  1.00  0.00     0.022 A 
BRANCH  89  92
ATOM     92  S   UNL A   1      46.213  25.473  37.195  1.00  0.00     0.127 S 
ATOM     93  O   UNL A   1      44.889  25.593  37.802  1.00  0.00    -0.237 OA
ATOM     94  O   UNL A   1      46.404  24.272  36.380  1.00  0.00    -0.237 OA
ATOM     95  O   UNL A   1      47.332  25.793  38.073  1.00  0.00    -0.744 OA
ENDBRANCH  89  92
ENDBRANCH  62  85
ENDBRANCH  36  37
ENDBRANCH  28  31
ENDBRANCH  26  27
ENDBRANCH  25  26
ENDBRANCH  24  25
ENDBRANCH   1  24
TORSDOF 20
ENDMDL
