MODEL 1
REMARK VINA RESULT:     -12.1      0.000      0.000
REMARK SMILES Cc1coc2c(C)c3oc(=O)c(CC(=O)NCC(=O)N[C@H](C(=O)NCCCCCCNC(=O)c4ccc(-c5c6nc(c(-c7cccc(S(=O)(=O)[O-])c7F)c7ccc([nH]7)c(-c7cccc(S(=O)(=O)[O-])c7F)c7nc(c(-c8cccc(S(=O)(=O)[O-])c8F)c8ccc5[nH]8)C=C7)C=C6)cc4)C(C)C)c(C)c3cc12
REMARK SMILES IDX 26 1 25 2 24 3 22 4 23 5 21 7 20 8 18 9 19 10 17 12 16 13
REMARK SMILES IDX 14 14 15 15 13 17 12 18 1 19 2 20 3 21 104 22 4 23 5 24
REMARK SMILES IDX 103 25 6 26 102 27 7 28 8 29 100 30 9 31 101 32 10 33 11 34
REMARK SMILES IDX 97 35 98 36 99 37 27 38 28 39 29 40 30 41 31 42 32 43 33 45
REMARK SMILES IDX 34 46 35 47 96 48 36 49 95 50 37 51 38 52 39 53 89 54 40 55
REMARK SMILES IDX 94 56 88 57 90 58 41 59 93 60 87 61 86 62 42 64 74 65 54 66
REMARK SMILES IDX 73 67 55 68 58 69 72 70 91 71 56 72 57 73 71 75 92 76 59 77
REMARK SMILES IDX 43 78 44 79 52 80 45 81 47 82 53 83 46 84 48 85 49 86 50 87
REMARK SMILES IDX 51 88 75 89 76 90 84 91 77 92 79 93 85 94 78 95 80 96 81 97
REMARK SMILES IDX 82 98 83 99 60 100 61 101 69 102 62 103 64 104 70 105 63 106
REMARK SMILES IDX 65 107 66 108 67 109 68 110
REMARK H PARENT 24 6 20 11 16 16 31 44 90 63 58 74
REMARK Flexibility Score: inf
ROOT
ATOM      1  C   UNL A   1      34.137  28.492  24.094  1.00  0.00     0.021 C 
ENDROOT
BRANCH   1   2
ATOM      2  C   UNL A   1      32.898  28.766  23.258  1.00  0.00     0.116 C 
BRANCH   2   3
ATOM      3  N   UNL A   1      31.978  29.571  24.019  1.00  0.00    -0.354 N 
ATOM      4  C   UNL A   1      30.623  29.623  24.043  1.00  0.00     0.242 C 
ATOM      5  O   UNL A   1      30.257  30.695  24.512  1.00  0.00    -0.273 OA
ATOM      6  H   UNL A   1      32.414  30.201  24.636  1.00  0.00     0.163 HD
BRANCH   4   7
ATOM      7  C   UNL A   1      29.730  28.458  23.449  1.00  0.00     0.173 C 
BRANCH   7   8
ATOM      8  N   UNL A   1      29.856  27.503  24.608  1.00  0.00    -0.343 N 
ATOM      9  C   UNL A   1      30.062  26.153  24.663  1.00  0.00     0.240 C 
ATOM     10  O   UNL A   1      30.178  25.656  25.788  1.00  0.00    -0.273 OA
ATOM     11  H   UNL A   1      29.775  27.931  25.490  1.00  0.00     0.164 HD
BRANCH   9  12
ATOM     12  C   UNL A   1      30.314  25.285  23.407  1.00  0.00     0.216 C 
BRANCH  12  13
ATOM     13  N   UNL A   1      31.616  25.382  22.767  1.00  0.00    -0.347 N 
ATOM     14  C   UNL A   1      32.883  25.083  23.178  1.00  0.00     0.225 C 
ATOM     15  O   UNL A   1      33.753  25.020  22.303  1.00  0.00    -0.275 OA
ATOM     16  H   UNL A   1      31.575  25.735  21.849  1.00  0.00     0.164 HD
BRANCH  14  17
ATOM     17  C   UNL A   1      33.236  24.775  24.637  1.00  0.00     0.143 C 
BRANCH  17  18
ATOM     18  C   UNL A   1      33.788  23.392  24.848  1.00  0.00     0.051 A 
ATOM     19  C   UNL A   1      32.301  16.082  25.072  1.00  0.00     0.048 C 
ATOM     20  C   UNL A   1      33.678  16.636  25.010  1.00  0.00    -0.005 A 
ATOM     21  C   UNL A   1      34.851  15.918  25.068  1.00  0.00     0.199 A 
ATOM     22  C   UNL A   1      34.057  18.017  24.881  1.00  0.00     0.024 A 
ATOM     23  O   UNL A   1      35.924  16.740  25.036  1.00  0.00    -0.464 OA
ATOM     24  C   UNL A   1      35.475  18.032  24.949  1.00  0.00     0.140 A 
ATOM     25  C   UNL A   1      33.246  19.190  24.739  1.00  0.00     0.024 A 
ATOM     26  C   UNL A   1      36.379  19.123  24.955  1.00  0.00     0.036 A 
ATOM     27  C   UNL A   1      33.915  20.387  24.746  1.00  0.00     0.022 A 
ATOM     28  C   UNL A   1      37.855  19.024  24.904  1.00  0.00     0.052 C 
ATOM     29  C   UNL A   1      35.620  20.263  24.908  1.00  0.00     0.145 A 
ATOM     30  C   UNL A   1      33.040  22.030  24.802  1.00  0.00    -0.029 A 
ATOM     31  O   UNL A   1      36.466  21.862  25.198  1.00  0.00    -0.422 OA
ATOM     32  C   UNL A   1      31.572  21.861  25.150  1.00  0.00     0.046 C 
ATOM     33  C   UNL A   1      35.711  23.508  25.177  1.00  0.00     0.340 A 
ATOM     34  O   UNL A   1      36.368  24.526  25.301  1.00  0.00    -0.246 OA
ENDBRANCH  17  18
ENDBRANCH  14  17
ENDBRANCH  12  13
ENDBRANCH   9  12
ENDBRANCH   7   8
BRANCH   7  35
ATOM     35  C   UNL A   1      28.026  28.406  22.939  1.00  0.00     0.015 C 
ATOM     36  C   UNL A   1      26.152  27.737  23.859  1.00  0.00     0.010 C 
ATOM     37  C   UNL A   1      28.138  29.853  21.857  1.00  0.00     0.010 C 
ENDBRANCH   7  35
ENDBRANCH   4   7
ENDBRANCH   2   3
ENDBRANCH   1   2
BRANCH   1  38
ATOM     38  C   UNL A   1      33.865  27.991  25.522  1.00  0.00     0.002 C 
BRANCH  38  39
ATOM     39  C   UNL A   1      34.560  28.747  26.664  1.00  0.00     0.002 C 
BRANCH  39  40
ATOM     40  C   UNL A   1      34.077  30.176  26.934  1.00  0.00     0.021 C 
BRANCH  40  41
ATOM     41  C   UNL A   1      34.647  30.783  28.203  1.00  0.00     0.116 C 
BRANCH  41  42
ATOM     42  N   UNL A   1      35.150  32.129  27.983  1.00  0.00    -0.352 N 
ATOM     43  C   UNL A   1      36.348  32.647  28.417  1.00  0.00     0.251 C 
ATOM     44  H   UNL A   1      34.570  32.737  27.469  1.00  0.00     0.163 HD
ATOM     45  O   UNL A   1      36.502  33.859  28.524  1.00  0.00    -0.269 OA
BRANCH  43  46
ATOM     46  C   UNL A   1      37.447  31.719  28.738  1.00  0.00     0.039 A 
ATOM     47  C   UNL A   1      37.475  30.439  28.180  1.00  0.00     0.014 A 
ATOM     48  C   UNL A   1      38.444  32.137  29.624  1.00  0.00     0.014 A 
ATOM     49  C   UNL A   1      38.538  29.600  28.487  1.00  0.00     0.010 A 
ATOM     50  C   UNL A   1      39.551  31.353  29.837  1.00  0.00     0.010 A 
ATOM     51  C   UNL A   1      39.574  30.069  29.310  1.00  0.00    -0.014 A 
BRANCH  51  52
ATOM     52  C   UNL A   1      40.775  29.269  29.499  1.00  0.00     0.031 A 
ATOM     53  C   UNL A   1      41.001  28.884  30.917  1.00  0.00     0.074 A 
ATOM     54  C   UNL A   1      41.496  28.769  28.471  1.00  0.00     0.049 A 
ATOM     55  N   UNL A   1      41.931  29.314  31.702  1.00  0.00    -0.248 NA
ATOM     56  C   UNL A   1      39.970  28.085  31.602  1.00  0.00     0.031 C 
ATOM     57  C   UNL A   1      41.178  28.828  27.039  1.00  0.00     0.029 A 
ATOM     58  N   UNL A   1      42.604  27.981  28.496  1.00  0.00    -0.354 N 
ATOM     59  C   UNL A   1      41.753  28.630  32.902  1.00  0.00     0.074 A 
ATOM     60  C   UNL A   1      40.422  28.091  32.857  1.00  0.00     0.031 C 
ATOM     61  C   UNL A   1      41.915  27.909  26.377  1.00  0.00     0.029 A 
ATOM     62  C   UNL A   1      42.861  27.312  27.300  1.00  0.00     0.049 A 
ATOM     63  H   UNL A   1      43.178  27.891  29.291  1.00  0.00     0.167 HD
ATOM     64  C   UNL A   1      42.820  28.335  33.695  1.00  0.00     0.034 A 
ATOM     65  C   UNL A   1      43.749  26.303  27.103  1.00  0.00     0.034 A 
ATOM     66  C   UNL A   1      43.970  29.120  33.312  1.00  0.00     0.049 A 
ATOM     67  C   UNL A   1      44.736  26.382  28.203  1.00  0.00     0.074 A 
ATOM     68  C   UNL A   1      44.246  30.469  33.225  1.00  0.00     0.029 A 
ATOM     69  N   UNL A   1      44.915  28.485  32.542  1.00  0.00    -0.354 N 
ATOM     70  N   UNL A   1      45.556  27.384  28.359  1.00  0.00    -0.248 NA
ATOM     71  C   UNL A   1      44.489  25.577  29.387  1.00  0.00     0.031 C 
ATOM     72  C   UNL A   1      45.038  30.604  32.048  1.00  0.00     0.029 A 
ATOM     73  C   UNL A   1      45.276  29.329  31.529  1.00  0.00     0.049 A 
ATOM     74  H   UNL A   1      45.270  27.579  32.693  1.00  0.00     0.167 HD
ATOM     75  C   UNL A   1      45.539  27.623  29.726  1.00  0.00     0.074 A 
ATOM     76  C   UNL A   1      44.952  26.419  30.316  1.00  0.00     0.031 C 
ATOM     77  C   UNL A   1      45.713  28.883  30.222  1.00  0.00     0.034 A 
BRANCH  64  78
ATOM     78  C   UNL A   1      42.975  27.080  34.534  1.00  0.00     0.023 A 
ATOM     79  C   UNL A   1      42.862  27.237  35.936  1.00  0.00     0.012 A 
ATOM     80  C   UNL A   1      43.484  25.844  34.076  1.00  0.00     0.148 A 
ATOM     81  C   UNL A   1      43.305  26.257  36.829  1.00  0.00     0.002 A 
ATOM     82  C   UNL A   1      43.852  24.839  34.966  1.00  0.00     0.091 A 
ATOM     83  F   UNL A   1      43.736  25.655  32.780  1.00  0.00    -0.205 F 
ATOM     84  C   UNL A   1      43.800  25.055  36.344  1.00  0.00     0.022 A 
BRANCH  82  85
ATOM     85  S   UNL A   1      44.450  23.240  34.398  1.00  0.00     0.127 S 
ATOM     86  O   UNL A   1      45.742  23.599  33.819  1.00  0.00    -0.237 OA
ATOM     87  O   UNL A   1      44.519  22.490  35.653  1.00  0.00    -0.237 OA
ATOM     88  O   UNL A   1      43.448  22.748  33.462  1.00  0.00    -0.744 OA
ENDBRANCH  82  85
ENDBRANCH  64  78
BRANCH  65  89
ATOM     89  C   UNL A   1      43.649  25.105  26.228  1.00  0.00     0.023 A 
ATOM     90  C   UNL A   1      44.634  24.864  25.248  1.00  0.00     0.012 A 
ATOM     91  C   UNL A   1      42.764  24.049  26.546  1.00  0.00     0.148 A 
ATOM     92  C   UNL A   1      44.758  23.610  24.634  1.00  0.00     0.002 A 
ATOM     93  C   UNL A   1      42.889  22.804  25.935  1.00  0.00     0.091 A 
ATOM     94  F   UNL A   1      41.861  24.237  27.517  1.00  0.00    -0.205 F 
ATOM     95  C   UNL A   1      43.892  22.576  24.985  1.00  0.00     0.022 A 
BRANCH  93  96
ATOM     96  S   UNL A   1      41.838  21.411  26.373  1.00  0.00     0.127 S 
ATOM     97  O   UNL A   1      42.345  20.360  25.490  1.00  0.00    -0.237 OA
ATOM     98  O   UNL A   1      42.153  21.227  27.787  1.00  0.00    -0.237 OA
ATOM     99  O   UNL A   1      40.472  21.830  26.085  1.00  0.00    -0.744 OA
ENDBRANCH  93  96
ENDBRANCH  65  89
BRANCH  77 100
ATOM    100  C   UNL A   1      46.168  29.977  29.284  1.00  0.00     0.023 A 
ATOM    101  C   UNL A   1      47.520  30.151  28.919  1.00  0.00     0.012 A 
ATOM    102  C   UNL A   1      45.178  30.670  28.569  1.00  0.00     0.148 A 
ATOM    103  C   UNL A   1      47.871  30.991  27.858  1.00  0.00     0.002 A 
ATOM    104  C   UNL A   1      45.525  31.456  27.478  1.00  0.00     0.091 A 
ATOM    105  F   UNL A   1      43.899  30.495  28.935  1.00  0.00    -0.205 F 
ATOM    106  C   UNL A   1      46.872  31.626  27.123  1.00  0.00     0.022 A 
BRANCH 104 107
ATOM    107  S   UNL A   1      44.280  32.161  26.397  1.00  0.00     0.127 S 
ATOM    108  O   UNL A   1      43.668  33.173  27.255  1.00  0.00    -0.237 OA
ATOM    109  O   UNL A   1      45.089  32.696  25.300  1.00  0.00    -0.237 OA
ATOM    110  O   UNL A   1      43.406  31.060  26.011  1.00  0.00    -0.744 OA
ENDBRANCH 104 107
ENDBRANCH  77 100
ENDBRANCH  51  52
ENDBRANCH  43  46
ENDBRANCH  41  42
ENDBRANCH  40  41
ENDBRANCH  39  40
ENDBRANCH  38  39
ENDBRANCH   1  38
TORSDOF 22
ENDMDL
MODEL 2
REMARK VINA RESULT:     -11.3      6.645     12.135
REMARK SMILES Cc1coc2c(C)c3oc(=O)c(CC(=O)NCC(=O)N[C@H](C(=O)NCCCCCCNC(=O)c4ccc(-c5c6nc(c(-c7cccc(S(=O)(=O)[O-])c7F)c7ccc([nH]7)c(-c7cccc(S(=O)(=O)[O-])c7F)c7nc(c(-c8cccc(S(=O)(=O)[O-])c8F)c8ccc5[nH]8)C=C7)C=C6)cc4)C(C)C)c(C)c3cc12
REMARK SMILES IDX 26 1 25 2 24 3 22 4 23 5 21 7 20 8 18 9 19 10 17 12 16 13
REMARK SMILES IDX 14 14 15 15 13 17 12 18 1 19 2 20 3 21 104 22 4 23 5 24
REMARK SMILES IDX 103 25 6 26 102 27 7 28 8 29 100 30 9 31 101 32 10 33 11 34
REMARK SMILES IDX 97 35 98 36 99 37 27 38 28 39 29 40 30 41 31 42 32 43 33 45
REMARK SMILES IDX 34 46 35 47 96 48 36 49 95 50 37 51 38 52 39 53 89 54 40 55
REMARK SMILES IDX 94 56 88 57 90 58 41 59 93 60 87 61 86 62 42 64 74 65 54 66
REMARK SMILES IDX 73 67 55 68 58 69 72 70 91 71 56 72 57 73 71 75 92 76 59 77
REMARK SMILES IDX 43 78 44 79 52 80 45 81 47 82 53 83 46 84 48 85 49 86 50 87
REMARK SMILES IDX 51 88 75 89 76 90 84 91 77 92 79 93 85 94 78 95 80 96 81 97
REMARK SMILES IDX 82 98 83 99 60 100 61 101 69 102 62 103 64 104 70 105 63 106
REMARK SMILES IDX 65 107 66 108 67 109 68 110
REMARK H PARENT 24 6 20 11 16 16 31 44 90 63 58 74
REMARK Flexibility Score: inf
ROOT
ATOM      1  C   UNL A   1      36.597  33.092  34.728  1.00  0.00     0.021 C 
ENDROOT
BRANCH   1   2
ATOM      2  C   UNL A   1      37.136  33.226  36.143  1.00  0.00     0.116 C 
BRANCH   2   3
ATOM      3  N   UNL A   1      38.058  32.151  36.406  1.00  0.00    -0.354 N 
ATOM      4  C   UNL A   1      39.367  32.144  36.760  1.00  0.00     0.242 C 
ATOM      5  O   UNL A   1      39.864  31.056  36.490  1.00  0.00    -0.273 OA
ATOM      6  H   UNL A   1      37.664  31.254  36.311  1.00  0.00     0.163 HD
BRANCH   4   7
ATOM      7  C   UNL A   1      40.082  33.430  37.347  1.00  0.00     0.173 C 
BRANCH   7   8
ATOM      8  N   UNL A   1      40.885  32.736  38.418  1.00  0.00    -0.343 N 
ATOM      9  C   UNL A   1      40.643  32.519  39.745  1.00  0.00     0.240 C 
ATOM     10  O   UNL A   1      41.486  31.855  40.359  1.00  0.00    -0.273 OA
ATOM     11  H   UNL A   1      41.743  32.373  38.103  1.00  0.00     0.164 HD
BRANCH   9  12
ATOM     12  C   UNL A   1      39.319  32.915  40.439  1.00  0.00     0.216 C 
BRANCH  12  13
ATOM     13  N   UNL A   1      39.166  32.583  41.847  1.00  0.00    -0.347 N 
ATOM     14  C   UNL A   1      38.411  31.659  42.510  1.00  0.00     0.225 C 
ATOM     15  O   UNL A   1      38.707  31.441  43.690  1.00  0.00    -0.275 OA
ATOM     16  H   UNL A   1      39.718  33.138  42.442  1.00  0.00     0.164 HD
BRANCH  14  17
ATOM     17  C   UNL A   1      37.283  30.866  41.842  1.00  0.00     0.143 C 
BRANCH  17  18
ATOM     18  C   UNL A   1      35.977  31.607  41.776  1.00  0.00     0.051 A 
ATOM     19  C   UNL A   1      30.215  34.387  45.618  1.00  0.00     0.048 C 
ATOM     20  C   UNL A   1      30.500  34.736  44.203  1.00  0.00    -0.005 A 
ATOM     21  C   UNL A   1      29.727  35.529  43.385  1.00  0.00     0.199 A 
ATOM     22  C   UNL A   1      31.625  34.318  43.411  1.00  0.00     0.024 A 
ATOM     23  O   UNL A   1      30.251  35.597  42.141  1.00  0.00    -0.464 OA
ATOM     24  C   UNL A   1      31.397  34.847  42.114  1.00  0.00     0.140 A 
ATOM     25  C   UNL A   1      32.759  33.518  43.766  1.00  0.00     0.024 A 
ATOM     26  C   UNL A   1      32.138  34.686  40.917  1.00  0.00     0.036 A 
ATOM     27  C   UNL A   1      33.618  33.206  42.744  1.00  0.00     0.022 A 
ATOM     28  C   UNL A   1      31.880  35.385  39.638  1.00  0.00     0.052 C 
ATOM     29  C   UNL A   1      33.183  33.849  41.212  1.00  0.00     0.145 A 
ATOM     30  C   UNL A   1      35.021  31.998  42.938  1.00  0.00    -0.029 A 
ATOM     31  O   UNL A   1      34.172  33.198  39.814  1.00  0.00    -0.422 OA
ATOM     32  C   UNL A   1      34.890  31.203  44.226  1.00  0.00     0.046 C 
ATOM     33  C   UNL A   1      35.606  32.097  39.920  1.00  0.00     0.340 A 
ATOM     34  O   UNL A   1      36.255  31.777  38.940  1.00  0.00    -0.246 OA
ENDBRANCH  17  18
ENDBRANCH  14  17
ENDBRANCH  12  13
ENDBRANCH   9  12
ENDBRANCH   7   8
BRANCH   7  35
ATOM     35  C   UNL A   1      41.166  34.631  36.606  1.00  0.00     0.015 C 
ATOM     36  C   UNL A   1      43.218  34.601  35.836  1.00  0.00     0.010 C 
ATOM     37  C   UNL A   1      39.838  35.602  35.852  1.00  0.00     0.010 C 
ENDBRANCH   7  35
ENDBRANCH   4   7
ENDBRANCH   2   3
ENDBRANCH   1   2
BRANCH   1  38
ATOM     38  C   UNL A   1      35.424  34.023  34.385  1.00  0.00     0.002 C 
BRANCH  38  39
ATOM     39  C   UNL A   1      34.412  33.508  33.350  1.00  0.00     0.002 C 
BRANCH  39  40
ATOM     40  C   UNL A   1      34.919  32.451  32.363  1.00  0.00     0.021 C 
BRANCH  40  41
ATOM     41  C   UNL A   1      35.441  33.033  31.063  1.00  0.00     0.116 C 
BRANCH  41  42
ATOM     42  N   UNL A   1      34.729  32.509  29.908  1.00  0.00    -0.352 N 
ATOM     43  C   UNL A   1      35.260  31.786  28.865  1.00  0.00     0.251 C 
ATOM     44  H   UNL A   1      33.763  32.692  29.867  1.00  0.00     0.163 HD
ATOM     45  O   UNL A   1      34.683  31.734  27.784  1.00  0.00    -0.269 OA
BRANCH  43  46
ATOM     46  C   UNL A   1      36.528  31.064  29.076  1.00  0.00     0.039 A 
ATOM     47  C   UNL A   1      36.539  29.670  29.166  1.00  0.00     0.014 A 
ATOM     48  C   UNL A   1      37.708  31.801  29.204  1.00  0.00     0.014 A 
ATOM     49  C   UNL A   1      37.756  29.023  29.341  1.00  0.00     0.010 A 
ATOM     50  C   UNL A   1      38.920  31.158  29.263  1.00  0.00     0.010 A 
ATOM     51  C   UNL A   1      38.940  29.775  29.381  1.00  0.00    -0.014 A 
BRANCH  51  52
ATOM     52  C   UNL A   1      40.231  29.103  29.389  1.00  0.00     0.031 A 
ATOM     53  C   UNL A   1      40.769  28.891  30.759  1.00  0.00     0.074 A 
ATOM     54  C   UNL A   1      40.784  28.559  28.283  1.00  0.00     0.049 A 
ATOM     55  N   UNL A   1      41.785  29.478  31.295  1.00  0.00    -0.248 NA
ATOM     56  C   UNL A   1      39.980  28.086  31.707  1.00  0.00     0.031 C 
ATOM     57  C   UNL A   1      40.188  28.438  26.946  1.00  0.00     0.029 A 
ATOM     58  N   UNL A   1      41.952  27.874  28.149  1.00  0.00    -0.354 N 
ATOM     59  C   UNL A   1      41.917  28.913  32.562  1.00  0.00     0.074 A 
ATOM     60  C   UNL A   1      40.666  28.263  32.838  1.00  0.00     0.031 C 
ATOM     61  C   UNL A   1      40.872  27.519  26.230  1.00  0.00     0.029 A 
ATOM     62  C   UNL A   1      42.037  27.105  26.988  1.00  0.00     0.049 A 
ATOM     63  H   UNL A   1      42.677  27.917  28.814  1.00  0.00     0.167 HD
ATOM     64  C   UNL A   1      43.143  28.794  33.142  1.00  0.00     0.034 A 
ATOM     65  C   UNL A   1      42.968  26.159  26.702  1.00  0.00     0.034 A 
ATOM     66  C   UNL A   1      44.109  29.627  32.464  1.00  0.00     0.049 A 
ATOM     67  C   UNL A   1      44.139  26.436  27.565  1.00  0.00     0.074 A 
ATOM     68  C   UNL A   1      44.221  30.978  32.206  1.00  0.00     0.029 A 
ATOM     69  N   UNL A   1      44.945  28.995  31.575  1.00  0.00    -0.354 N 
ATOM     70  N   UNL A   1      44.865  27.514  27.461  1.00  0.00    -0.248 NA
ATOM     71  C   UNL A   1      44.213  25.744  28.840  1.00  0.00     0.031 C 
ATOM     72  C   UNL A   1      44.749  31.053  30.884  1.00  0.00     0.029 A 
ATOM     73  C   UNL A   1      45.012  29.755  30.440  1.00  0.00     0.049 A 
ATOM     74  H   UNL A   1      45.415  28.144  31.728  1.00  0.00     0.167 HD
ATOM     75  C   UNL A   1      45.092  27.895  28.777  1.00  0.00     0.074 A 
ATOM     76  C   UNL A   1      44.758  26.716  29.577  1.00  0.00     0.031 C 
ATOM     77  C   UNL A   1      45.228  29.211  29.115  1.00  0.00     0.034 A 
BRANCH  64  78
ATOM     78  C   UNL A   1      43.588  27.653  34.037  1.00  0.00     0.023 A 
ATOM     79  C   UNL A   1      43.866  26.420  33.400  1.00  0.00     0.012 A 
ATOM     80  C   UNL A   1      43.488  27.627  35.447  1.00  0.00     0.148 A 
ATOM     81  C   UNL A   1      43.956  25.221  34.115  1.00  0.00     0.002 A 
ATOM     82  C   UNL A   1      43.656  26.445  36.163  1.00  0.00     0.091 A 
ATOM     83  F   UNL A   1      43.112  28.717  36.118  1.00  0.00    -0.205 F 
ATOM     84  C   UNL A   1      43.853  25.234  35.499  1.00  0.00     0.022 A 
BRANCH  82  85
ATOM     85  S   UNL A   1      43.587  26.406  37.960  1.00  0.00     0.127 S 
ATOM     86  O   UNL A   1      44.307  27.628  38.307  1.00  0.00    -0.237 OA
ATOM     87  O   UNL A   1      42.144  26.448  38.199  1.00  0.00    -0.237 OA
ATOM     88  O   UNL A   1      44.224  25.157  38.358  1.00  0.00    -0.744 OA
ENDBRANCH  82  85
ENDBRANCH  64  78
BRANCH  65  89
ATOM     89  C   UNL A   1      42.823  24.871  25.974  1.00  0.00     0.023 A 
ATOM     90  C   UNL A   1      43.792  24.486  25.023  1.00  0.00     0.012 A 
ATOM     91  C   UNL A   1      41.910  23.888  26.419  1.00  0.00     0.148 A 
ATOM     92  C   UNL A   1      43.871  23.165  24.560  1.00  0.00     0.002 A 
ATOM     93  C   UNL A   1      41.990  22.576  25.956  1.00  0.00     0.091 A 
ATOM     94  F   UNL A   1      41.022  24.216  27.366  1.00  0.00    -0.205 F 
ATOM     95  C   UNL A   1      42.977  22.207  25.034  1.00  0.00     0.022 A 
BRANCH  93  96
ATOM     96  S   UNL A   1      40.901  21.277  26.561  1.00  0.00     0.127 S 
ATOM     97  O   UNL A   1      39.661  21.562  25.839  1.00  0.00    -0.237 OA
ATOM     98  O   UNL A   1      41.599  20.070  26.125  1.00  0.00    -0.237 OA
ATOM     99  O   UNL A   1      40.814  21.464  28.004  1.00  0.00    -0.744 OA
ENDBRANCH  93  96
ENDBRANCH  65  89
BRANCH  77 100
ATOM    100  C   UNL A   1      45.375  30.233  28.012  1.00  0.00     0.023 A 
ATOM    101  C   UNL A   1      44.267  30.785  27.335  1.00  0.00     0.012 A 
ATOM    102  C   UNL A   1      46.638  30.824  27.842  1.00  0.00     0.148 A 
ATOM    103  C   UNL A   1      44.418  31.909  26.516  1.00  0.00     0.002 A 
ATOM    104  C   UNL A   1      46.773  31.975  27.077  1.00  0.00     0.091 A 
ATOM    105  F   UNL A   1      47.679  30.281  28.491  1.00  0.00    -0.205 F 
ATOM    106  C   UNL A   1      45.666  32.517  26.404  1.00  0.00     0.022 A 
BRANCH 104 107
ATOM    107  S   UNL A   1      48.311  32.895  27.029  1.00  0.00     0.127 S 
ATOM    108  O   UNL A   1      49.211  31.950  26.370  1.00  0.00    -0.237 OA
ATOM    109  O   UNL A   1      47.951  34.061  26.222  1.00  0.00    -0.237 OA
ATOM    110  O   UNL A   1      48.641  33.206  28.414  1.00  0.00    -0.744 OA
ENDBRANCH 104 107
ENDBRANCH  77 100
ENDBRANCH  51  52
ENDBRANCH  43  46
ENDBRANCH  41  42
ENDBRANCH  40  41
ENDBRANCH  39  40
ENDBRANCH  38  39
ENDBRANCH   1  38
TORSDOF 22
ENDMDL
MODEL 3
REMARK VINA RESULT:     -11.3      4.310      8.476
REMARK SMILES Cc1coc2c(C)c3oc(=O)c(CC(=O)NCC(=O)N[C@H](C(=O)NCCCCCCNC(=O)c4ccc(-c5c6nc(c(-c7cccc(S(=O)(=O)[O-])c7F)c7ccc([nH]7)c(-c7cccc(S(=O)(=O)[O-])c7F)c7nc(c(-c8cccc(S(=O)(=O)[O-])c8F)c8ccc5[nH]8)C=C7)C=C6)cc4)C(C)C)c(C)c3cc12
REMARK SMILES IDX 26 1 25 2 24 3 22 4 23 5 21 7 20 8 18 9 19 10 17 12 16 13
REMARK SMILES IDX 14 14 15 15 13 17 12 18 1 19 2 20 3 21 104 22 4 23 5 24
REMARK SMILES IDX 103 25 6 26 102 27 7 28 8 29 100 30 9 31 101 32 10 33 11 34
REMARK SMILES IDX 97 35 98 36 99 37 27 38 28 39 29 40 30 41 31 42 32 43 33 45
REMARK SMILES IDX 34 46 35 47 96 48 36 49 95 50 37 51 38 52 39 53 89 54 40 55
REMARK SMILES IDX 94 56 88 57 90 58 41 59 93 60 87 61 86 62 42 64 74 65 54 66
REMARK SMILES IDX 73 67 55 68 58 69 72 70 91 71 56 72 57 73 71 75 92 76 59 77
REMARK SMILES IDX 43 78 44 79 52 80 45 81 47 82 53 83 46 84 48 85 49 86 50 87
REMARK SMILES IDX 51 88 75 89 76 90 84 91 77 92 79 93 85 94 78 95 80 96 81 97
REMARK SMILES IDX 82 98 83 99 60 100 61 101 69 102 62 103 64 104 70 105 63 106
REMARK SMILES IDX 65 107 66 108 67 109 68 110
REMARK H PARENT 24 6 20 11 16 16 31 44 90 63 58 74
REMARK Flexibility Score: inf
ROOT
ATOM      1  C   UNL A   1      40.062  28.939  27.049  1.00  0.00     0.021 C 
ENDROOT
BRANCH   1   2
ATOM      2  C   UNL A   1      41.547  28.787  27.335  1.00  0.00     0.116 C 
BRANCH   2   3
ATOM      3  N   UNL A   1      41.724  28.196  28.636  1.00  0.00    -0.354 N 
ATOM      4  C   UNL A   1      42.475  27.150  29.063  1.00  0.00     0.242 C 
ATOM      5  O   UNL A   1      42.037  26.734  30.130  1.00  0.00    -0.273 OA
ATOM      6  H   UNL A   1      41.203  28.632  29.348  1.00  0.00     0.163 HD
BRANCH   4   7
ATOM      7  C   UNL A   1      43.668  26.569  28.200  1.00  0.00     0.173 C 
BRANCH   7   8
ATOM      8  N   UNL A   1      43.965  25.366  29.059  1.00  0.00    -0.343 N 
ATOM      9  C   UNL A   1      43.355  24.148  29.170  1.00  0.00     0.240 C 
ATOM     10  O   UNL A   1      43.880  23.335  29.939  1.00  0.00    -0.273 OA
ATOM     11  H   UNL A   1      44.743  25.480  29.651  1.00  0.00     0.164 HD
BRANCH   9  12
ATOM     12  C   UNL A   1      42.174  23.710  28.273  1.00  0.00     0.216 C 
BRANCH  12  13
ATOM     13  N   UNL A   1      41.642  22.369  28.460  1.00  0.00    -0.347 N 
ATOM     14  C   UNL A   1      41.095  21.455  27.606  1.00  0.00     0.225 C 
ATOM     15  O   UNL A   1      40.988  20.297  28.023  1.00  0.00    -0.275 OA
ATOM     16  H   UNL A   1      41.686  22.057  29.392  1.00  0.00     0.164 HD
BRANCH  14  17
ATOM     17  C   UNL A   1      40.677  21.797  26.172  1.00  0.00     0.143 C 
BRANCH  17  18
ATOM     18  C   UNL A   1      39.193  21.955  25.994  1.00  0.00     0.051 A 
ATOM     19  C   UNL A   1      33.394  26.652  26.095  1.00  0.00     0.048 C 
ATOM     20  C   UNL A   1      33.331  25.286  25.516  1.00  0.00    -0.005 A 
ATOM     21  C   UNL A   1      32.214  24.666  25.003  1.00  0.00     0.199 A 
ATOM     22  C   UNL A   1      34.411  24.347  25.377  1.00  0.00     0.024 A 
ATOM     23  O   UNL A   1      32.498  23.405  24.606  1.00  0.00    -0.464 OA
ATOM     24  C   UNL A   1      33.826  23.168  24.844  1.00  0.00     0.140 A 
ATOM     25  C   UNL A   1      35.799  24.479  25.706  1.00  0.00     0.024 A 
ATOM     26  C   UNL A   1      34.403  21.901  24.578  1.00  0.00     0.036 A 
ATOM     27  C   UNL A   1      36.563  23.351  25.550  1.00  0.00     0.022 A 
ATOM     28  C   UNL A   1      33.730  20.769  23.902  1.00  0.00     0.052 C 
ATOM     29  C   UNL A   1      35.715  21.976  24.968  1.00  0.00     0.145 A 
ATOM     30  C   UNL A   1      38.329  23.241  26.131  1.00  0.00    -0.029 A 
ATOM     31  O   UNL A   1      36.674  20.417  25.033  1.00  0.00    -0.422 OA
ATOM     32  C   UNL A   1      38.682  24.401  27.046  1.00  0.00     0.046 C 
ATOM     33  C   UNL A   1      38.415  20.233  25.494  1.00  0.00     0.340 A 
ATOM     34  O   UNL A   1      38.996  19.164  25.432  1.00  0.00    -0.246 OA
ENDBRANCH  17  18
ENDBRANCH  14  17
ENDBRANCH  12  13
ENDBRANCH   9  12
ENDBRANCH   7   8
BRANCH   7  35
ATOM     35  C   UNL A   1      43.754  26.012  26.512  1.00  0.00     0.015 C 
ATOM     36  C   UNL A   1      42.303  25.255  25.053  1.00  0.00     0.010 C 
ATOM     37  C   UNL A   1      45.148  27.074  26.063  1.00  0.00     0.010 C 
ENDBRANCH   7  35
ENDBRANCH   4   7
ENDBRANCH   2   3
ENDBRANCH   1   2
BRANCH   1  38
ATOM     38  C   UNL A   1      39.230  29.524  28.202  1.00  0.00     0.002 C 
BRANCH  38  39
ATOM     39  C   UNL A   1      37.788  29.015  28.342  1.00  0.00     0.002 C 
BRANCH  39  40
ATOM     40  C   UNL A   1      36.725  29.724  27.495  1.00  0.00     0.021 C 
BRANCH  40  41
ATOM     41  C   UNL A   1      35.350  29.743  28.135  1.00  0.00     0.116 C 
BRANCH  41  42
ATOM     42  N   UNL A   1      34.809  31.090  28.224  1.00  0.00    -0.352 N 
ATOM     43  C   UNL A   1      34.981  31.985  29.255  1.00  0.00     0.251 C 
ATOM     44  H   UNL A   1      34.261  31.395  27.466  1.00  0.00     0.163 HD
ATOM     45  O   UNL A   1      34.192  32.909  29.417  1.00  0.00    -0.269 OA
BRANCH  43  46
ATOM     46  C   UNL A   1      36.139  31.820  30.151  1.00  0.00     0.039 A 
ATOM     47  C   UNL A   1      37.330  32.505  29.899  1.00  0.00     0.014 A 
ATOM     48  C   UNL A   1      36.028  30.952  31.241  1.00  0.00     0.014 A 
ATOM     49  C   UNL A   1      38.392  32.343  30.779  1.00  0.00     0.010 A 
ATOM     50  C   UNL A   1      37.035  30.879  32.172  1.00  0.00     0.010 A 
ATOM     51  C   UNL A   1      38.232  31.534  31.915  1.00  0.00    -0.014 A 
BRANCH  51  52
ATOM     52  C   UNL A   1      39.271  31.494  32.934  1.00  0.00     0.031 A 
ATOM     53  C   UNL A   1      39.053  32.479  34.026  1.00  0.00     0.074 A 
ATOM     54  C   UNL A   1      40.220  30.533  32.980  1.00  0.00     0.049 A 
ATOM     55  N   UNL A   1      39.747  33.541  34.266  1.00  0.00    -0.248 NA
ATOM     56  C   UNL A   1      37.817  32.386  34.821  1.00  0.00     0.031 C 
ATOM     57  C   UNL A   1      40.332  29.339  32.134  1.00  0.00     0.029 A 
ATOM     58  N   UNL A   1      41.218  30.348  33.886  1.00  0.00    -0.354 N 
ATOM     59  C   UNL A   1      39.185  34.104  35.409  1.00  0.00     0.074 A 
ATOM     60  C   UNL A   1      37.889  33.500  35.552  1.00  0.00     0.031 C 
ATOM     61  C   UNL A   1      41.163  28.448  32.719  1.00  0.00     0.029 A 
ATOM     62  C   UNL A   1      41.760  29.063  33.889  1.00  0.00     0.049 A 
ATOM     63  H   UNL A   1      41.532  31.061  34.489  1.00  0.00     0.167 HD
ATOM     64  C   UNL A   1      39.957  34.803  36.287  1.00  0.00     0.034 A 
ATOM     65  C   UNL A   1      42.596  28.531  34.818  1.00  0.00     0.034 A 
ATOM     66  C   UNL A   1      41.220  35.157  35.682  1.00  0.00     0.049 A 
ATOM     67  C   UNL A   1      43.229  29.668  35.524  1.00  0.00     0.074 A 
ATOM     68  C   UNL A   1      41.601  35.882  34.572  1.00  0.00     0.029 A 
ATOM     69  N   UNL A   1      42.300  34.377  36.020  1.00  0.00    -0.354 N 
ATOM     70  N   UNL A   1      44.037  30.511  34.942  1.00  0.00    -0.248 NA
ATOM     71  C   UNL A   1      42.598  30.138  36.745  1.00  0.00     0.031 C 
ATOM     72  C   UNL A   1      42.704  35.163  34.028  1.00  0.00     0.029 A 
ATOM     73  C   UNL A   1      42.994  34.093  34.877  1.00  0.00     0.049 A 
ATOM     74  H   UNL A   1      42.534  34.076  36.928  1.00  0.00     0.167 HD
ATOM     75  C   UNL A   1      43.645  31.748  35.436  1.00  0.00     0.074 A 
ATOM     76  C   UNL A   1      42.832  31.447  36.615  1.00  0.00     0.031 C 
ATOM     77  C   UNL A   1      43.755  32.877  34.676  1.00  0.00     0.034 A 
BRANCH  64  78
ATOM     78  C   UNL A   1      39.778  34.827  37.793  1.00  0.00     0.023 A 
ATOM     79  C   UNL A   1      39.688  36.102  38.400  1.00  0.00     0.012 A 
ATOM     80  C   UNL A   1      39.967  33.727  38.660  1.00  0.00     0.148 A 
ATOM     81  C   UNL A   1      39.856  36.282  39.777  1.00  0.00     0.002 A 
ATOM     82  C   UNL A   1      40.056  33.900  40.039  1.00  0.00     0.091 A 
ATOM     83  F   UNL A   1      40.182  32.507  38.168  1.00  0.00    -0.205 F 
ATOM     84  C   UNL A   1      40.039  35.178  40.598  1.00  0.00     0.022 A 
BRANCH  82  85
ATOM     85  S   UNL A   1      40.240  32.505  41.160  1.00  0.00     0.127 S 
ATOM     86  O   UNL A   1      39.001  31.771  40.920  1.00  0.00    -0.237 OA
ATOM     87  O   UNL A   1      41.450  31.867  40.639  1.00  0.00    -0.237 OA
ATOM     88  O   UNL A   1      40.393  33.078  42.491  1.00  0.00    -0.744 OA
ENDBRANCH  82  85
ENDBRANCH  64  78
BRANCH  65  89
ATOM     89  C   UNL A   1      42.669  27.145  35.349  1.00  0.00     0.023 A 
ATOM     90  C   UNL A   1      41.483  26.426  35.609  1.00  0.00     0.012 A 
ATOM     91  C   UNL A   1      43.883  26.423  35.320  1.00  0.00     0.148 A 
ATOM     92  C   UNL A   1      41.501  25.037  35.795  1.00  0.00     0.002 A 
ATOM     93  C   UNL A   1      43.899  25.042  35.507  1.00  0.00     0.091 A 
ATOM     94  F   UNL A   1      45.013  27.075  35.015  1.00  0.00    -0.205 F 
ATOM     95  C   UNL A   1      42.707  24.343  35.734  1.00  0.00     0.022 A 
BRANCH  93  96
ATOM     96  S   UNL A   1      45.412  24.075  35.394  1.00  0.00     0.127 S 
ATOM     97  O   UNL A   1      44.925  22.720  35.648  1.00  0.00    -0.237 OA
ATOM     98  O   UNL A   1      45.830  24.327  34.016  1.00  0.00    -0.237 OA
ATOM     99  O   UNL A   1      46.302  24.598  36.423  1.00  0.00    -0.744 OA
ENDBRANCH  93  96
ENDBRANCH  65  89
BRANCH  77 100
ATOM    100  C   UNL A   1      44.534  32.808  33.383  1.00  0.00     0.023 A 
ATOM    101  C   UNL A   1      45.945  32.769  33.347  1.00  0.00     0.012 A 
ATOM    102  C   UNL A   1      43.817  32.522  32.209  1.00  0.00     0.148 A 
ATOM    103  C   UNL A   1      46.620  32.442  32.166  1.00  0.00     0.002 A 
ATOM    104  C   UNL A   1      44.489  32.139  31.056  1.00  0.00     0.091 A 
ATOM    105  F   UNL A   1      42.478  32.569  32.264  1.00  0.00    -0.205 F 
ATOM    106  C   UNL A   1      45.892  32.105  31.028  1.00  0.00     0.022 A 
BRANCH 104 107
ATOM    107  S   UNL A   1      43.609  31.535  29.615  1.00  0.00     0.127 S 
ATOM    108  O   UNL A   1      43.049  32.766  29.062  1.00  0.00    -0.237 OA
ATOM    109  O   UNL A   1      44.686  30.942  28.820  1.00  0.00    -0.237 OA
ATOM    110  O   UNL A   1      42.632  30.573  30.109  1.00  0.00    -0.744 OA
ENDBRANCH 104 107
ENDBRANCH  77 100
ENDBRANCH  51  52
ENDBRANCH  43  46
ENDBRANCH  41  42
ENDBRANCH  40  41
ENDBRANCH  39  40
ENDBRANCH  38  39
ENDBRANCH   1  38
TORSDOF 22
ENDMDL
