MODEL 1
REMARK VINA RESULT:      -9.1      0.000      0.000
REMARK SMILES O=C(CSc1ccnc(C(=O)NCCCCCCNC(=O)c2ccc(-c3c4nc(c(-c5cccc(S(=O)(=O)[O-])c5F)c5ccc([nH]5)c(-c5cccc(S(=O)(=O)[O-])c5F)c5nc(c(-c6cccc(S(=O)(=O)[O-])c6F)c6ccc3[nH]6)C=C5)C=C4)cc2)c1)NNc1ccccn1
REMARK SMILES IDX 14 1 13 2 12 3 10 4 11 5 9 7 5 8 6 9 85 10 7 11 8 12 4 13
REMARK SMILES IDX 3 14 2 15 1 16 86 17 87 19 88 21 89 22 93 23 90 24 92 25
REMARK SMILES IDX 91 26 15 27 16 28 17 29 18 30 19 31 20 32 21 34 22 35 23 36
REMARK SMILES IDX 84 37 24 38 83 39 25 40 26 41 27 42 77 43 28 44 82 45 76 46
REMARK SMILES IDX 78 47 29 48 81 49 75 50 74 51 30 53 62 54 42 55 61 56 43 57
REMARK SMILES IDX 46 58 60 59 79 60 44 61 45 62 59 64 80 65 47 66 31 67 32 68
REMARK SMILES IDX 40 69 33 70 35 71 41 72 34 73 36 74 37 75 38 76 39 77 63 78
REMARK SMILES IDX 64 79 72 80 65 81 67 82 73 83 66 84 68 85 69 86 70 87 71 88
REMARK SMILES IDX 48 89 49 90 57 91 50 92 52 93 58 94 51 95 53 96 54 97 55 98
REMARK SMILES IDX 56 99
REMARK H PARENT 12 6 86 18 87 20 19 33 78 52 46 63
REMARK Flexibility Score: inf
ROOT
ATOM      1  C   UNL A   1      33.722  36.708  31.027  1.00  0.00     0.021 C 
ENDROOT
BRANCH   1   2
ATOM      2  C   UNL A   1      33.595  36.428  32.519  1.00  0.00     0.116 C 
BRANCH   2   3
ATOM      3  N   UNL A   1      33.193  35.068  32.822  1.00  0.00    -0.351 N 
ATOM      4  C   UNL A   1      33.923  33.926  33.081  1.00  0.00     0.269 C 
ATOM      5  O   UNL A   1      33.289  32.885  33.269  1.00  0.00    -0.268 OA
ATOM      6  H   UNL A   1      32.217  34.934  32.849  1.00  0.00     0.163 HD
BRANCH   4   7
ATOM      7  C   UNL A   1      35.427  33.906  33.116  1.00  0.00     0.129 A 
ATOM      8  C   UNL A   1      37.534  33.612  34.214  1.00  0.00     0.012 A 
ATOM      9  C   UNL A   1      38.167  34.023  33.046  1.00  0.00     0.035 A 
ATOM     10  C   UNL A   1      36.149  33.466  34.215  1.00  0.00     0.049 A 
ATOM     11  C   UNL A   1      37.381  34.360  31.960  1.00  0.00     0.113 A 
ATOM     12  N   UNL A   1      36.034  34.338  31.979  1.00  0.00    -0.251 NA
BRANCH   8  13
ATOM     13  S   UNL A   1      38.400  33.261  35.736  1.00  0.00    -0.116 SA
BRANCH  13  14
ATOM     14  C   UNL A   1      39.873  32.345  35.112  1.00  0.00     0.176 C 
BRANCH  14  15
ATOM     15  C   UNL A   1      40.305  31.282  36.106  1.00  0.00     0.248 C 
ATOM     16  O   UNL A   1      40.834  31.555  37.181  1.00  0.00    -0.272 OA
ATOM     17  N   UNL A   1      40.043  29.997  35.673  1.00  0.00    -0.268 N 
ATOM     18  H   UNL A   1      39.474  29.845  34.884  1.00  0.00     0.191 HD
BRANCH  17  19
ATOM     19  N   UNL A   1      40.589  28.923  36.360  1.00  0.00    -0.282 N 
ATOM     20  H   UNL A   1      40.301  28.700  37.274  1.00  0.00     0.190 HD
BRANCH  19  21
ATOM     21  C   UNL A   1      41.565  28.172  35.701  1.00  0.00     0.144 A 
ATOM     22  C   UNL A   1      42.786  28.727  35.313  1.00  0.00     0.048 A 
ATOM     23  N   UNL A   1      41.257  26.887  35.439  1.00  0.00    -0.238 NA
ATOM     24  C   UNL A   1      43.690  27.956  34.587  1.00  0.00     0.005 A 
ATOM     25  C   UNL A   1      42.146  26.160  34.728  1.00  0.00     0.113 A 
ATOM     26  C   UNL A   1      43.360  26.646  34.275  1.00  0.00     0.020 A 
ENDBRANCH  19  21
ENDBRANCH  17  19
ENDBRANCH  14  15
ENDBRANCH  13  14
ENDBRANCH   8  13
ENDBRANCH   4   7
ENDBRANCH   2   3
ENDBRANCH   1   2
BRANCH   1  27
ATOM     27  C   UNL A   1      32.732  35.986  30.113  1.00  0.00     0.002 C 
BRANCH  27  28
ATOM     28  C   UNL A   1      33.333  35.098  29.022  1.00  0.00     0.002 C 
BRANCH  28  29
ATOM     29  C   UNL A   1      34.090  33.854  29.494  1.00  0.00     0.021 C 
BRANCH  29  30
ATOM     30  C   UNL A   1      34.777  33.039  28.403  1.00  0.00     0.116 C 
BRANCH  30  31
ATOM     31  N   UNL A   1      34.048  31.829  28.071  1.00  0.00    -0.352 N 
ATOM     32  C   UNL A   1      34.510  30.547  27.908  1.00  0.00     0.251 C 
ATOM     33  H   UNL A   1      33.080  31.944  27.943  1.00  0.00     0.163 HD
ATOM     34  O   UNL A   1      33.756  29.688  27.460  1.00  0.00    -0.269 OA
BRANCH  32  35
ATOM     35  C   UNL A   1      35.907  30.193  28.259  1.00  0.00     0.039 A 
ATOM     36  C   UNL A   1      36.891  30.298  27.271  1.00  0.00     0.014 A 
ATOM     37  C   UNL A   1      36.242  29.704  29.524  1.00  0.00     0.014 A 
ATOM     38  C   UNL A   1      38.209  29.929  27.556  1.00  0.00     0.010 A 
ATOM     39  C   UNL A   1      37.570  29.408  29.830  1.00  0.00     0.010 A 
ATOM     40  C   UNL A   1      38.561  29.485  28.841  1.00  0.00    -0.014 A 
BRANCH  40  41
ATOM     41  C   UNL A   1      39.949  29.049  29.143  1.00  0.00     0.031 A 
ATOM     42  C   UNL A   1      40.813  29.867  30.069  1.00  0.00     0.074 A 
ATOM     43  C   UNL A   1      40.453  27.950  28.550  1.00  0.00     0.049 A 
ATOM     44  N   UNL A   1      42.045  29.651  30.454  1.00  0.00    -0.248 NA
ATOM     45  C   UNL A   1      40.229  31.105  30.610  1.00  0.00     0.031 C 
ATOM     46  C   UNL A   1      39.750  27.122  27.568  1.00  0.00     0.029 A 
ATOM     47  N   UNL A   1      41.682  27.352  28.669  1.00  0.00    -0.354 N 
ATOM     48  C   UNL A   1      42.392  30.739  31.246  1.00  0.00     0.074 A 
ATOM     49  C   UNL A   1      41.258  31.635  31.253  1.00  0.00     0.031 C 
ATOM     50  C   UNL A   1      40.556  26.119  27.183  1.00  0.00     0.029 A 
ATOM     51  C   UNL A   1      41.835  26.239  27.876  1.00  0.00     0.049 A 
ATOM     52  H   UNL A   1      42.388  27.687  29.268  1.00  0.00     0.167 HD
ATOM     53  C   UNL A   1      43.538  30.960  31.935  1.00  0.00     0.034 A 
ATOM     54  C   UNL A   1      42.882  25.405  27.732  1.00  0.00     0.034 A 
ATOM     55  C   UNL A   1      44.642  30.041  31.972  1.00  0.00     0.049 A 
ATOM     56  C   UNL A   1      44.110  25.622  28.575  1.00  0.00     0.074 A 
ATOM     57  C   UNL A   1      45.813  30.127  32.706  1.00  0.00     0.029 A 
ATOM     58  N   UNL A   1      44.713  28.863  31.244  1.00  0.00    -0.354 N 
ATOM     59  N   UNL A   1      44.358  26.574  29.444  1.00  0.00    -0.248 NA
ATOM     60  C   UNL A   1      45.183  24.624  28.458  1.00  0.00     0.031 C 
ATOM     61  C   UNL A   1      46.596  29.005  32.411  1.00  0.00     0.029 A 
ATOM     62  C   UNL A   1      45.904  28.210  31.512  1.00  0.00     0.049 A 
ATOM     63  H   UNL A   1      44.018  28.539  30.626  1.00  0.00     0.167 HD
ATOM     64  C   UNL A   1      45.591  26.265  30.008  1.00  0.00     0.074 A 
ATOM     65  C   UNL A   1      46.030  25.029  29.394  1.00  0.00     0.031 C 
ATOM     66  C   UNL A   1      46.300  26.950  30.939  1.00  0.00     0.034 A 
BRANCH  53  67
ATOM     67  C   UNL A   1      43.627  32.223  32.755  1.00  0.00     0.023 A 
ATOM     68  C   UNL A   1      43.335  32.179  34.134  1.00  0.00     0.012 A 
ATOM     69  C   UNL A   1      44.033  33.440  32.176  1.00  0.00     0.148 A 
ATOM     70  C   UNL A   1      43.404  33.333  34.914  1.00  0.00     0.002 A 
ATOM     71  C   UNL A   1      44.146  34.577  32.970  1.00  0.00     0.091 A 
ATOM     72  F   UNL A   1      44.285  33.472  30.859  1.00  0.00    -0.205 F 
ATOM     73  C   UNL A   1      43.819  34.528  34.335  1.00  0.00     0.022 A 
BRANCH  71  74
ATOM     74  S   UNL A   1      44.750  36.145  32.333  1.00  0.00     0.127 S 
ATOM     75  O   UNL A   1      45.928  35.724  31.579  1.00  0.00    -0.237 OA
ATOM     76  O   UNL A   1      43.628  36.597  31.510  1.00  0.00    -0.237 OA
ATOM     77  O   UNL A   1      45.015  36.974  33.502  1.00  0.00    -0.744 OA
ENDBRANCH  71  74
ENDBRANCH  53  67
BRANCH  54  78
ATOM     78  C   UNL A   1      42.775  24.230  26.823  1.00  0.00     0.023 A 
ATOM     79  C   UNL A   1      43.571  24.179  25.661  1.00  0.00     0.012 A 
ATOM     80  C   UNL A   1      41.924  23.149  27.119  1.00  0.00     0.148 A 
ATOM     81  C   UNL A   1      43.495  23.090  24.793  1.00  0.00     0.002 A 
ATOM     82  C   UNL A   1      41.893  22.041  26.280  1.00  0.00     0.091 A 
ATOM     83  F   UNL A   1      41.169  23.219  28.225  1.00  0.00    -0.205 F 
ATOM     84  C   UNL A   1      42.665  22.017  25.107  1.00  0.00     0.022 A 
BRANCH  82  85
ATOM     85  S   UNL A   1      40.955  20.560  26.671  1.00  0.00     0.127 S 
ATOM     86  O   UNL A   1      41.717  19.528  25.978  1.00  0.00    -0.237 OA
ATOM     87  O   UNL A   1      41.047  20.521  28.131  1.00  0.00    -0.237 OA
ATOM     88  O   UNL A   1      39.610  20.802  26.164  1.00  0.00    -0.744 OA
ENDBRANCH  82  85
ENDBRANCH  54  78
BRANCH  66  89
ATOM     89  C   UNL A   1      47.609  26.356  31.393  1.00  0.00     0.023 A 
ATOM     90  C   UNL A   1      48.780  26.576  30.642  1.00  0.00     0.012 A 
ATOM     91  C   UNL A   1      47.686  25.628  32.597  1.00  0.00     0.148 A 
ATOM     92  C   UNL A   1      50.000  26.046  31.062  1.00  0.00     0.002 A 
ATOM     93  C   UNL A   1      48.914  25.146  33.035  1.00  0.00     0.091 A 
ATOM     94  F   UNL A   1      46.558  25.409  33.288  1.00  0.00    -0.205 F 
ATOM     95  C   UNL A   1      50.070  25.343  32.262  1.00  0.00     0.022 A 
BRANCH  93  96
ATOM     96  S   UNL A   1      49.101  24.317  34.616  1.00  0.00     0.127 S 
ATOM     97  O   UNL A   1      48.303  23.109  34.417  1.00  0.00    -0.237 OA
ATOM     98  O   UNL A   1      50.545  24.090  34.685  1.00  0.00    -0.237 OA
ATOM     99  O   UNL A   1      48.594  25.251  35.613  1.00  0.00    -0.744 OA
ENDBRANCH  93  96
ENDBRANCH  66  89
ENDBRANCH  40  41
ENDBRANCH  32  35
ENDBRANCH  30  31
ENDBRANCH  29  30
ENDBRANCH  28  29
ENDBRANCH  27  28
ENDBRANCH   1  27
TORSDOF 21
ENDMDL
MODEL 2
REMARK VINA RESULT:      -9.1      5.614     11.215
REMARK SMILES O=C(CSc1ccnc(C(=O)NCCCCCCNC(=O)c2ccc(-c3c4nc(c(-c5cccc(S(=O)(=O)[O-])c5F)c5ccc([nH]5)c(-c5cccc(S(=O)(=O)[O-])c5F)c5nc(c(-c6cccc(S(=O)(=O)[O-])c6F)c6ccc3[nH]6)C=C5)C=C4)cc2)c1)NNc1ccccn1
REMARK SMILES IDX 14 1 13 2 12 3 10 4 11 5 9 7 5 8 6 9 85 10 7 11 8 12 4 13
REMARK SMILES IDX 3 14 2 15 1 16 86 17 87 19 88 21 89 22 93 23 90 24 92 25
REMARK SMILES IDX 91 26 15 27 16 28 17 29 18 30 19 31 20 32 21 34 22 35 23 36
REMARK SMILES IDX 84 37 24 38 83 39 25 40 26 41 27 42 77 43 28 44 82 45 76 46
REMARK SMILES IDX 78 47 29 48 81 49 75 50 74 51 30 53 62 54 42 55 61 56 43 57
REMARK SMILES IDX 46 58 60 59 79 60 44 61 45 62 59 64 80 65 47 66 31 67 32 68
REMARK SMILES IDX 40 69 33 70 35 71 41 72 34 73 36 74 37 75 38 76 39 77 63 78
REMARK SMILES IDX 64 79 72 80 65 81 67 82 73 83 66 84 68 85 69 86 70 87 71 88
REMARK SMILES IDX 48 89 49 90 57 91 50 92 52 93 58 94 51 95 53 96 54 97 55 98
REMARK SMILES IDX 56 99
REMARK H PARENT 12 6 86 18 87 20 19 33 78 52 46 63
REMARK Flexibility Score: inf
ROOT
ATOM      1  C   UNL A   1      42.694  34.864  29.856  1.00  0.00     0.021 C 
ENDROOT
BRANCH   1   2
ATOM      2  C   UNL A   1      41.447  35.107  29.015  1.00  0.00     0.116 C 
BRANCH   2   3
ATOM      3  N   UNL A   1      41.477  36.358  28.280  1.00  0.00    -0.351 N 
ATOM      4  C   UNL A   1      42.274  36.798  27.242  1.00  0.00     0.269 C 
ATOM      5  O   UNL A   1      42.087  37.949  26.842  1.00  0.00    -0.268 OA
ATOM      6  H   UNL A   1      40.805  37.013  28.576  1.00  0.00     0.163 HD
BRANCH   4   7
ATOM      7  C   UNL A   1      43.348  35.951  26.618  1.00  0.00     0.129 A 
ATOM      8  C   UNL A   1      45.631  35.363  26.199  1.00  0.00     0.012 A 
ATOM      9  C   UNL A   1      45.186  34.386  25.315  1.00  0.00     0.035 A 
ATOM     10  C   UNL A   1      44.692  36.092  26.926  1.00  0.00     0.049 A 
ATOM     11  C   UNL A   1      43.824  34.245  25.127  1.00  0.00     0.113 A 
ATOM     12  N   UNL A   1      42.903  35.020  25.732  1.00  0.00    -0.251 NA
BRANCH   8  13
ATOM     13  S   UNL A   1      47.355  35.750  26.458  1.00  0.00    -0.116 SA
BRANCH  13  14
ATOM     14  C   UNL A   1      47.608  37.111  25.240  1.00  0.00     0.176 C 
BRANCH  14  15
ATOM     15  C   UNL A   1      47.452  38.465  25.908  1.00  0.00     0.248 C 
ATOM     16  O   UNL A   1      48.139  38.817  26.864  1.00  0.00    -0.272 OA
ATOM     17  N   UNL A   1      46.467  39.243  25.331  1.00  0.00    -0.268 N 
ATOM     18  H   UNL A   1      46.064  38.978  24.473  1.00  0.00     0.191 HD
BRANCH  17  19
ATOM     19  N   UNL A   1      46.051  40.399  25.973  1.00  0.00    -0.282 N 
ATOM     20  H   UNL A   1      46.538  40.758  26.749  1.00  0.00     0.190 HD
BRANCH  19  21
ATOM     21  C   UNL A   1      44.912  41.034  25.473  1.00  0.00     0.144 A 
ATOM     22  C   UNL A   1      43.644  40.809  26.013  1.00  0.00     0.048 A 
ATOM     23  N   UNL A   1      45.098  41.859  24.424  1.00  0.00    -0.238 NA
ATOM     24  C   UNL A   1      42.532  41.404  25.424  1.00  0.00     0.005 A 
ATOM     25  C   UNL A   1      44.003  42.421  23.864  1.00  0.00     0.113 A 
ATOM     26  C   UNL A   1      42.711  42.219  24.317  1.00  0.00     0.020 A 
ENDBRANCH  19  21
ENDBRANCH  17  19
ENDBRANCH  14  15
ENDBRANCH  13  14
ENDBRANCH   8  13
ENDBRANCH   4   7
ENDBRANCH   2   3
ENDBRANCH   1   2
BRANCH   1  27
ATOM     27  C   UNL A   1      43.388  36.105  30.418  1.00  0.00     0.002 C 
BRANCH  27  28
ATOM     28  C   UNL A   1      43.842  36.031  31.878  1.00  0.00     0.002 C 
BRANCH  28  29
ATOM     29  C   UNL A   1      45.042  36.899  32.264  1.00  0.00     0.021 C 
BRANCH  29  30
ATOM     30  C   UNL A   1      46.059  36.250  33.198  1.00  0.00     0.116 C 
BRANCH  30  31
ATOM     31  N   UNL A   1      47.375  36.144  32.598  1.00  0.00    -0.352 N 
ATOM     32  C   UNL A   1      47.889  35.165  31.785  1.00  0.00     0.251 C 
ATOM     33  H   UNL A   1      47.992  36.882  32.806  1.00  0.00     0.163 HD
ATOM     34  O   UNL A   1      49.088  35.173  31.517  1.00  0.00    -0.269 OA
BRANCH  32  35
ATOM     35  C   UNL A   1      47.018  34.099  31.235  1.00  0.00     0.039 A 
ATOM     36  C   UNL A   1      46.774  32.966  32.017  1.00  0.00     0.014 A 
ATOM     37  C   UNL A   1      46.492  34.177  29.942  1.00  0.00     0.014 A 
ATOM     38  C   UNL A   1      45.992  31.923  31.511  1.00  0.00     0.010 A 
ATOM     39  C   UNL A   1      45.651  33.171  29.467  1.00  0.00     0.010 A 
ATOM     40  C   UNL A   1      45.420  32.019  30.232  1.00  0.00    -0.014 A 
BRANCH  40  41
ATOM     41  C   UNL A   1      44.625  30.898  29.666  1.00  0.00     0.031 A 
ATOM     42  C   UNL A   1      45.252  29.953  28.674  1.00  0.00     0.074 A 
ATOM     43  C   UNL A   1      43.329  30.758  30.002  1.00  0.00     0.049 A 
ATOM     44  N   UNL A   1      44.723  28.918  28.072  1.00  0.00    -0.248 NA
ATOM     45  C   UNL A   1      46.646  30.221  28.283  1.00  0.00     0.031 C 
ATOM     46  C   UNL A   1      42.581  31.656  30.883  1.00  0.00     0.029 A 
ATOM     47  N   UNL A   1      42.403  29.817  29.625  1.00  0.00    -0.354 N 
ATOM     48  C   UNL A   1      45.702  28.439  27.208  1.00  0.00     0.074 A 
ATOM     49  C   UNL A   1      46.841  29.320  27.332  1.00  0.00     0.031 C 
ATOM     50  C   UNL A   1      41.316  31.218  30.986  1.00  0.00     0.029 A 
ATOM     51  C   UNL A   1      41.157  30.018  30.169  1.00  0.00     0.049 A 
ATOM     52  H   UNL A   1      42.612  29.067  29.023  1.00  0.00     0.167 HD
ATOM     53  C   UNL A   1      45.671  27.346  26.409  1.00  0.00     0.034 A 
ATOM     54  C   UNL A   1      40.019  29.311  30.034  1.00  0.00     0.034 A 
ATOM     55  C   UNL A   1      44.557  26.440  26.330  1.00  0.00     0.049 A 
ATOM     56  C   UNL A   1      40.035  28.051  29.211  1.00  0.00     0.074 A 
ATOM     57  C   UNL A   1      44.456  25.257  25.619  1.00  0.00     0.029 A 
ATOM     58  N   UNL A   1      43.350  26.615  26.988  1.00  0.00    -0.354 N 
ATOM     59  N   UNL A   1      41.024  27.524  28.527  1.00  0.00    -0.248 NA
ATOM     60  C   UNL A   1      38.797  27.259  29.180  1.00  0.00     0.031 C 
ATOM     61  C   UNL A   1      43.181  24.723  25.838  1.00  0.00     0.029 A 
ATOM     62  C   UNL A   1      42.498  25.562  26.704  1.00  0.00     0.049 A 
ATOM     63  H   UNL A   1      43.130  27.378  27.571  1.00  0.00     0.167 HD
ATOM     64  C   UNL A   1      40.541  26.321  28.023  1.00  0.00     0.074 A 
ATOM     65  C   UNL A   1      39.179  26.189  28.497  1.00  0.00     0.031 C 
ATOM     66  C   UNL A   1      41.165  25.415  27.231  1.00  0.00     0.034 A 
BRANCH  53  67
ATOM     67  C   UNL A   1      46.906  27.038  25.599  1.00  0.00     0.023 A 
ATOM     68  C   UNL A   1      47.873  26.151  26.116  1.00  0.00     0.012 A 
ATOM     69  C   UNL A   1      47.094  27.592  24.319  1.00  0.00     0.148 A 
ATOM     70  C   UNL A   1      49.026  25.852  25.391  1.00  0.00     0.002 A 
ATOM     71  C   UNL A   1      48.224  27.253  23.582  1.00  0.00     0.091 A 
ATOM     72  F   UNL A   1      46.179  28.452  23.851  1.00  0.00    -0.205 F 
ATOM     73  C   UNL A   1      49.197  26.395  24.121  1.00  0.00     0.022 A 
BRANCH  71  74
ATOM     74  S   UNL A   1      48.495  27.837  21.904  1.00  0.00     0.127 S 
ATOM     75  O   UNL A   1      49.884  28.287  21.968  1.00  0.00    -0.237 OA
ATOM     76  O   UNL A   1      48.283  26.623  21.115  1.00  0.00    -0.237 OA
ATOM     77  O   UNL A   1      47.505  28.883  21.681  1.00  0.00    -0.744 OA
ENDBRANCH  71  74
ENDBRANCH  53  67
BRANCH  54  78
ATOM     78  C   UNL A   1      38.795  29.726  30.776  1.00  0.00     0.023 A 
ATOM     79  C   UNL A   1      38.523  29.155  32.036  1.00  0.00     0.012 A 
ATOM     80  C   UNL A   1      37.923  30.705  30.264  1.00  0.00     0.148 A 
ATOM     81  C   UNL A   1      37.387  29.527  32.756  1.00  0.00     0.002 A 
ATOM     82  C   UNL A   1      36.823  31.111  31.010  1.00  0.00     0.091 A 
ATOM     83  F   UNL A   1      38.194  31.230  29.060  1.00  0.00    -0.205 F 
ATOM     84  C   UNL A   1      36.544  30.511  32.248  1.00  0.00     0.022 A 
BRANCH  82  85
ATOM     85  S   UNL A   1      35.756  32.462  30.497  1.00  0.00     0.127 S 
ATOM     86  O   UNL A   1      34.621  32.309  31.401  1.00  0.00    -0.237 OA
ATOM     87  O   UNL A   1      36.599  33.629  30.757  1.00  0.00    -0.237 OA
ATOM     88  O   UNL A   1      35.477  32.229  29.085  1.00  0.00    -0.744 OA
ENDBRANCH  82  85
ENDBRANCH  54  78
BRANCH  66  89
ATOM     89  C   UNL A   1      40.400  24.170  26.861  1.00  0.00     0.023 A 
ATOM     90  C   UNL A   1      39.119  24.276  26.286  1.00  0.00     0.012 A 
ATOM     91  C   UNL A   1      40.979  22.897  27.029  1.00  0.00     0.148 A 
ATOM     92  C   UNL A   1      38.409  23.132  25.922  1.00  0.00     0.002 A 
ATOM     93  C   UNL A   1      40.287  21.764  26.619  1.00  0.00     0.091 A 
ATOM     94  F   UNL A   1      42.191  22.813  27.598  1.00  0.00    -0.205 F 
ATOM     95  C   UNL A   1      38.996  21.878  26.078  1.00  0.00     0.022 A 
BRANCH  93  96
ATOM     96  S   UNL A   1      41.015  20.125  26.694  1.00  0.00     0.127 S 
ATOM     97  O   UNL A   1      42.356  20.368  26.165  1.00  0.00    -0.237 OA
ATOM     98  O   UNL A   1      40.971  19.825  28.126  1.00  0.00    -0.237 OA
ATOM     99  O   UNL A   1      40.158  19.275  25.879  1.00  0.00    -0.744 OA
ENDBRANCH  93  96
ENDBRANCH  66  89
ENDBRANCH  40  41
ENDBRANCH  32  35
ENDBRANCH  30  31
ENDBRANCH  29  30
ENDBRANCH  28  29
ENDBRANCH  27  28
ENDBRANCH   1  27
TORSDOF 21
ENDMDL
MODEL 3
REMARK VINA RESULT:      -9.1      5.945     12.772
REMARK SMILES O=C(CSc1ccnc(C(=O)NCCCCCCNC(=O)c2ccc(-c3c4nc(c(-c5cccc(S(=O)(=O)[O-])c5F)c5ccc([nH]5)c(-c5cccc(S(=O)(=O)[O-])c5F)c5nc(c(-c6cccc(S(=O)(=O)[O-])c6F)c6ccc3[nH]6)C=C5)C=C4)cc2)c1)NNc1ccccn1
REMARK SMILES IDX 14 1 13 2 12 3 10 4 11 5 9 7 5 8 6 9 85 10 7 11 8 12 4 13
REMARK SMILES IDX 3 14 2 15 1 16 86 17 87 19 88 21 89 22 93 23 90 24 92 25
REMARK SMILES IDX 91 26 15 27 16 28 17 29 18 30 19 31 20 32 21 34 22 35 23 36
REMARK SMILES IDX 84 37 24 38 83 39 25 40 26 41 27 42 77 43 28 44 82 45 76 46
REMARK SMILES IDX 78 47 29 48 81 49 75 50 74 51 30 53 62 54 42 55 61 56 43 57
REMARK SMILES IDX 46 58 60 59 79 60 44 61 45 62 59 64 80 65 47 66 31 67 32 68
REMARK SMILES IDX 40 69 33 70 35 71 41 72 34 73 36 74 37 75 38 76 39 77 63 78
REMARK SMILES IDX 64 79 72 80 65 81 67 82 73 83 66 84 68 85 69 86 70 87 71 88
REMARK SMILES IDX 48 89 49 90 57 91 50 92 52 93 58 94 51 95 53 96 54 97 55 98
REMARK SMILES IDX 56 99
REMARK H PARENT 12 6 86 18 87 20 19 33 78 52 46 63
REMARK Flexibility Score: inf
ROOT
ATOM      1  C   UNL A   1      49.781  22.221  34.382  1.00  0.00     0.021 C 
ENDROOT
BRANCH   1   2
ATOM      2  C   UNL A   1      49.755  21.404  35.668  1.00  0.00     0.116 C 
BRANCH   2   3
ATOM      3  N   UNL A   1      49.372  22.174  36.837  1.00  0.00    -0.351 N 
ATOM      4  C   UNL A   1      48.364  22.003  37.764  1.00  0.00     0.269 C 
ATOM      5  O   UNL A   1      48.260  22.861  38.643  1.00  0.00    -0.268 OA
ATOM      6  H   UNL A   1      49.936  22.965  36.998  1.00  0.00     0.163 HD
BRANCH   4   7
ATOM      7  C   UNL A   1      47.401  20.849  37.724  1.00  0.00     0.129 A 
ATOM      8  C   UNL A   1      46.426  18.848  38.607  1.00  0.00     0.012 A 
ATOM      9  C   UNL A   1      45.667  18.741  37.447  1.00  0.00     0.035 A 
ATOM     10  C   UNL A   1      47.236  19.968  38.782  1.00  0.00     0.049 A 
ATOM     11  C   UNL A   1      45.822  19.708  36.473  1.00  0.00     0.113 A 
ATOM     12  N   UNL A   1      46.687  20.737  36.572  1.00  0.00    -0.251 NA
BRANCH   8  13
ATOM     13  S   UNL A   1      46.432  17.618  39.902  1.00  0.00    -0.116 SA
BRANCH  13  14
ATOM     14  C   UNL A   1      44.959  16.607  39.448  1.00  0.00     0.176 C 
BRANCH  14  15
ATOM     15  C   UNL A   1      43.818  16.853  40.417  1.00  0.00     0.248 C 
ATOM     16  O   UNL A   1      43.792  17.816  41.180  1.00  0.00    -0.272 OA
ATOM     17  N   UNL A   1      42.831  15.890  40.348  1.00  0.00    -0.268 N 
ATOM     18  H   UNL A   1      42.824  15.238  39.611  1.00  0.00     0.191 HD
BRANCH  17  19
ATOM     19  N   UNL A   1      41.849  15.850  41.326  1.00  0.00    -0.282 N 
ATOM     20  H   UNL A   1      41.321  16.649  41.555  1.00  0.00     0.190 HD
BRANCH  19  21
ATOM     21  C   UNL A   1      41.640  14.631  41.974  1.00  0.00     0.144 A 
ATOM     22  C   UNL A   1      41.822  13.409  41.323  1.00  0.00     0.048 A 
ATOM     23  N   UNL A   1      41.231  14.696  43.256  1.00  0.00    -0.238 NA
ATOM     24  C   UNL A   1      41.520  12.225  41.989  1.00  0.00     0.005 A 
ATOM     25  C   UNL A   1      40.938  13.534  43.881  1.00  0.00     0.113 A 
ATOM     26  C   UNL A   1      41.056  12.286  43.295  1.00  0.00     0.020 A 
ENDBRANCH  19  21
ENDBRANCH  17  19
ENDBRANCH  14  15
ENDBRANCH  13  14
ENDBRANCH   8  13
ENDBRANCH   4   7
ENDBRANCH   2   3
ENDBRANCH   1   2
BRANCH   1  27
ATOM     27  C   UNL A   1      48.874  23.452  34.340  1.00  0.00     0.002 C 
BRANCH  27  28
ATOM     28  C   UNL A   1      49.565  24.812  34.448  1.00  0.00     0.002 C 
BRANCH  28  29
ATOM     29  C   UNL A   1      49.192  25.854  33.390  1.00  0.00     0.021 C 
BRANCH  29  30
ATOM     30  C   UNL A   1      49.616  27.288  33.689  1.00  0.00     0.116 C 
BRANCH  30  31
ATOM     31  N   UNL A   1      49.423  27.646  35.082  1.00  0.00    -0.352 N 
ATOM     32  C   UNL A   1      48.329  28.200  35.698  1.00  0.00     0.251 C 
ATOM     33  H   UNL A   1      50.190  27.466  35.672  1.00  0.00     0.163 HD
ATOM     34  O   UNL A   1      48.425  28.586  36.861  1.00  0.00    -0.269 OA
BRANCH  32  35
ATOM     35  C   UNL A   1      47.042  28.344  34.977  1.00  0.00     0.039 A 
ATOM     36  C   UNL A   1      46.848  29.473  34.176  1.00  0.00     0.014 A 
ATOM     37  C   UNL A   1      46.010  27.414  35.129  1.00  0.00     0.014 A 
ATOM     38  C   UNL A   1      45.629  29.661  33.517  1.00  0.00     0.010 A 
ATOM     39  C   UNL A   1      44.823  27.564  34.413  1.00  0.00     0.010 A 
ATOM     40  C   UNL A   1      44.607  28.704  33.626  1.00  0.00    -0.014 A 
BRANCH  40  41
ATOM     41  C   UNL A   1      43.292  28.915  32.967  1.00  0.00     0.031 A 
ATOM     42  C   UNL A   1      42.219  29.717  33.658  1.00  0.00     0.074 A 
ATOM     43  C   UNL A   1      43.040  28.346  31.773  1.00  0.00     0.049 A 
ATOM     44  N   UNL A   1      41.013  30.011  33.246  1.00  0.00    -0.248 NA
ATOM     45  C   UNL A   1      42.532  30.233  35.002  1.00  0.00     0.031 C 
ATOM     46  C   UNL A   1      43.961  27.475  31.040  1.00  0.00     0.029 A 
ATOM     47  N   UNL A   1      41.925  28.397  30.974  1.00  0.00    -0.354 N 
ATOM     48  C   UNL A   1      40.414  30.708  34.289  1.00  0.00     0.074 A 
ATOM     49  C   UNL A   1      41.373  30.758  35.370  1.00  0.00     0.031 C 
ATOM     50  C   UNL A   1      43.377  27.082  29.896  1.00  0.00     0.029 A 
ATOM     51  C   UNL A   1      42.038  27.659  29.819  1.00  0.00     0.049 A 
ATOM     52  H   UNL A   1      41.121  28.915  31.205  1.00  0.00     0.167 HD
ATOM     53  C   UNL A   1      39.189  31.286  34.335  1.00  0.00     0.034 A 
ATOM     54  C   UNL A   1      41.166  27.477  28.809  1.00  0.00     0.034 A 
ATOM     55  C   UNL A   1      38.259  31.284  33.238  1.00  0.00     0.049 A 
ATOM     56  C   UNL A   1      39.847  28.201  28.843  1.00  0.00     0.074 A 
ATOM     57  C   UNL A   1      37.029  31.912  33.148  1.00  0.00     0.029 A 
ATOM     58  N   UNL A   1      38.457  30.621  32.037  1.00  0.00    -0.354 N 
ATOM     59  N   UNL A   1      39.363  28.991  29.772  1.00  0.00    -0.248 NA
ATOM     60  C   UNL A   1      38.976  28.053  27.668  1.00  0.00     0.031 C 
ATOM     61  C   UNL A   1      36.479  31.618  31.895  1.00  0.00     0.029 A 
ATOM     62  C   UNL A   1      37.377  30.827  31.198  1.00  0.00     0.049 A 
ATOM     63  H   UNL A   1      39.251  30.082  31.814  1.00  0.00     0.167 HD
ATOM     64  C   UNL A   1      38.154  29.467  29.276  1.00  0.00     0.074 A 
ATOM     65  C   UNL A   1      37.991  28.891  27.957  1.00  0.00     0.031 C 
ATOM     66  C   UNL A   1      37.256  30.296  29.864  1.00  0.00     0.034 A 
BRANCH  53  67
ATOM     67  C   UNL A   1      38.811  32.022  35.596  1.00  0.00     0.023 A 
ATOM     68  C   UNL A   1      39.086  33.401  35.706  1.00  0.00     0.012 A 
ATOM     69  C   UNL A   1      38.153  31.365  36.653  1.00  0.00     0.148 A 
ATOM     70  C   UNL A   1      38.751  34.104  36.862  1.00  0.00     0.002 A 
ATOM     71  C   UNL A   1      37.780  32.084  37.784  1.00  0.00     0.091 A 
ATOM     72  F   UNL A   1      37.919  30.049  36.544  1.00  0.00    -0.205 F 
ATOM     73  C   UNL A   1      38.090  33.449  37.896  1.00  0.00     0.022 A 
BRANCH  71  74
ATOM     74  S   UNL A   1      36.853  31.346  39.135  1.00  0.00     0.127 S 
ATOM     75  O   UNL A   1      36.645  29.986  38.643  1.00  0.00    -0.237 OA
ATOM     76  O   UNL A   1      37.793  31.454  40.251  1.00  0.00    -0.237 OA
ATOM     77  O   UNL A   1      35.648  32.154  39.280  1.00  0.00    -0.744 OA
ENDBRANCH  71  74
ENDBRANCH  53  67
BRANCH  54  78
ATOM     78  C   UNL A   1      41.556  26.648  27.633  1.00  0.00     0.023 A 
ATOM     79  C   UNL A   1      42.093  27.276  26.492  1.00  0.00     0.012 A 
ATOM     80  C   UNL A   1      41.436  25.246  27.653  1.00  0.00     0.148 A 
ATOM     81  C   UNL A   1      42.470  26.526  25.378  1.00  0.00     0.002 A 
ATOM     82  C   UNL A   1      41.864  24.499  26.561  1.00  0.00     0.091 A 
ATOM     83  F   UNL A   1      40.915  24.667  28.745  1.00  0.00    -0.205 F 
ATOM     84  C   UNL A   1      42.365  25.138  25.416  1.00  0.00     0.022 A 
BRANCH  82  85
ATOM     85  S   UNL A   1      41.890  22.703  26.572  1.00  0.00     0.127 S 
ATOM     86  O   UNL A   1      40.505  22.384  26.899  1.00  0.00    -0.237 OA
ATOM     87  O   UNL A   1      42.287  22.398  25.197  1.00  0.00    -0.237 OA
ATOM     88  O   UNL A   1      42.879  22.330  27.576  1.00  0.00    -0.744 OA
ENDBRANCH  82  85
ENDBRANCH  54  78
BRANCH  66  89
ATOM     89  C   UNL A   1      36.032  30.673  29.069  1.00  0.00     0.023 A 
ATOM     90  C   UNL A   1      35.289  29.677  28.405  1.00  0.00     0.012 A 
ATOM     91  C   UNL A   1      35.586  32.009  29.031  1.00  0.00     0.148 A 
ATOM     92  C   UNL A   1      34.145  30.012  27.682  1.00  0.00     0.002 A 
ATOM     93  C   UNL A   1      34.418  32.327  28.350  1.00  0.00     0.091 A 
ATOM     94  F   UNL A   1      36.318  32.947  29.650  1.00  0.00    -0.205 F 
ATOM     95  C   UNL A   1      33.703  31.333  27.663  1.00  0.00     0.022 A 
BRANCH  93  96
ATOM     96  S   UNL A   1      33.731  33.986  28.363  1.00  0.00     0.127 S 
ATOM     97  O   UNL A   1      33.642  34.262  29.795  1.00  0.00    -0.237 OA
ATOM     98  O   UNL A   1      34.755  34.757  27.657  1.00  0.00    -0.237 OA
ATOM     99  O   UNL A   1      32.460  33.893  27.657  1.00  0.00    -0.744 OA
ENDBRANCH  93  96
ENDBRANCH  66  89
ENDBRANCH  40  41
ENDBRANCH  32  35
ENDBRANCH  30  31
ENDBRANCH  29  30
ENDBRANCH  28  29
ENDBRANCH  27  28
ENDBRANCH   1  27
TORSDOF 21
ENDMDL
