MODEL 1
REMARK VINA RESULT:     -12.0      0.000      0.000
REMARK SMILES O=C(NCCCCCCNC(=O)C1(NC(=O)c2nc(C3CC3)n[nH]2)CCCCC1)c1ccc(-c2c3nc(c(-c4cccc(S(=O)(=O)[O-])c4F)c4ccc([nH]4)c(-c4cccc(S(=O)(=O)[O-])c4F)c4nc(c(-c5cccc(S(=O)(=O)[O-])c5F)c5ccc2[nH]5)C=C4)C=C3)cc1
REMARK SMILES IDX 6 1 5 2 4 3 3 4 1 5 2 6 30 8 31 9 92 10 32 11 91 12 33 13
REMARK SMILES IDX 34 14 35 15 85 16 36 17 90 18 84 19 86 20 37 21 89 22 83 23
REMARK SMILES IDX 82 24 38 26 70 27 50 28 69 29 51 30 54 31 68 32 87 33 52 34
REMARK SMILES IDX 53 35 67 37 88 38 55 39 39 40 40 41 48 42 41 43 43 44 49 45
REMARK SMILES IDX 42 46 44 47 45 48 46 49 47 50 71 51 72 52 80 53 73 54 75 55
REMARK SMILES IDX 81 56 74 57 76 58 77 59 78 60 79 61 56 62 57 63 65 64 58 65
REMARK SMILES IDX 60 66 66 67 59 68 61 69 62 70 63 71 64 72 7 73 8 74 9 75
REMARK SMILES IDX 10 76 11 77 12 79 13 80 25 81 29 82 26 83 28 84 27 85 14 86
REMARK SMILES IDX 15 87 16 89 17 90 18 91 24 92 19 93 23 94 20 96 21 97 22 98
REMARK H PARENT 3 7 86 25 54 36 10 78 14 88 24 95
REMARK Flexibility Score: inf
ROOT
ATOM      1  C   UNL A   1      37.385  20.338  24.625  1.00  0.00     0.002 C 
ENDROOT
BRANCH   1   2
ATOM      2  C   UNL A   1      38.343  19.246  25.106  1.00  0.00     0.021 C 
BRANCH   2   3
ATOM      3  C   UNL A   1      39.387  19.717  26.105  1.00  0.00     0.116 C 
BRANCH   3   4
ATOM      4  N   UNL A   1      40.626  18.969  26.005  1.00  0.00    -0.352 N 
ATOM      5  O   UNL A   1      42.856  18.710  25.808  1.00  0.00    -0.269 OA
ATOM      6  C   UNL A   1      41.910  19.447  26.071  1.00  0.00     0.251 C 
ATOM      7  H   UNL A   1      40.533  17.998  25.874  1.00  0.00     0.163 HD
BRANCH   6   8
ATOM      8  C   UNL A   1      42.131  20.862  26.436  1.00  0.00     0.039 A 
ATOM      9  C   UNL A   1      42.270  21.232  27.777  1.00  0.00     0.014 A 
ATOM     10  C   UNL A   1      42.205  21.822  25.425  1.00  0.00     0.014 A 
ATOM     11  C   UNL A   1      42.393  22.575  28.115  1.00  0.00     0.010 A 
ATOM     12  C   UNL A   1      42.405  23.161  25.761  1.00  0.00     0.010 A 
ATOM     13  C   UNL A   1      42.497  23.546  27.108  1.00  0.00    -0.014 A 
BRANCH  13  14
ATOM     14  C   UNL A   1      42.872  24.933  27.475  1.00  0.00     0.031 A 
ATOM     15  C   UNL A   1      41.881  25.884  28.077  1.00  0.00     0.074 A 
ATOM     16  C   UNL A   1      44.129  25.333  27.196  1.00  0.00     0.049 A 
ATOM     17  N   UNL A   1      42.054  27.134  28.419  1.00  0.00    -0.248 NA
ATOM     18  C   UNL A   1      40.519  25.379  28.322  1.00  0.00     0.031 C 
ATOM     19  C   UNL A   1      45.150  24.499  26.552  1.00  0.00     0.029 A 
ATOM     20  N   UNL A   1      44.757  26.534  27.389  1.00  0.00    -0.354 N 
ATOM     21  C   UNL A   1      40.821  27.582  28.873  1.00  0.00     0.074 A 
ATOM     22  C   UNL A   1      39.906  26.465  28.778  1.00  0.00     0.031 C 
ATOM     23  C   UNL A   1      46.273  25.213  26.402  1.00  0.00     0.029 A 
ATOM     24  C   UNL A   1      46.037  26.567  26.884  1.00  0.00     0.049 A 
ATOM     25  H   UNL A   1      44.335  27.299  27.843  1.00  0.00     0.167 HD
ATOM     26  C   UNL A   1      40.494  28.813  29.334  1.00  0.00     0.034 A 
ATOM     27  C   UNL A   1      46.912  27.584  26.781  1.00  0.00     0.034 A 
ATOM     28  C   UNL A   1      41.429  29.900  29.461  1.00  0.00     0.049 A 
ATOM     29  C   UNL A   1      46.519  28.928  27.317  1.00  0.00     0.074 A 
ATOM     30  C   UNL A   1      41.226  31.144  30.032  1.00  0.00     0.029 A 
ATOM     31  N   UNL A   1      42.733  29.884  28.989  1.00  0.00    -0.354 N 
ATOM     32  N   UNL A   1      45.407  29.279  27.917  1.00  0.00    -0.248 NA
ATOM     33  C   UNL A   1      47.500  30.011  27.181  1.00  0.00     0.031 C 
ATOM     34  C   UNL A   1      42.397  31.892  29.876  1.00  0.00     0.029 A 
ATOM     35  C   UNL A   1      43.335  31.108  29.224  1.00  0.00     0.049 A 
ATOM     36  H   UNL A   1      43.166  29.116  28.552  1.00  0.00     0.167 HD
ATOM     37  C   UNL A   1      45.557  30.622  28.237  1.00  0.00     0.074 A 
ATOM     38  C   UNL A   1      46.884  31.008  27.801  1.00  0.00     0.031 C 
ATOM     39  C   UNL A   1      44.668  31.465  28.814  1.00  0.00     0.034 A 
BRANCH  26  40
ATOM     40  C   UNL A   1      39.077  29.063  29.773  1.00  0.00     0.023 A 
ATOM     41  C   UNL A   1      38.683  28.718  31.081  1.00  0.00     0.012 A 
ATOM     42  C   UNL A   1      38.176  29.752  28.936  1.00  0.00     0.148 A 
ATOM     43  C   UNL A   1      37.409  29.049  31.547  1.00  0.00     0.002 A 
ATOM     44  C   UNL A   1      36.922  30.107  29.419  1.00  0.00     0.091 A 
ATOM     45  F   UNL A   1      38.568  30.054  27.690  1.00  0.00    -0.205 F 
ATOM     46  C   UNL A   1      36.535  29.753  30.722  1.00  0.00     0.022 A 
BRANCH  44  47
ATOM     47  S   UNL A   1      35.748  31.075  28.463  1.00  0.00     0.127 S 
ATOM     48  O   UNL A   1      36.586  32.185  28.009  1.00  0.00    -0.237 OA
ATOM     49  O   UNL A   1      35.359  30.135  27.411  1.00  0.00    -0.237 OA
ATOM     50  O   UNL A   1      34.681  31.440  29.383  1.00  0.00    -0.744 OA
ENDBRANCH  44  47
ENDBRANCH  26  40
BRANCH  27  51
ATOM     51  C   UNL A   1      48.242  27.355  26.152  1.00  0.00     0.023 A 
ATOM     52  C   UNL A   1      49.323  26.929  26.946  1.00  0.00     0.012 A 
ATOM     53  C   UNL A   1      48.427  27.511  24.765  1.00  0.00     0.148 A 
ATOM     54  C   UNL A   1      50.572  26.686  26.371  1.00  0.00     0.002 A 
ATOM     55  C   UNL A   1      49.656  27.208  24.191  1.00  0.00     0.091 A 
ATOM     56  F   UNL A   1      47.393  27.939  24.026  1.00  0.00    -0.205 F 
ATOM     57  C   UNL A   1      50.735  26.812  24.993  1.00  0.00     0.022 A 
BRANCH  55  58
ATOM     58  S   UNL A   1      49.884  27.200  22.409  1.00  0.00     0.127 S 
ATOM     59  O   UNL A   1      51.249  26.700  22.282  1.00  0.00    -0.237 OA
ATOM     60  O   UNL A   1      48.844  26.269  21.966  1.00  0.00    -0.237 OA
ATOM     61  O   UNL A   1      49.661  28.578  21.991  1.00  0.00    -0.744 OA
ENDBRANCH  55  58
ENDBRANCH  27  51
BRANCH  39  62
ATOM     62  C   UNL A   1      45.099  32.893  29.002  1.00  0.00     0.023 A 
ATOM     63  C   UNL A   1      45.767  33.260  30.187  1.00  0.00     0.012 A 
ATOM     64  C   UNL A   1      44.907  33.849  27.987  1.00  0.00     0.148 A 
ATOM     65  C   UNL A   1      46.213  34.568  30.371  1.00  0.00     0.002 A 
ATOM     66  C   UNL A   1      45.395  35.139  28.158  1.00  0.00     0.091 A 
ATOM     67  F   UNL A   1      44.253  33.480  26.877  1.00  0.00    -0.205 F 
ATOM     68  C   UNL A   1      46.038  35.502  29.354  1.00  0.00     0.022 A 
BRANCH  66  69
ATOM     69  S   UNL A   1      45.295  36.386  26.869  1.00  0.00     0.127 S 
ATOM     70  O   UNL A   1      45.946  35.708  25.749  1.00  0.00    -0.237 OA
ATOM     71  O   UNL A   1      43.851  36.563  26.720  1.00  0.00    -0.237 OA
ATOM     72  O   UNL A   1      45.997  37.553  27.385  1.00  0.00    -0.744 OA
ENDBRANCH  66  69
ENDBRANCH  39  62
ENDBRANCH  13  14
ENDBRANCH   6   8
ENDBRANCH   3   4
ENDBRANCH   2   3
ENDBRANCH   1   2
BRANCH   1  73
ATOM     73  C   UNL A   1      37.776  21.769  25.005  1.00  0.00     0.002 C 
BRANCH  73  74
ATOM     74  C   UNL A   1      36.793  22.860  24.564  1.00  0.00     0.021 C 
BRANCH  74  75
ATOM     75  C   UNL A   1      36.194  23.664  25.710  1.00  0.00     0.116 C 
BRANCH  75  76
ATOM     76  N   UNL A   1      35.399  22.825  26.584  1.00  0.00    -0.354 N 
ATOM     77  C   UNL A   1      34.048  22.712  26.730  1.00  0.00     0.245 C 
ATOM     78  H   UNL A   1      35.925  22.237  27.175  1.00  0.00     0.163 HD
ATOM     79  O   UNL A   1      33.657  22.011  27.670  1.00  0.00    -0.272 OA
BRANCH  77  80
ATOM     80  C   UNL A   1      33.064  23.612  25.916  1.00  0.00     0.119 C 
ATOM     81  C   UNL A   1      31.638  23.557  26.519  1.00  0.00     0.038 C 
ATOM     82  C   UNL A   1      33.636  25.052  26.125  1.00  0.00     0.038 C 
ATOM     83  C   UNL A   1      30.732  24.697  26.039  1.00  0.00     0.003 C 
ATOM     84  C   UNL A   1      32.722  26.179  25.661  1.00  0.00     0.003 C 
ATOM     85  C   UNL A   1      31.350  26.067  26.301  1.00  0.00     0.000 C 
BRANCH  80  86
ATOM     86  N   UNL A   1      32.995  23.324  24.462  1.00  0.00    -0.335 N 
ATOM     87  C   UNL A   1      32.784  22.150  23.772  1.00  0.00     0.289 C 
ATOM     88  H   UNL A   1      33.123  24.113  23.887  1.00  0.00     0.165 HD
ATOM     89  O   UNL A   1      32.556  22.255  22.564  1.00  0.00    -0.266 OA
BRANCH  87  90
ATOM     90  C   UNL A   1      33.026  20.865  24.377  1.00  0.00     0.214 A 
ATOM     91  N   UNL A   1      34.012  20.013  24.178  1.00  0.00    -0.207 NA
ATOM     92  N   UNL A   1      32.117  20.285  25.217  1.00  0.00    -0.255 N 
ATOM     93  C   UNL A   1      33.547  18.856  24.763  1.00  0.00     0.154 A 
ATOM     94  N   UNL A   1      32.369  18.978  25.383  1.00  0.00    -0.158 NA
ATOM     95  H   UNL A   1      31.372  20.766  25.647  1.00  0.00     0.192 HD
BRANCH  93  96
ATOM     96  C   UNL A   1      34.235  17.507  24.652  1.00  0.00     0.060 C 
ATOM     97  C   UNL A   1      33.401  16.246  24.698  1.00  0.00     0.012 C 
ATOM     98  C   UNL A   1      34.034  16.668  23.413  1.00  0.00     0.012 C 
ENDBRANCH  93  96
ENDBRANCH  87  90
ENDBRANCH  80  86
ENDBRANCH  77  80
ENDBRANCH  75  76
ENDBRANCH  74  75
ENDBRANCH  73  74
ENDBRANCH   1  73
TORSDOF 19
ENDMDL
MODEL 2
REMARK VINA RESULT:     -11.7      2.842      4.676
REMARK SMILES O=C(NCCCCCCNC(=O)C1(NC(=O)c2nc(C3CC3)n[nH]2)CCCCC1)c1ccc(-c2c3nc(c(-c4cccc(S(=O)(=O)[O-])c4F)c4ccc([nH]4)c(-c4cccc(S(=O)(=O)[O-])c4F)c4nc(c(-c5cccc(S(=O)(=O)[O-])c5F)c5ccc2[nH]5)C=C4)C=C3)cc1
REMARK SMILES IDX 6 1 5 2 4 3 3 4 1 5 2 6 30 8 31 9 92 10 32 11 91 12 33 13
REMARK SMILES IDX 34 14 35 15 85 16 36 17 90 18 84 19 86 20 37 21 89 22 83 23
REMARK SMILES IDX 82 24 38 26 70 27 50 28 69 29 51 30 54 31 68 32 87 33 52 34
REMARK SMILES IDX 53 35 67 37 88 38 55 39 39 40 40 41 48 42 41 43 43 44 49 45
REMARK SMILES IDX 42 46 44 47 45 48 46 49 47 50 71 51 72 52 80 53 73 54 75 55
REMARK SMILES IDX 81 56 74 57 76 58 77 59 78 60 79 61 56 62 57 63 65 64 58 65
REMARK SMILES IDX 60 66 66 67 59 68 61 69 62 70 63 71 64 72 7 73 8 74 9 75
REMARK SMILES IDX 10 76 11 77 12 79 13 80 25 81 29 82 26 83 28 84 27 85 14 86
REMARK SMILES IDX 15 87 16 89 17 90 18 91 24 92 19 93 23 94 20 96 21 97 22 98
REMARK H PARENT 3 7 86 25 54 36 10 78 14 88 24 95
REMARK Flexibility Score: inf
ROOT
ATOM      1  C   UNL A   1      36.603  23.134  23.469  1.00  0.00     0.002 C 
ENDROOT
BRANCH   1   2
ATOM      2  C   UNL A   1      36.957  21.802  24.133  1.00  0.00     0.021 C 
BRANCH   2   3
ATOM      3  C   UNL A   1      37.553  21.930  25.526  1.00  0.00     0.116 C 
BRANCH   3   4
ATOM      4  N   UNL A   1      38.527  20.893  25.809  1.00  0.00    -0.352 N 
ATOM      5  O   UNL A   1      40.554  20.078  26.362  1.00  0.00    -0.269 OA
ATOM      6  C   UNL A   1      39.787  21.037  26.331  1.00  0.00     0.251 C 
ATOM      7  H   UNL A   1      38.248  19.973  25.599  1.00  0.00     0.163 HD
BRANCH   6   8
ATOM      8  C   UNL A   1      40.211  22.362  26.829  1.00  0.00     0.039 A 
ATOM      9  C   UNL A   1      41.171  22.464  27.841  1.00  0.00     0.014 A 
ATOM     10  C   UNL A   1      39.646  23.510  26.271  1.00  0.00     0.014 A 
ATOM     11  C   UNL A   1      41.499  23.710  28.360  1.00  0.00     0.010 A 
ATOM     12  C   UNL A   1      40.034  24.766  26.741  1.00  0.00     0.010 A 
ATOM     13  C   UNL A   1      40.961  24.873  27.790  1.00  0.00    -0.014 A 
BRANCH  13  14
ATOM     14  C   UNL A   1      41.505  26.193  28.188  1.00  0.00     0.031 A 
ATOM     15  C   UNL A   1      40.648  27.231  28.849  1.00  0.00     0.074 A 
ATOM     16  C   UNL A   1      42.791  26.455  27.881  1.00  0.00     0.049 A 
ATOM     17  N   UNL A   1      40.975  28.441  29.225  1.00  0.00    -0.248 NA
ATOM     18  C   UNL A   1      39.245  26.879  29.123  1.00  0.00     0.031 C 
ATOM     19  C   UNL A   1      43.690  25.532  27.179  1.00  0.00     0.029 A 
ATOM     20  N   UNL A   1      43.560  27.569  28.091  1.00  0.00    -0.354 N 
ATOM     21  C   UNL A   1      39.816  29.012  29.732  1.00  0.00     0.074 A 
ATOM     22  C   UNL A   1      38.775  28.012  29.631  1.00  0.00     0.031 C 
ATOM     23  C   UNL A   1      44.884  26.116  27.015  1.00  0.00     0.029 A 
ATOM     24  C   UNL A   1      44.820  27.472  27.546  1.00  0.00     0.049 A 
ATOM     25  H   UNL A   1      43.243  28.362  28.581  1.00  0.00     0.167 HD
ATOM     26  C   UNL A   1      39.647  30.256  30.240  1.00  0.00     0.034 A 
ATOM     27  C   UNL A   1      45.804  28.384  27.447  1.00  0.00     0.034 A 
ATOM     28  C   UNL A   1      40.706  31.223  30.371  1.00  0.00     0.049 A 
ATOM     29  C   UNL A   1      45.585  29.745  28.036  1.00  0.00     0.074 A 
ATOM     30  C   UNL A   1      40.665  32.462  30.986  1.00  0.00     0.029 A 
ATOM     31  N   UNL A   1      41.985  31.073  29.857  1.00  0.00    -0.354 N 
ATOM     32  N   UNL A   1      44.540  30.201  28.682  1.00  0.00    -0.248 NA
ATOM     33  C   UNL A   1      46.682  30.711  27.902  1.00  0.00     0.031 C 
ATOM     34  C   UNL A   1      41.911  33.075  30.816  1.00  0.00     0.029 A 
ATOM     35  C   UNL A   1      42.732  32.211  30.110  1.00  0.00     0.049 A 
ATOM     36  H   UNL A   1      42.314  30.275  29.383  1.00  0.00     0.167 HD
ATOM     37  C   UNL A   1      44.854  31.505  29.038  1.00  0.00     0.074 A 
ATOM     38  C   UNL A   1      46.204  31.751  28.572  1.00  0.00     0.031 C 
ATOM     39  C   UNL A   1      44.086  32.425  29.669  1.00  0.00     0.034 A 
BRANCH  26  40
ATOM     40  C   UNL A   1      38.282  30.652  30.732  1.00  0.00     0.023 A 
ATOM     41  C   UNL A   1      37.913  30.371  32.062  1.00  0.00     0.012 A 
ATOM     42  C   UNL A   1      37.418  31.413  29.918  1.00  0.00     0.148 A 
ATOM     43  C   UNL A   1      36.699  30.834  32.573  1.00  0.00     0.002 A 
ATOM     44  C   UNL A   1      36.226  31.898  30.445  1.00  0.00     0.091 A 
ATOM     45  F   UNL A   1      37.783  31.654  28.651  1.00  0.00    -0.205 F 
ATOM     46  C   UNL A   1      35.864  31.607  31.770  1.00  0.00     0.022 A 
BRANCH  44  47
ATOM     47  S   UNL A   1      35.113  32.962  29.517  1.00  0.00     0.127 S 
ATOM     48  O   UNL A   1      34.169  33.373  30.556  1.00  0.00    -0.237 OA
ATOM     49  O   UNL A   1      36.013  34.020  29.057  1.00  0.00    -0.237 OA
ATOM     50  O   UNL A   1      34.552  32.134  28.460  1.00  0.00    -0.744 OA
ENDBRANCH  44  47
ENDBRANCH  26  40
BRANCH  27  51
ATOM     51  C   UNL A   1      47.080  28.024  26.769  1.00  0.00     0.023 A 
ATOM     52  C   UNL A   1      48.178  27.590  27.535  1.00  0.00     0.012 A 
ATOM     53  C   UNL A   1      47.195  28.066  25.366  1.00  0.00     0.148 A 
ATOM     54  C   UNL A   1      49.375  27.226  26.916  1.00  0.00     0.002 A 
ATOM     55  C   UNL A   1      48.370  27.644  24.753  1.00  0.00     0.091 A 
ATOM     56  F   UNL A   1      46.148  28.503  24.651  1.00  0.00    -0.205 F 
ATOM     57  C   UNL A   1      49.466  27.240  25.527  1.00  0.00     0.022 A 
BRANCH  55  58
ATOM     58  S   UNL A   1      48.494  27.489  22.968  1.00  0.00     0.127 S 
ATOM     59  O   UNL A   1      49.800  28.086  22.705  1.00  0.00    -0.237 OA
ATOM     60  O   UNL A   1      48.430  26.039  22.775  1.00  0.00    -0.237 OA
ATOM     61  O   UNL A   1      47.340  28.208  22.443  1.00  0.00    -0.744 OA
ENDBRANCH  55  58
ENDBRANCH  27  51
BRANCH  39  62
ATOM     62  C   UNL A   1      44.685  33.787  29.887  1.00  0.00     0.023 A 
ATOM     63  C   UNL A   1      45.465  34.020  31.037  1.00  0.00     0.012 A 
ATOM     64  C   UNL A   1      44.536  34.807  28.930  1.00  0.00     0.148 A 
ATOM     65  C   UNL A   1      46.066  35.260  31.246  1.00  0.00     0.002 A 
ATOM     66  C   UNL A   1      45.175  36.027  29.121  1.00  0.00     0.091 A 
ATOM     67  F   UNL A   1      43.774  34.568  27.853  1.00  0.00    -0.205 F 
ATOM     68  C   UNL A   1      45.930  36.258  30.283  1.00  0.00     0.022 A 
BRANCH  66  69
ATOM     69  S   UNL A   1      45.132  37.340  27.897  1.00  0.00     0.127 S 
ATOM     70  O   UNL A   1      45.716  36.678  26.731  1.00  0.00    -0.237 OA
ATOM     71  O   UNL A   1      43.700  37.617  27.788  1.00  0.00    -0.237 OA
ATOM     72  O   UNL A   1      45.919  38.433  28.452  1.00  0.00    -0.744 OA
ENDBRANCH  66  69
ENDBRANCH  39  62
ENDBRANCH  13  14
ENDBRANCH   6   8
ENDBRANCH   3   4
ENDBRANCH   2   3
ENDBRANCH   1   2
BRANCH   1  73
ATOM     73  C   UNL A   1      35.307  23.788  23.956  1.00  0.00     0.002 C 
BRANCH  73  74
ATOM     74  C   UNL A   1      34.171  23.843  22.928  1.00  0.00     0.021 C 
BRANCH  74  75
ATOM     75  C   UNL A   1      33.112  24.898  23.222  1.00  0.00     0.116 C 
BRANCH  75  76
ATOM     76  N   UNL A   1      33.495  26.191  22.693  1.00  0.00    -0.354 N 
ATOM     77  C   UNL A   1      33.331  27.448  23.199  1.00  0.00     0.245 C 
ATOM     78  H   UNL A   1      33.949  26.158  21.820  1.00  0.00     0.163 HD
ATOM     79  O   UNL A   1      33.632  28.382  22.446  1.00  0.00    -0.272 OA
BRANCH  77  80
ATOM     80  C   UNL A   1      32.579  27.691  24.546  1.00  0.00     0.119 C 
ATOM     81  C   UNL A   1      33.449  27.255  25.751  1.00  0.00     0.038 C 
ATOM     82  C   UNL A   1      32.414  29.245  24.590  1.00  0.00     0.038 C 
ATOM     83  C   UNL A   1      32.963  27.823  27.089  1.00  0.00     0.003 C 
ATOM     84  C   UNL A   1      31.946  29.802  25.928  1.00  0.00     0.003 C 
ATOM     85  C   UNL A   1      32.852  29.344  27.057  1.00  0.00     0.000 C 
BRANCH  80  86
ATOM     86  N   UNL A   1      31.241  27.057  24.650  1.00  0.00    -0.335 N 
ATOM     87  C   UNL A   1      30.077  27.258  23.942  1.00  0.00     0.289 C 
ATOM     88  H   UNL A   1      31.174  26.370  25.352  1.00  0.00     0.165 HD
ATOM     89  O   UNL A   1      29.184  26.423  24.104  1.00  0.00    -0.266 OA
BRANCH  87  90
ATOM     90  C   UNL A   1      29.834  28.482  23.221  1.00  0.00     0.214 A 
ATOM     91  N   UNL A   1      29.001  29.468  23.493  1.00  0.00    -0.207 NA
ATOM     92  N   UNL A   1      30.409  28.725  22.005  1.00  0.00    -0.255 N 
ATOM     93  C   UNL A   1      28.965  30.177  22.313  1.00  0.00     0.154 A 
ATOM     94  N   UNL A   1      29.793  29.729  21.365  1.00  0.00    -0.158 NA
ATOM     95  H   UNL A   1      31.179  28.226  21.646  1.00  0.00     0.192 HD
BRANCH  93  96
ATOM     96  C   UNL A   1      28.004  31.321  22.034  1.00  0.00     0.060 C 
ATOM     97  C   UNL A   1      28.519  32.743  22.067  1.00  0.00     0.012 C 
ATOM     98  C   UNL A   1      28.148  32.120  20.761  1.00  0.00     0.012 C 
ENDBRANCH  93  96
ENDBRANCH  87  90
ENDBRANCH  80  86
ENDBRANCH  77  80
ENDBRANCH  75  76
ENDBRANCH  74  75
ENDBRANCH  73  74
ENDBRANCH   1  73
TORSDOF 19
ENDMDL
MODEL 3
REMARK VINA RESULT:     -11.7      4.417      7.826
REMARK SMILES O=C(NCCCCCCNC(=O)C1(NC(=O)c2nc(C3CC3)n[nH]2)CCCCC1)c1ccc(-c2c3nc(c(-c4cccc(S(=O)(=O)[O-])c4F)c4ccc([nH]4)c(-c4cccc(S(=O)(=O)[O-])c4F)c4nc(c(-c5cccc(S(=O)(=O)[O-])c5F)c5ccc2[nH]5)C=C4)C=C3)cc1
REMARK SMILES IDX 6 1 5 2 4 3 3 4 1 5 2 6 30 8 31 9 92 10 32 11 91 12 33 13
REMARK SMILES IDX 34 14 35 15 85 16 36 17 90 18 84 19 86 20 37 21 89 22 83 23
REMARK SMILES IDX 82 24 38 26 70 27 50 28 69 29 51 30 54 31 68 32 87 33 52 34
REMARK SMILES IDX 53 35 67 37 88 38 55 39 39 40 40 41 48 42 41 43 43 44 49 45
REMARK SMILES IDX 42 46 44 47 45 48 46 49 47 50 71 51 72 52 80 53 73 54 75 55
REMARK SMILES IDX 81 56 74 57 76 58 77 59 78 60 79 61 56 62 57 63 65 64 58 65
REMARK SMILES IDX 60 66 66 67 59 68 61 69 62 70 63 71 64 72 7 73 8 74 9 75
REMARK SMILES IDX 10 76 11 77 12 79 13 80 25 81 29 82 26 83 28 84 27 85 14 86
REMARK SMILES IDX 15 87 16 89 17 90 18 91 24 92 19 93 23 94 20 96 21 97 22 98
REMARK H PARENT 3 7 86 25 54 36 10 78 14 88 24 95
REMARK Flexibility Score: inf
ROOT
ATOM      1  C   UNL A   1      32.275  27.035  26.500  1.00  0.00     0.002 C 
ENDROOT
BRANCH   1   2
ATOM      2  C   UNL A   1      32.755  28.271  25.738  1.00  0.00     0.021 C 
BRANCH   2   3
ATOM      3  C   UNL A   1      34.045  28.877  26.266  1.00  0.00     0.116 C 
BRANCH   3   4
ATOM      4  N   UNL A   1      33.863  30.233  26.748  1.00  0.00    -0.352 N 
ATOM      5  O   UNL A   1      34.250  32.003  28.088  1.00  0.00    -0.269 OA
ATOM      6  C   UNL A   1      34.626  30.915  27.662  1.00  0.00     0.251 C 
ATOM      7  H   UNL A   1      33.097  30.724  26.373  1.00  0.00     0.163 HD
BRANCH   6   8
ATOM      8  C   UNL A   1      35.887  30.309  28.138  1.00  0.00     0.039 A 
ATOM      9  C   UNL A   1      37.039  30.358  27.346  1.00  0.00     0.014 A 
ATOM     10  C   UNL A   1      35.915  29.693  29.390  1.00  0.00     0.014 A 
ATOM     11  C   UNL A   1      38.195  29.712  27.765  1.00  0.00     0.010 A 
ATOM     12  C   UNL A   1      37.099  29.111  29.844  1.00  0.00     0.010 A 
ATOM     13  C   UNL A   1      38.246  29.114  29.033  1.00  0.00    -0.014 A 
BRANCH  13  14
ATOM     14  C   UNL A   1      39.549  28.648  29.563  1.00  0.00     0.031 A 
ATOM     15  C   UNL A   1      40.253  29.373  30.672  1.00  0.00     0.074 A 
ATOM     16  C   UNL A   1      40.115  27.576  28.973  1.00  0.00     0.049 A 
ATOM     17  N   UNL A   1      41.410  29.103  31.217  1.00  0.00    -0.248 NA
ATOM     18  C   UNL A   1      39.583  30.554  31.243  1.00  0.00     0.031 C 
ATOM     19  C   UNL A   1      39.539  26.840  27.843  1.00  0.00     0.029 A 
ATOM     20  N   UNL A   1      41.300  26.934  29.216  1.00  0.00    -0.354 N 
ATOM     21  C   UNL A   1      41.634  30.101  32.157  1.00  0.00     0.074 A 
ATOM     22  C   UNL A   1      40.483  30.978  32.122  1.00  0.00     0.031 C 
ATOM     23  C   UNL A   1      40.369  25.851  27.489  1.00  0.00     0.029 A 
ATOM     24  C   UNL A   1      41.560  25.916  28.326  1.00  0.00     0.049 A 
ATOM     25  H   UNL A   1      41.907  27.176  29.952  1.00  0.00     0.167 HD
ATOM     26  C   UNL A   1      42.701  30.257  32.976  1.00  0.00     0.034 A 
ATOM     27  C   UNL A   1      42.652  25.145  28.172  1.00  0.00     0.034 A 
ATOM     28  C   UNL A   1      43.817  29.349  33.027  1.00  0.00     0.049 A 
ATOM     29  C   UNL A   1      43.806  25.338  29.109  1.00  0.00     0.074 A 
ATOM     30  C   UNL A   1      44.884  29.351  33.907  1.00  0.00     0.029 A 
ATOM     31  N   UNL A   1      44.024  28.297  32.148  1.00  0.00    -0.354 N 
ATOM     32  N   UNL A   1      43.915  26.168  30.117  1.00  0.00    -0.248 NA
ATOM     33  C   UNL A   1      44.979  24.480  28.903  1.00  0.00     0.031 C 
ATOM     34  C   UNL A   1      45.754  28.318  33.540  1.00  0.00     0.029 A 
ATOM     35  C   UNL A   1      45.220  27.663  32.443  1.00  0.00     0.049 A 
ATOM     36  H   UNL A   1      43.411  28.038  31.422  1.00  0.00     0.167 HD
ATOM     37  C   UNL A   1      45.165  25.929  30.671  1.00  0.00     0.074 A 
ATOM     38  C   UNL A   1      45.758  24.847  29.912  1.00  0.00     0.031 C 
ATOM     39  C   UNL A   1      45.778  26.565  31.698  1.00  0.00     0.034 A 
BRANCH  26  40
ATOM     40  C   UNL A   1      42.717  31.429  33.919  1.00  0.00     0.023 A 
ATOM     41  C   UNL A   1      43.211  32.672  33.475  1.00  0.00     0.012 A 
ATOM     42  C   UNL A   1      42.129  31.333  35.196  1.00  0.00     0.148 A 
ATOM     43  C   UNL A   1      43.127  33.801  34.292  1.00  0.00     0.002 A 
ATOM     44  C   UNL A   1      42.019  32.469  35.990  1.00  0.00     0.091 A 
ATOM     45  F   UNL A   1      41.681  30.137  35.603  1.00  0.00    -0.205 F 
ATOM     46  C   UNL A   1      42.521  33.702  35.542  1.00  0.00     0.022 A 
BRANCH  44  47
ATOM     47  S   UNL A   1      41.192  32.464  37.586  1.00  0.00     0.127 S 
ATOM     48  O   UNL A   1      41.182  33.890  37.914  1.00  0.00    -0.237 OA
ATOM     49  O   UNL A   1      39.882  31.906  37.251  1.00  0.00    -0.237 OA
ATOM     50  O   UNL A   1      42.006  31.632  38.460  1.00  0.00    -0.744 OA
ENDBRANCH  44  47
ENDBRANCH  26  40
BRANCH  27  51
ATOM     51  C   UNL A   1      42.687  24.121  27.091  1.00  0.00     0.023 A 
ATOM     52  C   UNL A   1      43.397  24.387  25.905  1.00  0.00     0.012 A 
ATOM     53  C   UNL A   1      42.062  22.870  27.253  1.00  0.00     0.148 A 
ATOM     54  C   UNL A   1      43.461  23.431  24.889  1.00  0.00     0.002 A 
ATOM     55  C   UNL A   1      42.182  21.901  26.263  1.00  0.00     0.091 A 
ATOM     56  F   UNL A   1      41.371  22.641  28.379  1.00  0.00    -0.205 F 
ATOM     57  C   UNL A   1      42.867  22.185  25.073  1.00  0.00     0.022 A 
BRANCH  55  58
ATOM     58  S   UNL A   1      41.574  20.229  26.507  1.00  0.00     0.127 S 
ATOM     59  O   UNL A   1      40.138  20.398  26.304  1.00  0.00    -0.237 OA
ATOM     60  O   UNL A   1      42.262  19.489  25.447  1.00  0.00    -0.237 OA
ATOM     61  O   UNL A   1      41.996  19.865  27.854  1.00  0.00    -0.744 OA
ENDBRANCH  55  58
ENDBRANCH  27  51
BRANCH  39  62
ATOM     62  C   UNL A   1      47.166  26.112  32.056  1.00  0.00     0.023 A 
ATOM     63  C   UNL A   1      47.341  25.209  33.123  1.00  0.00     0.012 A 
ATOM     64  C   UNL A   1      48.281  26.520  31.300  1.00  0.00     0.148 A 
ATOM     65  C   UNL A   1      48.612  24.741  33.453  1.00  0.00     0.002 A 
ATOM     66  C   UNL A   1      49.539  26.013  31.605  1.00  0.00     0.091 A 
ATOM     67  F   UNL A   1      48.091  27.393  30.301  1.00  0.00    -0.205 F 
ATOM     68  C   UNL A   1      49.707  25.133  32.687  1.00  0.00     0.022 A 
BRANCH  66  69
ATOM     69  S   UNL A   1      50.993  26.390  30.621  1.00  0.00     0.127 S 
ATOM     70  O   UNL A   1      52.073  26.000  31.527  1.00  0.00    -0.237 OA
ATOM     71  O   UNL A   1      50.821  25.514  29.463  1.00  0.00    -0.237 OA
ATOM     72  O   UNL A   1      50.917  27.814  30.320  1.00  0.00    -0.744 OA
ENDBRANCH  66  69
ENDBRANCH  39  62
ENDBRANCH  13  14
ENDBRANCH   6   8
ENDBRANCH   3   4
ENDBRANCH   2   3
ENDBRANCH   1   2
BRANCH   1  73
ATOM     73  C   UNL A   1      31.575  25.969  25.652  1.00  0.00     0.002 C 
BRANCH  73  74
ATOM     74  C   UNL A   1      30.869  24.860  26.440  1.00  0.00     0.021 C 
BRANCH  74  75
ATOM     75  C   UNL A   1      31.144  23.453  25.924  1.00  0.00     0.116 C 
BRANCH  75  76
ATOM     76  N   UNL A   1      31.871  22.666  26.899  1.00  0.00    -0.354 N 
ATOM     77  C   UNL A   1      33.155  22.206  26.899  1.00  0.00     0.245 C 
ATOM     78  H   UNL A   1      31.348  22.420  27.697  1.00  0.00     0.163 HD
ATOM     79  O   UNL A   1      33.455  21.426  27.811  1.00  0.00    -0.272 OA
BRANCH  77  80
ATOM     80  C   UNL A   1      34.108  22.452  25.686  1.00  0.00     0.119 C 
ATOM     81  C   UNL A   1      34.697  23.884  25.728  1.00  0.00     0.038 C 
ATOM     82  C   UNL A   1      35.267  21.430  25.926  1.00  0.00     0.038 C 
ATOM     83  C   UNL A   1      35.923  24.063  24.826  1.00  0.00     0.003 C 
ATOM     84  C   UNL A   1      36.487  21.626  25.036  1.00  0.00     0.003 C 
ATOM     85  C   UNL A   1      37.016  23.046  25.139  1.00  0.00     0.000 C 
BRANCH  80  86
ATOM     86  N   UNL A   1      33.511  22.205  24.349  1.00  0.00    -0.335 N 
ATOM     87  C   UNL A   1      32.860  21.108  23.828  1.00  0.00     0.289 C 
ATOM     88  H   UNL A   1      33.597  22.960  23.724  1.00  0.00     0.165 HD
ATOM     89  O   UNL A   1      32.274  21.276  22.755  1.00  0.00    -0.266 OA
BRANCH  87  90
ATOM     90  C   UNL A   1      33.030  19.792  24.389  1.00  0.00     0.214 A 
ATOM     91  N   UNL A   1      33.772  18.787  23.968  1.00  0.00    -0.207 NA
ATOM     92  N   UNL A   1      32.284  19.364  25.452  1.00  0.00    -0.255 N 
ATOM     93  C   UNL A   1      33.285  17.719  24.688  1.00  0.00     0.154 A 
ATOM     94  N   UNL A   1      32.346  18.031  25.586  1.00  0.00    -0.158 NA
ATOM     95  H   UNL A   1      31.767  19.959  26.043  1.00  0.00     0.192 HD
BRANCH  93  96
ATOM     96  C   UNL A   1      33.683  16.273  24.444  1.00  0.00     0.060 C 
ATOM     97  C   UNL A   1      34.813  15.671  25.250  1.00  0.00     0.012 C 
ATOM     98  C   UNL A   1      33.408  15.236  25.507  1.00  0.00     0.012 C 
ENDBRANCH  93  96
ENDBRANCH  87  90
ENDBRANCH  80  86
ENDBRANCH  77  80
ENDBRANCH  75  76
ENDBRANCH  74  75
ENDBRANCH  73  74
ENDBRANCH   1  73
TORSDOF 19
ENDMDL
