MODEL 1
REMARK VINA RESULT:     -12.2      0.000      0.000
REMARK SMILES O=C(NCCCCCCNC(=O)[C@@H](CO)NC(=O)[C@H]1CCCc2ccccc21)c1ccc(-c2c3nc(c(-c4cccc(S(=O)(=O)[O-])c4F)c4ccc([nH]4)c(-c4cccc(S(=O)(=O)[O-])c4F)c4nc(c(-c5cccc(S(=O)(=O)[O-])c5F)c5ccc2[nH]5)C=C4)C=C3)cc1
REMARK SMILES IDX 6 1 5 2 4 3 3 4 1 5 2 6 29 8 30 9 91 10 31 11 90 12 32 13
REMARK SMILES IDX 33 14 34 15 84 16 35 17 89 18 83 19 85 20 36 21 88 22 82 23
REMARK SMILES IDX 81 24 37 26 69 27 49 28 68 29 50 30 53 31 67 32 86 33 51 34
REMARK SMILES IDX 52 35 66 37 87 38 54 39 38 40 39 41 47 42 40 43 42 44 48 45
REMARK SMILES IDX 41 46 43 47 44 48 45 49 46 50 70 51 71 52 79 53 72 54 74 55
REMARK SMILES IDX 80 56 73 57 75 58 76 59 77 60 78 61 55 62 56 63 64 64 57 65
REMARK SMILES IDX 59 66 65 67 58 68 60 69 61 70 62 71 63 72 7 73 8 74 9 75
REMARK SMILES IDX 10 76 11 77 12 79 13 80 14 81 15 82 16 84 17 85 18 87 19 88
REMARK SMILES IDX 20 89 28 90 21 91 23 92 27 93 22 94 24 95 26 96 25 97
REMARK H PARENT 3 7 85 25 53 36 10 78 15 83 16 86
REMARK Flexibility Score: inf
ROOT
ATOM      1  C   UNL A   1      32.158  27.895  27.066  1.00  0.00     0.002 C 
ENDROOT
BRANCH   1   2
ATOM      2  C   UNL A   1      31.636  29.315  26.847  1.00  0.00     0.021 C 
BRANCH   2   3
ATOM      3  C   UNL A   1      32.605  30.260  26.146  1.00  0.00     0.116 C 
BRANCH   3   4
ATOM      4  N   UNL A   1      32.395  31.653  26.507  1.00  0.00    -0.352 N 
ATOM      5  O   UNL A   1      32.742  33.568  27.647  1.00  0.00    -0.269 OA
ATOM      6  C   UNL A   1      33.144  32.449  27.342  1.00  0.00     0.251 C 
ATOM      7  H   UNL A   1      31.610  32.086  26.097  1.00  0.00     0.163 HD
BRANCH   6   8
ATOM      8  C   UNL A   1      34.413  31.929  27.898  1.00  0.00     0.039 A 
ATOM      9  C   UNL A   1      34.505  30.608  28.341  1.00  0.00     0.014 A 
ATOM     10  C   UNL A   1      35.513  32.784  28.004  1.00  0.00     0.014 A 
ATOM     11  C   UNL A   1      35.639  30.190  29.030  1.00  0.00     0.010 A 
ATOM     12  C   UNL A   1      36.683  32.335  28.624  1.00  0.00     0.010 A 
ATOM     13  C   UNL A   1      36.741  31.049  29.183  1.00  0.00    -0.014 A 
BRANCH  13  14
ATOM     14  C   UNL A   1      37.951  30.559  29.894  1.00  0.00     0.031 A 
ATOM     15  C   UNL A   1      38.228  30.940  31.325  1.00  0.00     0.074 A 
ATOM     16  C   UNL A   1      38.800  29.741  29.241  1.00  0.00     0.049 A 
ATOM     17  N   UNL A   1      39.199  30.543  32.106  1.00  0.00    -0.248 NA
ATOM     18  C   UNL A   1      37.307  31.897  31.959  1.00  0.00     0.031 C 
ATOM     19  C   UNL A   1      38.667  29.342  27.838  1.00  0.00     0.029 A 
ATOM     20  N   UNL A   1      39.930  29.092  29.665  1.00  0.00    -0.354 N 
ATOM     21  C   UNL A   1      39.036  31.230  33.303  1.00  0.00     0.074 A 
ATOM     22  C   UNL A   1      37.874  32.076  33.146  1.00  0.00     0.031 C 
ATOM     23  C   UNL A   1      39.651  28.486  27.529  1.00  0.00     0.029 A 
ATOM     24  C   UNL A   1      40.508  28.306  28.694  1.00  0.00     0.049 A 
ATOM     25  H   UNL A   1      40.294  29.180  30.575  1.00  0.00     0.167 HD
ATOM     26  C   UNL A   1      39.777  31.151  34.436  1.00  0.00     0.034 A 
ATOM     27  C   UNL A   1      41.603  27.524  28.738  1.00  0.00     0.034 A 
ATOM     28  C   UNL A   1      40.899  30.266  34.608  1.00  0.00     0.049 A 
ATOM     29  C   UNL A   1      42.366  27.408  30.026  1.00  0.00     0.074 A 
ATOM     30  C   UNL A   1      41.664  30.058  35.744  1.00  0.00     0.029 A 
ATOM     31  N   UNL A   1      41.419  29.443  33.622  1.00  0.00    -0.354 N 
ATOM     32  N   UNL A   1      42.109  27.958  31.187  1.00  0.00    -0.248 NA
ATOM     33  C   UNL A   1      43.552  26.539  30.019  1.00  0.00     0.031 C 
ATOM     34  C   UNL A   1      42.651  29.114  35.440  1.00  0.00     0.029 A 
ATOM     35  C   UNL A   1      42.495  28.727  34.119  1.00  0.00     0.049 A 
ATOM     36  H   UNL A   1      41.073  29.375  32.703  1.00  0.00     0.167 HD
ATOM     37  C   UNL A   1      43.084  27.484  32.056  1.00  0.00     0.074 A 
ATOM     38  C   UNL A   1      43.920  26.580  31.293  1.00  0.00     0.031 C 
ATOM     39  C   UNL A   1      43.282  27.787  33.363  1.00  0.00     0.034 A 
BRANCH  26  40
ATOM     40  C   UNL A   1      39.371  32.011  35.605  1.00  0.00     0.023 A 
ATOM     41  C   UNL A   1      39.774  33.361  35.645  1.00  0.00     0.012 A 
ATOM     42  C   UNL A   1      38.534  31.509  36.620  1.00  0.00     0.148 A 
ATOM     43  C   UNL A   1      39.371  34.191  36.691  1.00  0.00     0.002 A 
ATOM     44  C   UNL A   1      38.106  32.353  37.641  1.00  0.00     0.091 A 
ATOM     45  F   UNL A   1      38.179  30.217  36.579  1.00  0.00    -0.205 F 
ATOM     46  C   UNL A   1      38.529  33.691  37.681  1.00  0.00     0.022 A 
BRANCH  44  47
ATOM     47  S   UNL A   1      36.962  31.814  38.917  1.00  0.00     0.127 S 
ATOM     48  O   UNL A   1      37.713  32.116  40.134  1.00  0.00    -0.237 OA
ATOM     49  O   UNL A   1      35.804  32.680  38.686  1.00  0.00    -0.237 OA
ATOM     50  O   UNL A   1      36.718  30.402  38.660  1.00  0.00    -0.744 OA
ENDBRANCH  44  47
ENDBRANCH  26  40
BRANCH  27  51
ATOM     51  C   UNL A   1      41.985  26.727  27.539  1.00  0.00     0.023 A 
ATOM     52  C   UNL A   1      42.690  27.352  26.493  1.00  0.00     0.012 A 
ATOM     53  C   UNL A   1      41.708  25.349  27.453  1.00  0.00     0.148 A 
ATOM     54  C   UNL A   1      43.096  26.623  25.374  1.00  0.00     0.002 A 
ATOM     55  C   UNL A   1      42.165  24.617  26.364  1.00  0.00     0.091 A 
ATOM     56  F   UNL A   1      41.018  24.775  28.450  1.00  0.00    -0.205 F 
ATOM     57  C   UNL A   1      42.847  25.255  25.316  1.00  0.00     0.022 A 
BRANCH  55  58
ATOM     58  S   UNL A   1      42.014  22.829  26.290  1.00  0.00     0.127 S 
ATOM     59  O   UNL A   1      40.565  22.649  26.317  1.00  0.00    -0.237 OA
ATOM     60  O   UNL A   1      42.650  22.518  25.010  1.00  0.00    -0.237 OA
ATOM     61  O   UNL A   1      42.743  22.333  27.450  1.00  0.00    -0.744 OA
ENDBRANCH  55  58
ENDBRANCH  27  51
BRANCH  39  62
ATOM     62  C   UNL A   1      44.436  27.119  34.059  1.00  0.00     0.023 A 
ATOM     63  C   UNL A   1      45.659  27.805  34.194  1.00  0.00     0.012 A 
ATOM     64  C   UNL A   1      44.294  25.840  34.631  1.00  0.00     0.148 A 
ATOM     65  C   UNL A   1      46.733  27.216  34.860  1.00  0.00     0.002 A 
ATOM     66  C   UNL A   1      45.356  25.275  35.329  1.00  0.00     0.091 A 
ATOM     67  F   UNL A   1      43.132  25.190  34.472  1.00  0.00    -0.205 F 
ATOM     68  C   UNL A   1      46.579  25.957  35.436  1.00  0.00     0.022 A 
BRANCH  66  69
ATOM     69  S   UNL A   1      45.203  23.697  36.173  1.00  0.00     0.127 S 
ATOM     70  O   UNL A   1      46.535  23.125  35.984  1.00  0.00    -0.237 OA
ATOM     71  O   UNL A   1      44.903  24.099  37.548  1.00  0.00    -0.237 OA
ATOM     72  O   UNL A   1      44.113  23.000  35.504  1.00  0.00    -0.744 OA
ENDBRANCH  66  69
ENDBRANCH  39  62
ENDBRANCH  13  14
ENDBRANCH   6   8
ENDBRANCH   3   4
ENDBRANCH   2   3
ENDBRANCH   1   2
BRANCH   1  73
ATOM     73  C   UNL A   1      33.549  27.609  26.492  1.00  0.00     0.002 C 
BRANCH  73  74
ATOM     74  C   UNL A   1      33.573  26.806  25.186  1.00  0.00     0.021 C 
BRANCH  74  75
ATOM     75  C   UNL A   1      33.683  27.660  23.921  1.00  0.00     0.116 C 
BRANCH  75  76
ATOM     76  N   UNL A   1      32.376  27.838  23.313  1.00  0.00    -0.354 N 
ATOM     77  C   UNL A   1      31.488  26.939  22.811  1.00  0.00     0.244 C 
ATOM     78  H   UNL A   1      32.081  28.776  23.253  1.00  0.00     0.163 HD
ATOM     79  O   UNL A   1      30.638  27.381  22.028  1.00  0.00    -0.273 OA
BRANCH  77  80
ATOM     80  C   UNL A   1      31.553  25.421  23.087  1.00  0.00     0.197 C 
BRANCH  80  81
ATOM     81  C   UNL A   1      30.181  24.876  23.495  1.00  0.00     0.191 C 
BRANCH  81  82
ATOM     82  O   UNL A   1      29.313  25.896  23.977  1.00  0.00    -0.394 OA
ATOM     83  H   UNL A   1      29.790  26.739  24.008  1.00  0.00     0.210 HD
ENDBRANCH  81  82
ENDBRANCH  80  81
BRANCH  80  84
ATOM     84  N   UNL A   1      32.191  24.647  22.016  1.00  0.00    -0.342 N 
ATOM     85  C   UNL A   1      33.015  23.560  22.083  1.00  0.00     0.228 C 
ATOM     86  H   UNL A   1      31.993  24.962  21.104  1.00  0.00     0.164 HD
ATOM     87  O   UNL A   1      33.625  23.244  21.060  1.00  0.00    -0.274 OA
BRANCH  85  88
ATOM     88  C   UNL A   1      33.110  22.744  23.376  1.00  0.00     0.109 C 
ATOM     89  C   UNL A   1      32.345  21.423  23.166  1.00  0.00     0.018 C 
ATOM     90  C   UNL A   1      34.524  22.501  23.894  1.00  0.00    -0.032 A 
ATOM     91  C   UNL A   1      32.415  20.569  24.424  1.00  0.00     0.006 C 
ATOM     92  C   UNL A   1      34.831  21.324  24.610  1.00  0.00    -0.044 A 
ATOM     93  C   UNL A   1      35.519  23.485  23.780  1.00  0.00     0.005 A 
ATOM     94  C   UNL A   1      33.858  20.173  24.711  1.00  0.00     0.036 C 
ATOM     95  C   UNL A   1      36.103  21.167  25.188  1.00  0.00     0.004 A 
ATOM     96  C   UNL A   1      36.773  23.326  24.372  1.00  0.00     0.000 A 
ATOM     97  C   UNL A   1      37.063  22.169  25.082  1.00  0.00     0.000 A 
ENDBRANCH  85  88
ENDBRANCH  80  84
ENDBRANCH  77  80
ENDBRANCH  75  76
ENDBRANCH  74  75
ENDBRANCH  73  74
ENDBRANCH   1  73
TORSDOF 20
ENDMDL
MODEL 2
REMARK VINA RESULT:     -11.9      1.638      2.426
REMARK SMILES O=C(NCCCCCCNC(=O)[C@@H](CO)NC(=O)[C@H]1CCCc2ccccc21)c1ccc(-c2c3nc(c(-c4cccc(S(=O)(=O)[O-])c4F)c4ccc([nH]4)c(-c4cccc(S(=O)(=O)[O-])c4F)c4nc(c(-c5cccc(S(=O)(=O)[O-])c5F)c5ccc2[nH]5)C=C4)C=C3)cc1
REMARK SMILES IDX 6 1 5 2 4 3 3 4 1 5 2 6 29 8 30 9 91 10 31 11 90 12 32 13
REMARK SMILES IDX 33 14 34 15 84 16 35 17 89 18 83 19 85 20 36 21 88 22 82 23
REMARK SMILES IDX 81 24 37 26 69 27 49 28 68 29 50 30 53 31 67 32 86 33 51 34
REMARK SMILES IDX 52 35 66 37 87 38 54 39 38 40 39 41 47 42 40 43 42 44 48 45
REMARK SMILES IDX 41 46 43 47 44 48 45 49 46 50 70 51 71 52 79 53 72 54 74 55
REMARK SMILES IDX 80 56 73 57 75 58 76 59 77 60 78 61 55 62 56 63 64 64 57 65
REMARK SMILES IDX 59 66 65 67 58 68 60 69 61 70 62 71 63 72 7 73 8 74 9 75
REMARK SMILES IDX 10 76 11 77 12 79 13 80 14 81 15 82 16 84 17 85 18 87 19 88
REMARK SMILES IDX 20 89 28 90 21 91 23 92 27 93 22 94 24 95 26 96 25 97
REMARK H PARENT 3 7 85 25 53 36 10 78 15 83 16 86
REMARK Flexibility Score: inf
ROOT
ATOM      1  C   UNL A   1      30.847  30.007  24.472  1.00  0.00     0.002 C 
ENDROOT
BRANCH   1   2
ATOM      2  C   UNL A   1      31.823  29.131  25.258  1.00  0.00     0.021 C 
BRANCH   2   3
ATOM      3  C   UNL A   1      32.294  29.716  26.584  1.00  0.00     0.116 C 
BRANCH   3   4
ATOM      4  N   UNL A   1      32.158  31.162  26.644  1.00  0.00    -0.352 N 
ATOM      5  O   UNL A   1      32.656  33.260  27.306  1.00  0.00    -0.269 OA
ATOM      6  C   UNL A   1      32.996  32.083  27.228  1.00  0.00     0.251 C 
ATOM      7  H   UNL A   1      31.356  31.533  26.206  1.00  0.00     0.163 HD
BRANCH   6   8
ATOM      8  C   UNL A   1      34.290  31.636  27.790  1.00  0.00     0.039 A 
ATOM      9  C   UNL A   1      34.472  30.306  28.179  1.00  0.00     0.014 A 
ATOM     10  C   UNL A   1      35.319  32.565  27.960  1.00  0.00     0.014 A 
ATOM     11  C   UNL A   1      35.619  29.944  28.877  1.00  0.00     0.010 A 
ATOM     12  C   UNL A   1      36.507  32.177  28.588  1.00  0.00     0.010 A 
ATOM     13  C   UNL A   1      36.650  30.875  29.092  1.00  0.00    -0.014 A 
BRANCH  13  14
ATOM     14  C   UNL A   1      37.878  30.445  29.811  1.00  0.00     0.031 A 
ATOM     15  C   UNL A   1      38.154  30.886  31.225  1.00  0.00     0.074 A 
ATOM     16  C   UNL A   1      38.746  29.630  29.180  1.00  0.00     0.049 A 
ATOM     17  N   UNL A   1      39.142  30.544  32.012  1.00  0.00    -0.248 NA
ATOM     18  C   UNL A   1      37.210  31.838  31.832  1.00  0.00     0.031 C 
ATOM     19  C   UNL A   1      38.615  29.177  27.793  1.00  0.00     0.029 A 
ATOM     20  N   UNL A   1      39.898  29.029  29.618  1.00  0.00    -0.354 N 
ATOM     21  C   UNL A   1      38.967  31.269  33.185  1.00  0.00     0.074 A 
ATOM     22  C   UNL A   1      37.780  32.075  33.008  1.00  0.00     0.031 C 
ATOM     23  C   UNL A   1      39.621  28.339  27.507  1.00  0.00     0.029 A 
ATOM     24  C   UNL A   1      40.491  28.226  28.672  1.00  0.00     0.049 A 
ATOM     25  H   UNL A   1      40.264  29.160  30.522  1.00  0.00     0.167 HD
ATOM     26  C   UNL A   1      39.718  31.251  34.314  1.00  0.00     0.034 A 
ATOM     27  C   UNL A   1      41.609  27.477  28.734  1.00  0.00     0.034 A 
ATOM     28  C   UNL A   1      40.866  30.405  34.509  1.00  0.00     0.049 A 
ATOM     29  C   UNL A   1      42.384  27.429  30.019  1.00  0.00     0.074 A 
ATOM     30  C   UNL A   1      41.644  30.260  35.645  1.00  0.00     0.029 A 
ATOM     31  N   UNL A   1      41.403  29.563  33.549  1.00  0.00    -0.354 N 
ATOM     32  N   UNL A   1      42.119  28.012  31.163  1.00  0.00    -0.248 NA
ATOM     33  C   UNL A   1      43.594  26.595  30.034  1.00  0.00     0.031 C 
ATOM     34  C   UNL A   1      42.657  29.334  35.367  1.00  0.00     0.029 A 
ATOM     35  C   UNL A   1      42.503  28.896  34.062  1.00  0.00     0.049 A 
ATOM     36  H   UNL A   1      41.053  29.453  32.635  1.00  0.00     0.167 HD
ATOM     37  C   UNL A   1      43.113  27.598  32.040  1.00  0.00     0.074 A 
ATOM     38  C   UNL A   1      43.969  26.691  31.302  1.00  0.00     0.031 C 
ATOM     39  C   UNL A   1      43.311  27.953  33.334  1.00  0.00     0.034 A 
BRANCH  26  40
ATOM     40  C   UNL A   1      39.295  32.140  35.456  1.00  0.00     0.023 A 
ATOM     41  C   UNL A   1      38.439  31.631  36.451  1.00  0.00     0.012 A 
ATOM     42  C   UNL A   1      39.802  33.448  35.583  1.00  0.00     0.148 A 
ATOM     43  C   UNL A   1      38.072  32.417  37.543  1.00  0.00     0.002 A 
ATOM     44  C   UNL A   1      39.461  34.214  36.693  1.00  0.00     0.091 A 
ATOM     45  F   UNL A   1      40.597  33.925  34.615  1.00  0.00    -0.205 F 
ATOM     46  C   UNL A   1      38.592  33.703  37.670  1.00  0.00     0.022 A 
BRANCH  44  47
ATOM     47  S   UNL A   1      40.142  35.853  36.976  1.00  0.00     0.127 S 
ATOM     48  O   UNL A   1      39.667  36.577  35.799  1.00  0.00    -0.237 OA
ATOM     49  O   UNL A   1      39.500  36.246  38.232  1.00  0.00    -0.237 OA
ATOM     50  O   UNL A   1      41.584  35.673  37.068  1.00  0.00    -0.744 OA
ENDBRANCH  44  47
ENDBRANCH  26  40
BRANCH  27  51
ATOM     51  C   UNL A   1      42.005  26.649  27.561  1.00  0.00     0.023 A 
ATOM     52  C   UNL A   1      42.769  27.233  26.533  1.00  0.00     0.012 A 
ATOM     53  C   UNL A   1      41.682  25.280  27.484  1.00  0.00     0.148 A 
ATOM     54  C   UNL A   1      43.189  26.474  25.440  1.00  0.00     0.002 A 
ATOM     55  C   UNL A   1      42.152  24.517  26.423  1.00  0.00     0.091 A 
ATOM     56  F   UNL A   1      40.936  24.746  28.462  1.00  0.00    -0.205 F 
ATOM     57  C   UNL A   1      42.894  25.114  25.392  1.00  0.00     0.022 A 
BRANCH  55  58
ATOM     58  S   UNL A   1      41.940  22.734  26.368  1.00  0.00     0.127 S 
ATOM     59  O   UNL A   1      40.486  22.604  26.380  1.00  0.00    -0.237 OA
ATOM     60  O   UNL A   1      42.581  22.386  25.099  1.00  0.00    -0.237 OA
ATOM     61  O   UNL A   1      42.637  22.228  27.543  1.00  0.00    -0.744 OA
ENDBRANCH  55  58
ENDBRANCH  27  51
BRANCH  39  62
ATOM     62  C   UNL A   1      44.489  27.343  34.044  1.00  0.00     0.023 A 
ATOM     63  C   UNL A   1      45.739  27.990  33.999  1.00  0.00     0.012 A 
ATOM     64  C   UNL A   1      44.346  26.165  34.803  1.00  0.00     0.148 A 
ATOM     65  C   UNL A   1      46.837  27.457  34.674  1.00  0.00     0.002 A 
ATOM     66  C   UNL A   1      45.435  25.662  35.506  1.00  0.00     0.091 A 
ATOM     67  F   UNL A   1      43.155  25.548  34.814  1.00  0.00    -0.205 F 
ATOM     68  C   UNL A   1      46.683  26.301  35.435  1.00  0.00     0.022 A 
BRANCH  66  69
ATOM     69  S   UNL A   1      45.291  24.227  36.577  1.00  0.00     0.127 S 
ATOM     70  O   UNL A   1      46.688  23.963  36.914  1.00  0.00    -0.237 OA
ATOM     71  O   UNL A   1      44.484  24.739  37.686  1.00  0.00    -0.237 OA
ATOM     72  O   UNL A   1      44.627  23.207  35.777  1.00  0.00    -0.744 OA
ENDBRANCH  66  69
ENDBRANCH  39  62
ENDBRANCH  13  14
ENDBRANCH   6   8
ENDBRANCH   3   4
ENDBRANCH   2   3
ENDBRANCH   1   2
BRANCH   1  73
ATOM     73  C   UNL A   1      29.952  29.264  23.474  1.00  0.00     0.002 C 
BRANCH  73  74
ATOM     74  C   UNL A   1      30.682  28.327  22.503  1.00  0.00     0.021 C 
BRANCH  74  75
ATOM     75  C   UNL A   1      30.545  26.840  22.836  1.00  0.00     0.116 C 
BRANCH  75  76
ATOM     76  N   UNL A   1      31.355  26.041  21.933  1.00  0.00    -0.354 N 
ATOM     77  C   UNL A   1      32.702  25.895  21.826  1.00  0.00     0.244 C 
ATOM     78  H   UNL A   1      30.837  25.511  21.284  1.00  0.00     0.163 HD
ATOM     79  O   UNL A   1      33.126  25.454  20.750  1.00  0.00    -0.273 OA
BRANCH  77  80
ATOM     80  C   UNL A   1      33.704  26.334  22.916  1.00  0.00     0.197 C 
BRANCH  80  81
ATOM     81  C   UNL A   1      34.114  27.799  22.729  1.00  0.00     0.191 C 
BRANCH  81  82
ATOM     82  O   UNL A   1      34.074  28.204  21.365  1.00  0.00    -0.394 OA
ATOM     83  H   UNL A   1      34.567  27.568  20.825  1.00  0.00     0.210 HD
ENDBRANCH  81  82
ENDBRANCH  80  81
BRANCH  80  84
ATOM     84  N   UNL A   1      33.273  26.022  24.283  1.00  0.00    -0.342 N 
ATOM     85  C   UNL A   1      33.478  24.904  25.040  1.00  0.00     0.228 C 
ATOM     86  H   UNL A   1      32.753  26.732  24.726  1.00  0.00     0.164 HD
ATOM     87  O   UNL A   1      32.802  24.776  26.063  1.00  0.00    -0.274 OA
BRANCH  85  88
ATOM     88  C   UNL A   1      34.559  23.893  24.643  1.00  0.00     0.109 C 
ATOM     89  C   UNL A   1      35.777  24.110  25.561  1.00  0.00     0.018 C 
ATOM     90  C   UNL A   1      34.116  22.433  24.630  1.00  0.00    -0.032 A 
ATOM     91  C   UNL A   1      36.881  23.122  25.213  1.00  0.00     0.006 C 
ATOM     92  C   UNL A   1      35.036  21.404  24.927  1.00  0.00    -0.044 A 
ATOM     93  C   UNL A   1      32.828  22.068  24.207  1.00  0.00     0.005 A 
ATOM     94  C   UNL A   1      36.413  21.696  25.473  1.00  0.00     0.036 C 
ATOM     95  C   UNL A   1      34.650  20.059  24.791  1.00  0.00     0.004 A 
ATOM     96  C   UNL A   1      32.461  20.730  24.058  1.00  0.00     0.000 A 
ATOM     97  C   UNL A   1      33.375  19.724  24.345  1.00  0.00     0.000 A 
ENDBRANCH  85  88
ENDBRANCH  80  84
ENDBRANCH  77  80
ENDBRANCH  75  76
ENDBRANCH  74  75
ENDBRANCH  73  74
ENDBRANCH   1  73
TORSDOF 20
ENDMDL
MODEL 3
REMARK VINA RESULT:     -11.8      2.017      2.605
REMARK SMILES O=C(NCCCCCCNC(=O)[C@@H](CO)NC(=O)[C@H]1CCCc2ccccc21)c1ccc(-c2c3nc(c(-c4cccc(S(=O)(=O)[O-])c4F)c4ccc([nH]4)c(-c4cccc(S(=O)(=O)[O-])c4F)c4nc(c(-c5cccc(S(=O)(=O)[O-])c5F)c5ccc2[nH]5)C=C4)C=C3)cc1
REMARK SMILES IDX 6 1 5 2 4 3 3 4 1 5 2 6 29 8 30 9 91 10 31 11 90 12 32 13
REMARK SMILES IDX 33 14 34 15 84 16 35 17 89 18 83 19 85 20 36 21 88 22 82 23
REMARK SMILES IDX 81 24 37 26 69 27 49 28 68 29 50 30 53 31 67 32 86 33 51 34
REMARK SMILES IDX 52 35 66 37 87 38 54 39 38 40 39 41 47 42 40 43 42 44 48 45
REMARK SMILES IDX 41 46 43 47 44 48 45 49 46 50 70 51 71 52 79 53 72 54 74 55
REMARK SMILES IDX 80 56 73 57 75 58 76 59 77 60 78 61 55 62 56 63 64 64 57 65
REMARK SMILES IDX 59 66 65 67 58 68 60 69 61 70 62 71 63 72 7 73 8 74 9 75
REMARK SMILES IDX 10 76 11 77 12 79 13 80 14 81 15 82 16 84 17 85 18 87 19 88
REMARK SMILES IDX 20 89 28 90 21 91 23 92 27 93 22 94 24 95 26 96 25 97
REMARK H PARENT 3 7 85 25 53 36 10 78 15 83 16 86
REMARK Flexibility Score: inf
ROOT
ATOM      1  C   UNL A   1      32.194  27.943  26.625  1.00  0.00     0.002 C 
ENDROOT
BRANCH   1   2
ATOM      2  C   UNL A   1      33.196  27.904  25.471  1.00  0.00     0.021 C 
BRANCH   2   3
ATOM      3  C   UNL A   1      33.867  29.235  25.151  1.00  0.00     0.116 C 
BRANCH   3   4
ATOM      4  N   UNL A   1      33.097  30.380  25.608  1.00  0.00    -0.352 N 
ATOM      5  O   UNL A   1      32.429  31.980  27.052  1.00  0.00    -0.269 OA
ATOM      6  C   UNL A   1      33.261  31.129  26.750  1.00  0.00     0.251 C 
ATOM      7  H   UNL A   1      32.356  30.657  25.020  1.00  0.00     0.163 HD
BRANCH   6   8
ATOM      8  C   UNL A   1      34.427  30.874  27.626  1.00  0.00     0.039 A 
ATOM      9  C   UNL A   1      35.485  31.783  27.679  1.00  0.00     0.014 A 
ATOM     10  C   UNL A   1      34.473  29.696  28.376  1.00  0.00     0.014 A 
ATOM     11  C   UNL A   1      36.652  31.442  28.357  1.00  0.00     0.010 A 
ATOM     12  C   UNL A   1      35.615  29.395  29.124  1.00  0.00     0.010 A 
ATOM     13  C   UNL A   1      36.732  30.244  29.086  1.00  0.00    -0.014 A 
BRANCH  13  14
ATOM     14  C   UNL A   1      37.981  29.927  29.827  1.00  0.00     0.031 A 
ATOM     15  C   UNL A   1      38.226  30.457  31.215  1.00  0.00     0.074 A 
ATOM     16  C   UNL A   1      38.899  29.132  29.241  1.00  0.00     0.049 A 
ATOM     17  N   UNL A   1      39.229  30.217  32.020  1.00  0.00    -0.248 NA
ATOM     18  C   UNL A   1      37.224  31.382  31.771  1.00  0.00     0.031 C 
ATOM     19  C   UNL A   1      38.799  28.599  27.880  1.00  0.00     0.029 A 
ATOM     20  N   UNL A   1      40.082  28.625  29.710  1.00  0.00    -0.354 N 
ATOM     21  C   UNL A   1      39.008  30.992  33.153  1.00  0.00     0.074 A 
ATOM     22  C   UNL A   1      37.775  31.715  32.932  1.00  0.00     0.031 C 
ATOM     23  C   UNL A   1      39.855  27.808  27.639  1.00  0.00     0.029 A 
ATOM     24  C   UNL A   1      40.726  27.809  28.808  1.00  0.00     0.049 A 
ATOM     25  H   UNL A   1      40.437  28.825  30.606  1.00  0.00     0.167 HD
ATOM     26  C   UNL A   1      39.754  31.078  34.282  1.00  0.00     0.034 A 
ATOM     27  C   UNL A   1      41.886  27.133  28.911  1.00  0.00     0.034 A 
ATOM     28  C   UNL A   1      40.949  30.314  34.522  1.00  0.00     0.049 A 
ATOM     29  C   UNL A   1      42.658  27.199  30.197  1.00  0.00     0.074 A 
ATOM     30  C   UNL A   1      41.731  30.276  35.664  1.00  0.00     0.029 A 
ATOM     31  N   UNL A   1      41.539  29.455  33.607  1.00  0.00    -0.354 N 
ATOM     32  N   UNL A   1      42.354  27.826  31.308  1.00  0.00    -0.248 NA
ATOM     33  C   UNL A   1      43.915  26.441  30.257  1.00  0.00     0.031 C 
ATOM     34  C   UNL A   1      42.798  29.399  35.436  1.00  0.00     0.029 A 
ATOM     35  C   UNL A   1      42.675  28.884  34.156  1.00  0.00     0.049 A 
ATOM     36  H   UNL A   1      41.199  29.276  32.701  1.00  0.00     0.167 HD
ATOM     37  C   UNL A   1      43.368  27.519  32.206  1.00  0.00     0.074 A 
ATOM     38  C   UNL A   1      44.280  26.626  31.518  1.00  0.00     0.031 C 
ATOM     39  C   UNL A   1      43.540  27.953  33.479  1.00  0.00     0.034 A 
BRANCH  26  40
ATOM     40  C   UNL A   1      39.275  32.000  35.374  1.00  0.00     0.023 A 
ATOM     41  C   UNL A   1      38.377  31.517  36.345  1.00  0.00     0.012 A 
ATOM     42  C   UNL A   1      39.769  33.315  35.482  1.00  0.00     0.148 A 
ATOM     43  C   UNL A   1      37.957  32.334  37.394  1.00  0.00     0.002 A 
ATOM     44  C   UNL A   1      39.374  34.113  36.551  1.00  0.00     0.091 A 
ATOM     45  F   UNL A   1      40.605  33.767  34.536  1.00  0.00    -0.205 F 
ATOM     46  C   UNL A   1      38.464  33.628  37.503  1.00  0.00     0.022 A 
BRANCH  44  47
ATOM     47  S   UNL A   1      40.032  35.765  36.812  1.00  0.00     0.127 S 
ATOM     48  O   UNL A   1      41.462  35.495  36.944  1.00  0.00    -0.237 OA
ATOM     49  O   UNL A   1      39.653  36.452  35.576  1.00  0.00    -0.237 OA
ATOM     50  O   UNL A   1      39.371  36.270  38.008  1.00  0.00    -0.744 OA
ENDBRANCH  44  47
ENDBRANCH  26  40
BRANCH  27  51
ATOM     51  C   UNL A   1      42.335  26.269  27.784  1.00  0.00     0.023 A 
ATOM     52  C   UNL A   1      43.279  26.769  26.867  1.00  0.00     0.012 A 
ATOM     53  C   UNL A   1      41.880  24.943  27.647  1.00  0.00     0.148 A 
ATOM     54  C   UNL A   1      43.749  25.971  25.823  1.00  0.00     0.002 A 
ATOM     55  C   UNL A   1      42.395  24.135  26.641  1.00  0.00     0.091 A 
ATOM     56  F   UNL A   1      40.966  24.491  28.518  1.00  0.00    -0.205 F 
ATOM     57  C   UNL A   1      43.318  24.651  25.719  1.00  0.00     0.022 A 
BRANCH  55  58
ATOM     58  S   UNL A   1      42.003  22.385  26.534  1.00  0.00     0.127 S 
ATOM     59  O   UNL A   1      40.544  22.408  26.474  1.00  0.00    -0.237 OA
ATOM     60  O   UNL A   1      42.665  21.996  25.289  1.00  0.00    -0.237 OA
ATOM     61  O   UNL A   1      42.585  21.787  27.728  1.00  0.00    -0.744 OA
ENDBRANCH  55  58
ENDBRANCH  27  51
BRANCH  39  62
ATOM     62  C   UNL A   1      44.750  27.453  34.221  1.00  0.00     0.023 A 
ATOM     63  C   UNL A   1      45.948  28.193  34.177  1.00  0.00     0.012 A 
ATOM     64  C   UNL A   1      44.685  26.287  35.008  1.00  0.00     0.148 A 
ATOM     65  C   UNL A   1      47.073  27.763  34.881  1.00  0.00     0.002 A 
ATOM     66  C   UNL A   1      45.799  25.886  35.739  1.00  0.00     0.091 A 
ATOM     67  F   UNL A   1      43.545  25.580  35.018  1.00  0.00    -0.205 F 
ATOM     68  C   UNL A   1      46.995  26.617  35.669  1.00  0.00     0.022 A 
BRANCH  66  69
ATOM     69  S   UNL A   1      45.747  24.472  36.845  1.00  0.00     0.127 S 
ATOM     70  O   UNL A   1      44.667  24.843  37.756  1.00  0.00    -0.237 OA
ATOM     71  O   UNL A   1      45.427  23.369  35.937  1.00  0.00    -0.237 OA
ATOM     72  O   UNL A   1      47.076  24.391  37.437  1.00  0.00    -0.744 OA
ENDBRANCH  66  69
ENDBRANCH  39  62
ENDBRANCH  13  14
ENDBRANCH   6   8
ENDBRANCH   3   4
ENDBRANCH   2   3
ENDBRANCH   1   2
BRANCH   1  73
ATOM     73  C   UNL A   1      31.006  26.984  26.498  1.00  0.00     0.002 C 
BRANCH  73  74
ATOM     74  C   UNL A   1      30.561  26.670  25.064  1.00  0.00     0.021 C 
BRANCH  74  75
ATOM     75  C   UNL A   1      30.008  25.257  24.869  1.00  0.00     0.116 C 
BRANCH  75  76
ATOM     76  N   UNL A   1      29.840  24.596  26.151  1.00  0.00    -0.354 N 
ATOM     77  C   UNL A   1      30.470  23.523  26.698  1.00  0.00     0.244 C 
ATOM     78  H   UNL A   1      29.147  24.996  26.726  1.00  0.00     0.163 HD
ATOM     79  O   UNL A   1      29.883  22.953  27.626  1.00  0.00    -0.273 OA
BRANCH  77  80
ATOM     80  C   UNL A   1      31.796  22.940  26.164  1.00  0.00     0.197 C 
BRANCH  80  81
ATOM     81  C   UNL A   1      32.992  23.470  26.962  1.00  0.00     0.191 C 
BRANCH  81  82
ATOM     82  O   UNL A   1      33.687  24.506  26.276  1.00  0.00    -0.394 OA
ATOM     83  H   UNL A   1      33.442  25.365  26.653  1.00  0.00     0.210 HD
ENDBRANCH  81  82
ENDBRANCH  80  81
BRANCH  80  84
ATOM     84  N   UNL A   1      31.793  21.480  26.023  1.00  0.00    -0.342 N 
ATOM     85  C   UNL A   1      32.167  20.693  24.971  1.00  0.00     0.228 C 
ATOM     86  H   UNL A   1      31.470  20.989  26.814  1.00  0.00     0.164 HD
ATOM     87  O   UNL A   1      31.833  19.507  25.000  1.00  0.00    -0.274 OA
BRANCH  85  88
ATOM     88  C   UNL A   1      33.022  21.274  23.841  1.00  0.00     0.109 C 
ATOM     89  C   UNL A   1      32.271  22.480  23.243  1.00  0.00     0.018 C 
ATOM     90  C   UNL A   1      34.454  21.637  24.224  1.00  0.00    -0.032 A 
ATOM     91  C   UNL A   1      33.084  23.101  22.117  1.00  0.00     0.006 C 
ATOM     92  C   UNL A   1      35.119  22.703  23.581  1.00  0.00    -0.044 A 
ATOM     93  C   UNL A   1      35.185  20.852  25.130  1.00  0.00     0.005 A 
ATOM     94  C   UNL A   1      34.395  23.656  22.659  1.00  0.00     0.036 C 
ATOM     95  C   UNL A   1      36.476  22.949  23.853  1.00  0.00     0.004 A 
ATOM     96  C   UNL A   1      36.536  21.094  25.380  1.00  0.00     0.000 A 
ATOM     97  C   UNL A   1      37.185  22.140  24.736  1.00  0.00     0.000 A 
ENDBRANCH  85  88
ENDBRANCH  80  84
ENDBRANCH  77  80
ENDBRANCH  75  76
ENDBRANCH  74  75
ENDBRANCH  73  74
ENDBRANCH   1  73
TORSDOF 20
ENDMDL
