MODEL 1
REMARK VINA RESULT:     -11.3      0.000      0.000
REMARK SMILES C[NH2+][C@]1(C(=O)NCCCCCCNC(=O)c2ccc(-c3c4nc(c(-c5cccc(S(=O)(=O)[O-])c5F)c5ccc([nH]5)c(-c5cccc(S(=O)(=O)[O-])c5F)c5nc(c(-c6cccc(S(=O)(=O)[O-])c6F)c6ccc3[nH]6)C=C5)C=C4)cc2)CCC[C@H]([NH+]2CCC[C@@H]2C2CCCC2)C1
REMARK SMILES IDX 10 1 9 2 8 3 7 4 6 5 4 6 5 7 3 9 79 10 93 11 80 12 82 13
REMARK SMILES IDX 81 14 2 15 1 16 83 19 84 20 87 21 85 23 86 24 88 25 89 26
REMARK SMILES IDX 92 27 90 28 91 29 11 30 12 31 13 32 14 33 15 35 16 36 17 37
REMARK SMILES IDX 78 38 18 39 77 40 19 41 20 42 21 43 71 44 22 45 76 46 70 47
REMARK SMILES IDX 72 48 23 49 75 50 69 51 68 52 24 54 56 55 36 56 55 57 37 58
REMARK SMILES IDX 40 59 54 60 73 61 38 62 39 63 53 65 74 66 41 67 25 68 26 69
REMARK SMILES IDX 34 70 27 71 29 72 35 73 28 74 30 75 31 76 32 77 33 78 57 79
REMARK SMILES IDX 58 80 66 81 59 82 61 83 67 84 60 85 62 86 63 87 64 88 65 89
REMARK SMILES IDX 42 90 43 91 51 92 44 93 46 94 52 95 45 96 47 97 48 98 49 99
REMARK SMILES IDX 50 100
REMARK H PARENT 6 8 2 17 2 18 83 22 13 34 72 53 40 64
REMARK Flexibility Score: inf
ROOT
ATOM      1  C   UNL A   1      36.303  22.785  23.296  1.00  0.00     0.002 C 
ENDROOT
BRANCH   1   2
ATOM      2  C   UNL A   1      34.796  22.599  23.515  1.00  0.00     0.002 C 
BRANCH   2   3
ATOM      3  C   UNL A   1      34.412  21.344  24.306  1.00  0.00     0.021 C 
BRANCH   3   4
ATOM      4  C   UNL A   1      32.979  21.384  24.857  1.00  0.00     0.116 C 
BRANCH   4   5
ATOM      5  N   UNL A   1      32.877  21.990  26.180  1.00  0.00    -0.351 N 
ATOM      6  C   UNL A   1      32.362  23.156  26.665  1.00  0.00     0.281 C 
ATOM      7  O   UNL A   1      32.088  23.122  27.878  1.00  0.00    -0.268 OA
ATOM      8  H   UNL A   1      33.269  21.427  26.885  1.00  0.00     0.163 HD
BRANCH   6   9
ATOM      9  C   UNL A   1      32.219  24.522  25.867  1.00  0.00     0.181 C 
ATOM     10  C   UNL A   1      33.574  25.299  25.701  1.00  0.00     0.079 C 
ATOM     11  C   UNL A   1      31.689  24.276  24.446  1.00  0.00     0.144 C 
ATOM     12  C   UNL A   1      33.956  26.086  24.425  1.00  0.00     0.013 C 
ATOM     13  C   UNL A   1      31.780  25.523  23.511  1.00  0.00     0.191 C 
ATOM     14  C   UNL A   1      33.262  25.636  23.170  1.00  0.00     0.065 C 
BRANCH   9  15
ATOM     15  N   UNL A   1      31.020  25.225  26.442  1.00  0.00    -0.336 N 
ATOM     16  C   UNL A   1      29.721  24.588  26.404  1.00  0.00     0.331 C 
ATOM     17  H   UNL A   1      31.229  25.408  27.424  1.00  0.00     0.346 HD
ATOM     18  H   UNL A   1      30.904  26.031  25.829  1.00  0.00     0.346 HD
ENDBRANCH   9  15
BRANCH  13  19
ATOM     19  N   UNL A   1      31.254  26.887  23.749  1.00  0.00    -0.330 N 
ATOM     20  C   UNL A   1      30.444  27.390  22.643  1.00  0.00     0.262 C 
ATOM     21  C   UNL A   1      31.345  27.938  24.813  1.00  0.00     0.187 C 
ATOM     22  H   UNL A   1      31.762  26.433  24.508  1.00  0.00     0.348 HD
ATOM     23  C   UNL A   1      30.825  28.845  22.611  1.00  0.00     0.067 C 
ATOM     24  C   UNL A   1      30.869  29.215  24.078  1.00  0.00     0.071 C 
BRANCH  21  25
ATOM     25  C   UNL A   1      32.541  28.333  25.768  1.00  0.00     0.047 C 
ATOM     26  C   UNL A   1      33.495  29.536  25.589  1.00  0.00     0.010 C 
ATOM     27  C   UNL A   1      32.121  28.624  27.229  1.00  0.00     0.010 C 
ATOM     28  C   UNL A   1      34.370  29.457  26.851  1.00  0.00     0.001 C 
ATOM     29  C   UNL A   1      33.465  28.860  27.928  1.00  0.00     0.001 C 
ENDBRANCH  21  25
ENDBRANCH  13  19
ENDBRANCH   6   9
ENDBRANCH   4   5
ENDBRANCH   3   4
ENDBRANCH   2   3
ENDBRANCH   1   2
BRANCH   1  30
ATOM     30  C   UNL A   1      36.981  23.750  24.273  1.00  0.00     0.021 C 
BRANCH  30  31
ATOM     31  C   UNL A   1      36.874  23.316  25.732  1.00  0.00     0.116 C 
BRANCH  31  32
ATOM     32  N   UNL A   1      37.930  22.369  26.068  1.00  0.00    -0.352 N 
ATOM     33  C   UNL A   1      39.227  22.622  26.428  1.00  0.00     0.251 C 
ATOM     34  H   UNL A   1      37.677  21.419  26.031  1.00  0.00     0.163 HD
ATOM     35  O   UNL A   1      40.077  21.734  26.341  1.00  0.00    -0.269 OA
BRANCH  33  36
ATOM     36  C   UNL A   1      39.592  23.955  26.941  1.00  0.00     0.039 A 
ATOM     37  C   UNL A   1      39.422  24.243  28.296  1.00  0.00     0.014 A 
ATOM     38  C   UNL A   1      40.077  24.931  26.063  1.00  0.00     0.014 A 
ATOM     39  C   UNL A   1      39.775  25.504  28.780  1.00  0.00     0.010 A 
ATOM     40  C   UNL A   1      40.498  26.157  26.560  1.00  0.00     0.010 A 
ATOM     41  C   UNL A   1      40.333  26.462  27.919  1.00  0.00    -0.014 A 
BRANCH  41  42
ATOM     42  C   UNL A   1      40.750  27.796  28.415  1.00  0.00     0.031 A 
ATOM     43  C   UNL A   1      42.210  28.121  28.570  1.00  0.00     0.074 A 
ATOM     44  C   UNL A   1      39.811  28.676  28.811  1.00  0.00     0.049 A 
ATOM     45  N   UNL A   1      42.767  29.205  29.042  1.00  0.00    -0.248 NA
ATOM     46  C   UNL A   1      43.174  27.079  28.173  1.00  0.00     0.031 C 
ATOM     47  C   UNL A   1      38.367  28.438  28.789  1.00  0.00     0.029 A 
ATOM     48  N   UNL A   1      39.932  29.936  29.340  1.00  0.00    -0.354 N 
ATOM     49  C   UNL A   1      44.135  28.964  29.036  1.00  0.00     0.074 A 
ATOM     50  C   UNL A   1      44.326  27.617  28.546  1.00  0.00     0.031 C 
ATOM     51  C   UNL A   1      37.735  29.517  29.279  1.00  0.00     0.029 A 
ATOM     52  C   UNL A   1      38.729  30.510  29.677  1.00  0.00     0.049 A 
ATOM     53  H   UNL A   1      40.798  30.388  29.465  1.00  0.00     0.167 HD
ATOM     54  C   UNL A   1      45.144  29.798  29.382  1.00  0.00     0.034 A 
ATOM     55  C   UNL A   1      38.457  31.698  30.250  1.00  0.00     0.034 A 
ATOM     56  C   UNL A   1      44.948  31.151  29.824  1.00  0.00     0.049 A 
ATOM     57  C   UNL A   1      39.595  32.627  30.572  1.00  0.00     0.074 A 
ATOM     58  C   UNL A   1      45.904  32.112  30.101  1.00  0.00     0.029 A 
ATOM     59  N   UNL A   1      43.714  31.734  30.062  1.00  0.00    -0.354 N 
ATOM     60  N   UNL A   1      40.883  32.444  30.402  1.00  0.00    -0.248 NA
ATOM     61  C   UNL A   1      39.244  33.941  31.129  1.00  0.00     0.031 C 
ATOM     62  C   UNL A   1      45.247  33.269  30.533  1.00  0.00     0.029 A 
ATOM     63  C   UNL A   1      43.880  33.038  30.495  1.00  0.00     0.049 A 
ATOM     64  H   UNL A   1      42.844  31.286  29.942  1.00  0.00     0.167 HD
ATOM     65  C   UNL A   1      41.492  33.629  30.797  1.00  0.00     0.074 A 
ATOM     66  C   UNL A   1      40.430  34.531  31.194  1.00  0.00     0.031 C 
ATOM     67  C   UNL A   1      42.812  33.939  30.840  1.00  0.00     0.034 A 
BRANCH  54  68
ATOM     68  C   UNL A   1      46.555  29.287  29.249  1.00  0.00     0.023 A 
ATOM     69  C   UNL A   1      47.152  28.597  30.323  1.00  0.00     0.012 A 
ATOM     70  C   UNL A   1      47.268  29.435  28.043  1.00  0.00     0.148 A 
ATOM     71  C   UNL A   1      48.448  28.093  30.213  1.00  0.00     0.002 A 
ATOM     72  C   UNL A   1      48.541  28.889  27.924  1.00  0.00     0.091 A 
ATOM     73  F   UNL A   1      46.693  30.113  27.039  1.00  0.00    -0.205 F 
ATOM     74  C   UNL A   1      49.137  28.229  29.012  1.00  0.00     0.022 A 
BRANCH  72  75
ATOM     75  S   UNL A   1      49.478  28.940  26.392  1.00  0.00     0.127 S 
ATOM     76  O   UNL A   1      48.483  28.478  25.423  1.00  0.00    -0.237 OA
ATOM     77  O   UNL A   1      49.814  30.360  26.286  1.00  0.00    -0.237 OA
ATOM     78  O   UNL A   1      50.617  28.058  26.586  1.00  0.00    -0.744 OA
ENDBRANCH  72  75
ENDBRANCH  54  68
BRANCH  55  79
ATOM     79  C   UNL A   1      37.043  32.098  30.492  1.00  0.00     0.023 A 
ATOM     80  C   UNL A   1      36.489  31.942  31.778  1.00  0.00     0.012 A 
ATOM     81  C   UNL A   1      36.259  32.668  29.471  1.00  0.00     0.148 A 
ATOM     82  C   UNL A   1      35.170  32.315  32.034  1.00  0.00     0.002 A 
ATOM     83  C   UNL A   1      34.963  33.091  29.747  1.00  0.00     0.091 A 
ATOM     84  F   UNL A   1      36.802  32.801  28.252  1.00  0.00    -0.205 F 
ATOM     85  C   UNL A   1      34.411  32.899  31.022  1.00  0.00     0.022 A 
BRANCH  83  86
ATOM     86  S   UNL A   1      33.969  33.976  28.540  1.00  0.00     0.127 S 
ATOM     87  O   UNL A   1      32.871  34.479  29.373  1.00  0.00    -0.237 OA
ATOM     88  O   UNL A   1      34.907  35.009  28.082  1.00  0.00    -0.237 OA
ATOM     89  O   UNL A   1      33.607  33.006  27.534  1.00  0.00    -0.744 OA
ENDBRANCH  83  86
ENDBRANCH  55  79
BRANCH  67  90
ATOM     90  C   UNL A   1      43.189  35.322  31.300  1.00  0.00     0.023 A 
ATOM     91  C   UNL A   1      43.379  35.579  32.673  1.00  0.00     0.012 A 
ATOM     92  C   UNL A   1      43.434  36.347  30.364  1.00  0.00     0.148 A 
ATOM     93  C   UNL A   1      43.772  36.843  33.108  1.00  0.00     0.002 A 
ATOM     94  C   UNL A   1      43.876  37.589  30.802  1.00  0.00     0.091 A 
ATOM     95  F   UNL A   1      43.230  36.086  29.064  1.00  0.00    -0.205 F 
ATOM     96  C   UNL A   1      44.033  37.842  32.174  1.00  0.00     0.022 A 
BRANCH  94  97
ATOM     97  S   UNL A   1      44.331  38.903  29.665  1.00  0.00     0.127 S 
ATOM     98  O   UNL A   1      45.343  38.245  28.839  1.00  0.00    -0.237 OA
ATOM     99  O   UNL A   1      43.067  39.173  28.981  1.00  0.00    -0.237 OA
ATOM    100  O   UNL A   1      44.817  39.999  30.493  1.00  0.00    -0.744 OA
ENDBRANCH  94  97
ENDBRANCH  67  90
ENDBRANCH  41  42
ENDBRANCH  33  36
ENDBRANCH  31  32
ENDBRANCH  30  31
ENDBRANCH   1  30
TORSDOF 19
ENDMDL
MODEL 2
REMARK VINA RESULT:     -11.0      3.179      8.452
REMARK SMILES C[NH2+][C@]1(C(=O)NCCCCCCNC(=O)c2ccc(-c3c4nc(c(-c5cccc(S(=O)(=O)[O-])c5F)c5ccc([nH]5)c(-c5cccc(S(=O)(=O)[O-])c5F)c5nc(c(-c6cccc(S(=O)(=O)[O-])c6F)c6ccc3[nH]6)C=C5)C=C4)cc2)CCC[C@H]([NH+]2CCC[C@@H]2C2CCCC2)C1
REMARK SMILES IDX 10 1 9 2 8 3 7 4 6 5 4 6 5 7 3 9 79 10 93 11 80 12 82 13
REMARK SMILES IDX 81 14 2 15 1 16 83 19 84 20 87 21 85 23 86 24 88 25 89 26
REMARK SMILES IDX 92 27 90 28 91 29 11 30 12 31 13 32 14 33 15 35 16 36 17 37
REMARK SMILES IDX 78 38 18 39 77 40 19 41 20 42 21 43 71 44 22 45 76 46 70 47
REMARK SMILES IDX 72 48 23 49 75 50 69 51 68 52 24 54 56 55 36 56 55 57 37 58
REMARK SMILES IDX 40 59 54 60 73 61 38 62 39 63 53 65 74 66 41 67 25 68 26 69
REMARK SMILES IDX 34 70 27 71 29 72 35 73 28 74 30 75 31 76 32 77 33 78 57 79
REMARK SMILES IDX 58 80 66 81 59 82 61 83 67 84 60 85 62 86 63 87 64 88 65 89
REMARK SMILES IDX 42 90 43 91 51 92 44 93 46 94 52 95 45 96 47 97 48 98 49 99
REMARK SMILES IDX 50 100
REMARK H PARENT 6 8 2 17 2 18 83 22 13 34 72 53 40 64
REMARK Flexibility Score: inf
ROOT
ATOM      1  C   UNL A   1      37.289  20.636  24.471  1.00  0.00     0.002 C 
ENDROOT
BRANCH   1   2
ATOM      2  C   UNL A   1      37.569  22.067  24.949  1.00  0.00     0.002 C 
BRANCH   2   3
ATOM      3  C   UNL A   1      36.581  22.600  25.993  1.00  0.00     0.021 C 
BRANCH   3   4
ATOM      4  C   UNL A   1      35.407  21.649  26.264  1.00  0.00     0.116 C 
BRANCH   4   5
ATOM      5  N   UNL A   1      34.509  22.112  27.315  1.00  0.00    -0.351 N 
ATOM      6  C   UNL A   1      33.301  22.746  27.336  1.00  0.00     0.281 C 
ATOM      7  O   UNL A   1      32.667  22.592  28.395  1.00  0.00    -0.268 OA
ATOM      8  H   UNL A   1      34.852  21.923  28.217  1.00  0.00     0.163 HD
BRANCH   6   9
ATOM      9  C   UNL A   1      32.735  23.722  26.218  1.00  0.00     0.181 C 
ATOM     10  C   UNL A   1      31.328  24.328  26.567  1.00  0.00     0.079 C 
ATOM     11  C   UNL A   1      33.675  24.918  26.003  1.00  0.00     0.144 C 
ATOM     12  C   UNL A   1      30.913  25.777  26.220  1.00  0.00     0.013 C 
ATOM     13  C   UNL A   1      33.063  26.056  25.130  1.00  0.00     0.191 C 
ATOM     14  C   UNL A   1      32.054  26.740  26.047  1.00  0.00     0.065 C 
BRANCH   9  15
ATOM     15  N   UNL A   1      32.943  23.025  24.902  1.00  0.00    -0.336 N 
ATOM     16  C   UNL A   1      31.980  22.047  24.442  1.00  0.00     0.331 C 
ATOM     17  H   UNL A   1      32.988  23.752  24.188  1.00  0.00     0.346 HD
ATOM     18  H   UNL A   1      33.783  22.470  25.060  1.00  0.00     0.346 HD
ENDBRANCH   9  15
BRANCH  13  19
ATOM     19  N   UNL A   1      32.465  25.954  23.778  1.00  0.00    -0.330 N 
ATOM     20  C   UNL A   1      33.292  25.199  22.841  1.00  0.00     0.262 C 
ATOM     21  C   UNL A   1      31.239  26.444  23.071  1.00  0.00     0.187 C 
ATOM     22  H   UNL A   1      31.912  26.396  24.512  1.00  0.00     0.348 HD
ATOM     23  C   UNL A   1      33.088  25.959  21.559  1.00  0.00     0.067 C 
ATOM     24  C   UNL A   1      31.605  26.260  21.578  1.00  0.00     0.071 C 
BRANCH  21  25
ATOM     25  C   UNL A   1      30.437  27.799  23.221  1.00  0.00     0.047 C 
ATOM     26  C   UNL A   1      30.541  29.031  22.294  1.00  0.00     0.010 C 
ATOM     27  C   UNL A   1      28.899  27.637  23.173  1.00  0.00     0.010 C 
ATOM     28  C   UNL A   1      29.478  29.977  22.877  1.00  0.00     0.001 C 
ATOM     29  C   UNL A   1      28.400  29.061  23.452  1.00  0.00     0.001 C 
ENDBRANCH  21  25
ENDBRANCH  13  19
ENDBRANCH   6   9
ENDBRANCH   4   5
ENDBRANCH   3   4
ENDBRANCH   2   3
ENDBRANCH   1   2
BRANCH   1  30
ATOM     30  C   UNL A   1      38.237  19.573  25.034  1.00  0.00     0.021 C 
BRANCH  30  31
ATOM     31  C   UNL A   1      39.311  20.140  25.957  1.00  0.00     0.116 C 
BRANCH  31  32
ATOM     32  N   UNL A   1      40.436  19.219  26.067  1.00  0.00    -0.352 N 
ATOM     33  C   UNL A   1      41.777  19.498  26.072  1.00  0.00     0.251 C 
ATOM     34  H   UNL A   1      40.199  18.267  26.151  1.00  0.00     0.163 HD
ATOM     35  O   UNL A   1      42.593  18.611  25.822  1.00  0.00    -0.269 OA
BRANCH  33  36
ATOM     36  C   UNL A   1      42.234  20.861  26.398  1.00  0.00     0.039 A 
ATOM     37  C   UNL A   1      42.543  21.187  27.719  1.00  0.00     0.014 A 
ATOM     38  C   UNL A   1      42.326  21.826  25.389  1.00  0.00     0.014 A 
ATOM     39  C   UNL A   1      42.983  22.477  28.024  1.00  0.00     0.010 A 
ATOM     40  C   UNL A   1      42.835  23.084  25.681  1.00  0.00     0.010 A 
ATOM     41  C   UNL A   1      43.150  23.427  27.004  1.00  0.00    -0.014 A 
BRANCH  41  42
ATOM     42  C   UNL A   1      43.649  24.793  27.296  1.00  0.00     0.031 A 
ATOM     43  C   UNL A   1      42.710  25.843  27.823  1.00  0.00     0.074 A 
ATOM     44  C   UNL A   1      44.924  25.108  26.997  1.00  0.00     0.049 A 
ATOM     45  N   UNL A   1      42.944  27.103  28.081  1.00  0.00    -0.248 NA
ATOM     46  C   UNL A   1      41.315  25.433  28.063  1.00  0.00     0.031 C 
ATOM     47  C   UNL A   1      45.902  24.197  26.400  1.00  0.00     0.029 A 
ATOM     48  N   UNL A   1      45.606  26.291  27.125  1.00  0.00    -0.354 N 
ATOM     49  C   UNL A   1      41.726  27.643  28.473  1.00  0.00     0.074 A 
ATOM     50  C   UNL A   1      40.745  26.584  28.387  1.00  0.00     0.031 C 
ATOM     51  C   UNL A   1      47.060  24.853  26.216  1.00  0.00     0.029 A 
ATOM     52  C   UNL A   1      46.897  26.236  26.654  1.00  0.00     0.049 A 
ATOM     53  H   UNL A   1      45.211  27.102  27.519  1.00  0.00     0.167 HD
ATOM     54  C   UNL A   1      41.453  28.901  28.892  1.00  0.00     0.034 A 
ATOM     55  C   UNL A   1      47.840  27.194  26.574  1.00  0.00     0.034 A 
ATOM     56  C   UNL A   1      42.443  29.935  29.019  1.00  0.00     0.049 A 
ATOM     57  C   UNL A   1      47.526  28.568  27.100  1.00  0.00     0.074 A 
ATOM     58  C   UNL A   1      42.293  31.212  29.530  1.00  0.00     0.029 A 
ATOM     59  N   UNL A   1      43.766  29.816  28.623  1.00  0.00    -0.354 N 
ATOM     60  N   UNL A   1      46.411  29.016  27.625  1.00  0.00    -0.248 NA
ATOM     61  C   UNL A   1      48.611  29.559  27.058  1.00  0.00     0.031 C 
ATOM     62  C   UNL A   1      43.520  31.874  29.418  1.00  0.00     0.029 A 
ATOM     63  C   UNL A   1      44.442  30.998  28.866  1.00  0.00     0.049 A 
ATOM     64  H   UNL A   1      44.167  29.008  28.226  1.00  0.00     0.167 HD
ATOM     65  C   UNL A   1      46.669  30.327  28.007  1.00  0.00     0.074 A 
ATOM     66  C   UNL A   1      48.053  30.593  27.674  1.00  0.00     0.031 C 
ATOM     67  C   UNL A   1      45.832  31.232  28.573  1.00  0.00     0.034 A 
BRANCH  54  68
ATOM     68  C   UNL A   1      40.036  29.216  29.294  1.00  0.00     0.023 A 
ATOM     69  C   UNL A   1      39.074  29.494  28.302  1.00  0.00     0.012 A 
ATOM     70  C   UNL A   1      39.641  29.178  30.646  1.00  0.00     0.148 A 
ATOM     71  C   UNL A   1      37.750  29.764  28.649  1.00  0.00     0.002 A 
ATOM     72  C   UNL A   1      38.310  29.401  30.980  1.00  0.00     0.091 A 
ATOM     73  F   UNL A   1      40.573  28.934  31.578  1.00  0.00    -0.205 F 
ATOM     74  C   UNL A   1      37.366  29.706  29.985  1.00  0.00     0.022 A 
BRANCH  72  75
ATOM     75  S   UNL A   1      37.700  29.269  32.665  1.00  0.00     0.127 S 
ATOM     76  O   UNL A   1      36.337  29.784  32.526  1.00  0.00    -0.237 OA
ATOM     77  O   UNL A   1      37.783  27.828  32.909  1.00  0.00    -0.237 OA
ATOM     78  O   UNL A   1      38.592  30.077  33.482  1.00  0.00    -0.744 OA
ENDBRANCH  72  75
ENDBRANCH  54  68
BRANCH  55  79
ATOM     79  C   UNL A   1      49.189  26.864  26.034  1.00  0.00     0.023 A 
ATOM     80  C   UNL A   1      50.057  26.053  26.791  1.00  0.00     0.012 A 
ATOM     81  C   UNL A   1      49.598  27.312  24.764  1.00  0.00     0.148 A 
ATOM     82  C   UNL A   1      51.322  25.721  26.306  1.00  0.00     0.002 A 
ATOM     83  C   UNL A   1      50.838  26.931  24.263  1.00  0.00     0.091 A 
ATOM     84  F   UNL A   1      48.760  28.089  24.064  1.00  0.00    -0.205 F 
ATOM     85  C   UNL A   1      51.708  26.152  25.039  1.00  0.00     0.022 A 
BRANCH  83  86
ATOM     86  S   UNL A   1      51.354  27.326  22.588  1.00  0.00     0.127 S 
ATOM     87  O   UNL A   1      51.128  28.775  22.543  1.00  0.00    -0.237 OA
ATOM     88  O   UNL A   1      52.769  26.932  22.611  1.00  0.00    -0.237 OA
ATOM     89  O   UNL A   1      50.523  26.529  21.716  1.00  0.00    -0.744 OA
ENDBRANCH  83  86
ENDBRANCH  55  79
BRANCH  67  90
ATOM     90  C   UNL A   1      46.393  32.590  28.901  1.00  0.00     0.023 A 
ATOM     91  C   UNL A   1      47.041  32.805  30.134  1.00  0.00     0.012 A 
ATOM     92  C   UNL A   1      46.349  33.633  27.953  1.00  0.00     0.148 A 
ATOM     93  C   UNL A   1      47.604  34.044  30.432  1.00  0.00     0.002 A 
ATOM     94  C   UNL A   1      46.958  34.848  28.236  1.00  0.00     0.091 A 
ATOM     95  F   UNL A   1      45.712  33.413  26.792  1.00  0.00    -0.205 F 
ATOM     96  C   UNL A   1      47.575  35.060  29.480  1.00  0.00     0.022 A 
BRANCH  94  97
ATOM     97  S   UNL A   1      47.055  36.178  27.033  1.00  0.00     0.127 S 
ATOM     98  O   UNL A   1      48.207  36.937  27.521  1.00  0.00    -0.237 OA
ATOM     99  O   UNL A   1      47.288  35.452  25.785  1.00  0.00    -0.237 OA
ATOM    100  O   UNL A   1      45.777  36.873  27.098  1.00  0.00    -0.744 OA
ENDBRANCH  94  97
ENDBRANCH  67  90
ENDBRANCH  41  42
ENDBRANCH  33  36
ENDBRANCH  31  32
ENDBRANCH  30  31
ENDBRANCH   1  30
TORSDOF 19
ENDMDL
MODEL 3
REMARK VINA RESULT:     -10.9      2.641      8.010
REMARK SMILES C[NH2+][C@]1(C(=O)NCCCCCCNC(=O)c2ccc(-c3c4nc(c(-c5cccc(S(=O)(=O)[O-])c5F)c5ccc([nH]5)c(-c5cccc(S(=O)(=O)[O-])c5F)c5nc(c(-c6cccc(S(=O)(=O)[O-])c6F)c6ccc3[nH]6)C=C5)C=C4)cc2)CCC[C@H]([NH+]2CCC[C@@H]2C2CCCC2)C1
REMARK SMILES IDX 10 1 9 2 8 3 7 4 6 5 4 6 5 7 3 9 79 10 93 11 80 12 82 13
REMARK SMILES IDX 81 14 2 15 1 16 83 19 84 20 87 21 85 23 86 24 88 25 89 26
REMARK SMILES IDX 92 27 90 28 91 29 11 30 12 31 13 32 14 33 15 35 16 36 17 37
REMARK SMILES IDX 78 38 18 39 77 40 19 41 20 42 21 43 71 44 22 45 76 46 70 47
REMARK SMILES IDX 72 48 23 49 75 50 69 51 68 52 24 54 56 55 36 56 55 57 37 58
REMARK SMILES IDX 40 59 54 60 73 61 38 62 39 63 53 65 74 66 41 67 25 68 26 69
REMARK SMILES IDX 34 70 27 71 29 72 35 73 28 74 30 75 31 76 32 77 33 78 57 79
REMARK SMILES IDX 58 80 66 81 59 82 61 83 67 84 60 85 62 86 63 87 64 88 65 89
REMARK SMILES IDX 42 90 43 91 51 92 44 93 46 94 52 95 45 96 47 97 48 98 49 99
REMARK SMILES IDX 50 100
REMARK H PARENT 6 8 2 17 2 18 83 22 13 34 72 53 40 64
REMARK Flexibility Score: inf
ROOT
ATOM      1  C   UNL A   1      36.630  20.922  24.463  1.00  0.00     0.002 C 
ENDROOT
BRANCH   1   2
ATOM      2  C   UNL A   1      35.315  20.964  25.251  1.00  0.00     0.002 C 
BRANCH   2   3
ATOM      3  C   UNL A   1      34.360  19.799  24.969  1.00  0.00     0.021 C 
BRANCH   3   4
ATOM      4  C   UNL A   1      33.026  20.239  24.346  1.00  0.00     0.116 C 
BRANCH   4   5
ATOM      5  N   UNL A   1      32.080  20.783  25.313  1.00  0.00    -0.351 N 
ATOM      6  C   UNL A   1      31.460  21.987  25.476  1.00  0.00     0.281 C 
ATOM      7  O   UNL A   1      30.419  21.931  26.156  1.00  0.00    -0.268 OA
ATOM      8  H   UNL A   1      31.831  20.132  26.007  1.00  0.00     0.163 HD
BRANCH   6   9
ATOM      9  C   UNL A   1      32.009  23.399  24.999  1.00  0.00     0.181 C 
ATOM     10  C   UNL A   1      32.865  24.141  26.088  1.00  0.00     0.079 C 
ATOM     11  C   UNL A   1      32.917  23.249  23.769  1.00  0.00     0.144 C 
ATOM     12  C   UNL A   1      34.119  24.985  25.759  1.00  0.00     0.013 C 
ATOM     13  C   UNL A   1      33.713  24.542  23.407  1.00  0.00     0.191 C 
ATOM     14  C   UNL A   1      34.804  24.627  24.469  1.00  0.00     0.065 C 
BRANCH   9  15
ATOM     15  N   UNL A   1      30.853  24.106  24.348  1.00  0.00    -0.336 N 
ATOM     16  C   UNL A   1      30.021  25.000  25.126  1.00  0.00     0.331 C 
ATOM     17  H   UNL A   1      31.239  24.656  23.580  1.00  0.00     0.346 HD
ATOM     18  H   UNL A   1      30.218  23.346  24.108  1.00  0.00     0.346 HD
ENDBRANCH   9  15
BRANCH  13  19
ATOM     19  N   UNL A   1      33.187  25.907  23.173  1.00  0.00    -0.330 N 
ATOM     20  C   UNL A   1      33.363  26.360  21.797  1.00  0.00     0.262 C 
ATOM     21  C   UNL A   1      32.539  26.995  23.974  1.00  0.00     0.187 C 
ATOM     22  H   UNL A   1      33.030  25.485  24.089  1.00  0.00     0.348 HD
ATOM     23  C   UNL A   1      33.683  27.818  21.985  1.00  0.00     0.067 C 
ATOM     24  C   UNL A   1      32.715  28.239  23.069  1.00  0.00     0.071 C 
BRANCH  21  25
ATOM     25  C   UNL A   1      32.761  27.438  25.475  1.00  0.00     0.047 C 
ATOM     26  C   UNL A   1      33.762  28.505  25.975  1.00  0.00     0.010 C 
ATOM     27  C   UNL A   1      31.497  28.006  26.165  1.00  0.00     0.010 C 
ATOM     28  C   UNL A   1      33.460  28.563  27.482  1.00  0.00     0.001 C 
ATOM     29  C   UNL A   1      31.972  28.238  27.605  1.00  0.00     0.001 C 
ENDBRANCH  21  25
ENDBRANCH  13  19
ENDBRANCH   6   9
ENDBRANCH   4   5
ENDBRANCH   3   4
ENDBRANCH   2   3
ENDBRANCH   1   2
BRANCH   1  30
ATOM     30  C   UNL A   1      37.652  19.901  24.970  1.00  0.00     0.021 C 
BRANCH  30  31
ATOM     31  C   UNL A   1      38.754  20.514  25.829  1.00  0.00     0.116 C 
BRANCH  31  32
ATOM     32  N   UNL A   1      39.806  19.539  26.093  1.00  0.00    -0.352 N 
ATOM     33  C   UNL A   1      41.156  19.741  26.203  1.00  0.00     0.251 C 
ATOM     34  H   UNL A   1      39.504  18.609  26.207  1.00  0.00     0.163 HD
ATOM     35  O   UNL A   1      41.934  18.795  26.079  1.00  0.00    -0.269 OA
BRANCH  33  36
ATOM     36  C   UNL A   1      41.666  21.094  26.493  1.00  0.00     0.039 A 
ATOM     37  C   UNL A   1      41.720  22.044  25.471  1.00  0.00     0.014 A 
ATOM     38  C   UNL A   1      42.119  21.408  27.778  1.00  0.00     0.014 A 
ATOM     39  C   UNL A   1      42.197  23.326  25.750  1.00  0.00     0.010 A 
ATOM     40  C   UNL A   1      42.521  22.705  28.071  1.00  0.00     0.010 A 
ATOM     41  C   UNL A   1      42.582  23.670  27.056  1.00  0.00    -0.014 A 
BRANCH  41  42
ATOM     42  C   UNL A   1      43.058  25.035  27.386  1.00  0.00     0.031 A 
ATOM     43  C   UNL A   1      42.131  26.018  28.047  1.00  0.00     0.074 A 
ATOM     44  C   UNL A   1      44.292  25.414  27.004  1.00  0.00     0.049 A 
ATOM     45  N   UNL A   1      42.344  27.269  28.359  1.00  0.00    -0.248 NA
ATOM     46  C   UNL A   1      40.775  25.543  28.375  1.00  0.00     0.031 C 
ATOM     47  C   UNL A   1      45.248  24.575  26.278  1.00  0.00     0.029 A 
ATOM     48  N   UNL A   1      44.944  26.613  27.146  1.00  0.00    -0.354 N 
ATOM     49  C   UNL A   1      41.145  27.741  28.879  1.00  0.00     0.074 A 
ATOM     50  C   UNL A   1      40.196  26.651  28.811  1.00  0.00     0.031 C 
ATOM     51  C   UNL A   1      46.364  25.284  26.040  1.00  0.00     0.029 A 
ATOM     52  C   UNL A   1      46.192  26.633  26.570  1.00  0.00     0.049 A 
ATOM     53  H   UNL A   1      44.555  27.386  27.617  1.00  0.00     0.167 HD
ATOM     54  C   UNL A   1      40.866  28.962  29.392  1.00  0.00     0.034 A 
ATOM     55  C   UNL A   1      47.093  27.630  26.470  1.00  0.00     0.034 A 
ATOM     56  C   UNL A   1      41.829  30.024  29.498  1.00  0.00     0.049 A 
ATOM     57  C   UNL A   1      46.779  28.960  27.099  1.00  0.00     0.074 A 
ATOM     58  C   UNL A   1      41.679  31.264  30.094  1.00  0.00     0.029 A 
ATOM     59  N   UNL A   1      43.117  29.977  28.991  1.00  0.00    -0.354 N 
ATOM     60  N   UNL A   1      45.696  29.334  27.738  1.00  0.00    -0.248 NA
ATOM     61  C   UNL A   1      47.822  29.991  27.028  1.00  0.00     0.031 C 
ATOM     62  C   UNL A   1      42.870  31.977  29.922  1.00  0.00     0.029 A 
ATOM     63  C   UNL A   1      43.772  31.169  29.247  1.00  0.00     0.049 A 
ATOM     64  H   UNL A   1      43.510  29.209  28.516  1.00  0.00     0.167 HD
ATOM     65  C   UNL A   1      45.942  30.631  28.174  1.00  0.00     0.074 A 
ATOM     66  C   UNL A   1      47.283  30.968  27.746  1.00  0.00     0.031 C 
ATOM     67  C   UNL A   1      45.125  31.471  28.857  1.00  0.00     0.034 A 
BRANCH  54  68
ATOM     68  C   UNL A   1      39.478  29.201  29.925  1.00  0.00     0.023 A 
ATOM     69  C   UNL A   1      39.095  28.631  31.156  1.00  0.00     0.012 A 
ATOM     70  C   UNL A   1      38.573  30.036  29.241  1.00  0.00     0.148 A 
ATOM     71  C   UNL A   1      37.823  28.858  31.681  1.00  0.00     0.002 A 
ATOM     72  C   UNL A   1      37.324  30.297  29.794  1.00  0.00     0.091 A 
ATOM     73  F   UNL A   1      38.946  30.552  28.061  1.00  0.00    -0.205 F 
ATOM     74  C   UNL A   1      36.943  29.700  31.007  1.00  0.00     0.022 A 
BRANCH  72  75
ATOM     75  S   UNL A   1      36.151  31.431  29.042  1.00  0.00     0.127 S 
ATOM     76  O   UNL A   1      36.957  32.646  28.911  1.00  0.00    -0.237 OA
ATOM     77  O   UNL A   1      35.848  30.763  27.776  1.00  0.00    -0.237 OA
ATOM     78  O   UNL A   1      35.030  31.522  29.965  1.00  0.00    -0.744 OA
ENDBRANCH  72  75
ENDBRANCH  54  68
BRANCH  55  79
ATOM     79  C   UNL A   1      48.402  27.381  25.805  1.00  0.00     0.023 A 
ATOM     80  C   UNL A   1      49.495  26.934  26.574  1.00  0.00     0.012 A 
ATOM     81  C   UNL A   1      48.560  27.544  24.416  1.00  0.00     0.148 A 
ATOM     82  C   UNL A   1      50.730  26.686  25.975  1.00  0.00     0.002 A 
ATOM     83  C   UNL A   1      49.778  27.240  23.817  1.00  0.00     0.091 A 
ATOM     84  F   UNL A   1      47.510  27.977  23.704  1.00  0.00    -0.205 F 
ATOM     85  C   UNL A   1      50.869  26.829  24.597  1.00  0.00     0.022 A 
BRANCH  83  86
ATOM     86  S   UNL A   1      49.999  27.265  22.034  1.00  0.00     0.127 S 
ATOM     87  O   UNL A   1      51.386  26.807  21.902  1.00  0.00    -0.237 OA
ATOM     88  O   UNL A   1      48.991  26.290  21.596  1.00  0.00    -0.237 OA
ATOM     89  O   UNL A   1      49.738  28.623  21.619  1.00  0.00    -0.744 OA
ENDBRANCH  83  86
ENDBRANCH  55  79
BRANCH  67  90
ATOM     90  C   UNL A   1      45.665  32.830  29.218  1.00  0.00     0.023 A 
ATOM     91  C   UNL A   1      46.374  33.007  30.423  1.00  0.00     0.012 A 
ATOM     92  C   UNL A   1      45.540  33.912  28.323  1.00  0.00     0.148 A 
ATOM     93  C   UNL A   1      46.919  34.248  30.747  1.00  0.00     0.002 A 
ATOM     94  C   UNL A   1      46.130  35.131  28.630  1.00  0.00     0.091 A 
ATOM     95  F   UNL A   1      44.846  33.727  27.190  1.00  0.00    -0.205 F 
ATOM     96  C   UNL A   1      46.809  35.305  29.847  1.00  0.00     0.022 A 
BRANCH  94  97
ATOM     97  S   UNL A   1      46.124  36.517  27.487  1.00  0.00     0.127 S 
ATOM     98  O   UNL A   1      46.953  37.491  28.196  1.00  0.00    -0.237 OA
ATOM     99  O   UNL A   1      46.745  35.940  26.296  1.00  0.00    -0.237 OA
ATOM    100  O   UNL A   1      44.727  36.891  27.318  1.00  0.00    -0.744 OA
ENDBRANCH  94  97
ENDBRANCH  67  90
ENDBRANCH  41  42
ENDBRANCH  33  36
ENDBRANCH  31  32
ENDBRANCH  30  31
ENDBRANCH   1  30
TORSDOF 19
ENDMDL
