MODEL 1
REMARK VINA RESULT:     -11.6      0.000      0.000
REMARK SMILES CO[C@@H]1C[C@H](C(=O)NCCCCCCNC(=O)c2ccc(-c3c4nc(c(-c5cccc(S(=O)(=O)[O-])c5F)c5ccc([nH]5)c(-c5cccc(S(=O)(=O)[O-])c5F)c5nc(c(-c6cccc(S(=O)(=O)[O-])c6F)c6ccc3[nH]6)C=C5)C=C4)cc2)N(C(=O)c2ccc([N+](=O)[O-])s2)C1
REMARK SMILES IDX 11 1 10 2 9 3 8 4 6 5 7 6 5 8 3 9 4 10 92 11 81 12 2 13 1 14
REMARK SMILES IDX 82 15 83 16 84 17 85 18 91 19 86 20 87 21 88 22 89 23 90 24
REMARK SMILES IDX 12 25 13 26 14 27 15 28 16 29 17 31 18 32 19 33 80 34 20 35
REMARK SMILES IDX 79 36 21 37 22 38 23 39 73 40 24 41 78 42 72 43 74 44 25 45
REMARK SMILES IDX 77 46 71 47 70 48 26 50 58 51 38 52 57 53 39 54 42 55 56 56
REMARK SMILES IDX 75 57 40 58 41 59 55 61 76 62 43 63 27 64 28 65 36 66 29 67
REMARK SMILES IDX 31 68 37 69 30 70 32 71 33 72 34 73 35 74 59 75 60 76 68 77
REMARK SMILES IDX 61 78 63 79 69 80 62 81 64 82 65 83 66 84 67 85 44 86 45 87
REMARK SMILES IDX 53 88 46 89 48 90 54 91 47 92 49 93 50 94 51 95 52 96
REMARK H PARENT 8 7 15 30 74 49 42 60
REMARK Flexibility Score: inf
ROOT
ATOM      1  C   UNL A   1      32.237  29.674  26.968  1.00  0.00     0.002 C 
ENDROOT
BRANCH   1   2
ATOM      2  C   UNL A   1      33.723  29.340  26.785  1.00  0.00     0.021 C 
BRANCH   2   3
ATOM      3  C   UNL A   1      34.004  27.937  26.242  1.00  0.00     0.116 C 
BRANCH   3   4
ATOM      4  N   UNL A   1      32.978  26.991  26.643  1.00  0.00    -0.354 N 
ATOM      5  C   UNL A   1      32.615  25.780  26.147  1.00  0.00     0.242 C 
ATOM      6  O   UNL A   1      31.606  25.264  26.649  1.00  0.00    -0.273 OA
ATOM      7  H   UNL A   1      32.447  27.283  27.419  1.00  0.00     0.163 HD
BRANCH   5   8
ATOM      8  C   UNL A   1      33.282  25.081  24.937  1.00  0.00     0.177 C 
ATOM      9  C   UNL A   1      32.959  22.716  24.356  1.00  0.00     0.139 C 
ATOM     10  C   UNL A   1      33.764  23.667  25.247  1.00  0.00     0.069 C 
ATOM     11  C   UNL A   1      32.251  23.603  23.325  1.00  0.00     0.152 C 
ATOM     12  N   UNL A   1      32.502  24.981  23.713  1.00  0.00    -0.323 N 
BRANCH   9  13
ATOM     13  O   UNL A   1      32.006  21.979  25.121  1.00  0.00    -0.380 OA
ATOM     14  C   UNL A   1      32.310  20.590  25.205  1.00  0.00     0.195 C 
ENDBRANCH   9  13
BRANCH  12  15
ATOM     15  C   UNL A   1      32.160  26.011  22.848  1.00  0.00     0.264 C 
ATOM     16  O   UNL A   1      32.979  26.457  22.045  1.00  0.00    -0.268 OA
BRANCH  15  17
ATOM     17  C   UNL A   1      30.846  26.614  23.006  1.00  0.00     0.099 A 
ATOM     18  C   UNL A   1      29.742  26.096  23.663  1.00  0.00     0.033 A 
ATOM     19  S   UNL A   1      30.563  28.219  22.477  1.00  0.00    -0.058 S 
ATOM     20  C   UNL A   1      28.648  27.007  23.693  1.00  0.00     0.099 A 
ATOM     21  C   UNL A   1      28.975  28.201  23.088  1.00  0.00     0.324 A 
BRANCH  21  22
ATOM     22  N   UNL A   1      28.121  29.354  22.968  1.00  0.00     0.074 N 
ATOM     23  O   UNL A   1      28.632  30.361  22.456  1.00  0.00    -0.258 OA
ATOM     24  O   UNL A   1      26.954  29.273  23.372  1.00  0.00    -0.258 OA
ENDBRANCH  21  22
ENDBRANCH  15  17
ENDBRANCH  12  15
ENDBRANCH   5   8
ENDBRANCH   3   4
ENDBRANCH   2   3
ENDBRANCH   1   2
BRANCH   1  25
ATOM     25  C   UNL A   1      31.696  30.808  26.086  1.00  0.00     0.002 C 
BRANCH  25  26
ATOM     26  C   UNL A   1      31.436  32.146  26.788  1.00  0.00     0.021 C 
BRANCH  26  27
ATOM     27  C   UNL A   1      32.649  32.792  27.457  1.00  0.00     0.116 C 
BRANCH  27  28
ATOM     28  N   UNL A   1      32.426  34.193  27.781  1.00  0.00    -0.352 N 
ATOM     29  C   UNL A   1      33.057  34.995  28.701  1.00  0.00     0.251 C 
ATOM     30  H   UNL A   1      31.715  34.634  27.262  1.00  0.00     0.163 HD
ATOM     31  O   UNL A   1      32.614  36.116  28.938  1.00  0.00    -0.269 OA
BRANCH  29  32
ATOM     32  C   UNL A   1      34.256  34.514  29.424  1.00  0.00     0.039 A 
ATOM     33  C   UNL A   1      34.098  33.961  30.701  1.00  0.00     0.014 A 
ATOM     34  C   UNL A   1      35.532  34.627  28.866  1.00  0.00     0.014 A 
ATOM     35  C   UNL A   1      35.207  33.454  31.383  1.00  0.00     0.010 A 
ATOM     36  C   UNL A   1      36.632  34.081  29.529  1.00  0.00     0.010 A 
ATOM     37  C   UNL A   1      36.478  33.481  30.789  1.00  0.00    -0.014 A 
BRANCH  37  38
ATOM     38  C   UNL A   1      37.650  32.840  31.437  1.00  0.00     0.031 A 
ATOM     39  C   UNL A   1      38.328  31.660  30.802  1.00  0.00     0.074 A 
ATOM     40  C   UNL A   1      38.031  33.253  32.661  1.00  0.00     0.049 A 
ATOM     41  N   UNL A   1      39.299  30.919  31.269  1.00  0.00    -0.248 NA
ATOM     42  C   UNL A   1      37.837  31.244  29.478  1.00  0.00     0.031 C 
ATOM     43  C   UNL A   1      37.400  34.335  33.420  1.00  0.00     0.029 A 
ATOM     44  N   UNL A   1      39.010  32.784  33.502  1.00  0.00    -0.354 N 
ATOM     45  C   UNL A   1      39.517  29.931  30.317  1.00  0.00     0.074 A 
ATOM     46  C   UNL A   1      38.563  30.157  29.251  1.00  0.00     0.031 C 
ATOM     47  C   UNL A   1      37.991  34.431  34.621  1.00  0.00     0.029 A 
ATOM     48  C   UNL A   1      39.030  33.410  34.726  1.00  0.00     0.049 A 
ATOM     49  H   UNL A   1      39.637  32.068  33.252  1.00  0.00     0.167 HD
ATOM     50  C   UNL A   1      40.444  28.945  30.316  1.00  0.00     0.034 A 
ATOM     51  C   UNL A   1      39.787  33.181  35.817  1.00  0.00     0.034 A 
ATOM     52  C   UNL A   1      41.428  28.754  31.346  1.00  0.00     0.049 A 
ATOM     53  C   UNL A   1      40.840  32.110  35.772  1.00  0.00     0.074 A 
ATOM     54  C   UNL A   1      42.478  27.851  31.378  1.00  0.00     0.029 A 
ATOM     55  N   UNL A   1      41.483  29.472  32.530  1.00  0.00    -0.354 N 
ATOM     56  N   UNL A   1      41.146  31.299  34.790  1.00  0.00    -0.248 NA
ATOM     57  C   UNL A   1      41.673  31.942  36.972  1.00  0.00     0.031 C 
ATOM     58  C   UNL A   1      43.168  28.025  32.584  1.00  0.00     0.029 A 
ATOM     59  C   UNL A   1      42.543  29.030  33.305  1.00  0.00     0.049 A 
ATOM     60  H   UNL A   1      40.861  30.191  32.784  1.00  0.00     0.167 HD
ATOM     61  C   UNL A   1      42.216  30.537  35.243  1.00  0.00     0.074 A 
ATOM     62  C   UNL A   1      42.521  31.000  36.582  1.00  0.00     0.031 C 
ATOM     63  C   UNL A   1      42.869  29.529  34.616  1.00  0.00     0.034 A 
BRANCH  50  64
ATOM     64  C   UNL A   1      40.491  28.043  29.114  1.00  0.00     0.023 A 
ATOM     65  C   UNL A   1      39.556  26.992  29.014  1.00  0.00     0.012 A 
ATOM     66  C   UNL A   1      41.412  28.253  28.071  1.00  0.00     0.148 A 
ATOM     67  C   UNL A   1      39.553  26.149  27.904  1.00  0.00     0.002 A 
ATOM     68  C   UNL A   1      41.383  27.423  26.953  1.00  0.00     0.091 A 
ATOM     69  F   UNL A   1      42.315  29.235  28.196  1.00  0.00    -0.205 F 
ATOM     70  C   UNL A   1      40.459  26.370  26.871  1.00  0.00     0.022 A 
BRANCH  68  71
ATOM     71  S   UNL A   1      42.490  27.686  25.562  1.00  0.00     0.127 S 
ATOM     72  O   UNL A   1      42.000  28.953  25.025  1.00  0.00    -0.237 OA
ATOM     73  O   UNL A   1      43.803  27.764  26.206  1.00  0.00    -0.237 OA
ATOM     74  O   UNL A   1      42.313  26.518  24.709  1.00  0.00    -0.744 OA
ENDBRANCH  68  71
ENDBRANCH  50  64
BRANCH  51  75
ATOM     75  C   UNL A   1      39.609  34.040  37.019  1.00  0.00     0.023 A 
ATOM     76  C   UNL A   1      39.976  35.397  36.954  1.00  0.00     0.012 A 
ATOM     77  C   UNL A   1      39.015  33.541  38.194  1.00  0.00     0.148 A 
ATOM     78  C   UNL A   1      39.763  36.242  38.044  1.00  0.00     0.002 A 
ATOM     79  C   UNL A   1      38.763  34.399  39.259  1.00  0.00     0.091 A 
ATOM     80  F   UNL A   1      38.695  32.240  38.245  1.00  0.00    -0.205 F 
ATOM     81  C   UNL A   1      39.145  35.748  39.190  1.00  0.00     0.022 A 
BRANCH  79  82
ATOM     82  S   UNL A   1      37.848  33.859  40.707  1.00  0.00     0.127 S 
ATOM     83  O   UNL A   1      38.802  32.959  41.348  1.00  0.00    -0.237 OA
ATOM     84  O   UNL A   1      37.615  35.118  41.417  1.00  0.00    -0.237 OA
ATOM     85  O   UNL A   1      36.636  33.244  40.180  1.00  0.00    -0.744 OA
ENDBRANCH  79  82
ENDBRANCH  51  75
BRANCH  63  86
ATOM     86  C   UNL A   1      43.979  28.846  35.366  1.00  0.00     0.023 A 
ATOM     87  C   UNL A   1      45.285  29.364  35.277  1.00  0.00     0.012 A 
ATOM     88  C   UNL A   1      43.723  27.752  36.215  1.00  0.00     0.148 A 
ATOM     89  C   UNL A   1      46.325  28.794  36.010  1.00  0.00     0.002 A 
ATOM     90  C   UNL A   1      44.759  27.208  36.967  1.00  0.00     0.091 A 
ATOM     91  F   UNL A   1      42.479  27.255  36.266  1.00  0.00    -0.205 F 
ATOM     92  C   UNL A   1      46.061  27.726  36.863  1.00  0.00     0.022 A 
BRANCH  90  93
ATOM     93  S   UNL A   1      44.482  25.881  38.146  1.00  0.00     0.127 S 
ATOM     94  O   UNL A   1      43.898  26.601  39.277  1.00  0.00    -0.237 OA
ATOM     95  O   UNL A   1      43.548  25.009  37.431  1.00  0.00    -0.237 OA
ATOM     96  O   UNL A   1      45.791  25.288  38.381  1.00  0.00    -0.744 OA
ENDBRANCH  90  93
ENDBRANCH  63  86
ENDBRANCH  37  38
ENDBRANCH  29  32
ENDBRANCH  27  28
ENDBRANCH  26  27
ENDBRANCH  25  26
ENDBRANCH   1  25
TORSDOF 20
ENDMDL
MODEL 2
REMARK VINA RESULT:     -11.6      5.570      8.655
REMARK SMILES CO[C@@H]1C[C@H](C(=O)NCCCCCCNC(=O)c2ccc(-c3c4nc(c(-c5cccc(S(=O)(=O)[O-])c5F)c5ccc([nH]5)c(-c5cccc(S(=O)(=O)[O-])c5F)c5nc(c(-c6cccc(S(=O)(=O)[O-])c6F)c6ccc3[nH]6)C=C5)C=C4)cc2)N(C(=O)c2ccc([N+](=O)[O-])s2)C1
REMARK SMILES IDX 11 1 10 2 9 3 8 4 6 5 7 6 5 8 3 9 4 10 92 11 81 12 2 13 1 14
REMARK SMILES IDX 82 15 83 16 84 17 85 18 91 19 86 20 87 21 88 22 89 23 90 24
REMARK SMILES IDX 12 25 13 26 14 27 15 28 16 29 17 31 18 32 19 33 80 34 20 35
REMARK SMILES IDX 79 36 21 37 22 38 23 39 73 40 24 41 78 42 72 43 74 44 25 45
REMARK SMILES IDX 77 46 71 47 70 48 26 50 58 51 38 52 57 53 39 54 42 55 56 56
REMARK SMILES IDX 75 57 40 58 41 59 55 61 76 62 43 63 27 64 28 65 36 66 29 67
REMARK SMILES IDX 31 68 37 69 30 70 32 71 33 72 34 73 35 74 59 75 60 76 68 77
REMARK SMILES IDX 61 78 63 79 69 80 62 81 64 82 65 83 66 84 67 85 44 86 45 87
REMARK SMILES IDX 53 88 46 89 48 90 54 91 47 92 49 93 50 94 51 95 52 96
REMARK H PARENT 8 7 15 30 74 49 42 60
REMARK Flexibility Score: inf
ROOT
ATOM      1  C   UNL A   1      34.729  23.589  24.141  1.00  0.00     0.002 C 
ENDROOT
BRANCH   1   2
ATOM      2  C   UNL A   1      34.735  24.955  24.837  1.00  0.00     0.021 C 
BRANCH   2   3
ATOM      3  C   UNL A   1      33.492  25.812  24.584  1.00  0.00     0.116 C 
BRANCH   3   4
ATOM      4  N   UNL A   1      32.383  25.408  25.430  1.00  0.00    -0.354 N 
ATOM      5  C   UNL A   1      31.306  26.088  25.902  1.00  0.00     0.242 C 
ATOM      6  O   UNL A   1      30.587  25.481  26.708  1.00  0.00    -0.273 OA
ATOM      7  H   UNL A   1      32.418  24.466  25.714  1.00  0.00     0.163 HD
BRANCH   5   8
ATOM      8  C   UNL A   1      31.000  27.578  25.610  1.00  0.00     0.177 C 
ATOM      9  C   UNL A   1      32.686  29.365  25.632  1.00  0.00     0.139 C 
ATOM     10  C   UNL A   1      31.754  28.540  26.524  1.00  0.00     0.069 C 
ATOM     11  C   UNL A   1      32.237  29.095  24.192  1.00  0.00     0.152 C 
ATOM     12  N   UNL A   1      31.228  28.051  24.253  1.00  0.00    -0.323 N 
BRANCH   9  13
ATOM     13  O   UNL A   1      34.047  28.978  25.815  1.00  0.00    -0.380 OA
ATOM     14  C   UNL A   1      34.311  28.455  27.113  1.00  0.00     0.195 C 
ENDBRANCH   9  13
BRANCH  12  15
ATOM     15  C   UNL A   1      30.488  27.743  23.120  1.00  0.00     0.264 C 
ATOM     16  O   UNL A   1      30.770  26.761  22.433  1.00  0.00    -0.268 OA
BRANCH  15  17
ATOM     17  C   UNL A   1      29.451  28.679  22.717  1.00  0.00     0.099 A 
ATOM     18  C   UNL A   1      28.126  28.711  23.120  1.00  0.00     0.033 A 
ATOM     19  S   UNL A   1      29.841  30.031  21.740  1.00  0.00    -0.058 S 
ATOM     20  C   UNL A   1      27.421  29.828  22.588  1.00  0.00     0.099 A 
ATOM     21  C   UNL A   1      28.249  30.626  21.828  1.00  0.00     0.324 A 
BRANCH  21  22
ATOM     22  N   UNL A   1      27.877  31.851  21.170  1.00  0.00     0.074 N 
ATOM     23  O   UNL A   1      27.939  32.881  21.857  1.00  0.00    -0.258 OA
ATOM     24  O   UNL A   1      27.528  31.805  19.983  1.00  0.00    -0.258 OA
ENDBRANCH  21  22
ENDBRANCH  15  17
ENDBRANCH  12  15
ENDBRANCH   5   8
ENDBRANCH   3   4
ENDBRANCH   2   3
ENDBRANCH   1   2
BRANCH   1  25
ATOM     25  C   UNL A   1      36.048  23.174  23.476  1.00  0.00     0.002 C 
BRANCH  25  26
ATOM     26  C   UNL A   1      36.639  21.832  23.924  1.00  0.00     0.021 C 
BRANCH  26  27
ATOM     27  C   UNL A   1      36.903  21.689  25.422  1.00  0.00     0.116 C 
BRANCH  27  28
ATOM     28  N   UNL A   1      37.951  20.723  25.714  1.00  0.00    -0.352 N 
ATOM     29  C   UNL A   1      39.240  20.926  26.147  1.00  0.00     0.251 C 
ATOM     30  H   UNL A   1      37.700  19.780  25.581  1.00  0.00     0.163 HD
ATOM     31  O   UNL A   1      40.027  19.983  26.183  1.00  0.00    -0.269 OA
BRANCH  29  32
ATOM     32  C   UNL A   1      39.695  22.275  26.552  1.00  0.00     0.039 A 
ATOM     33  C   UNL A   1      40.710  22.385  27.510  1.00  0.00     0.014 A 
ATOM     34  C   UNL A   1      39.114  23.427  26.016  1.00  0.00     0.014 A 
ATOM     35  C   UNL A   1      41.192  23.647  27.872  1.00  0.00     0.010 A 
ATOM     36  C   UNL A   1      39.625  24.682  26.346  1.00  0.00     0.010 A 
ATOM     37  C   UNL A   1      40.676  24.803  27.269  1.00  0.00    -0.014 A 
BRANCH  37  38
ATOM     38  C   UNL A   1      41.252  26.143  27.544  1.00  0.00     0.031 A 
ATOM     39  C   UNL A   1      42.672  26.459  27.170  1.00  0.00     0.074 A 
ATOM     40  C   UNL A   1      40.527  27.041  28.239  1.00  0.00     0.049 A 
ATOM     41  N   UNL A   1      43.368  27.538  27.418  1.00  0.00    -0.248 NA
ATOM     42  C   UNL A   1      43.414  25.418  26.440  1.00  0.00     0.031 C 
ATOM     43  C   UNL A   1      39.165  26.823  28.732  1.00  0.00     0.029 A 
ATOM     44  N   UNL A   1      40.848  28.297  28.690  1.00  0.00    -0.354 N 
ATOM     45  C   UNL A   1      44.637  27.299  26.906  1.00  0.00     0.074 A 
ATOM     46  C   UNL A   1      44.620  25.963  26.348  1.00  0.00     0.031 C 
ATOM     47  C   UNL A   1      38.777  27.899  29.436  1.00  0.00     0.029 A 
ATOM     48  C   UNL A   1      39.865  28.873  29.460  1.00  0.00     0.049 A 
ATOM     49  H   UNL A   1      41.701  28.743  28.483  1.00  0.00     0.167 HD
ATOM     50  C   UNL A   1      45.709  28.126  26.877  1.00  0.00     0.034 A 
ATOM     51  C   UNL A   1      39.842  30.045  30.123  1.00  0.00     0.034 A 
ATOM     52  C   UNL A   1      45.710  29.472  27.380  1.00  0.00     0.049 A 
ATOM     53  C   UNL A   1      41.028  30.964  30.036  1.00  0.00     0.074 A 
ATOM     54  C   UNL A   1      46.713  30.423  27.295  1.00  0.00     0.029 A 
ATOM     55  N   UNL A   1      44.660  30.061  28.067  1.00  0.00    -0.354 N 
ATOM     56  N   UNL A   1      42.158  30.789  29.397  1.00  0.00    -0.248 NA
ATOM     57  C   UNL A   1      40.926  32.254  30.735  1.00  0.00     0.031 C 
ATOM     58  C   UNL A   1      46.269  31.587  27.932  1.00  0.00     0.029 A 
ATOM     59  C   UNL A   1      44.992  31.359  28.420  1.00  0.00     0.049 A 
ATOM     60  H   UNL A   1      43.804  29.621  28.274  1.00  0.00     0.167 HD
ATOM     61  C   UNL A   1      42.895  31.950  29.600  1.00  0.00     0.074 A 
ATOM     62  C   UNL A   1      42.073  32.832  30.402  1.00  0.00     0.031 C 
ATOM     63  C   UNL A   1      44.149  32.246  29.178  1.00  0.00     0.034 A 
BRANCH  50  64
ATOM     64  C   UNL A   1      46.953  27.620  26.200  1.00  0.00     0.023 A 
ATOM     65  C   UNL A   1      47.869  26.849  26.945  1.00  0.00     0.012 A 
ATOM     66  C   UNL A   1      47.197  27.859  24.836  1.00  0.00     0.148 A 
ATOM     67  C   UNL A   1      49.021  26.343  26.347  1.00  0.00     0.002 A 
ATOM     68  C   UNL A   1      48.337  27.326  24.239  1.00  0.00     0.091 A 
ATOM     69  F   UNL A   1      46.334  28.620  24.149  1.00  0.00    -0.205 F 
ATOM     70  C   UNL A   1      49.251  26.574  24.993  1.00  0.00     0.022 A 
BRANCH  68  71
ATOM     71  S   UNL A   1      48.666  27.541  22.486  1.00  0.00     0.127 S 
ATOM     72  O   UNL A   1      48.672  26.161  22.010  1.00  0.00    -0.237 OA
ATOM     73  O   UNL A   1      47.519  28.334  22.038  1.00  0.00    -0.237 OA
ATOM     74  O   UNL A   1      49.939  28.246  22.420  1.00  0.00    -0.744 OA
ENDBRANCH  68  71
ENDBRANCH  50  64
BRANCH  51  75
ATOM     75  C   UNL A   1      38.618  30.435  30.872  1.00  0.00     0.023 A 
ATOM     76  C   UNL A   1      38.551  30.190  32.257  1.00  0.00     0.012 A 
ATOM     77  C   UNL A   1      37.555  31.108  30.239  1.00  0.00     0.148 A 
ATOM     78  C   UNL A   1      37.442  30.601  32.997  1.00  0.00     0.002 A 
ATOM     79  C   UNL A   1      36.475  31.557  30.991  1.00  0.00     0.091 A 
ATOM     80  F   UNL A   1      37.626  31.311  28.915  1.00  0.00    -0.205 F 
ATOM     81  C   UNL A   1      36.411  31.295  32.368  1.00  0.00     0.022 A 
BRANCH  79  82
ATOM     82  S   UNL A   1      35.183  32.575  30.270  1.00  0.00     0.127 S 
ATOM     83  O   UNL A   1      34.658  31.700  29.225  1.00  0.00    -0.237 OA
ATOM     84  O   UNL A   1      34.283  32.789  31.405  1.00  0.00    -0.237 OA
ATOM     85  O   UNL A   1      35.862  33.782  29.818  1.00  0.00    -0.744 OA
ENDBRANCH  79  82
ENDBRANCH  51  75
BRANCH  63  86
ATOM     86  C   UNL A   1      44.721  33.578  29.579  1.00  0.00     0.023 A 
ATOM     87  C   UNL A   1      45.484  33.667  30.758  1.00  0.00     0.012 A 
ATOM     88  C   UNL A   1      44.575  34.714  28.760  1.00  0.00     0.148 A 
ATOM     89  C   UNL A   1      46.083  34.871  31.126  1.00  0.00     0.002 A 
ATOM     90  C   UNL A   1      45.202  35.904  29.116  1.00  0.00     0.091 A 
ATOM     91  F   UNL A   1      43.822  34.617  27.654  1.00  0.00    -0.205 F 
ATOM     92  C   UNL A   1      45.952  35.985  30.301  1.00  0.00     0.022 A 
BRANCH  90  93
ATOM     93  S   UNL A   1      45.144  37.360  28.065  1.00  0.00     0.127 S 
ATOM     94  O   UNL A   1      43.714  37.669  28.060  1.00  0.00    -0.237 OA
ATOM     95  O   UNL A   1      45.972  38.318  28.800  1.00  0.00    -0.237 OA
ATOM     96  O   UNL A   1      45.705  36.942  26.788  1.00  0.00    -0.744 OA
ENDBRANCH  90  93
ENDBRANCH  63  86
ENDBRANCH  37  38
ENDBRANCH  29  32
ENDBRANCH  27  28
ENDBRANCH  26  27
ENDBRANCH  25  26
ENDBRANCH   1  25
TORSDOF 20
ENDMDL
MODEL 3
REMARK VINA RESULT:     -11.3      2.593      8.016
REMARK SMILES CO[C@@H]1C[C@H](C(=O)NCCCCCCNC(=O)c2ccc(-c3c4nc(c(-c5cccc(S(=O)(=O)[O-])c5F)c5ccc([nH]5)c(-c5cccc(S(=O)(=O)[O-])c5F)c5nc(c(-c6cccc(S(=O)(=O)[O-])c6F)c6ccc3[nH]6)C=C5)C=C4)cc2)N(C(=O)c2ccc([N+](=O)[O-])s2)C1
REMARK SMILES IDX 11 1 10 2 9 3 8 4 6 5 7 6 5 8 3 9 4 10 92 11 81 12 2 13 1 14
REMARK SMILES IDX 82 15 83 16 84 17 85 18 91 19 86 20 87 21 88 22 89 23 90 24
REMARK SMILES IDX 12 25 13 26 14 27 15 28 16 29 17 31 18 32 19 33 80 34 20 35
REMARK SMILES IDX 79 36 21 37 22 38 23 39 73 40 24 41 78 42 72 43 74 44 25 45
REMARK SMILES IDX 77 46 71 47 70 48 26 50 58 51 38 52 57 53 39 54 42 55 56 56
REMARK SMILES IDX 75 57 40 58 41 59 55 61 76 62 43 63 27 64 28 65 36 66 29 67
REMARK SMILES IDX 31 68 37 69 30 70 32 71 33 72 34 73 35 74 59 75 60 76 68 77
REMARK SMILES IDX 61 78 63 79 69 80 62 81 64 82 65 83 66 84 67 85 44 86 45 87
REMARK SMILES IDX 53 88 46 89 48 90 54 91 47 92 49 93 50 94 51 95 52 96
REMARK H PARENT 8 7 15 30 74 49 42 60
REMARK Flexibility Score: inf
ROOT
ATOM      1  C   UNL A   1      34.177  27.246  25.549  1.00  0.00     0.002 C 
ENDROOT
BRANCH   1   2
ATOM      2  C   UNL A   1      33.455  25.893  25.552  1.00  0.00     0.021 C 
BRANCH   2   3
ATOM      3  C   UNL A   1      34.351  24.686  25.842  1.00  0.00     0.116 C 
BRANCH   3   4
ATOM      4  N   UNL A   1      35.289  24.444  24.761  1.00  0.00    -0.354 N 
ATOM      5  C   UNL A   1      35.522  23.352  23.989  1.00  0.00     0.242 C 
ATOM      6  O   UNL A   1      36.487  23.426  23.215  1.00  0.00    -0.273 OA
ATOM      7  H   UNL A   1      35.863  25.216  24.549  1.00  0.00     0.163 HD
BRANCH   5   8
ATOM      8  C   UNL A   1      34.765  22.006  24.104  1.00  0.00     0.177 C 
ATOM      9  C   UNL A   1      33.974  21.042  26.221  1.00  0.00     0.139 C 
ATOM     10  C   UNL A   1      35.196  21.171  25.307  1.00  0.00     0.069 C 
ATOM     11  C   UNL A   1      32.778  21.529  25.395  1.00  0.00     0.152 C 
ATOM     12  N   UNL A   1      33.312  22.061  24.153  1.00  0.00    -0.323 N 
BRANCH   9  13
ATOM     13  O   UNL A   1      34.126  21.834  27.398  1.00  0.00    -0.380 OA
ATOM     14  C   UNL A   1      32.884  22.200  27.990  1.00  0.00     0.195 C 
ENDBRANCH   9  13
BRANCH  12  15
ATOM     15  C   UNL A   1      32.448  22.386  23.116  1.00  0.00     0.264 C 
ATOM     16  O   UNL A   1      32.005  21.513  22.370  1.00  0.00    -0.268 OA
BRANCH  15  17
ATOM     17  C   UNL A   1      32.181  23.795  22.878  1.00  0.00     0.099 A 
ATOM     18  C   UNL A   1      32.890  24.675  22.075  1.00  0.00     0.033 A 
ATOM     19  S   UNL A   1      30.762  24.523  23.503  1.00  0.00    -0.058 S 
ATOM     20  C   UNL A   1      32.284  25.962  22.011  1.00  0.00     0.099 A 
ATOM     21  C   UNL A   1      31.115  26.002  22.739  1.00  0.00     0.324 A 
BRANCH  21  22
ATOM     22  N   UNL A   1      30.232  27.132  22.865  1.00  0.00     0.074 N 
ATOM     23  O   UNL A   1      29.492  27.139  23.860  1.00  0.00    -0.258 OA
ATOM     24  O   UNL A   1      30.263  28.010  21.994  1.00  0.00    -0.258 OA
ENDBRANCH  21  22
ENDBRANCH  15  17
ENDBRANCH  12  15
ENDBRANCH   5   8
ENDBRANCH   3   4
ENDBRANCH   2   3
ENDBRANCH   1   2
BRANCH   1  25
ATOM     25  C   UNL A   1      33.578  28.319  24.630  1.00  0.00     0.002 C 
BRANCH  25  26
ATOM     26  C   UNL A   1      32.261  28.952  25.097  1.00  0.00     0.021 C 
BRANCH  26  27
ATOM     27  C   UNL A   1      32.245  29.467  26.536  1.00  0.00     0.116 C 
BRANCH  27  28
ATOM     28  N   UNL A   1      32.227  30.921  26.606  1.00  0.00    -0.352 N 
ATOM     29  C   UNL A   1      33.091  31.783  27.236  1.00  0.00     0.251 C 
ATOM     30  H   UNL A   1      31.481  31.353  26.128  1.00  0.00     0.163 HD
ATOM     31  O   UNL A   1      32.813  32.978  27.313  1.00  0.00    -0.269 OA
BRANCH  29  32
ATOM     32  C   UNL A   1      34.346  31.283  27.842  1.00  0.00     0.039 A 
ATOM     33  C   UNL A   1      35.292  32.210  28.296  1.00  0.00     0.014 A 
ATOM     34  C   UNL A   1      34.606  29.914  27.943  1.00  0.00     0.014 A 
ATOM     35  C   UNL A   1      36.462  31.764  28.917  1.00  0.00     0.010 A 
ATOM     36  C   UNL A   1      35.753  29.471  28.602  1.00  0.00     0.010 A 
ATOM     37  C   UNL A   1      36.687  30.391  29.104  1.00  0.00    -0.014 A 
BRANCH  37  38
ATOM     38  C   UNL A   1      37.859  29.895  29.868  1.00  0.00     0.031 A 
ATOM     39  C   UNL A   1      38.155  30.418  31.244  1.00  0.00     0.074 A 
ATOM     40  C   UNL A   1      38.727  29.057  29.269  1.00  0.00     0.049 A 
ATOM     41  N   UNL A   1      39.181  30.171  32.016  1.00  0.00    -0.248 NA
ATOM     42  C   UNL A   1      37.179  31.357  31.822  1.00  0.00     0.031 C 
ATOM     43  C   UNL A   1      38.595  28.542  27.904  1.00  0.00     0.029 A 
ATOM     44  N   UNL A   1      39.911  28.524  29.713  1.00  0.00    -0.354 N 
ATOM     45  C   UNL A   1      38.997  30.944  33.155  1.00  0.00     0.074 A 
ATOM     46  C   UNL A   1      37.766  31.683  32.967  1.00  0.00     0.031 C 
ATOM     47  C   UNL A   1      39.668  27.788  27.615  1.00  0.00     0.029 A 
ATOM     48  C   UNL A   1      40.570  27.779  28.764  1.00  0.00     0.049 A 
ATOM     49  H   UNL A   1      40.257  28.663  30.625  1.00  0.00     0.167 HD
ATOM     50  C   UNL A   1      39.765  31.010  34.268  1.00  0.00     0.034 A 
ATOM     51  C   UNL A   1      41.770  27.167  28.804  1.00  0.00     0.034 A 
ATOM     52  C   UNL A   1      40.957  30.235  34.480  1.00  0.00     0.049 A 
ATOM     53  C   UNL A   1      42.582  27.219  30.068  1.00  0.00     0.074 A 
ATOM     54  C   UNL A   1      41.740  30.152  35.619  1.00  0.00     0.029 A 
ATOM     55  N   UNL A   1      41.543  29.411  33.532  1.00  0.00    -0.354 N 
ATOM     56  N   UNL A   1      42.302  27.816  31.200  1.00  0.00    -0.248 NA
ATOM     57  C   UNL A   1      43.857  26.488  30.072  1.00  0.00     0.031 C 
ATOM     58  C   UNL A   1      42.801  29.277  35.359  1.00  0.00     0.029 A 
ATOM     59  C   UNL A   1      42.682  28.821  34.055  1.00  0.00     0.049 A 
ATOM     60  H   UNL A   1      41.201  29.265  32.621  1.00  0.00     0.167 HD
ATOM     61  C   UNL A   1      43.356  27.522  32.057  1.00  0.00     0.074 A 
ATOM     62  C   UNL A   1      44.268  26.670  31.320  1.00  0.00     0.031 C 
ATOM     63  C   UNL A   1      43.558  27.938  33.330  1.00  0.00     0.034 A 
BRANCH  50  64
ATOM     64  C   UNL A   1      39.289  31.899  35.383  1.00  0.00     0.023 A 
ATOM     65  C   UNL A   1      38.340  31.397  36.297  1.00  0.00     0.012 A 
ATOM     66  C   UNL A   1      39.802  33.197  35.560  1.00  0.00     0.148 A 
ATOM     67  C   UNL A   1      37.891  32.183  37.357  1.00  0.00     0.002 A 
ATOM     68  C   UNL A   1      39.370  33.965  36.638  1.00  0.00     0.091 A 
ATOM     69  F   UNL A   1      40.680  33.672  34.665  1.00  0.00    -0.205 F 
ATOM     70  C   UNL A   1      38.412  33.462  37.533  1.00  0.00     0.022 A 
BRANCH  68  71
ATOM     71  S   UNL A   1      40.040  35.602  36.953  1.00  0.00     0.127 S 
ATOM     72  O   UNL A   1      39.621  36.332  35.760  1.00  0.00    -0.237 OA
ATOM     73  O   UNL A   1      39.353  36.000  38.183  1.00  0.00    -0.237 OA
ATOM     74  O   UNL A   1      41.475  35.403  37.110  1.00  0.00    -0.744 OA
ENDBRANCH  68  71
ENDBRANCH  50  64
BRANCH  51  75
ATOM     75  C   UNL A   1      42.234  26.398  27.619  1.00  0.00     0.023 A 
ATOM     76  C   UNL A   1      43.066  27.027  26.673  1.00  0.00     0.012 A 
ATOM     77  C   UNL A   1      41.921  25.034  27.462  1.00  0.00     0.148 A 
ATOM     78  C   UNL A   1      43.569  26.313  25.585  1.00  0.00     0.002 A 
ATOM     79  C   UNL A   1      42.464  24.317  26.401  1.00  0.00     0.091 A 
ATOM     80  F   UNL A   1      41.108  24.459  28.360  1.00  0.00    -0.205 F 
ATOM     81  C   UNL A   1      43.280  24.957  25.456  1.00  0.00     0.022 A 
BRANCH  79  82
ATOM     82  S   UNL A   1      42.243  22.541  26.254  1.00  0.00     0.127 S 
ATOM     83  O   UNL A   1      42.842  22.059  27.496  1.00  0.00    -0.237 OA
ATOM     84  O   UNL A   1      40.787  22.411  26.182  1.00  0.00    -0.237 OA
ATOM     85  O   UNL A   1      42.932  22.175  25.024  1.00  0.00    -0.744 OA
ENDBRANCH  79  82
ENDBRANCH  51  75
BRANCH  63  86
ATOM     86  C   UNL A   1      44.819  27.489  34.017  1.00  0.00     0.023 A 
ATOM     87  C   UNL A   1      45.952  28.324  33.980  1.00  0.00     0.012 A 
ATOM     88  C   UNL A   1      44.863  26.293  34.759  1.00  0.00     0.148 A 
ATOM     89  C   UNL A   1      47.117  27.970  34.659  1.00  0.00     0.002 A 
ATOM     90  C   UNL A   1      46.017  25.961  35.460  1.00  0.00     0.091 A 
ATOM     91  F   UNL A   1      43.783  25.498  34.760  1.00  0.00    -0.205 F 
ATOM     92  C   UNL A   1      47.146  26.796  35.408  1.00  0.00     0.022 A 
BRANCH  90  93
ATOM     93  S   UNL A   1      46.106  24.505  36.510  1.00  0.00     0.127 S 
ATOM     94  O   UNL A   1      46.055  23.424  35.526  1.00  0.00    -0.237 OA
ATOM     95  O   UNL A   1      47.402  24.666  37.171  1.00  0.00    -0.237 OA
ATOM     96  O   UNL A   1      44.962  24.600  37.406  1.00  0.00    -0.744 OA
ENDBRANCH  90  93
ENDBRANCH  63  86
ENDBRANCH  37  38
ENDBRANCH  29  32
ENDBRANCH  27  28
ENDBRANCH  26  27
ENDBRANCH  25  26
ENDBRANCH   1  25
TORSDOF 20
ENDMDL
