MODEL 1
REMARK VINA RESULT:     -10.9      0.000      0.000
REMARK SMILES C[NH2+][C@]1(C(=O)NCCCCCCNC(=O)c2ccc(-c3c4nc(c(-c5cccc(S(=O)(=O)[O-])c5F)c5ccc([nH]5)c(-c5cccc(S(=O)(=O)[O-])c5F)c5nc(c(-c6cccc(S(=O)(=O)[O-])c6F)c6ccc3[nH]6)C=C5)C=C4)cc2)CCC[C@@H](Sc2nccs2)C1
REMARK SMILES IDX 10 1 9 2 8 3 7 4 6 5 4 6 5 7 3 9 79 10 89 11 80 12 82 13
REMARK SMILES IDX 81 14 2 15 1 16 83 19 84 20 85 21 88 22 86 23 87 24 11 25
REMARK SMILES IDX 12 26 13 27 14 28 15 30 16 31 17 32 78 33 18 34 77 35 19 36
REMARK SMILES IDX 20 37 21 38 71 39 22 40 76 41 70 42 72 43 23 44 75 45 69 46
REMARK SMILES IDX 68 47 24 49 56 50 36 51 55 52 37 53 40 54 54 55 73 56 38 57
REMARK SMILES IDX 39 58 53 60 74 61 41 62 25 63 26 64 34 65 27 66 29 67 35 68
REMARK SMILES IDX 28 69 30 70 31 71 32 72 33 73 57 74 58 75 66 76 59 77 61 78
REMARK SMILES IDX 67 79 60 80 62 81 63 82 64 83 65 84 42 85 43 86 51 87 44 88
REMARK SMILES IDX 46 89 52 90 45 91 47 92 48 93 49 94 50 95
REMARK H PARENT 6 8 2 17 2 18 13 29 72 48 40 59
REMARK Flexibility Score: inf
ROOT
ATOM      1  C   UNL A   1      34.416  30.955  27.972  1.00  0.00     0.002 C 
ENDROOT
BRANCH   1   2
ATOM      2  C   UNL A   1      34.219  29.616  27.251  1.00  0.00     0.002 C 
BRANCH   2   3
ATOM      3  C   UNL A   1      32.772  29.110  27.236  1.00  0.00     0.021 C 
BRANCH   3   4
ATOM      4  C   UNL A   1      32.498  28.118  26.108  1.00  0.00     0.116 C 
BRANCH   4   5
ATOM      5  N   UNL A   1      33.004  28.646  24.854  1.00  0.00    -0.351 N 
ATOM      6  C   UNL A   1      32.690  28.366  23.560  1.00  0.00     0.281 C 
ATOM      7  O   UNL A   1      33.376  28.936  22.700  1.00  0.00    -0.268 OA
ATOM      8  H   UNL A   1      33.703  29.332  24.959  1.00  0.00     0.163 HD
BRANCH   6   9
ATOM      9  C   UNL A   1      31.464  27.467  23.157  1.00  0.00     0.176 C 
ATOM     10  C   UNL A   1      31.344  26.162  23.982  1.00  0.00     0.079 C 
ATOM     11  C   UNL A   1      30.201  28.360  23.299  1.00  0.00     0.094 C 
ATOM     12  C   UNL A   1      30.019  25.431  23.765  1.00  0.00     0.008 C 
ATOM     13  C   UNL A   1      28.888  27.589  23.143  1.00  0.00     0.061 C 
ATOM     14  C   UNL A   1      28.833  26.351  24.042  1.00  0.00     0.015 C 
BRANCH   9  15
ATOM     15  N   UNL A   1      31.569  27.170  21.684  1.00  0.00    -0.336 N 
ATOM     16  C   UNL A   1      32.360  25.990  21.348  1.00  0.00     0.331 C 
ATOM     17  H   UNL A   1      30.626  27.033  21.321  1.00  0.00     0.346 HD
ATOM     18  H   UNL A   1      32.050  27.966  21.265  1.00  0.00     0.346 HD
ENDBRANCH   9  15
BRANCH  13  19
ATOM     19  S   UNL A   1      27.424  28.672  23.347  1.00  0.00    -0.092 SA
BRANCH  19  20
ATOM     20  C   UNL A   1      27.878  30.137  22.502  1.00  0.00     0.150 A 
ATOM     21  N   UNL A   1      28.062  30.164  21.200  1.00  0.00    -0.238 NA
ATOM     22  S   UNL A   1      28.052  31.637  23.315  1.00  0.00    -0.116 S 
ATOM     23  C   UNL A   1      28.342  31.461  20.806  1.00  0.00     0.124 A 
ATOM     24  C   UNL A   1      28.394  32.396  21.817  1.00  0.00     0.087 A 
ENDBRANCH  19  20
ENDBRANCH  13  19
ENDBRANCH   6   9
ENDBRANCH   4   5
ENDBRANCH   3   4
ENDBRANCH   2   3
ENDBRANCH   1   2
BRANCH   1  25
ATOM     25  C   UNL A   1      33.197  31.881  27.941  1.00  0.00     0.021 C 
BRANCH  25  26
ATOM     26  C   UNL A   1      33.351  33.082  27.014  1.00  0.00     0.116 C 
BRANCH  26  27
ATOM     27  N   UNL A   1      32.877  34.306  27.645  1.00  0.00    -0.352 N 
ATOM     28  C   UNL A   1      33.204  34.827  28.868  1.00  0.00     0.251 C 
ATOM     29  H   UNL A   1      32.232  34.832  27.118  1.00  0.00     0.163 HD
ATOM     30  O   UNL A   1      32.531  35.741  29.349  1.00  0.00    -0.269 OA
BRANCH  28  31
ATOM     31  C   UNL A   1      34.360  34.285  29.611  1.00  0.00     0.039 A 
ATOM     32  C   UNL A   1      34.137  33.560  30.782  1.00  0.00     0.014 A 
ATOM     33  C   UNL A   1      35.662  34.500  29.149  1.00  0.00     0.014 A 
ATOM     34  C   UNL A   1      35.220  33.006  31.467  1.00  0.00     0.010 A 
ATOM     35  C   UNL A   1      36.732  33.884  29.791  1.00  0.00     0.010 A 
ATOM     36  C   UNL A   1      36.523  33.140  30.962  1.00  0.00    -0.014 A 
BRANCH  36  37
ATOM     37  C   UNL A   1      37.681  32.503  31.640  1.00  0.00     0.031 A 
ATOM     38  C   UNL A   1      38.417  31.369  30.980  1.00  0.00     0.074 A 
ATOM     39  C   UNL A   1      38.014  32.891  32.886  1.00  0.00     0.049 A 
ATOM     40  N   UNL A   1      39.414  30.658  31.439  1.00  0.00    -0.248 NA
ATOM     41  C   UNL A   1      37.956  30.960  29.642  1.00  0.00     0.031 C 
ATOM     42  C   UNL A   1      37.325  33.923  33.663  1.00  0.00     0.029 A 
ATOM     43  N   UNL A   1      38.998  32.441  33.731  1.00  0.00    -0.354 N 
ATOM     44  C   UNL A   1      39.674  29.698  30.468  1.00  0.00     0.074 A 
ATOM     45  C   UNL A   1      38.710  29.896  29.409  1.00  0.00     0.031 C 
ATOM     46  C   UNL A   1      37.909  34.030  34.867  1.00  0.00     0.029 A 
ATOM     47  C   UNL A   1      38.990  33.055  34.962  1.00  0.00     0.049 A 
ATOM     48  H   UNL A   1      39.650  31.747  33.479  1.00  0.00     0.167 HD
ATOM     49  C   UNL A   1      40.645  28.754  30.448  1.00  0.00     0.034 A 
ATOM     50  C   UNL A   1      39.758  32.847  36.050  1.00  0.00     0.034 A 
ATOM     51  C   UNL A   1      41.628  28.588  31.484  1.00  0.00     0.049 A 
ATOM     52  C   UNL A   1      40.857  31.823  35.984  1.00  0.00     0.074 A 
ATOM     53  C   UNL A   1      42.710  27.727  31.512  1.00  0.00     0.029 A 
ATOM     54  N   UNL A   1      41.641  29.286  32.682  1.00  0.00    -0.354 N 
ATOM     55  N   UNL A   1      41.191  31.035  34.990  1.00  0.00    -0.248 NA
ATOM     56  C   UNL A   1      41.710  31.683  37.173  1.00  0.00     0.031 C 
ATOM     57  C   UNL A   1      43.359  27.881  32.741  1.00  0.00     0.029 A 
ATOM     58  C   UNL A   1      42.704  28.866  33.463  1.00  0.00     0.049 A 
ATOM     59  H   UNL A   1      40.991  29.980  32.939  1.00  0.00     0.167 HD
ATOM     60  C   UNL A   1      42.312  30.334  35.420  1.00  0.00     0.074 A 
ATOM     61  C   UNL A   1      42.612  30.805  36.757  1.00  0.00     0.031 C 
ATOM     62  C   UNL A   1      43.020  29.376  34.772  1.00  0.00     0.034 A 
BRANCH  49  63
ATOM     63  C   UNL A   1      40.722  27.850  29.244  1.00  0.00     0.023 A 
ATOM     64  C   UNL A   1      39.887  26.716  29.166  1.00  0.00     0.012 A 
ATOM     65  C   UNL A   1      41.573  28.157  28.164  1.00  0.00     0.148 A 
ATOM     66  C   UNL A   1      39.923  25.883  28.049  1.00  0.00     0.002 A 
ATOM     67  C   UNL A   1      41.568  27.348  27.033  1.00  0.00     0.091 A 
ATOM     68  F   UNL A   1      42.374  29.226  28.264  1.00  0.00    -0.205 F 
ATOM     69  C   UNL A   1      40.754  26.205  26.980  1.00  0.00     0.022 A 
BRANCH  67  70
ATOM     70  S   UNL A   1      42.540  27.722  25.570  1.00  0.00     0.127 S 
ATOM     71  O   UNL A   1      42.279  26.549  24.735  1.00  0.00    -0.237 OA
ATOM     72  O   UNL A   1      41.918  28.958  25.097  1.00  0.00    -0.237 OA
ATOM     73  O   UNL A   1      43.914  27.868  26.026  1.00  0.00    -0.744 OA
ENDBRANCH  67  70
ENDBRANCH  49  63
BRANCH  50  74
ATOM     74  C   UNL A   1      39.547  33.671  37.274  1.00  0.00     0.023 A 
ATOM     75  C   UNL A   1      40.079  34.972  37.336  1.00  0.00     0.012 A 
ATOM     76  C   UNL A   1      38.792  33.185  38.360  1.00  0.00     0.148 A 
ATOM     77  C   UNL A   1      39.893  35.763  38.470  1.00  0.00     0.002 A 
ATOM     78  C   UNL A   1      38.560  33.999  39.461  1.00  0.00     0.091 A 
ATOM     79  F   UNL A   1      38.302  31.939  38.285  1.00  0.00    -0.205 F 
ATOM     80  C   UNL A   1      39.126  35.282  39.527  1.00  0.00     0.022 A 
BRANCH  78  81
ATOM     81  S   UNL A   1      37.467  33.514  40.802  1.00  0.00     0.127 S 
ATOM     82  O   UNL A   1      38.261  32.496  41.483  1.00  0.00    -0.237 OA
ATOM     83  O   UNL A   1      37.314  34.771  41.536  1.00  0.00    -0.237 OA
ATOM     84  O   UNL A   1      36.244  33.043  40.165  1.00  0.00    -0.744 OA
ENDBRANCH  78  81
ENDBRANCH  50  74
BRANCH  62  85
ATOM     85  C   UNL A   1      44.218  28.795  35.476  1.00  0.00     0.023 A 
ATOM     86  C   UNL A   1      45.502  29.328  35.241  1.00  0.00     0.012 A 
ATOM     87  C   UNL A   1      44.060  27.770  36.430  1.00  0.00     0.148 A 
ATOM     88  C   UNL A   1      46.612  28.826  35.920  1.00  0.00     0.002 A 
ATOM     89  C   UNL A   1      45.163  27.310  37.139  1.00  0.00     0.091 A 
ATOM     90  F   UNL A   1      42.834  27.263  36.626  1.00  0.00    -0.205 F 
ATOM     91  C   UNL A   1      46.441  27.828  36.875  1.00  0.00     0.022 A 
BRANCH  89  92
ATOM     92  S   UNL A   1      45.023  26.098  38.459  1.00  0.00     0.127 S 
ATOM     93  O   UNL A   1      44.549  24.922  37.732  1.00  0.00    -0.237 OA
ATOM     94  O   UNL A   1      46.402  26.004  38.938  1.00  0.00    -0.237 OA
ATOM     95  O   UNL A   1      44.085  26.659  39.421  1.00  0.00    -0.744 OA
ENDBRANCH  89  92
ENDBRANCH  62  85
ENDBRANCH  36  37
ENDBRANCH  28  31
ENDBRANCH  26  27
ENDBRANCH  25  26
ENDBRANCH   1  25
TORSDOF 19
ENDMDL
MODEL 2
REMARK VINA RESULT:     -10.8      2.387      3.619
REMARK SMILES C[NH2+][C@]1(C(=O)NCCCCCCNC(=O)c2ccc(-c3c4nc(c(-c5cccc(S(=O)(=O)[O-])c5F)c5ccc([nH]5)c(-c5cccc(S(=O)(=O)[O-])c5F)c5nc(c(-c6cccc(S(=O)(=O)[O-])c6F)c6ccc3[nH]6)C=C5)C=C4)cc2)CCC[C@@H](Sc2nccs2)C1
REMARK SMILES IDX 10 1 9 2 8 3 7 4 6 5 4 6 5 7 3 9 79 10 89 11 80 12 82 13
REMARK SMILES IDX 81 14 2 15 1 16 83 19 84 20 85 21 88 22 86 23 87 24 11 25
REMARK SMILES IDX 12 26 13 27 14 28 15 30 16 31 17 32 78 33 18 34 77 35 19 36
REMARK SMILES IDX 20 37 21 38 71 39 22 40 76 41 70 42 72 43 23 44 75 45 69 46
REMARK SMILES IDX 68 47 24 49 56 50 36 51 55 52 37 53 40 54 54 55 73 56 38 57
REMARK SMILES IDX 39 58 53 60 74 61 41 62 25 63 26 64 34 65 27 66 29 67 35 68
REMARK SMILES IDX 28 69 30 70 31 71 32 72 33 73 57 74 58 75 66 76 59 77 61 78
REMARK SMILES IDX 67 79 60 80 62 81 63 82 64 83 65 84 42 85 43 86 51 87 44 88
REMARK SMILES IDX 46 89 52 90 45 91 47 92 48 93 49 94 50 95
REMARK H PARENT 6 8 2 17 2 18 13 29 72 48 40 59
REMARK Flexibility Score: inf
ROOT
ATOM      1  C   UNL A   1      31.668  30.581  25.847  1.00  0.00     0.002 C 
ENDROOT
BRANCH   1   2
ATOM      2  C   UNL A   1      32.811  29.684  26.337  1.00  0.00     0.002 C 
BRANCH   2   3
ATOM      3  C   UNL A   1      32.371  28.543  27.261  1.00  0.00     0.021 C 
BRANCH   3   4
ATOM      4  C   UNL A   1      32.341  27.186  26.561  1.00  0.00     0.116 C 
BRANCH   4   5
ATOM      5  N   UNL A   1      31.183  27.105  25.690  1.00  0.00    -0.351 N 
ATOM      6  C   UNL A   1      30.966  26.430  24.529  1.00  0.00     0.281 C 
ATOM      7  O   UNL A   1      29.880  26.640  23.973  1.00  0.00    -0.268 OA
ATOM      8  H   UNL A   1      30.412  27.637  25.995  1.00  0.00     0.163 HD
BRANCH   6   9
ATOM      9  C   UNL A   1      31.971  25.357  23.968  1.00  0.00     0.176 C 
ATOM     10  C   UNL A   1      33.445  25.831  23.940  1.00  0.00     0.079 C 
ATOM     11  C   UNL A   1      31.789  24.086  24.845  1.00  0.00     0.094 C 
ATOM     12  C   UNL A   1      34.436  24.705  23.643  1.00  0.00     0.008 C 
ATOM     13  C   UNL A   1      32.835  23.003  24.572  1.00  0.00     0.061 C 
ATOM     14  C   UNL A   1      34.263  23.550  24.627  1.00  0.00     0.015 C 
BRANCH   9  15
ATOM     15  N   UNL A   1      31.503  24.954  22.595  1.00  0.00    -0.336 N 
ATOM     16  C   UNL A   1      32.102  25.704  21.496  1.00  0.00     0.331 C 
ATOM     17  H   UNL A   1      31.723  23.968  22.462  1.00  0.00     0.346 HD
ATOM     18  H   UNL A   1      30.502  25.151  22.564  1.00  0.00     0.346 HD
ENDBRANCH   9  15
BRANCH  13  19
ATOM     19  S   UNL A   1      32.603  21.536  25.646  1.00  0.00    -0.092 SA
BRANCH  19  20
ATOM     20  C   UNL A   1      32.475  20.212  24.508  1.00  0.00     0.150 A 
ATOM     21  N   UNL A   1      32.252  20.410  23.227  1.00  0.00    -0.238 NA
ATOM     22  S   UNL A   1      32.690  18.579  24.987  1.00  0.00    -0.116 S 
ATOM     23  C   UNL A   1      32.270  19.195  22.566  1.00  0.00     0.124 A 
ATOM     24  C   UNL A   1      32.479  18.086  23.359  1.00  0.00     0.087 A 
ENDBRANCH  19  20
ENDBRANCH  13  19
ENDBRANCH   6   9
ENDBRANCH   4   5
ENDBRANCH   3   4
ENDBRANCH   2   3
ENDBRANCH   1   2
BRANCH   1  25
ATOM     25  C   UNL A   1      31.430  31.832  26.696  1.00  0.00     0.021 C 
BRANCH  25  26
ATOM     26  C   UNL A   1      32.700  32.436  27.286  1.00  0.00     0.116 C 
BRANCH  26  27
ATOM     27  N   UNL A   1      32.544  33.861  27.539  1.00  0.00    -0.352 N 
ATOM     28  C   UNL A   1      33.142  34.636  28.497  1.00  0.00     0.251 C 
ATOM     29  H   UNL A   1      31.923  34.334  26.937  1.00  0.00     0.163 HD
ATOM     30  O   UNL A   1      32.717  35.770  28.727  1.00  0.00    -0.269 OA
BRANCH  28  31
ATOM     31  C   UNL A   1      34.290  34.105  29.258  1.00  0.00     0.039 A 
ATOM     32  C   UNL A   1      34.054  33.291  30.367  1.00  0.00     0.014 A 
ATOM     33  C   UNL A   1      35.599  34.416  28.876  1.00  0.00     0.014 A 
ATOM     34  C   UNL A   1      35.134  32.749  31.066  1.00  0.00     0.010 A 
ATOM     35  C   UNL A   1      36.671  33.814  29.527  1.00  0.00     0.010 A 
ATOM     36  C   UNL A   1      36.450  32.983  30.635  1.00  0.00    -0.014 A 
BRANCH  36  37
ATOM     37  C   UNL A   1      37.609  32.361  31.325  1.00  0.00     0.031 A 
ATOM     38  C   UNL A   1      38.347  31.217  30.687  1.00  0.00     0.074 A 
ATOM     39  C   UNL A   1      37.940  32.773  32.565  1.00  0.00     0.049 A 
ATOM     40  N   UNL A   1      39.346  30.516  31.160  1.00  0.00    -0.248 NA
ATOM     41  C   UNL A   1      37.888  30.781  29.358  1.00  0.00     0.031 C 
ATOM     42  C   UNL A   1      37.248  33.818  33.322  1.00  0.00     0.029 A 
ATOM     43  N   UNL A   1      38.925  32.342  33.418  1.00  0.00    -0.354 N 
ATOM     44  C   UNL A   1      39.609  29.539  30.208  1.00  0.00     0.074 A 
ATOM     45  C   UNL A   1      38.645  29.715  29.145  1.00  0.00     0.031 C 
ATOM     46  C   UNL A   1      37.831  33.949  34.524  1.00  0.00     0.029 A 
ATOM     47  C   UNL A   1      38.915  32.978  34.637  1.00  0.00     0.049 A 
ATOM     48  H   UNL A   1      39.578  31.645  33.180  1.00  0.00     0.167 HD
ATOM     49  C   UNL A   1      40.581  28.597  30.206  1.00  0.00     0.034 A 
ATOM     50  C   UNL A   1      39.683  32.793  35.730  1.00  0.00     0.034 A 
ATOM     51  C   UNL A   1      41.564  28.453  31.246  1.00  0.00     0.049 A 
ATOM     52  C   UNL A   1      40.784  31.771  35.683  1.00  0.00     0.074 A 
ATOM     53  C   UNL A   1      42.648  27.594  31.291  1.00  0.00     0.029 A 
ATOM     54  N   UNL A   1      41.576  29.174  32.430  1.00  0.00    -0.354 N 
ATOM     55  N   UNL A   1      41.120  30.965  34.705  1.00  0.00    -0.248 NA
ATOM     56  C   UNL A   1      41.636  31.655  36.875  1.00  0.00     0.031 C 
ATOM     57  C   UNL A   1      43.296  27.774  32.517  1.00  0.00     0.029 A 
ATOM     58  C   UNL A   1      42.639  28.770  33.219  1.00  0.00     0.049 A 
ATOM     59  H   UNL A   1      40.924  29.871  32.674  1.00  0.00     0.167 HD
ATOM     60  C   UNL A   1      42.242  30.274  35.148  1.00  0.00     0.074 A 
ATOM     61  C   UNL A   1      42.541  30.772  36.476  1.00  0.00     0.031 C 
ATOM     62  C   UNL A   1      42.953  29.306  34.519  1.00  0.00     0.034 A 
BRANCH  49  63
ATOM     63  C   UNL A   1      40.661  27.671  29.020  1.00  0.00     0.023 A 
ATOM     64  C   UNL A   1      39.752  26.598  28.907  1.00  0.00     0.012 A 
ATOM     65  C   UNL A   1      41.591  27.898  27.987  1.00  0.00     0.148 A 
ATOM     66  C   UNL A   1      39.791  25.746  27.805  1.00  0.00     0.002 A 
ATOM     67  C   UNL A   1      41.592  27.074  26.867  1.00  0.00     0.091 A 
ATOM     68  F   UNL A   1      42.461  28.910  28.120  1.00  0.00    -0.205 F 
ATOM     69  C   UNL A   1      40.702  25.991  26.781  1.00  0.00     0.022 A 
BRANCH  67  70
ATOM     70  S   UNL A   1      42.670  27.354  25.459  1.00  0.00     0.127 S 
ATOM     71  O   UNL A   1      43.960  27.568  26.113  1.00  0.00    -0.237 OA
ATOM     72  O   UNL A   1      42.558  26.090  24.730  1.00  0.00    -0.237 OA
ATOM     73  O   UNL A   1      42.127  28.509  24.759  1.00  0.00    -0.744 OA
ENDBRANCH  67  70
ENDBRANCH  49  63
BRANCH  50  74
ATOM     74  C   UNL A   1      39.469  33.639  36.938  1.00  0.00     0.023 A 
ATOM     75  C   UNL A   1      39.889  34.983  36.928  1.00  0.00     0.012 A 
ATOM     76  C   UNL A   1      38.821  33.130  38.080  1.00  0.00     0.148 A 
ATOM     77  C   UNL A   1      39.697  35.796  38.045  1.00  0.00     0.002 A 
ATOM     78  C   UNL A   1      38.581  33.961  39.168  1.00  0.00     0.091 A 
ATOM     79  F   UNL A   1      38.438  31.845  38.073  1.00  0.00    -0.205 F 
ATOM     80  C   UNL A   1      39.036  35.289  39.161  1.00  0.00     0.022 A 
BRANCH  78  81
ATOM     81  S   UNL A   1      37.611  33.433  40.585  1.00  0.00     0.127 S 
ATOM     82  O   UNL A   1      36.373  32.987  39.952  1.00  0.00    -0.237 OA
ATOM     83  O   UNL A   1      38.442  32.363  41.137  1.00  0.00    -0.237 OA
ATOM     84  O   UNL A   1      37.498  34.604  41.445  1.00  0.00    -0.744 OA
ENDBRANCH  78  81
ENDBRANCH  50  74
BRANCH  62  85
ATOM     85  C   UNL A   1      44.152  28.741  35.235  1.00  0.00     0.023 A 
ATOM     86  C   UNL A   1      45.431  29.286  35.007  1.00  0.00     0.012 A 
ATOM     87  C   UNL A   1      43.998  27.718  36.192  1.00  0.00     0.148 A 
ATOM     88  C   UNL A   1      46.542  28.799  35.695  1.00  0.00     0.002 A 
ATOM     89  C   UNL A   1      45.100  27.274  36.911  1.00  0.00     0.091 A 
ATOM     90  F   UNL A   1      42.776  27.199  36.381  1.00  0.00    -0.205 F 
ATOM     91  C   UNL A   1      46.375  27.804  36.654  1.00  0.00     0.022 A 
BRANCH  89  92
ATOM     92  S   UNL A   1      44.964  26.067  38.235  1.00  0.00     0.127 S 
ATOM     93  O   UNL A   1      44.003  26.713  39.127  1.00  0.00    -0.237 OA
ATOM     94  O   UNL A   1      44.449  24.893  37.532  1.00  0.00    -0.237 OA
ATOM     95  O   UNL A   1      46.308  25.909  38.774  1.00  0.00    -0.744 OA
ENDBRANCH  89  92
ENDBRANCH  62  85
ENDBRANCH  36  37
ENDBRANCH  28  31
ENDBRANCH  26  27
ENDBRANCH  25  26
ENDBRANCH   1  25
TORSDOF 19
ENDMDL
MODEL 3
REMARK VINA RESULT:     -10.7      6.684     11.774
REMARK SMILES C[NH2+][C@]1(C(=O)NCCCCCCNC(=O)c2ccc(-c3c4nc(c(-c5cccc(S(=O)(=O)[O-])c5F)c5ccc([nH]5)c(-c5cccc(S(=O)(=O)[O-])c5F)c5nc(c(-c6cccc(S(=O)(=O)[O-])c6F)c6ccc3[nH]6)C=C5)C=C4)cc2)CCC[C@@H](Sc2nccs2)C1
REMARK SMILES IDX 10 1 9 2 8 3 7 4 6 5 4 6 5 7 3 9 79 10 89 11 80 12 82 13
REMARK SMILES IDX 81 14 2 15 1 16 83 19 84 20 85 21 88 22 86 23 87 24 11 25
REMARK SMILES IDX 12 26 13 27 14 28 15 30 16 31 17 32 78 33 18 34 77 35 19 36
REMARK SMILES IDX 20 37 21 38 71 39 22 40 76 41 70 42 72 43 23 44 75 45 69 46
REMARK SMILES IDX 68 47 24 49 56 50 36 51 55 52 37 53 40 54 54 55 73 56 38 57
REMARK SMILES IDX 39 58 53 60 74 61 41 62 25 63 26 64 34 65 27 66 29 67 35 68
REMARK SMILES IDX 28 69 30 70 31 71 32 72 33 73 57 74 58 75 66 76 59 77 61 78
REMARK SMILES IDX 67 79 60 80 62 81 63 82 64 83 65 84 42 85 43 86 51 87 44 88
REMARK SMILES IDX 46 89 52 90 45 91 47 92 48 93 49 94 50 95
REMARK H PARENT 6 8 2 17 2 18 13 29 72 48 40 59
REMARK Flexibility Score: inf
ROOT
ATOM      1  C   UNL A   1      36.311  19.821  24.998  1.00  0.00     0.002 C 
ENDROOT
BRANCH   1   2
ATOM      2  C   UNL A   1      35.788  18.405  24.728  1.00  0.00     0.002 C 
BRANCH   2   3
ATOM      3  C   UNL A   1      34.315  18.342  24.308  1.00  0.00     0.021 C 
BRANCH   3   4
ATOM      4  C   UNL A   1      33.495  19.519  24.830  1.00  0.00     0.116 C 
BRANCH   4   5
ATOM      5  N   UNL A   1      32.844  20.196  23.723  1.00  0.00    -0.351 N 
ATOM      6  C   UNL A   1      32.533  21.504  23.517  1.00  0.00     0.281 C 
ATOM      7  O   UNL A   1      31.888  21.754  22.489  1.00  0.00    -0.268 OA
ATOM      8  H   UNL A   1      32.578  19.599  22.986  1.00  0.00     0.163 HD
BRANCH   6   9
ATOM      9  C   UNL A   1      33.047  22.660  24.453  1.00  0.00     0.176 C 
ATOM     10  C   UNL A   1      34.586  22.831  24.453  1.00  0.00     0.079 C 
ATOM     11  C   UNL A   1      32.320  23.953  23.990  1.00  0.00     0.094 C 
ATOM     12  C   UNL A   1      35.051  24.108  25.153  1.00  0.00     0.008 C 
ATOM     13  C   UNL A   1      32.852  25.223  24.659  1.00  0.00     0.061 C 
ATOM     14  C   UNL A   1      34.375  25.339  24.554  1.00  0.00     0.015 C 
BRANCH   9  15
ATOM     15  N   UNL A   1      32.529  22.398  25.843  1.00  0.00    -0.336 N 
ATOM     16  C   UNL A   1      31.077  22.462  25.981  1.00  0.00     0.331 C 
ATOM     17  H   UNL A   1      32.833  21.466  26.124  1.00  0.00     0.346 HD
ATOM     18  H   UNL A   1      32.906  23.140  26.433  1.00  0.00     0.346 HD
ENDBRANCH   9  15
BRANCH  13  19
ATOM     19  S   UNL A   1      31.990  26.727  24.064  1.00  0.00    -0.092 SA
BRANCH  19  20
ATOM     20  C   UNL A   1      31.838  27.709  25.506  1.00  0.00     0.150 A 
ATOM     21  N   UNL A   1      31.447  27.206  26.656  1.00  0.00    -0.238 NA
ATOM     22  S   UNL A   1      32.247  29.375  25.517  1.00  0.00    -0.116 S 
ATOM     23  C   UNL A   1      31.488  28.193  27.625  1.00  0.00     0.124 A 
ATOM     24  C   UNL A   1      31.884  29.441  27.191  1.00  0.00     0.087 A 
ENDBRANCH  19  20
ENDBRANCH  13  19
ENDBRANCH   6   9
ENDBRANCH   4   5
ENDBRANCH   3   4
ENDBRANCH   2   3
ENDBRANCH   1   2
BRANCH   1  25
ATOM     25  C   UNL A   1      37.780  20.041  24.628  1.00  0.00     0.021 C 
BRANCH  25  26
ATOM     26  C   UNL A   1      38.679  20.372  25.813  1.00  0.00     0.116 C 
BRANCH  26  27
ATOM     27  N   UNL A   1      39.711  19.362  25.998  1.00  0.00    -0.352 N 
ATOM     28  C   UNL A   1      41.061  19.528  26.151  1.00  0.00     0.251 C 
ATOM     29  H   UNL A   1      39.394  18.429  26.015  1.00  0.00     0.163 HD
ATOM     30  O   UNL A   1      41.818  18.560  26.053  1.00  0.00    -0.269 OA
BRANCH  28  31
ATOM     31  C   UNL A   1      41.608  20.873  26.426  1.00  0.00     0.039 A 
ATOM     32  C   UNL A   1      41.758  21.776  25.372  1.00  0.00     0.014 A 
ATOM     33  C   UNL A   1      41.975  21.235  27.726  1.00  0.00     0.014 A 
ATOM     34  C   UNL A   1      42.232  23.063  25.630  1.00  0.00     0.010 A 
ATOM     35  C   UNL A   1      42.375  22.541  27.991  1.00  0.00     0.010 A 
ATOM     36  C   UNL A   1      42.518  23.465  26.945  1.00  0.00    -0.014 A 
BRANCH  36  37
ATOM     37  C   UNL A   1      42.960  24.850  27.248  1.00  0.00     0.031 A 
ATOM     38  C   UNL A   1      42.003  25.835  27.861  1.00  0.00     0.074 A 
ATOM     39  C   UNL A   1      44.198  25.243  26.891  1.00  0.00     0.049 A 
ATOM     40  N   UNL A   1      42.192  27.098  28.147  1.00  0.00    -0.248 NA
ATOM     41  C   UNL A   1      40.646  25.350  28.167  1.00  0.00     0.031 C 
ATOM     42  C   UNL A   1      45.190  24.403  26.216  1.00  0.00     0.029 A 
ATOM     43  N   UNL A   1      44.824  26.458  27.020  1.00  0.00    -0.354 N 
ATOM     44  C   UNL A   1      40.975  27.565  28.629  1.00  0.00     0.074 A 
ATOM     45  C   UNL A   1      40.044  26.460  28.566  1.00  0.00     0.031 C 
ATOM     46  C   UNL A   1      46.299  25.126  25.993  1.00  0.00     0.029 A 
ATOM     47  C   UNL A   1      46.088  26.486  26.478  1.00  0.00     0.049 A 
ATOM     48  H   UNL A   1      44.409  27.234  27.460  1.00  0.00     0.167 HD
ATOM     49  C   UNL A   1      40.668  28.795  29.104  1.00  0.00     0.034 A 
ATOM     50  C   UNL A   1      46.974  27.497  26.371  1.00  0.00     0.034 A 
ATOM     51  C   UNL A   1      41.608  29.878  29.203  1.00  0.00     0.049 A 
ATOM     52  C   UNL A   1      46.622  28.840  26.948  1.00  0.00     0.074 A 
ATOM     53  C   UNL A   1      41.421  31.130  29.760  1.00  0.00     0.029 A 
ATOM     54  N   UNL A   1      42.908  29.844  28.722  1.00  0.00    -0.354 N 
ATOM     55  N   UNL A   1      45.519  29.216  27.550  1.00  0.00    -0.248 NA
ATOM     56  C   UNL A   1      47.649  29.889  26.867  1.00  0.00     0.031 C 
ATOM     57  C   UNL A   1      42.598  31.865  29.586  1.00  0.00     0.029 A 
ATOM     58  C   UNL A   1      43.530  31.058  28.956  1.00  0.00     0.049 A 
ATOM     59  H   UNL A   1      43.327  29.070  28.280  1.00  0.00     0.167 HD
ATOM     60  C   UNL A   1      45.732  30.530  27.949  1.00  0.00     0.074 A 
ATOM     61  C   UNL A   1      47.078  30.878  27.540  1.00  0.00     0.031 C 
ATOM     62  C   UNL A   1      44.885  31.377  28.586  1.00  0.00     0.034 A 
BRANCH  49  63
ATOM     63  C   UNL A   1      39.263  29.026  29.598  1.00  0.00     0.023 A 
ATOM     64  C   UNL A   1      38.909  28.643  30.908  1.00  0.00     0.012 A 
ATOM     65  C   UNL A   1      38.311  29.679  28.790  1.00  0.00     0.148 A 
ATOM     66  C   UNL A   1      37.623  28.873  31.394  1.00  0.00     0.002 A 
ATOM     67  C   UNL A   1      37.045  29.948  29.298  1.00  0.00     0.091 A 
ATOM     68  F   UNL A   1      38.658  30.018  27.540  1.00  0.00    -0.205 F 
ATOM     69  C   UNL A   1      36.696  29.535  30.593  1.00  0.00     0.022 A 
BRANCH  67  70
ATOM     70  S   UNL A   1      35.808  30.868  28.377  1.00  0.00     0.127 S 
ATOM     71  O   UNL A   1      34.782  31.083  29.398  1.00  0.00    -0.237 OA
ATOM     72  O   UNL A   1      36.544  32.071  27.991  1.00  0.00    -0.237 OA
ATOM     73  O   UNL A   1      35.413  30.014  27.267  1.00  0.00    -0.744 OA
ENDBRANCH  67  70
ENDBRANCH  49  63
BRANCH  50  74
ATOM     74  C   UNL A   1      48.302  27.254  25.740  1.00  0.00     0.023 A 
ATOM     75  C   UNL A   1      49.366  26.771  26.525  1.00  0.00     0.012 A 
ATOM     76  C   UNL A   1      48.505  27.465  24.362  1.00  0.00     0.148 A 
ATOM     77  C   UNL A   1      50.618  26.534  25.957  1.00  0.00     0.002 A 
ATOM     78  C   UNL A   1      49.737  27.171  23.791  1.00  0.00     0.091 A 
ATOM     79  F   UNL A   1      47.481  27.935  23.634  1.00  0.00    -0.205 F 
ATOM     80  C   UNL A   1      50.801  26.724  24.590  1.00  0.00     0.022 A 
BRANCH  78  81
ATOM     81  S   UNL A   1      50.018  27.250  22.018  1.00  0.00     0.127 S 
ATOM     82  O   UNL A   1      51.399  26.790  21.913  1.00  0.00    -0.237 OA
ATOM     83  O   UNL A   1      49.015  26.311  21.512  1.00  0.00    -0.237 OA
ATOM     84  O   UNL A   1      49.780  28.637  21.641  1.00  0.00    -0.744 OA
ENDBRANCH  78  81
ENDBRANCH  50  74
BRANCH  62  85
ATOM     85  C   UNL A   1      45.394  32.755  28.920  1.00  0.00     0.023 A 
ATOM     86  C   UNL A   1      46.084  32.978  30.128  1.00  0.00     0.012 A 
ATOM     87  C   UNL A   1      45.254  33.813  27.999  1.00  0.00     0.148 A 
ATOM     88  C   UNL A   1      46.597  34.240  30.429  1.00  0.00     0.002 A 
ATOM     89  C   UNL A   1      45.811  35.053  28.283  1.00  0.00     0.091 A 
ATOM     90  F   UNL A   1      44.577  33.586  26.864  1.00  0.00    -0.205 F 
ATOM     91  C   UNL A   1      46.471  35.272  29.503  1.00  0.00     0.022 A 
BRANCH  89  92
ATOM     92  S   UNL A   1      45.786  36.412  27.107  1.00  0.00     0.127 S 
ATOM     93  O   UNL A   1      46.448  35.814  25.949  1.00  0.00    -0.237 OA
ATOM     94  O   UNL A   1      44.352  36.646  26.936  1.00  0.00    -0.237 OA
ATOM     95  O   UNL A   1      46.507  37.506  27.743  1.00  0.00    -0.744 OA
ENDBRANCH  89  92
ENDBRANCH  62  85
ENDBRANCH  36  37
ENDBRANCH  28  31
ENDBRANCH  26  27
ENDBRANCH  25  26
ENDBRANCH   1  25
TORSDOF 19
ENDMDL
