MODEL 1
REMARK VINA RESULT:     -10.6      0.000      0.000
REMARK SMILES [NH3+]CCOCC(=O)N[C@H](C(=O)NCCCCCCNC(=O)c1ccc(-c2c3nc(c(-c4cccc(S(=O)(=O)[O-])c4F)c4ccc([nH]4)c(-c4cccc(S(=O)(=O)[O-])c4F)c4nc(c(-c5cccc(S(=O)(=O)[O-])c5F)c5ccc2[nH]5)C=C4)C=C3)cc1)c1ccccc1
REMARK SMILES IDX 14 1 13 2 12 3 10 4 11 5 9 7 8 8 6 9 7 10 5 12 4 13 3 14
REMARK SMILES IDX 2 15 1 16 85 20 86 21 90 22 87 23 89 24 88 25 15 26 16 27
REMARK SMILES IDX 17 28 18 29 19 30 20 31 21 33 22 34 23 35 84 36 24 37 83 38
REMARK SMILES IDX 25 39 26 40 27 41 77 42 28 43 82 44 76 45 78 46 29 47 81 48
REMARK SMILES IDX 75 49 74 50 30 52 62 53 42 54 61 55 43 56 46 57 60 58 79 59
REMARK SMILES IDX 44 60 45 61 59 63 80 64 47 65 31 66 32 67 40 68 33 69 35 70
REMARK SMILES IDX 41 71 34 72 36 73 37 74 38 75 39 76 63 77 64 78 72 79 65 80
REMARK SMILES IDX 67 81 73 82 66 83 68 84 69 85 70 86 71 87 48 88 49 89 57 90
REMARK SMILES IDX 50 91 52 92 58 93 51 94 53 95 54 96 55 97 56 98
REMARK H PARENT 12 6 8 11 1 17 1 18 1 19 19 32 78 51 46 62
REMARK Flexibility Score: inf
ROOT
ATOM      1  C   UNL A   1      36.864  22.956  25.050  1.00  0.00     0.021 C 
ENDROOT
BRANCH   1   2
ATOM      2  C   UNL A   1      35.771  23.843  25.645  1.00  0.00     0.116 C 
BRANCH   2   3
ATOM      3  N   UNL A   1      34.468  23.525  25.086  1.00  0.00    -0.354 N 
ATOM      4  C   UNL A   1      33.533  24.347  24.507  1.00  0.00     0.247 C 
ATOM      5  O   UNL A   1      32.524  23.810  24.041  1.00  0.00    -0.272 OA
ATOM      6  H   UNL A   1      34.217  22.573  25.129  1.00  0.00     0.163 HD
BRANCH   4   7
ATOM      7  C   UNL A   1      33.869  25.850  24.316  1.00  0.00     0.202 C 
BRANCH   7   8
ATOM      8  N   UNL A   1      33.813  26.051  22.857  1.00  0.00    -0.339 N 
ATOM      9  C   UNL A   1      32.821  25.857  21.950  1.00  0.00     0.246 C 
ATOM     10  O   UNL A   1      33.148  25.472  20.822  1.00  0.00    -0.272 OA
ATOM     11  H   UNL A   1      34.651  26.389  22.467  1.00  0.00     0.164 HD
BRANCH   9  12
ATOM     12  C   UNL A   1      31.365  26.251  22.228  1.00  0.00     0.260 C 
BRANCH  12  13
ATOM     13  O   UNL A   1      30.869  27.520  21.878  1.00  0.00    -0.366 OA
BRANCH  13  14
ATOM     14  C   UNL A   1      30.723  28.429  22.964  1.00  0.00     0.222 C 
BRANCH  14  15
ATOM     15  C   UNL A   1      29.808  29.606  22.591  1.00  0.00     0.287 C 
BRANCH  15  16
ATOM     16  N   UNL A   1      30.227  30.345  21.395  1.00  0.00    -0.356 N 
ATOM     17  H   UNL A   1      31.194  30.648  21.504  1.00  0.00     0.344 HD
ATOM     18  H   UNL A   1      29.626  31.160  21.271  1.00  0.00     0.344 HD
ATOM     19  H   UNL A   1      30.151  29.739  20.577  1.00  0.00     0.344 HD
ENDBRANCH  15  16
ENDBRANCH  14  15
ENDBRANCH  13  14
ENDBRANCH  12  13
ENDBRANCH   9  12
ENDBRANCH   7   8
BRANCH   7  20
ATOM     20  C   UNL A   1      33.146  26.838  25.207  1.00  0.00    -0.016 A 
ATOM     21  C   UNL A   1      33.565  28.181  25.226  1.00  0.00     0.006 A 
ATOM     22  C   UNL A   1      32.100  26.467  26.069  1.00  0.00     0.006 A 
ATOM     23  C   UNL A   1      32.883  29.137  25.980  1.00  0.00     0.000 A 
ATOM     24  C   UNL A   1      31.433  27.420  26.842  1.00  0.00     0.000 A 
ATOM     25  C   UNL A   1      31.808  28.758  26.778  1.00  0.00     0.000 A 
ENDBRANCH   7  20
ENDBRANCH   4   7
ENDBRANCH   2   3
ENDBRANCH   1   2
BRANCH   1  26
ATOM     26  C   UNL A   1      36.330  21.777  24.227  1.00  0.00     0.002 C 
BRANCH  26  27
ATOM     27  C   UNL A   1      36.185  20.456  24.991  1.00  0.00     0.002 C 
BRANCH  27  28
ATOM     28  C   UNL A   1      37.449  19.595  25.049  1.00  0.00     0.021 C 
BRANCH  28  29
ATOM     29  C   UNL A   1      38.715  20.347  25.448  1.00  0.00     0.116 C 
BRANCH  29  30
ATOM     30  N   UNL A   1      39.790  19.445  25.835  1.00  0.00    -0.352 N 
ATOM     31  C   UNL A   1      41.034  19.745  26.332  1.00  0.00     0.251 C 
ATOM     32  H   UNL A   1      39.598  18.486  25.724  1.00  0.00     0.163 HD
ATOM     33  O   UNL A   1      41.890  18.868  26.423  1.00  0.00    -0.269 OA
BRANCH  31  34
ATOM     34  C   UNL A   1      41.343  21.132  26.740  1.00  0.00     0.039 A 
ATOM     35  C   UNL A   1      41.963  21.357  27.972  1.00  0.00     0.014 A 
ATOM     36  C   UNL A   1      41.039  22.205  25.897  1.00  0.00     0.014 A 
ATOM     37  C   UNL A   1      42.345  22.653  28.326  1.00  0.00     0.010 A 
ATOM     38  C   UNL A   1      41.483  23.483  26.221  1.00  0.00     0.010 A 
ATOM     39  C   UNL A   1      42.146  23.720  27.435  1.00  0.00    -0.014 A 
BRANCH  39  40
ATOM     40  C   UNL A   1      42.656  25.084  27.732  1.00  0.00     0.031 A 
ATOM     41  C   UNL A   1      41.757  26.113  28.358  1.00  0.00     0.074 A 
ATOM     42  C   UNL A   1      43.899  25.425  27.338  1.00  0.00     0.049 A 
ATOM     43  N   UNL A   1      41.997  27.374  28.607  1.00  0.00    -0.248 NA
ATOM     44  C   UNL A   1      40.402  25.676  28.731  1.00  0.00     0.031 C 
ATOM     45  C   UNL A   1      44.842  24.538  26.653  1.00  0.00     0.029 A 
ATOM     46  N   UNL A   1      44.572  26.618  27.424  1.00  0.00    -0.354 N 
ATOM     47  C   UNL A   1      40.818  27.890  29.131  1.00  0.00     0.074 A 
ATOM     48  C   UNL A   1      39.853  26.812  29.138  1.00  0.00     0.031 C 
ATOM     49  C   UNL A   1      45.967  25.217  26.380  1.00  0.00     0.029 A 
ATOM     50  C   UNL A   1      45.814  26.595  26.833  1.00  0.00     0.049 A 
ATOM     51  H   UNL A   1      44.201  27.415  27.867  1.00  0.00     0.167 HD
ATOM     52  C   UNL A   1      40.570  29.141  29.589  1.00  0.00     0.034 A 
ATOM     53  C   UNL A   1      46.721  27.577  26.656  1.00  0.00     0.034 A 
ATOM     54  C   UNL A   1      41.543  30.198  29.614  1.00  0.00     0.049 A 
ATOM     55  C   UNL A   1      46.424  28.952  27.186  1.00  0.00     0.074 A 
ATOM     56  C   UNL A   1      41.416  31.469  30.146  1.00  0.00     0.029 A 
ATOM     57  N   UNL A   1      42.817  30.117  29.074  1.00  0.00    -0.354 N 
ATOM     58  N   UNL A   1      45.363  29.377  27.830  1.00  0.00    -0.248 NA
ATOM     59  C   UNL A   1      47.459  29.979  26.994  1.00  0.00     0.031 C 
ATOM     60  C   UNL A   1      42.601  32.168  29.897  1.00  0.00     0.029 A 
ATOM     61  C   UNL A   1      43.479  31.321  29.238  1.00  0.00     0.049 A 
ATOM     62  H   UNL A   1      43.194  29.320  28.636  1.00  0.00     0.167 HD
ATOM     63  C   UNL A   1      45.614  30.707  28.143  1.00  0.00     0.074 A 
ATOM     64  C   UNL A   1      46.938  31.012  27.641  1.00  0.00     0.031 C 
ATOM     65  C   UNL A   1      44.814  31.600  28.776  1.00  0.00     0.034 A 
BRANCH  52  66
ATOM     66  C   UNL A   1      39.199  29.424  30.146  1.00  0.00     0.023 A 
ATOM     67  C   UNL A   1      38.883  29.020  31.459  1.00  0.00     0.012 A 
ATOM     68  C   UNL A   1      38.248  30.147  29.399  1.00  0.00     0.148 A 
ATOM     69  C   UNL A   1      37.633  29.301  32.009  1.00  0.00     0.002 A 
ATOM     70  C   UNL A   1      37.021  30.464  29.970  1.00  0.00     0.091 A 
ATOM     71  F   UNL A   1      38.558  30.507  28.144  1.00  0.00    -0.205 F 
ATOM     72  C   UNL A   1      36.708  30.032  31.269  1.00  0.00     0.022 A 
BRANCH  70  73
ATOM     73  S   UNL A   1      35.789  31.467  29.129  1.00  0.00     0.127 S 
ATOM     74  O   UNL A   1      35.232  30.509  28.175  1.00  0.00    -0.237 OA
ATOM     75  O   UNL A   1      34.891  31.830  30.225  1.00  0.00    -0.237 OA
ATOM     76  O   UNL A   1      36.515  32.584  28.541  1.00  0.00    -0.744 OA
ENDBRANCH  70  73
ENDBRANCH  52  66
BRANCH  53  77
ATOM     77  C   UNL A   1      48.016  27.281  25.980  1.00  0.00     0.023 A 
ATOM     78  C   UNL A   1      49.076  26.727  26.726  1.00  0.00     0.012 A 
ATOM     79  C   UNL A   1      48.197  27.520  24.604  1.00  0.00     0.148 A 
ATOM     80  C   UNL A   1      50.300  26.446  26.120  1.00  0.00     0.002 A 
ATOM     81  C   UNL A   1      49.400  27.185  23.996  1.00  0.00     0.091 A 
ATOM     82  F   UNL A   1      47.181  28.060  23.915  1.00  0.00    -0.205 F 
ATOM     83  C   UNL A   1      50.460  26.665  24.754  1.00  0.00     0.022 A 
BRANCH  81  84
ATOM     84  S   UNL A   1      49.646  27.306  22.220  1.00  0.00     0.127 S 
ATOM     85  O   UNL A   1      51.053  26.939  22.087  1.00  0.00    -0.237 OA
ATOM     86  O   UNL A   1      48.698  26.312  21.716  1.00  0.00    -0.237 OA
ATOM     87  O   UNL A   1      49.315  28.681  21.870  1.00  0.00    -0.744 OA
ENDBRANCH  81  84
ENDBRANCH  53  77
BRANCH  65  88
ATOM     88  C   UNL A   1      45.348  32.993  28.989  1.00  0.00     0.023 A 
ATOM     89  C   UNL A   1      46.006  33.312  30.193  1.00  0.00     0.012 A 
ATOM     90  C   UNL A   1      45.277  33.955  27.962  1.00  0.00     0.148 A 
ATOM     91  C   UNL A   1      46.563  34.576  30.382  1.00  0.00     0.002 A 
ATOM     92  C   UNL A   1      45.878  35.196  28.138  1.00  0.00     0.091 A 
ATOM     93  F   UNL A   1      44.634  33.635  26.830  1.00  0.00    -0.205 F 
ATOM     94  C   UNL A   1      46.511  35.512  29.351  1.00  0.00     0.022 A 
BRANCH  92  95
ATOM     95  S   UNL A   1      45.947  36.431  26.836  1.00  0.00     0.127 S 
ATOM     96  O   UNL A   1      44.574  36.936  26.833  1.00  0.00    -0.237 OA
ATOM     97  O   UNL A   1      46.942  37.370  27.354  1.00  0.00    -0.237 OA
ATOM     98  O   UNL A   1      46.351  35.723  25.629  1.00  0.00    -0.744 OA
ENDBRANCH  92  95
ENDBRANCH  65  88
ENDBRANCH  39  40
ENDBRANCH  31  34
ENDBRANCH  29  30
ENDBRANCH  28  29
ENDBRANCH  27  28
ENDBRANCH  26  27
ENDBRANCH   1  26
TORSDOF 23
ENDMDL
MODEL 2
REMARK VINA RESULT:     -10.4      1.577      7.912
REMARK SMILES [NH3+]CCOCC(=O)N[C@H](C(=O)NCCCCCCNC(=O)c1ccc(-c2c3nc(c(-c4cccc(S(=O)(=O)[O-])c4F)c4ccc([nH]4)c(-c4cccc(S(=O)(=O)[O-])c4F)c4nc(c(-c5cccc(S(=O)(=O)[O-])c5F)c5ccc2[nH]5)C=C4)C=C3)cc1)c1ccccc1
REMARK SMILES IDX 14 1 13 2 12 3 10 4 11 5 9 7 8 8 6 9 7 10 5 12 4 13 3 14
REMARK SMILES IDX 2 15 1 16 85 20 86 21 90 22 87 23 89 24 88 25 15 26 16 27
REMARK SMILES IDX 17 28 18 29 19 30 20 31 21 33 22 34 23 35 84 36 24 37 83 38
REMARK SMILES IDX 25 39 26 40 27 41 77 42 28 43 82 44 76 45 78 46 29 47 81 48
REMARK SMILES IDX 75 49 74 50 30 52 62 53 42 54 61 55 43 56 46 57 60 58 79 59
REMARK SMILES IDX 44 60 45 61 59 63 80 64 47 65 31 66 32 67 40 68 33 69 35 70
REMARK SMILES IDX 41 71 34 72 36 73 37 74 38 75 39 76 63 77 64 78 72 79 65 80
REMARK SMILES IDX 67 81 73 82 66 83 68 84 69 85 70 86 71 87 48 88 49 89 57 90
REMARK SMILES IDX 50 91 52 92 58 93 51 94 53 95 54 96 55 97 56 98
REMARK H PARENT 12 6 8 11 1 17 1 18 1 19 19 32 78 51 46 62
REMARK Flexibility Score: inf
ROOT
ATOM      1  C   UNL A   1      36.323  23.378  25.204  1.00  0.00     0.021 C 
ENDROOT
BRANCH   1   2
ATOM      2  C   UNL A   1      35.048  24.115  24.797  1.00  0.00     0.116 C 
BRANCH   2   3
ATOM      3  N   UNL A   1      34.766  23.945  23.381  1.00  0.00    -0.354 N 
ATOM      4  C   UNL A   1      33.719  23.310  22.761  1.00  0.00     0.247 C 
ATOM      5  O   UNL A   1      33.675  23.370  21.528  1.00  0.00    -0.272 OA
ATOM      6  H   UNL A   1      35.429  24.348  22.773  1.00  0.00     0.163 HD
BRANCH   4   7
ATOM      7  C   UNL A   1      32.579  22.715  23.631  1.00  0.00     0.202 C 
BRANCH   7   8
ATOM      8  N   UNL A   1      31.357  23.358  23.115  1.00  0.00    -0.339 N 
ATOM      9  C   UNL A   1      30.874  24.622  23.237  1.00  0.00     0.246 C 
ATOM     10  O   UNL A   1      29.648  24.758  23.305  1.00  0.00    -0.272 OA
ATOM     11  H   UNL A   1      30.786  22.761  22.581  1.00  0.00     0.164 HD
BRANCH   9  12
ATOM     12  C   UNL A   1      31.773  25.860  23.128  1.00  0.00     0.260 C 
BRANCH  12  13
ATOM     13  O   UNL A   1      32.470  26.359  24.245  1.00  0.00    -0.366 OA
BRANCH  13  14
ATOM     14  C   UNL A   1      31.646  26.830  25.306  1.00  0.00     0.222 C 
BRANCH  14  15
ATOM     15  C   UNL A   1      32.485  27.237  26.527  1.00  0.00     0.287 C 
BRANCH  15  16
ATOM     16  N   UNL A   1      32.605  28.685  26.727  1.00  0.00    -0.356 N 
ATOM     17  H   UNL A   1      33.085  28.868  27.608  1.00  0.00     0.344 HD
ATOM     18  H   UNL A   1      31.675  29.104  26.752  1.00  0.00     0.344 HD
ATOM     19  H   UNL A   1      33.140  29.091  25.958  1.00  0.00     0.344 HD
ENDBRANCH  15  16
ENDBRANCH  14  15
ENDBRANCH  13  14
ENDBRANCH  12  13
ENDBRANCH   9  12
ENDBRANCH   7   8
BRANCH   7  20
ATOM     20  C   UNL A   1      32.573  21.214  23.829  1.00  0.00    -0.016 A 
ATOM     21  C   UNL A   1      32.147  20.384  22.777  1.00  0.00     0.006 A 
ATOM     22  C   UNL A   1      32.922  20.602  25.045  1.00  0.00     0.006 A 
ATOM     23  C   UNL A   1      32.191  18.994  22.893  1.00  0.00     0.000 A 
ATOM     24  C   UNL A   1      32.943  19.211  25.170  1.00  0.00     0.000 A 
ATOM     25  C   UNL A   1      32.602  18.407  24.087  1.00  0.00     0.000 A 
ENDBRANCH   7  20
ENDBRANCH   4   7
ENDBRANCH   2   3
ENDBRANCH   1   2
BRANCH   1  26
ATOM     26  C   UNL A   1      36.630  22.143  24.347  1.00  0.00     0.002 C 
BRANCH  26  27
ATOM     27  C   UNL A   1      36.554  20.800  25.083  1.00  0.00     0.002 C 
BRANCH  27  28
ATOM     28  C   UNL A   1      37.816  19.938  24.998  1.00  0.00     0.021 C 
BRANCH  28  29
ATOM     29  C   UNL A   1      39.013  20.486  25.767  1.00  0.00     0.116 C 
BRANCH  29  30
ATOM     30  N   UNL A   1      40.051  19.482  25.954  1.00  0.00    -0.352 N 
ATOM     31  C   UNL A   1      41.397  19.656  26.160  1.00  0.00     0.251 C 
ATOM     32  H   UNL A   1      39.744  18.547  25.928  1.00  0.00     0.163 HD
ATOM     33  O   UNL A   1      42.159  18.695  26.103  1.00  0.00    -0.269 OA
BRANCH  31  34
ATOM     34  C   UNL A   1      41.925  21.010  26.432  1.00  0.00     0.039 A 
ATOM     35  C   UNL A   1      42.239  21.845  25.356  1.00  0.00     0.014 A 
ATOM     36  C   UNL A   1      42.092  21.458  27.746  1.00  0.00     0.014 A 
ATOM     37  C   UNL A   1      42.650  23.158  25.600  1.00  0.00     0.010 A 
ATOM     38  C   UNL A   1      42.433  22.785  27.982  1.00  0.00     0.010 A 
ATOM     39  C   UNL A   1      42.710  23.651  26.913  1.00  0.00    -0.014 A 
BRANCH  39  40
ATOM     40  C   UNL A   1      43.020  25.077  27.193  1.00  0.00     0.031 A 
ATOM     41  C   UNL A   1      44.423  25.596  27.036  1.00  0.00     0.074 A 
ATOM     42  C   UNL A   1      42.057  25.878  27.691  1.00  0.00     0.049 A 
ATOM     43  N   UNL A   1      44.899  26.780  27.319  1.00  0.00    -0.248 NA
ATOM     44  C   UNL A   1      45.429  24.653  26.519  1.00  0.00     0.031 C 
ATOM     45  C   UNL A   1      40.675  25.473  27.958  1.00  0.00     0.029 A 
ATOM     46  N   UNL A   1      42.101  27.190  28.094  1.00  0.00    -0.354 N 
ATOM     47  C   UNL A   1      46.261  26.718  27.048  1.00  0.00     0.074 A 
ATOM     48  C   UNL A   1      46.541  25.369  26.607  1.00  0.00     0.031 C 
ATOM     49  C   UNL A   1      40.006  26.511  28.482  1.00  0.00     0.029 A 
ATOM     50  C   UNL A   1      40.915  27.643  28.625  1.00  0.00     0.049 A 
ATOM     51  H   UNL A   1      42.904  27.753  28.011  1.00  0.00     0.167 HD
ATOM     52  C   UNL A   1      47.189  27.701  27.136  1.00  0.00     0.034 A 
ATOM     53  C   UNL A   1      40.599  28.829  29.183  1.00  0.00     0.034 A 
ATOM     54  C   UNL A   1      46.899  29.050  27.540  1.00  0.00     0.049 A 
ATOM     55  C   UNL A   1      41.646  29.907  29.254  1.00  0.00     0.074 A 
ATOM     56  C   UNL A   1      47.751  30.140  27.567  1.00  0.00     0.029 A 
ATOM     57  N   UNL A   1      45.669  29.493  28.000  1.00  0.00    -0.354 N 
ATOM     58  N   UNL A   1      42.889  29.878  28.838  1.00  0.00    -0.248 NA
ATOM     59  C   UNL A   1      41.241  31.191  29.845  1.00  0.00     0.031 C 
ATOM     60  C   UNL A   1      47.045  31.234  28.077  1.00  0.00     0.029 A 
ATOM     61  C   UNL A   1      45.743  30.833  28.336  1.00  0.00     0.049 A 
ATOM     62  H   UNL A   1      44.861  28.935  28.078  1.00  0.00     0.167 HD
ATOM     63  C   UNL A   1      43.404  31.144  29.089  1.00  0.00     0.074 A 
ATOM     64  C   UNL A   1      42.332  31.924  29.671  1.00  0.00     0.031 C 
ATOM     65  C   UNL A   1      44.658  31.613  28.871  1.00  0.00     0.034 A 
BRANCH  52  66
ATOM     66  C   UNL A   1      48.604  27.367  26.741  1.00  0.00     0.023 A 
ATOM     67  C   UNL A   1      49.460  26.749  27.675  1.00  0.00     0.012 A 
ATOM     68  C   UNL A   1      49.065  27.600  25.431  1.00  0.00     0.148 A 
ATOM     69  C   UNL A   1      50.764  26.399  27.323  1.00  0.00     0.002 A 
ATOM     70  C   UNL A   1      50.350  27.207  25.073  1.00  0.00     0.091 A 
ATOM     71  F   UNL A   1      48.244  28.206  24.561  1.00  0.00    -0.205 F 
ATOM     72  C   UNL A   1      51.203  26.618  26.021  1.00  0.00     0.022 A 
BRANCH  70  73
ATOM     73  S   UNL A   1      50.986  27.374  23.401  1.00  0.00     0.127 S 
ATOM     74  O   UNL A   1      51.056  28.827  23.257  1.00  0.00    -0.237 OA
ATOM     75  O   UNL A   1      52.285  26.707  23.500  1.00  0.00    -0.237 OA
ATOM     76  O   UNL A   1      50.023  26.706  22.537  1.00  0.00    -0.744 OA
ENDBRANCH  70  73
ENDBRANCH  52  66
BRANCH  53  77
ATOM     77  C   UNL A   1      39.216  29.072  29.681  1.00  0.00     0.023 A 
ATOM     78  C   UNL A   1      38.875  28.692  30.994  1.00  0.00     0.012 A 
ATOM     79  C   UNL A   1      38.245  29.696  28.873  1.00  0.00     0.148 A 
ATOM     80  C   UNL A   1      37.585  28.901  31.483  1.00  0.00     0.002 A 
ATOM     81  C   UNL A   1      36.980  29.954  29.387  1.00  0.00     0.091 A 
ATOM     82  F   UNL A   1      38.585  30.039  27.623  1.00  0.00    -0.205 F 
ATOM     83  C   UNL A   1      36.641  29.541  30.684  1.00  0.00     0.022 A 
BRANCH  81  84
ATOM     84  S   UNL A   1      35.747  30.892  28.477  1.00  0.00     0.127 S 
ATOM     85  O   UNL A   1      35.264  29.902  27.519  1.00  0.00    -0.237 OA
ATOM     86  O   UNL A   1      34.796  31.243  29.533  1.00  0.00    -0.237 OA
ATOM     87  O   UNL A   1      36.458  32.029  27.909  1.00  0.00    -0.744 OA
ENDBRANCH  81  84
ENDBRANCH  53  77
BRANCH  65  88
ATOM     88  C   UNL A   1      44.944  33.046  29.239  1.00  0.00     0.023 A 
ATOM     89  C   UNL A   1      45.483  33.349  30.505  1.00  0.00     0.012 A 
ATOM     90  C   UNL A   1      44.763  34.079  28.298  1.00  0.00     0.148 A 
ATOM     91  C   UNL A   1      45.813  34.662  30.838  1.00  0.00     0.002 A 
ATOM     92  C   UNL A   1      45.141  35.377  28.619  1.00  0.00     0.091 A 
ATOM     93  F   UNL A   1      44.235  33.771  27.104  1.00  0.00    -0.205 F 
ATOM     94  C   UNL A   1      45.654  35.672  29.892  1.00  0.00     0.022 A 
BRANCH  92  95
ATOM     95  S   UNL A   1      45.064  36.727  27.437  1.00  0.00     0.127 S 
ATOM     96  O   UNL A   1      45.599  37.840  28.222  1.00  0.00    -0.237 OA
ATOM     97  O   UNL A   1      45.945  36.253  26.370  1.00  0.00    -0.237 OA
ATOM     98  O   UNL A   1      43.664  36.853  27.057  1.00  0.00    -0.744 OA
ENDBRANCH  92  95
ENDBRANCH  65  88
ENDBRANCH  39  40
ENDBRANCH  31  34
ENDBRANCH  29  30
ENDBRANCH  28  29
ENDBRANCH  27  28
ENDBRANCH  26  27
ENDBRANCH   1  26
TORSDOF 23
ENDMDL
MODEL 3
REMARK VINA RESULT:     -10.3      5.310     10.422
REMARK SMILES [NH3+]CCOCC(=O)N[C@H](C(=O)NCCCCCCNC(=O)c1ccc(-c2c3nc(c(-c4cccc(S(=O)(=O)[O-])c4F)c4ccc([nH]4)c(-c4cccc(S(=O)(=O)[O-])c4F)c4nc(c(-c5cccc(S(=O)(=O)[O-])c5F)c5ccc2[nH]5)C=C4)C=C3)cc1)c1ccccc1
REMARK SMILES IDX 14 1 13 2 12 3 10 4 11 5 9 7 8 8 6 9 7 10 5 12 4 13 3 14
REMARK SMILES IDX 2 15 1 16 85 20 86 21 90 22 87 23 89 24 88 25 15 26 16 27
REMARK SMILES IDX 17 28 18 29 19 30 20 31 21 33 22 34 23 35 84 36 24 37 83 38
REMARK SMILES IDX 25 39 26 40 27 41 77 42 28 43 82 44 76 45 78 46 29 47 81 48
REMARK SMILES IDX 75 49 74 50 30 52 62 53 42 54 61 55 43 56 46 57 60 58 79 59
REMARK SMILES IDX 44 60 45 61 59 63 80 64 47 65 31 66 32 67 40 68 33 69 35 70
REMARK SMILES IDX 41 71 34 72 36 73 37 74 38 75 39 76 63 77 64 78 72 79 65 80
REMARK SMILES IDX 67 81 73 82 66 83 68 84 69 85 70 86 71 87 48 88 49 89 57 90
REMARK SMILES IDX 50 91 52 92 58 93 51 94 53 95 54 96 55 97 56 98
REMARK H PARENT 12 6 8 11 1 17 1 18 1 19 19 32 78 51 46 62
REMARK Flexibility Score: inf
ROOT
ATOM      1  C   UNL A   1      31.652  26.407  26.243  1.00  0.00     0.021 C 
ENDROOT
BRANCH   1   2
ATOM      2  C   UNL A   1      30.196  25.953  26.149  1.00  0.00     0.116 C 
BRANCH   2   3
ATOM      3  N   UNL A   1      29.991  25.058  25.021  1.00  0.00    -0.354 N 
ATOM      4  C   UNL A   1      30.152  25.285  23.676  1.00  0.00     0.247 C 
ATOM      5  O   UNL A   1      29.979  24.325  22.919  1.00  0.00    -0.272 OA
ATOM      6  H   UNL A   1      29.692  24.150  25.258  1.00  0.00     0.163 HD
BRANCH   4   7
ATOM      7  C   UNL A   1      30.700  26.659  23.205  1.00  0.00     0.202 C 
BRANCH   7   8
ATOM      8  N   UNL A   1      31.635  26.321  22.118  1.00  0.00    -0.339 N 
ATOM      9  C   UNL A   1      32.963  26.033  22.116  1.00  0.00     0.246 C 
ATOM     10  O   UNL A   1      33.626  26.411  21.144  1.00  0.00    -0.272 OA
ATOM     11  H   UNL A   1      31.220  26.299  21.226  1.00  0.00     0.164 HD
BRANCH   9  12
ATOM     12  C   UNL A   1      33.610  25.135  23.178  1.00  0.00     0.260 C 
BRANCH  12  13
ATOM     13  O   UNL A   1      34.551  24.148  22.829  1.00  0.00    -0.366 OA
BRANCH  13  14
ATOM     14  C   UNL A   1      34.362  22.888  23.463  1.00  0.00     0.222 C 
BRANCH  14  15
ATOM     15  C   UNL A   1      35.310  22.717  24.661  1.00  0.00     0.287 C 
BRANCH  15  16
ATOM     16  N   UNL A   1      36.322  21.669  24.491  1.00  0.00    -0.356 N 
ATOM     17  H   UNL A   1      36.591  21.612  23.509  1.00  0.00     0.344 HD
ATOM     18  H   UNL A   1      35.939  20.773  24.792  1.00  0.00     0.344 HD
ATOM     19  H   UNL A   1      37.143  21.894  25.054  1.00  0.00     0.344 HD
ENDBRANCH  15  16
ENDBRANCH  14  15
ENDBRANCH  13  14
ENDBRANCH  12  13
ENDBRANCH   9  12
ENDBRANCH   7   8
BRANCH   7  20
ATOM     20  C   UNL A   1      29.689  27.761  22.970  1.00  0.00    -0.016 A 
ATOM     21  C   UNL A   1      28.355  27.567  23.369  1.00  0.00     0.006 A 
ATOM     22  C   UNL A   1      30.007  28.962  22.312  1.00  0.00     0.006 A 
ATOM     23  C   UNL A   1      27.407  28.582  23.233  1.00  0.00     0.000 A 
ATOM     24  C   UNL A   1      29.052  29.970  22.155  1.00  0.00     0.000 A 
ATOM     25  C   UNL A   1      27.759  29.789  22.637  1.00  0.00     0.000 A 
ENDBRANCH   7  20
ENDBRANCH   4   7
ENDBRANCH   2   3
ENDBRANCH   1   2
BRANCH   1  26
ATOM     26  C   UNL A   1      31.995  27.131  27.551  1.00  0.00     0.002 C 
BRANCH  26  27
ATOM     27  C   UNL A   1      31.584  28.607  27.610  1.00  0.00     0.002 C 
BRANCH  27  28
ATOM     28  C   UNL A   1      31.849  29.409  26.333  1.00  0.00     0.021 C 
BRANCH  28  29
ATOM     29  C   UNL A   1      33.154  30.198  26.335  1.00  0.00     0.116 C 
BRANCH  29  30
ATOM     30  N   UNL A   1      32.962  31.575  26.766  1.00  0.00    -0.352 N 
ATOM     31  C   UNL A   1      33.711  32.322  27.641  1.00  0.00     0.251 C 
ATOM     32  H   UNL A   1      32.184  32.035  26.375  1.00  0.00     0.163 HD
ATOM     33  O   UNL A   1      33.295  33.406  28.041  1.00  0.00    -0.269 OA
BRANCH  31  34
ATOM     34  C   UNL A   1      35.013  31.805  28.113  1.00  0.00     0.039 A 
ATOM     35  C   UNL A   1      36.127  32.647  28.093  1.00  0.00     0.014 A 
ATOM     36  C   UNL A   1      35.127  30.496  28.592  1.00  0.00     0.014 A 
ATOM     37  C   UNL A   1      37.340  32.201  28.624  1.00  0.00     0.010 A 
ATOM     38  C   UNL A   1      36.315  30.079  29.182  1.00  0.00     0.010 A 
ATOM     39  C   UNL A   1      37.432  30.928  29.210  1.00  0.00    -0.014 A 
BRANCH  39  40
ATOM     40  C   UNL A   1      38.673  30.478  29.894  1.00  0.00     0.031 A 
ATOM     41  C   UNL A   1      39.545  29.423  29.271  1.00  0.00     0.074 A 
ATOM     42  C   UNL A   1      38.954  30.943  31.127  1.00  0.00     0.049 A 
ATOM     43  N   UNL A   1      40.610  28.843  29.759  1.00  0.00    -0.248 NA
ATOM     44  C   UNL A   1      39.155  28.938  27.937  1.00  0.00     0.031 C 
ATOM     45  C   UNL A   1      38.145  31.913  31.870  1.00  0.00     0.029 A 
ATOM     46  N   UNL A   1      39.978  30.638  31.989  1.00  0.00    -0.354 N 
ATOM     47  C   UNL A   1      40.999  27.903  28.812  1.00  0.00     0.074 A 
ATOM     48  C   UNL A   1      40.037  27.969  27.733  1.00  0.00     0.031 C 
ATOM     49  C   UNL A   1      38.701  32.121  33.073  1.00  0.00     0.029 A 
ATOM     50  C   UNL A   1      39.881  31.273  33.207  1.00  0.00     0.049 A 
ATOM     51  H   UNL A   1      40.712  30.024  31.759  1.00  0.00     0.167 HD
ATOM     52  C   UNL A   1      42.073  27.077  28.828  1.00  0.00     0.034 A 
ATOM     53  C   UNL A   1      40.644  31.171  34.314  1.00  0.00     0.034 A 
ATOM     54  C   UNL A   1      43.046  27.040  29.885  1.00  0.00     0.049 A 
ATOM     55  C   UNL A   1      41.838  30.257  34.297  1.00  0.00     0.074 A 
ATOM     56  C   UNL A   1      44.219  26.309  29.947  1.00  0.00     0.029 A 
ATOM     57  N   UNL A   1      42.956  27.752  31.071  1.00  0.00    -0.354 N 
ATOM     58  N   UNL A   1      42.283  29.497  33.325  1.00  0.00    -0.248 NA
ATOM     59  C   UNL A   1      42.654  30.204  35.520  1.00  0.00     0.031 C 
ATOM     60  C   UNL A   1      44.821  26.552  31.186  1.00  0.00     0.029 A 
ATOM     61  C   UNL A   1      44.040  27.461  31.882  1.00  0.00     0.049 A 
ATOM     62  H   UNL A   1      42.228  28.373  31.303  1.00  0.00     0.167 HD
ATOM     63  C   UNL A   1      43.443  28.902  33.806  1.00  0.00     0.074 A 
ATOM     64  C   UNL A   1      43.646  29.407  35.148  1.00  0.00     0.031 C 
ATOM     65  C   UNL A   1      44.257  28.005  33.197  1.00  0.00     0.034 A 
BRANCH  52  66
ATOM     66  C   UNL A   1      42.280  26.174  27.640  1.00  0.00     0.023 A 
ATOM     67  C   UNL A   1      43.074  26.613  26.561  1.00  0.00     0.012 A 
ATOM     68  C   UNL A   1      41.749  24.869  27.620  1.00  0.00     0.148 A 
ATOM     69  C   UNL A   1      43.309  25.782  25.466  1.00  0.00     0.002 A 
ATOM     70  C   UNL A   1      42.025  24.030  26.547  1.00  0.00     0.091 A 
ATOM     71  F   UNL A   1      40.980  24.475  28.646  1.00  0.00    -0.205 F 
ATOM     72  C   UNL A   1      42.794  24.489  25.465  1.00  0.00     0.022 A 
BRANCH  70  73
ATOM     73  S   UNL A   1      41.474  22.321  26.484  1.00  0.00     0.127 S 
ATOM     74  O   UNL A   1      40.044  22.483  26.225  1.00  0.00    -0.237 OA
ATOM     75  O   UNL A   1      42.242  21.793  25.357  1.00  0.00    -0.237 OA
ATOM     76  O   UNL A   1      41.813  21.742  27.776  1.00  0.00    -0.744 OA
ENDBRANCH  70  73
ENDBRANCH  52  66
BRANCH  53  77
ATOM     77  C   UNL A   1      40.324  31.990  35.516  1.00  0.00     0.023 A 
ATOM     78  C   UNL A   1      41.130  33.103  35.831  1.00  0.00     0.012 A 
ATOM     79  C   UNL A   1      39.217  31.691  36.333  1.00  0.00     0.148 A 
ATOM     80  C   UNL A   1      40.857  33.883  36.955  1.00  0.00     0.002 A 
ATOM     81  C   UNL A   1      38.918  32.507  37.418  1.00  0.00     0.091 A 
ATOM     82  F   UNL A   1      38.471  30.621  36.025  1.00  0.00    -0.205 F 
ATOM     83  C   UNL A   1      39.745  33.592  37.742  1.00  0.00     0.022 A 
BRANCH  81  84
ATOM     84  S   UNL A   1      37.432  32.286  38.405  1.00  0.00     0.127 S 
ATOM     85  O   UNL A   1      37.794  32.964  39.646  1.00  0.00    -0.237 OA
ATOM     86  O   UNL A   1      36.428  32.976  37.595  1.00  0.00    -0.237 OA
ATOM     87  O   UNL A   1      37.236  30.847  38.504  1.00  0.00    -0.744 OA
ENDBRANCH  81  84
ENDBRANCH  53  77
BRANCH  65  88
ATOM     88  C   UNL A   1      45.463  27.522  33.960  1.00  0.00     0.023 A 
ATOM     89  C   UNL A   1      46.660  28.265  33.919  1.00  0.00     0.012 A 
ATOM     90  C   UNL A   1      45.382  26.384  34.786  1.00  0.00     0.148 A 
ATOM     91  C   UNL A   1      47.766  27.868  34.669  1.00  0.00     0.002 A 
ATOM     92  C   UNL A   1      46.473  26.022  35.570  1.00  0.00     0.091 A 
ATOM     93  F   UNL A   1      44.240  25.683  34.799  1.00  0.00    -0.205 F 
ATOM     94  C   UNL A   1      47.668  26.756  35.503  1.00  0.00     0.022 A 
BRANCH  92  95
ATOM     95  S   UNL A   1      46.412  24.665  36.744  1.00  0.00     0.127 S 
ATOM     96  O   UNL A   1      47.742  24.736  37.350  1.00  0.00    -0.237 OA
ATOM     97  O   UNL A   1      45.317  25.069  37.626  1.00  0.00    -0.237 OA
ATOM     98  O   UNL A   1      46.150  23.465  35.962  1.00  0.00    -0.744 OA
ENDBRANCH  92  95
ENDBRANCH  65  88
ENDBRANCH  39  40
ENDBRANCH  31  34
ENDBRANCH  29  30
ENDBRANCH  28  29
ENDBRANCH  27  28
ENDBRANCH  26  27
ENDBRANCH   1  26
TORSDOF 23
ENDMDL
