MODEL 1
REMARK VINA RESULT:     -12.5      0.000      0.000
REMARK SMILES Cc1cc2c(c(C)c1Cl)C=C(C(=O)NCCCCCCNC(=O)c1ccc(-c3c4nc(c(-c5cccc(S(=O)(=O)[O-])c5F)c5ccc([nH]5)c(-c5cccc(S(=O)(=O)[O-])c5F)c5nc(c(-c6cccc(S(=O)(=O)[O-])c6F)c6ccc3[nH]6)C=C5)C=C4)cc1)[C@@H](C(F)(F)F)O2
REMARK SMILES IDX 18 1 17 2 16 3 15 4 14 5 12 6 13 7 11 9 1 10 2 11 3 12 8 13
REMARK SMILES IDX 4 14 6 15 9 16 5 17 92 18 7 19 10 20 87 21 88 22 89 23 90 24
REMARK SMILES IDX 91 25 19 26 20 27 21 28 22 29 23 31 24 32 25 33 86 34 26 35
REMARK SMILES IDX 85 36 27 37 28 38 29 39 79 40 30 41 84 42 78 43 80 44 31 45
REMARK SMILES IDX 83 46 77 47 76 48 32 50 64 51 44 52 63 53 45 54 48 55 62 56
REMARK SMILES IDX 81 57 46 58 47 59 61 61 82 62 49 63 33 64 34 65 42 66 35 67
REMARK SMILES IDX 37 68 43 69 36 70 38 71 39 72 40 73 41 74 65 75 66 76 74 77
REMARK SMILES IDX 67 78 69 79 75 80 68 81 70 82 71 83 72 84 73 85 50 86 51 87
REMARK SMILES IDX 59 88 52 89 54 90 60 91 53 92 55 93 56 94 57 95 58 96
REMARK H PARENT 14 8 21 30 80 49 48 60
REMARK Flexibility Score: inf
ROOT
ATOM      1  C   UNL A   1      31.406  31.197  26.112  1.00  0.00     0.002 C 
ENDROOT
BRANCH   1   2
ATOM      2  C   UNL A   1      32.377  30.032  26.345  1.00  0.00     0.002 C 
BRANCH   2   3
ATOM      3  C   UNL A   1      31.802  28.863  27.149  1.00  0.00     0.021 C 
BRANCH   3   4
ATOM      4  C   UNL A   1      32.515  27.540  26.894  1.00  0.00     0.116 C 
BRANCH   4   5
ATOM      5  N   UNL A   1      33.126  27.507  25.577  1.00  0.00    -0.352 N 
ATOM      6  C   UNL A   1      33.367  26.581  24.621  1.00  0.00     0.251 C 
ATOM      7  O   UNL A   1      33.925  27.007  23.603  1.00  0.00    -0.270 OA
ATOM      8  H   UNL A   1      33.454  28.396  25.308  1.00  0.00     0.163 HD
BRANCH   6   9
ATOM      9  C   UNL A   1      33.013  25.132  24.715  1.00  0.00     0.067 C 
ATOM     10  C   UNL A   1      32.698  18.656  25.164  1.00  0.00     0.046 C 
ATOM     11  C   UNL A   1      33.159  20.085  25.075  1.00  0.00    -0.028 A 
ATOM     12  C   UNL A   1      32.166  21.065  25.151  1.00  0.00     0.052 A 
ATOM     13  C   UNL A   1      34.495  20.491  24.881  1.00  0.00     0.047 A 
ATOM     14  C   UNL A   1      32.487  22.412  25.042  1.00  0.00     0.128 A 
ATOM     15  C   UNL A   1      34.838  21.866  24.789  1.00  0.00    -0.021 A 
ATOM     16  Cl  UNL A   1      35.729  19.273  24.756  1.00  0.00    -0.084 Cl
ATOM     17  C   UNL A   1      33.807  22.833  24.871  1.00  0.00     0.022 A 
ATOM     18  O   UNL A   1      31.429  23.262  25.158  1.00  0.00    -0.475 OA
ATOM     19  C   UNL A   1      36.264  22.323  24.596  1.00  0.00     0.047 C 
ATOM     20  C   UNL A   1      34.050  24.279  24.816  1.00  0.00     0.026 C 
ATOM     21  C   UNL A   1      31.609  24.607  24.658  1.00  0.00     0.314 C 
BRANCH  21  22
ATOM     22  C   UNL A   1      30.988  24.716  23.253  1.00  0.00     0.429 C 
ATOM     23  F   UNL A   1      31.944  24.619  22.300  1.00  0.00    -0.167 F 
ATOM     24  F   UNL A   1      30.093  23.731  23.002  1.00  0.00    -0.167 F 
ATOM     25  F   UNL A   1      30.340  25.890  23.069  1.00  0.00    -0.167 F 
ENDBRANCH  21  22
ENDBRANCH   6   9
ENDBRANCH   4   5
ENDBRANCH   3   4
ENDBRANCH   2   3
ENDBRANCH   1   2
BRANCH   1  26
ATOM     26  C   UNL A   1      31.409  32.276  27.200  1.00  0.00     0.021 C 
BRANCH  26  27
ATOM     27  C   UNL A   1      32.738  33.003  27.360  1.00  0.00     0.116 C 
BRANCH  27  28
ATOM     28  N   UNL A   1      32.546  34.394  27.741  1.00  0.00    -0.352 N 
ATOM     29  C   UNL A   1      33.109  35.088  28.779  1.00  0.00     0.251 C 
ATOM     30  H   UNL A   1      31.923  34.906  27.176  1.00  0.00     0.163 HD
ATOM     31  O   UNL A   1      32.667  36.190  29.098  1.00  0.00    -0.269 OA
BRANCH  29  32
ATOM     32  C   UNL A   1      34.245  34.499  29.514  1.00  0.00     0.039 A 
ATOM     33  C   UNL A   1      34.042  34.022  30.810  1.00  0.00     0.014 A 
ATOM     34  C   UNL A   1      35.509  34.420  28.918  1.00  0.00     0.014 A 
ATOM     35  C   UNL A   1      35.100  33.425  31.496  1.00  0.00     0.010 A 
ATOM     36  C   UNL A   1      36.540  33.758  29.575  1.00  0.00     0.010 A 
ATOM     37  C   UNL A   1      36.351  33.268  30.874  1.00  0.00    -0.014 A 
BRANCH  37  38
ATOM     38  C   UNL A   1      37.478  32.610  31.580  1.00  0.00     0.031 A 
ATOM     39  C   UNL A   1      38.187  31.447  30.941  1.00  0.00     0.074 A 
ATOM     40  C   UNL A   1      37.828  33.028  32.811  1.00  0.00     0.049 A 
ATOM     41  N   UNL A   1      39.176  30.731  31.408  1.00  0.00    -0.248 NA
ATOM     42  C   UNL A   1      37.711  31.017  29.615  1.00  0.00     0.031 C 
ATOM     43  C   UNL A   1      37.175  34.109  33.553  1.00  0.00     0.029 A 
ATOM     44  N   UNL A   1      38.812  32.590  33.662  1.00  0.00    -0.354 N 
ATOM     45  C   UNL A   1      39.430  29.762  30.444  1.00  0.00     0.074 A 
ATOM     46  C   UNL A   1      38.459  29.947  29.390  1.00  0.00     0.031 C 
ATOM     47  C   UNL A   1      37.790  34.264  34.736  1.00  0.00     0.029 A 
ATOM     48  C   UNL A   1      38.859  33.276  34.853  1.00  0.00     0.049 A 
ATOM     49  H   UNL A   1      39.426  31.853  33.440  1.00  0.00     0.167 HD
ATOM     50  C   UNL A   1      40.411  28.830  30.421  1.00  0.00     0.034 A 
ATOM     51  C   UNL A   1      39.674  33.127  35.917  1.00  0.00     0.034 A 
ATOM     52  C   UNL A   1      41.397  28.678  31.454  1.00  0.00     0.049 A 
ATOM     53  C   UNL A   1      40.755  32.081  35.863  1.00  0.00     0.074 A 
ATOM     54  C   UNL A   1      42.466  27.800  31.497  1.00  0.00     0.029 A 
ATOM     55  N   UNL A   1      41.438  29.419  32.625  1.00  0.00    -0.354 N 
ATOM     56  N   UNL A   1      41.063  31.262  34.886  1.00  0.00    -0.248 NA
ATOM     57  C   UNL A   1      41.623  31.957  37.045  1.00  0.00     0.031 C 
ATOM     58  C   UNL A   1      43.140  27.994  32.705  1.00  0.00     0.029 A 
ATOM     59  C   UNL A   1      42.509  29.013  33.402  1.00  0.00     0.049 A 
ATOM     60  H   UNL A   1      40.801  30.129  32.868  1.00  0.00     0.167 HD
ATOM     61  C   UNL A   1      42.176  30.550  35.320  1.00  0.00     0.074 A 
ATOM     62  C   UNL A   1      42.503  31.051  36.639  1.00  0.00     0.031 C 
ATOM     63  C   UNL A   1      42.854  29.558  34.691  1.00  0.00     0.034 A 
BRANCH  50  64
ATOM     64  C   UNL A   1      40.516  27.947  29.203  1.00  0.00     0.023 A 
ATOM     65  C   UNL A   1      39.611  26.877  29.049  1.00  0.00     0.012 A 
ATOM     66  C   UNL A   1      41.439  28.226  28.177  1.00  0.00     0.148 A 
ATOM     67  C   UNL A   1      39.637  26.083  27.904  1.00  0.00     0.002 A 
ATOM     68  C   UNL A   1      41.426  27.459  27.016  1.00  0.00     0.091 A 
ATOM     69  F   UNL A   1      42.304  29.235  28.350  1.00  0.00    -0.205 F 
ATOM     70  C   UNL A   1      40.534  26.383  26.883  1.00  0.00     0.022 A 
BRANCH  68  71
ATOM     71  S   UNL A   1      42.482  27.812  25.605  1.00  0.00     0.127 S 
ATOM     72  O   UNL A   1      42.278  26.621  24.781  1.00  0.00    -0.237 OA
ATOM     73  O   UNL A   1      41.879  29.034  25.072  1.00  0.00    -0.237 OA
ATOM     74  O   UNL A   1      43.827  27.974  26.138  1.00  0.00    -0.744 OA
ENDBRANCH  68  71
ENDBRANCH  50  64
BRANCH  51  75
ATOM     75  C   UNL A   1      39.553  34.050  37.082  1.00  0.00     0.023 A 
ATOM     76  C   UNL A   1      39.969  35.388  36.945  1.00  0.00     0.012 A 
ATOM     77  C   UNL A   1      38.989  33.629  38.304  1.00  0.00     0.148 A 
ATOM     78  C   UNL A   1      39.853  36.283  38.009  1.00  0.00     0.002 A 
ATOM     79  C   UNL A   1      38.822  34.541  39.340  1.00  0.00     0.091 A 
ATOM     80  F   UNL A   1      38.609  32.349  38.419  1.00  0.00    -0.205 F 
ATOM     81  C   UNL A   1      39.269  35.864  39.201  1.00  0.00     0.022 A 
BRANCH  79  82
ATOM     82  S   UNL A   1      37.957  34.129  40.860  1.00  0.00     0.127 S 
ATOM     83  O   UNL A   1      36.779  33.430  40.354  1.00  0.00    -0.237 OA
ATOM     84  O   UNL A   1      38.935  33.279  41.540  1.00  0.00    -0.237 OA
ATOM     85  O   UNL A   1      37.701  35.400  41.524  1.00  0.00    -0.744 OA
ENDBRANCH  79  82
ENDBRANCH  51  75
BRANCH  63  86
ATOM     86  C   UNL A   1      44.033  28.945  35.400  1.00  0.00     0.023 A 
ATOM     87  C   UNL A   1      45.299  29.558  35.302  1.00  0.00     0.012 A 
ATOM     88  C   UNL A   1      43.864  27.841  36.260  1.00  0.00     0.148 A 
ATOM     89  C   UNL A   1      46.380  29.069  36.033  1.00  0.00     0.002 A 
ATOM     90  C   UNL A   1      44.934  27.395  37.026  1.00  0.00     0.091 A 
ATOM     91  F   UNL A   1      42.655  27.265  36.329  1.00  0.00    -0.205 F 
ATOM     92  C   UNL A   1      46.195  28.000  36.905  1.00  0.00     0.022 A 
BRANCH  90  93
ATOM     93  S   UNL A   1      44.767  26.098  38.259  1.00  0.00     0.127 S 
ATOM     94  O   UNL A   1      46.119  26.040  38.814  1.00  0.00    -0.237 OA
ATOM     95  O   UNL A   1      43.760  26.657  39.160  1.00  0.00    -0.237 OA
ATOM     96  O   UNL A   1      44.340  24.906  37.537  1.00  0.00    -0.744 OA
ENDBRANCH  90  93
ENDBRANCH  63  86
ENDBRANCH  37  38
ENDBRANCH  29  32
ENDBRANCH  27  28
ENDBRANCH  26  27
ENDBRANCH   1  26
TORSDOF 17
ENDMDL
MODEL 2
REMARK VINA RESULT:     -12.4      6.506     10.001
REMARK SMILES Cc1cc2c(c(C)c1Cl)C=C(C(=O)NCCCCCCNC(=O)c1ccc(-c3c4nc(c(-c5cccc(S(=O)(=O)[O-])c5F)c5ccc([nH]5)c(-c5cccc(S(=O)(=O)[O-])c5F)c5nc(c(-c6cccc(S(=O)(=O)[O-])c6F)c6ccc3[nH]6)C=C5)C=C4)cc1)[C@@H](C(F)(F)F)O2
REMARK SMILES IDX 18 1 17 2 16 3 15 4 14 5 12 6 13 7 11 9 1 10 2 11 3 12 8 13
REMARK SMILES IDX 4 14 6 15 9 16 5 17 92 18 7 19 10 20 87 21 88 22 89 23 90 24
REMARK SMILES IDX 91 25 19 26 20 27 21 28 22 29 23 31 24 32 25 33 86 34 26 35
REMARK SMILES IDX 85 36 27 37 28 38 29 39 79 40 30 41 84 42 78 43 80 44 31 45
REMARK SMILES IDX 83 46 77 47 76 48 32 50 64 51 44 52 63 53 45 54 48 55 62 56
REMARK SMILES IDX 81 57 46 58 47 59 61 61 82 62 49 63 33 64 34 65 42 66 35 67
REMARK SMILES IDX 37 68 43 69 36 70 38 71 39 72 40 73 41 74 65 75 66 76 74 77
REMARK SMILES IDX 67 78 69 79 75 80 68 81 70 82 71 83 72 84 73 85 50 86 51 87
REMARK SMILES IDX 59 88 52 89 54 90 60 91 53 92 55 93 56 94 57 95 58 96
REMARK H PARENT 14 8 21 30 80 49 48 60
REMARK Flexibility Score: inf
ROOT
ATOM      1  C   UNL A   1      36.865  19.842  25.002  1.00  0.00     0.002 C 
ENDROOT
BRANCH   1   2
ATOM      2  C   UNL A   1      35.998  21.071  24.701  1.00  0.00     0.002 C 
BRANCH   2   3
ATOM      3  C   UNL A   1      36.772  22.381  24.534  1.00  0.00     0.021 C 
BRANCH   3   4
ATOM      4  C   UNL A   1      36.674  23.303  25.744  1.00  0.00     0.116 C 
BRANCH   4   5
ATOM      5  N   UNL A   1      35.516  22.990  26.563  1.00  0.00    -0.352 N 
ATOM      6  C   UNL A   1      34.206  23.326  26.596  1.00  0.00     0.251 C 
ATOM      7  O   UNL A   1      33.547  22.794  27.496  1.00  0.00    -0.270 OA
ATOM      8  H   UNL A   1      35.745  22.366  27.290  1.00  0.00     0.163 HD
BRANCH   6   9
ATOM      9  C   UNL A   1      33.533  24.265  25.647  1.00  0.00     0.067 C 
ATOM     10  C   UNL A   1      30.755  29.177  22.425  1.00  0.00     0.046 C 
ATOM     11  C   UNL A   1      31.440  28.316  23.450  1.00  0.00    -0.028 A 
ATOM     12  C   UNL A   1      31.816  27.036  23.035  1.00  0.00     0.052 A 
ATOM     13  C   UNL A   1      31.683  28.692  24.786  1.00  0.00     0.047 A 
ATOM     14  C   UNL A   1      32.422  26.152  23.919  1.00  0.00     0.128 A 
ATOM     15  C   UNL A   1      32.321  27.805  25.693  1.00  0.00    -0.021 A 
ATOM     16  Cl  UNL A   1      31.190  30.273  25.313  1.00  0.00    -0.084 Cl
ATOM     17  C   UNL A   1      32.691  26.515  25.240  1.00  0.00     0.022 A 
ATOM     18  O   UNL A   1      32.759  24.948  23.380  1.00  0.00    -0.475 OA
ATOM     19  C   UNL A   1      32.606  28.193  27.125  1.00  0.00     0.047 C 
ATOM     20  C   UNL A   1      33.378  25.529  26.082  1.00  0.00     0.026 C 
ATOM     21  C   UNL A   1      33.004  23.860  24.303  1.00  0.00     0.314 C 
BRANCH  21  22
ATOM     22  C   UNL A   1      31.746  22.978  24.397  1.00  0.00     0.429 C 
ATOM     23  F   UNL A   1      31.075  22.978  23.221  1.00  0.00    -0.167 F 
ATOM     24  F   UNL A   1      32.038  21.685  24.674  1.00  0.00    -0.167 F 
ATOM     25  F   UNL A   1      30.894  23.401  25.358  1.00  0.00    -0.167 F 
ENDBRANCH  21  22
ENDBRANCH   6   9
ENDBRANCH   4   5
ENDBRANCH   3   4
ENDBRANCH   2   3
ENDBRANCH   1   2
BRANCH   1  26
ATOM     26  C   UNL A   1      38.367  20.029  24.770  1.00  0.00     0.021 C 
BRANCH  26  27
ATOM     27  C   UNL A   1      39.188  20.169  26.047  1.00  0.00     0.116 C 
BRANCH  27  28
ATOM     28  N   UNL A   1      40.348  19.291  26.038  1.00  0.00    -0.352 N 
ATOM     29  C   UNL A   1      41.676  19.619  26.105  1.00  0.00     0.251 C 
ATOM     30  H   UNL A   1      40.150  18.329  25.973  1.00  0.00     0.163 HD
ATOM     31  O   UNL A   1      42.534  18.775  25.857  1.00  0.00    -0.269 OA
BRANCH  29  32
ATOM     32  C   UNL A   1      42.067  20.994  26.472  1.00  0.00     0.039 A 
ATOM     33  C   UNL A   1      42.231  21.945  25.464  1.00  0.00     0.014 A 
ATOM     34  C   UNL A   1      42.268  21.338  27.813  1.00  0.00     0.014 A 
ATOM     35  C   UNL A   1      42.558  23.258  25.805  1.00  0.00     0.010 A 
ATOM     36  C   UNL A   1      42.521  22.662  28.154  1.00  0.00     0.010 A 
ATOM     37  C   UNL A   1      42.683  23.632  27.154  1.00  0.00    -0.014 A 
BRANCH  37  38
ATOM     38  C   UNL A   1      43.002  25.029  27.534  1.00  0.00     0.031 A 
ATOM     39  C   UNL A   1      44.414  25.536  27.413  1.00  0.00     0.074 A 
ATOM     40  C   UNL A   1      42.034  25.823  28.032  1.00  0.00     0.049 A 
ATOM     41  N   UNL A   1      44.892  26.714  27.713  1.00  0.00    -0.248 NA
ATOM     42  C   UNL A   1      45.425  24.590  26.908  1.00  0.00     0.031 C 
ATOM     43  C   UNL A   1      40.642  25.422  28.248  1.00  0.00     0.029 A 
ATOM     44  N   UNL A   1      42.074  27.128  28.456  1.00  0.00    -0.354 N 
ATOM     45  C   UNL A   1      46.255  26.648  27.449  1.00  0.00     0.074 A 
ATOM     46  C   UNL A   1      46.539  25.299  27.014  1.00  0.00     0.031 C 
ATOM     47  C   UNL A   1      39.957  26.465  28.741  1.00  0.00     0.029 A 
ATOM     48  C   UNL A   1      40.862  27.598  28.908  1.00  0.00     0.049 A 
ATOM     49  H   UNL A   1      42.892  27.674  28.438  1.00  0.00     0.167 HD
ATOM     50  C   UNL A   1      47.180  27.634  27.523  1.00  0.00     0.034 A 
ATOM     51  C   UNL A   1      40.522  28.807  29.397  1.00  0.00     0.034 A 
ATOM     52  C   UNL A   1      46.882  28.983  27.919  1.00  0.00     0.049 A 
ATOM     53  C   UNL A   1      41.571  29.885  29.469  1.00  0.00     0.074 A 
ATOM     54  C   UNL A   1      47.738  30.068  27.972  1.00  0.00     0.029 A 
ATOM     55  N   UNL A   1      45.637  29.432  28.328  1.00  0.00    -0.354 N 
ATOM     56  N   UNL A   1      42.826  29.841  29.090  1.00  0.00    -0.248 NA
ATOM     57  C   UNL A   1      41.153  31.188  30.006  1.00  0.00     0.031 C 
ATOM     58  C   UNL A   1      47.015  31.170  28.436  1.00  0.00     0.029 A 
ATOM     59  C   UNL A   1      45.702  30.778  28.645  1.00  0.00     0.049 A 
ATOM     60  H   UNL A   1      44.826  28.877  28.386  1.00  0.00     0.167 HD
ATOM     61  C   UNL A   1      43.337  31.114  29.311  1.00  0.00     0.074 A 
ATOM     62  C   UNL A   1      42.250  31.915  29.835  1.00  0.00     0.031 C 
ATOM     63  C   UNL A   1      44.598  31.575  29.116  1.00  0.00     0.034 A 
BRANCH  50  64
ATOM     64  C   UNL A   1      48.589  27.314  27.095  1.00  0.00     0.023 A 
ATOM     65  C   UNL A   1      49.454  26.668  28.003  1.00  0.00     0.012 A 
ATOM     66  C   UNL A   1      49.028  27.562  25.780  1.00  0.00     0.148 A 
ATOM     67  C   UNL A   1      50.741  26.297  27.618  1.00  0.00     0.002 A 
ATOM     68  C   UNL A   1      50.295  27.146  25.389  1.00  0.00     0.091 A 
ATOM     69  F   UNL A   1      48.198  28.194  24.938  1.00  0.00    -0.205 F 
ATOM     70  C   UNL A   1      51.156  26.523  26.308  1.00  0.00     0.022 A 
BRANCH  68  71
ATOM     71  S   UNL A   1      50.898  27.311  23.705  1.00  0.00     0.127 S 
ATOM     72  O   UNL A   1      49.808  26.706  22.941  1.00  0.00    -0.237 OA
ATOM     73  O   UNL A   1      51.010  28.763  23.562  1.00  0.00    -0.237 OA
ATOM     74  O   UNL A   1      52.163  26.592  23.656  1.00  0.00    -0.744 OA
ENDBRANCH  68  71
ENDBRANCH  50  64
BRANCH  51  75
ATOM     75  C   UNL A   1      39.106  29.085  29.773  1.00  0.00     0.023 A 
ATOM     76  C   UNL A   1      38.653  28.729  31.058  1.00  0.00     0.012 A 
ATOM     77  C   UNL A   1      38.220  29.738  28.892  1.00  0.00     0.148 A 
ATOM     78  C   UNL A   1      37.340  28.991  31.450  1.00  0.00     0.002 A 
ATOM     79  C   UNL A   1      36.931  30.048  29.309  1.00  0.00     0.091 A 
ATOM     80  F   UNL A   1      38.665  30.059  27.669  1.00  0.00    -0.205 F 
ATOM     81  C   UNL A   1      36.483  29.661  30.581  1.00  0.00     0.022 A 
BRANCH  79  82
ATOM     82  S   UNL A   1      35.802  31.029  28.312  1.00  0.00     0.127 S 
ATOM     83  O   UNL A   1      35.520  30.124  27.202  1.00  0.00    -0.237 OA
ATOM     84  O   UNL A   1      34.689  31.236  29.238  1.00  0.00    -0.237 OA
ATOM     85  O   UNL A   1      36.532  32.243  27.969  1.00  0.00    -0.744 OA
ENDBRANCH  79  82
ENDBRANCH  51  75
BRANCH  63  86
ATOM     86  C   UNL A   1      44.887  33.015  29.450  1.00  0.00     0.023 A 
ATOM     87  C   UNL A   1      45.407  33.343  30.719  1.00  0.00     0.012 A 
ATOM     88  C   UNL A   1      44.763  34.022  28.472  1.00  0.00     0.148 A 
ATOM     89  C   UNL A   1      45.780  34.653  31.013  1.00  0.00     0.002 A 
ATOM     90  C   UNL A   1      45.188  35.314  28.756  1.00  0.00     0.091 A 
ATOM     91  F   UNL A   1      44.254  33.691  27.276  1.00  0.00    -0.205 F 
ATOM     92  C   UNL A   1      45.686  35.633  30.029  1.00  0.00     0.022 A 
BRANCH  90  93
ATOM     93  S   UNL A   1      45.211  36.619  27.521  1.00  0.00     0.127 S 
ATOM     94  O   UNL A   1      45.781  37.733  28.277  1.00  0.00    -0.237 OA
ATOM     95  O   UNL A   1      46.094  36.060  26.498  1.00  0.00    -0.237 OA
ATOM     96  O   UNL A   1      43.828  36.799  27.097  1.00  0.00    -0.744 OA
ENDBRANCH  90  93
ENDBRANCH  63  86
ENDBRANCH  37  38
ENDBRANCH  29  32
ENDBRANCH  27  28
ENDBRANCH  26  27
ENDBRANCH   1  26
TORSDOF 17
ENDMDL
MODEL 3
REMARK VINA RESULT:     -12.1      2.305      7.902
REMARK SMILES Cc1cc2c(c(C)c1Cl)C=C(C(=O)NCCCCCCNC(=O)c1ccc(-c3c4nc(c(-c5cccc(S(=O)(=O)[O-])c5F)c5ccc([nH]5)c(-c5cccc(S(=O)(=O)[O-])c5F)c5nc(c(-c6cccc(S(=O)(=O)[O-])c6F)c6ccc3[nH]6)C=C5)C=C4)cc1)[C@@H](C(F)(F)F)O2
REMARK SMILES IDX 18 1 17 2 16 3 15 4 14 5 12 6 13 7 11 9 1 10 2 11 3 12 8 13
REMARK SMILES IDX 4 14 6 15 9 16 5 17 92 18 7 19 10 20 87 21 88 22 89 23 90 24
REMARK SMILES IDX 91 25 19 26 20 27 21 28 22 29 23 31 24 32 25 33 86 34 26 35
REMARK SMILES IDX 85 36 27 37 28 38 29 39 79 40 30 41 84 42 78 43 80 44 31 45
REMARK SMILES IDX 83 46 77 47 76 48 32 50 64 51 44 52 63 53 45 54 48 55 62 56
REMARK SMILES IDX 81 57 46 58 47 59 61 61 82 62 49 63 33 64 34 65 42 66 35 67
REMARK SMILES IDX 37 68 43 69 36 70 38 71 39 72 40 73 41 74 65 75 66 76 74 77
REMARK SMILES IDX 67 78 69 79 75 80 68 81 70 82 71 83 72 84 73 85 50 86 51 87
REMARK SMILES IDX 59 88 52 89 54 90 60 91 53 92 55 93 56 94 57 95 58 96
REMARK H PARENT 14 8 21 30 80 49 48 60
REMARK Flexibility Score: inf
ROOT
ATOM      1  C   UNL A   1      35.671  33.025  28.011  1.00  0.00     0.002 C 
ENDROOT
BRANCH   1   2
ATOM      2  C   UNL A   1      35.030  31.681  28.380  1.00  0.00     0.002 C 
BRANCH   2   3
ATOM      3  C   UNL A   1      34.264  30.997  27.245  1.00  0.00     0.021 C 
BRANCH   3   4
ATOM      4  C   UNL A   1      34.235  29.477  27.360  1.00  0.00     0.116 C 
BRANCH   4   5
ATOM      5  N   UNL A   1      32.937  28.999  27.802  1.00  0.00    -0.352 N 
ATOM      6  C   UNL A   1      31.991  28.145  27.350  1.00  0.00     0.251 C 
ATOM      7  O   UNL A   1      31.002  28.018  28.081  1.00  0.00    -0.270 OA
ATOM      8  H   UNL A   1      32.676  29.404  28.661  1.00  0.00     0.163 HD
BRANCH   6   9
ATOM      9  C   UNL A   1      32.063  27.375  26.070  1.00  0.00     0.067 C 
ATOM     10  C   UNL A   1      33.278  23.397  21.077  1.00  0.00     0.046 C 
ATOM     11  C   UNL A   1      33.285  24.108  22.403  1.00  0.00    -0.028 A 
ATOM     12  C   UNL A   1      32.261  25.034  22.617  1.00  0.00     0.052 A 
ATOM     13  C   UNL A   1      34.260  23.936  23.405  1.00  0.00     0.047 A 
ATOM     14  C   UNL A   1      32.201  25.769  23.794  1.00  0.00     0.128 A 
ATOM     15  C   UNL A   1      34.199  24.665  24.621  1.00  0.00    -0.021 A 
ATOM     16  Cl  UNL A   1      35.552  22.806  23.129  1.00  0.00    -0.084 Cl
ATOM     17  C   UNL A   1      33.147  25.596  24.807  1.00  0.00     0.022 A 
ATOM     18  O   UNL A   1      31.140  26.617  23.885  1.00  0.00    -0.475 OA
ATOM     19  C   UNL A   1      35.225  24.486  25.715  1.00  0.00     0.047 C 
ATOM     20  C   UNL A   1      32.971  26.382  26.034  1.00  0.00     0.026 C 
ATOM     21  C   UNL A   1      31.232  27.682  24.860  1.00  0.00     0.314 C 
BRANCH  21  22
ATOM     22  C   UNL A   1      31.659  28.983  24.157  1.00  0.00     0.429 C 
ATOM     23  F   UNL A   1      31.017  30.047  24.693  1.00  0.00    -0.167 F 
ATOM     24  F   UNL A   1      32.985  29.230  24.280  1.00  0.00    -0.167 F 
ATOM     25  F   UNL A   1      31.387  28.963  22.831  1.00  0.00    -0.167 F 
ENDBRANCH  21  22
ENDBRANCH   6   9
ENDBRANCH   4   5
ENDBRANCH   3   4
ENDBRANCH   2   3
ENDBRANCH   1   2
BRANCH   1  26
ATOM     26  C   UNL A   1      34.708  34.215  27.960  1.00  0.00     0.021 C 
BRANCH  26  27
ATOM     27  C   UNL A   1      33.322  33.927  28.524  1.00  0.00     0.116 C 
BRANCH  27  28
ATOM     28  N   UNL A   1      32.919  34.931  29.496  1.00  0.00    -0.352 N 
ATOM     29  C   UNL A   1      33.347  35.100  30.787  1.00  0.00     0.251 C 
ATOM     30  H   UNL A   1      32.245  35.577  29.184  1.00  0.00     0.163 HD
ATOM     31  O   UNL A   1      32.741  35.855  31.544  1.00  0.00    -0.269 OA
BRANCH  29  32
ATOM     32  C   UNL A   1      34.536  34.365  31.260  1.00  0.00     0.039 A 
ATOM     33  C   UNL A   1      34.375  33.086  31.795  1.00  0.00     0.014 A 
ATOM     34  C   UNL A   1      35.806  34.944  31.172  1.00  0.00     0.014 A 
ATOM     35  C   UNL A   1      35.498  32.367  32.205  1.00  0.00     0.010 A 
ATOM     36  C   UNL A   1      36.929  34.197  31.512  1.00  0.00     0.010 A 
ATOM     37  C   UNL A   1      36.786  32.908  32.045  1.00  0.00    -0.014 A 
BRANCH  37  38
ATOM     38  C   UNL A   1      37.991  32.145  32.450  1.00  0.00     0.031 A 
ATOM     39  C   UNL A   1      38.668  32.450  33.759  1.00  0.00     0.074 A 
ATOM     40  C   UNL A   1      38.502  31.216  31.620  1.00  0.00     0.049 A 
ATOM     41  N   UNL A   1      39.739  31.909  34.276  1.00  0.00    -0.248 NA
ATOM     42  C   UNL A   1      38.077  33.516  34.587  1.00  0.00     0.031 C 
ATOM     43  C   UNL A   1      37.964  30.875  30.301  1.00  0.00     0.029 A 
ATOM     44  N   UNL A   1      39.593  30.393  31.756  1.00  0.00    -0.354 N 
ATOM     45  C   UNL A   1      39.959  32.574  35.476  1.00  0.00     0.074 A 
ATOM     46  C   UNL A   1      38.942  33.595  35.588  1.00  0.00     0.031 C 
ATOM     47  C   UNL A   1      38.712  29.901  29.760  1.00  0.00     0.029 A 
ATOM     48  C   UNL A   1      39.799  29.568  30.675  1.00  0.00     0.049 A 
ATOM     49  H   UNL A   1      40.172  30.396  32.551  1.00  0.00     0.167 HD
ATOM     50  C   UNL A   1      40.898  32.329  36.419  1.00  0.00     0.034 A 
ATOM     51  C   UNL A   1      40.756  28.644  30.451  1.00  0.00     0.034 A 
ATOM     52  C   UNL A   1      41.882  31.286  36.318  1.00  0.00     0.049 A 
ATOM     53  C   UNL A   1      41.789  28.393  31.518  1.00  0.00     0.074 A 
ATOM     54  C   UNL A   1      42.841  30.921  37.246  1.00  0.00     0.029 A 
ATOM     55  N   UNL A   1      42.033  30.443  35.229  1.00  0.00    -0.354 N 
ATOM     56  N   UNL A   1      41.900  28.943  32.703  1.00  0.00    -0.248 NA
ATOM     57  C   UNL A   1      42.810  27.375  31.230  1.00  0.00     0.031 C 
ATOM     58  C   UNL A   1      43.589  29.872  36.707  1.00  0.00     0.029 A 
ATOM     59  C   UNL A   1      43.077  29.562  35.456  1.00  0.00     0.049 A 
ATOM     60  H   UNL A   1      41.481  30.466  34.415  1.00  0.00     0.167 HD
ATOM     61  C   UNL A   1      42.980  28.315  33.315  1.00  0.00     0.074 A 
ATOM     62  C   UNL A   1      43.474  27.328  32.378  1.00  0.00     0.031 C 
ATOM     63  C   UNL A   1      43.524  28.549  34.535  1.00  0.00     0.034 A 
BRANCH  50  64
ATOM     64  C   UNL A   1      40.863  33.153  37.681  1.00  0.00     0.023 A 
ATOM     65  C   UNL A   1      40.095  32.704  38.775  1.00  0.00     0.012 A 
ATOM     66  C   UNL A   1      41.654  34.309  37.821  1.00  0.00     0.148 A 
ATOM     67  C   UNL A   1      40.094  33.405  39.979  1.00  0.00     0.002 A 
ATOM     68  C   UNL A   1      41.685  34.976  39.040  1.00  0.00     0.091 A 
ATOM     69  F   UNL A   1      42.363  34.731  36.763  1.00  0.00    -0.205 F 
ATOM     70  C   UNL A   1      40.899  34.532  40.116  1.00  0.00     0.022 A 
BRANCH  68  71
ATOM     71  S   UNL A   1      42.752  36.389  39.351  1.00  0.00     0.127 S 
ATOM     72  O   UNL A   1      42.793  36.410  40.813  1.00  0.00    -0.237 OA
ATOM     73  O   UNL A   1      44.001  35.974  38.712  1.00  0.00    -0.237 OA
ATOM     74  O   UNL A   1      42.098  37.533  38.732  1.00  0.00    -0.744 OA
ENDBRANCH  68  71
ENDBRANCH  50  64
BRANCH  51  75
ATOM     75  C   UNL A   1      40.726  27.830  29.202  1.00  0.00     0.023 A 
ATOM     76  C   UNL A   1      39.746  26.829  29.057  1.00  0.00     0.012 A 
ATOM     77  C   UNL A   1      41.624  28.067  28.142  1.00  0.00     0.148 A 
ATOM     78  C   UNL A   1      39.677  26.061  27.894  1.00  0.00     0.002 A 
ATOM     79  C   UNL A   1      41.513  27.338  26.964  1.00  0.00     0.091 A 
ATOM     80  F   UNL A   1      42.558  29.016  28.302  1.00  0.00    -0.205 F 
ATOM     81  C   UNL A   1      40.551  26.323  26.844  1.00  0.00     0.022 A 
BRANCH  79  82
ATOM     82  S   UNL A   1      42.503  27.697  25.507  1.00  0.00     0.127 S 
ATOM     83  O   UNL A   1      41.903  28.943  25.038  1.00  0.00    -0.237 OA
ATOM     84  O   UNL A   1      43.841  27.834  26.081  1.00  0.00    -0.237 OA
ATOM     85  O   UNL A   1      42.340  26.547  24.627  1.00  0.00    -0.744 OA
ENDBRANCH  79  82
ENDBRANCH  51  75
BRANCH  63  86
ATOM     86  C   UNL A   1      44.711  27.721  34.952  1.00  0.00     0.023 A 
ATOM     87  C   UNL A   1      46.011  28.246  34.807  1.00  0.00     0.012 A 
ATOM     88  C   UNL A   1      44.534  26.482  35.601  1.00  0.00     0.148 A 
ATOM     89  C   UNL A   1      47.116  27.542  35.283  1.00  0.00     0.002 A 
ATOM     90  C   UNL A   1      45.636  25.812  36.120  1.00  0.00     0.091 A 
ATOM     91  F   UNL A   1      43.290  25.994  35.717  1.00  0.00    -0.205 F 
ATOM     92  C   UNL A   1      46.928  26.335  35.951  1.00  0.00     0.022 A 
BRANCH  90  93
ATOM     93  S   UNL A   1      45.485  24.309  37.094  1.00  0.00     0.127 S 
ATOM     94  O   UNL A   1      44.728  24.781  38.252  1.00  0.00    -0.237 OA
ATOM     95  O   UNL A   1      44.738  23.433  36.192  1.00  0.00    -0.237 OA
ATOM     96  O   UNL A   1      46.846  23.872  37.376  1.00  0.00    -0.744 OA
ENDBRANCH  90  93
ENDBRANCH  63  86
ENDBRANCH  37  38
ENDBRANCH  29  32
ENDBRANCH  27  28
ENDBRANCH  26  27
ENDBRANCH   1  26
TORSDOF 17
ENDMDL
