MODEL 1
REMARK VINA RESULT:     -12.8      0.000      0.000
REMARK SMILES C[NH2+][C@@]1(C(=O)NCCCCCCNC(=O)c2ccc(-c3c4nc(c(-c5cccc(S(=O)(=O)[O-])c5F)c5ccc([nH]5)c(-c5cccc(S(=O)(=O)[O-])c5F)c5nc(c(-c6cccc(S(=O)(=O)[O-])c6F)c6ccc3[nH]6)C=C5)C=C4)cc2)CC[C@H]([NH+]2CC[NH+](C)CC2)C1
REMARK SMILES IDX 10 1 9 2 8 3 7 4 6 5 4 6 5 7 3 9 79 10 89 11 80 12 81 13
REMARK SMILES IDX 2 14 1 15 82 18 83 19 88 20 84 22 87 23 85 24 86 25 11 27
REMARK SMILES IDX 12 28 13 29 14 30 15 32 16 33 17 34 78 35 18 36 77 37 19 38
REMARK SMILES IDX 20 39 21 40 71 41 22 42 76 43 70 44 72 45 23 46 75 47 69 48
REMARK SMILES IDX 68 49 24 51 56 52 36 53 55 54 37 55 40 56 54 57 73 58 38 59
REMARK SMILES IDX 39 60 53 62 74 63 41 64 25 65 26 66 34 67 27 68 29 69 35 70
REMARK SMILES IDX 28 71 30 72 31 73 32 74 33 75 57 76 58 77 66 78 59 79 61 80
REMARK SMILES IDX 67 81 60 82 62 83 63 84 64 85 65 86 42 87 43 88 51 89 44 90
REMARK SMILES IDX 46 91 52 92 45 93 47 94 48 95 49 96 50 97
REMARK H PARENT 6 8 2 16 2 17 82 21 85 26 13 31 72 50 40 61
REMARK Flexibility Score: inf
ROOT
ATOM      1  C   UNL A   1      31.656  30.857  26.294  1.00  0.00     0.002 C 
ENDROOT
BRANCH   1   2
ATOM      2  C   UNL A   1      32.770  30.074  27.030  1.00  0.00     0.002 C 
BRANCH   2   3
ATOM      3  C   UNL A   1      32.802  28.359  27.048  1.00  0.00     0.021 C 
BRANCH   3   4
ATOM      4  C   UNL A   1      31.417  26.750  26.875  1.00  0.00     0.116 C 
BRANCH   4   5
ATOM      5  N   UNL A   1      30.728  26.049  25.622  1.00  0.00    -0.351 N 
ATOM      6  C   UNL A   1      30.776  26.062  24.269  1.00  0.00     0.281 C 
ATOM      7  O   UNL A   1      29.760  25.579  23.746  1.00  0.00    -0.268 OA
ATOM      8  H   UNL A   1      30.053  25.400  25.928  1.00  0.00     0.163 HD
BRANCH   6   9
ATOM      9  C   UNL A   1      31.956  26.639  23.443  1.00  0.00     0.181 C 
ATOM     10  C   UNL A   1      31.979  26.058  22.020  1.00  0.00     0.085 C 
ATOM     11  C   UNL A   1      33.318  26.244  24.050  1.00  0.00     0.144 C 
ATOM     12  C   UNL A   1      33.222  25.173  21.963  1.00  0.00     0.072 C 
ATOM     13  C   UNL A   1      33.653  24.890  23.425  1.00  0.00     0.191 C 
BRANCH   9  14
ATOM     14  N   UNL A   1      31.887  28.135  23.408  1.00  0.00    -0.336 N 
ATOM     15  C   UNL A   1      33.181  28.808  23.316  1.00  0.00     0.331 C 
ATOM     16  H   UNL A   1      31.328  28.408  22.598  1.00  0.00     0.346 HD
ATOM     17  H   UNL A   1      31.475  28.424  24.295  1.00  0.00     0.346 HD
ENDBRANCH   9  14
BRANCH  13  18
ATOM     18  N   UNL A   1      33.107  23.709  24.105  1.00  0.00    -0.323 N 
ATOM     19  C   UNL A   1      34.135  23.081  25.498  1.00  0.00     0.324 C 
ATOM     20  C   UNL A   1      32.005  22.511  23.198  1.00  0.00     0.324 C 
ATOM     21  H   UNL A   1      32.303  24.134  24.566  1.00  0.00     0.348 HD
ATOM     22  C   UNL A   1      34.487  21.172  25.667  1.00  0.00     0.324 C 
ATOM     23  C   UNL A   1      32.327  20.558  23.397  1.00  0.00     0.324 C 
ATOM     24  N   UNL A   1      33.414  19.963  24.776  1.00  0.00    -0.328 N 
ATOM     25  C   UNL A   1      34.143  18.743  24.460  1.00  0.00     0.333 C 
ATOM     26  H   UNL A   1      32.694  19.763  25.471  1.00  0.00     0.348 HD
ENDBRANCH  13  18
ENDBRANCH   6   9
ENDBRANCH   4   5
ENDBRANCH   3   4
ENDBRANCH   2   3
ENDBRANCH   1   2
BRANCH   1  27
ATOM     27  C   UNL A   1      31.531  32.334  26.656  1.00  0.00     0.021 C 
BRANCH  27  28
ATOM     28  C   UNL A   1      32.726  32.860  27.423  1.00  0.00     0.116 C 
BRANCH  28  29
ATOM     29  N   UNL A   1      32.575  34.284  27.684  1.00  0.00    -0.352 N 
ATOM     30  C   UNL A   1      33.141  34.992  28.714  1.00  0.00     0.251 C 
ATOM     31  H   UNL A   1      32.009  34.790  27.059  1.00  0.00     0.163 HD
ATOM     32  O   UNL A   1      32.711  36.091  29.045  1.00  0.00    -0.269 OA
BRANCH  30  33
ATOM     33  C   UNL A   1      34.295  34.388  29.408  1.00  0.00     0.039 A 
ATOM     34  C   UNL A   1      35.578  34.535  28.883  1.00  0.00     0.014 A 
ATOM     35  C   UNL A   1      34.084  33.713  30.615  1.00  0.00     0.014 A 
ATOM     36  C   UNL A   1      36.663  34.002  29.580  1.00  0.00     0.010 A 
ATOM     37  C   UNL A   1      35.170  33.260  31.347  1.00  0.00     0.010 A 
ATOM     38  C   UNL A   1      36.464  33.362  30.815  1.00  0.00    -0.014 A 
BRANCH  38  39
ATOM     39  C   UNL A   1      37.581  32.711  31.536  1.00  0.00     0.031 A 
ATOM     40  C   UNL A   1      38.301  31.561  30.881  1.00  0.00     0.074 A 
ATOM     41  C   UNL A   1      37.894  33.094  32.787  1.00  0.00     0.049 A 
ATOM     42  N   UNL A   1      39.264  30.814  31.354  1.00  0.00    -0.248 NA
ATOM     43  C   UNL A   1      37.851  31.172  29.532  1.00  0.00     0.031 C 
ATOM     44  C   UNL A   1      37.206  34.138  33.550  1.00  0.00     0.029 A 
ATOM     45  N   UNL A   1      38.856  32.632  33.646  1.00  0.00    -0.354 N 
ATOM     46  C   UNL A   1      39.502  29.848  30.383  1.00  0.00     0.074 A 
ATOM     47  C   UNL A   1      38.553  30.071  29.317  1.00  0.00     0.031 C 
ATOM     48  C   UNL A   1      37.777  34.242  34.763  1.00  0.00     0.029 A 
ATOM     49  C   UNL A   1      38.854  33.263  34.868  1.00  0.00     0.049 A 
ATOM     50  H   UNL A   1      39.490  31.916  33.411  1.00  0.00     0.167 HD
ATOM     51  C   UNL A   1      40.455  28.888  30.359  1.00  0.00     0.034 A 
ATOM     52  C   UNL A   1      39.641  33.073  35.946  1.00  0.00     0.034 A 
ATOM     53  C   UNL A   1      41.441  28.723  31.391  1.00  0.00     0.049 A 
ATOM     54  C   UNL A   1      40.743  32.050  35.865  1.00  0.00     0.074 A 
ATOM     55  C   UNL A   1      42.513  27.851  31.426  1.00  0.00     0.029 A 
ATOM     56  N   UNL A   1      41.476  29.454  32.568  1.00  0.00    -0.354 N 
ATOM     57  N   UNL A   1      41.058  31.253  34.871  1.00  0.00    -0.248 NA
ATOM     58  C   UNL A   1      41.625  31.929  37.034  1.00  0.00     0.031 C 
ATOM     59  C   UNL A   1      43.192  28.049  32.633  1.00  0.00     0.029 A 
ATOM     60  C   UNL A   1      42.551  29.054  33.340  1.00  0.00     0.049 A 
ATOM     61  H   UNL A   1      40.830  30.154  32.819  1.00  0.00     0.167 HD
ATOM     62  C   UNL A   1      42.192  30.562  35.281  1.00  0.00     0.074 A 
ATOM     63  C   UNL A   1      42.522  31.050  36.604  1.00  0.00     0.031 C 
ATOM     64  C   UNL A   1      42.890  29.598  34.630  1.00  0.00     0.034 A 
BRANCH  51  65
ATOM     65  C   UNL A   1      40.517  27.994  29.149  1.00  0.00     0.023 A 
ATOM     66  C   UNL A   1      39.602  26.928  29.027  1.00  0.00     0.012 A 
ATOM     67  C   UNL A   1      41.448  28.226  28.118  1.00  0.00     0.148 A 
ATOM     68  C   UNL A   1      39.636  26.084  27.918  1.00  0.00     0.002 A 
ATOM     69  C   UNL A   1      41.445  27.409  26.993  1.00  0.00     0.091 A 
ATOM     70  F   UNL A   1      42.327  29.227  28.264  1.00  0.00    -0.205 F 
ATOM     71  C   UNL A   1      40.549  26.331  26.898  1.00  0.00     0.022 A 
BRANCH  69  72
ATOM     72  S   UNL A   1      42.528  27.690  25.589  1.00  0.00     0.127 S 
ATOM     73  O   UNL A   1      42.289  26.492  24.786  1.00  0.00    -0.237 OA
ATOM     74  O   UNL A   1      41.983  28.924  25.021  1.00  0.00    -0.237 OA
ATOM     75  O   UNL A   1      43.872  27.818  26.138  1.00  0.00    -0.744 OA
ENDBRANCH  69  72
ENDBRANCH  51  65
BRANCH  52  76
ATOM     76  C   UNL A   1      39.472  33.933  37.151  1.00  0.00     0.023 A 
ATOM     77  C   UNL A   1      39.891  35.277  37.101  1.00  0.00     0.012 A 
ATOM     78  C   UNL A   1      38.867  33.447  38.324  1.00  0.00     0.148 A 
ATOM     79  C   UNL A   1      39.740  36.112  38.208  1.00  0.00     0.002 A 
ATOM     80  C   UNL A   1      38.670  34.298  39.406  1.00  0.00     0.091 A 
ATOM     81  F   UNL A   1      38.485  32.162  38.359  1.00  0.00    -0.205 F 
ATOM     82  C   UNL A   1      39.120  35.627  39.357  1.00  0.00     0.022 A 
BRANCH  80  83
ATOM     83  S   UNL A   1      37.762  33.793  40.872  1.00  0.00     0.127 S 
ATOM     84  O   UNL A   1      38.718  32.902  41.526  1.00  0.00    -0.237 OA
ATOM     85  O   UNL A   1      37.547  35.071  41.554  1.00  0.00    -0.237 OA
ATOM     86  O   UNL A   1      36.543  33.167  40.380  1.00  0.00    -0.744 OA
ENDBRANCH  80  83
ENDBRANCH  52  76
BRANCH  64  87
ATOM     87  C   UNL A   1      44.097  29.025  35.321  1.00  0.00     0.023 A 
ATOM     88  C   UNL A   1      45.360  29.618  35.125  1.00  0.00     0.012 A 
ATOM     89  C   UNL A   1      43.964  27.956  36.228  1.00  0.00     0.148 A 
ATOM     90  C   UNL A   1      46.478  29.138  35.803  1.00  0.00     0.002 A 
ATOM     91  C   UNL A   1      45.075  27.514  36.937  1.00  0.00     0.091 A 
ATOM     92  F   UNL A   1      42.756  27.394  36.385  1.00  0.00    -0.205 F 
ATOM     93  C   UNL A   1      46.334  28.095  36.718  1.00  0.00     0.022 A 
BRANCH  91  94
ATOM     94  S   UNL A   1      44.962  26.245  38.204  1.00  0.00     0.127 S 
ATOM     95  O   UNL A   1      43.741  26.636  38.908  1.00  0.00    -0.237 OA
ATOM     96  O   UNL A   1      44.843  25.021  37.409  1.00  0.00    -0.237 OA
ATOM     97  O   UNL A   1      46.192  26.343  38.978  1.00  0.00    -0.744 OA
ENDBRANCH  91  94
ENDBRANCH  64  87
ENDBRANCH  38  39
ENDBRANCH  30  33
ENDBRANCH  28  29
ENDBRANCH  27  28
ENDBRANCH   1  27
TORSDOF 18
ENDMDL
MODEL 2
REMARK VINA RESULT:     -12.3      5.912     12.197
REMARK SMILES C[NH2+][C@@]1(C(=O)NCCCCCCNC(=O)c2ccc(-c3c4nc(c(-c5cccc(S(=O)(=O)[O-])c5F)c5ccc([nH]5)c(-c5cccc(S(=O)(=O)[O-])c5F)c5nc(c(-c6cccc(S(=O)(=O)[O-])c6F)c6ccc3[nH]6)C=C5)C=C4)cc2)CC[C@H]([NH+]2CC[NH+](C)CC2)C1
REMARK SMILES IDX 10 1 9 2 8 3 7 4 6 5 4 6 5 7 3 9 79 10 89 11 80 12 81 13
REMARK SMILES IDX 2 14 1 15 82 18 83 19 88 20 84 22 87 23 85 24 86 25 11 27
REMARK SMILES IDX 12 28 13 29 14 30 15 32 16 33 17 34 78 35 18 36 77 37 19 38
REMARK SMILES IDX 20 39 21 40 71 41 22 42 76 43 70 44 72 45 23 46 75 47 69 48
REMARK SMILES IDX 68 49 24 51 56 52 36 53 55 54 37 55 40 56 54 57 73 58 38 59
REMARK SMILES IDX 39 60 53 62 74 63 41 64 25 65 26 66 34 67 27 68 29 69 35 70
REMARK SMILES IDX 28 71 30 72 31 73 32 74 33 75 57 76 58 77 66 78 59 79 61 80
REMARK SMILES IDX 67 81 60 82 62 83 63 84 64 85 65 86 42 87 43 88 51 89 44 90
REMARK SMILES IDX 46 91 52 92 45 93 47 94 48 95 49 96 50 97
REMARK H PARENT 6 8 2 16 2 17 82 21 85 26 13 31 72 50 40 61
REMARK Flexibility Score: inf
ROOT
ATOM      1  C   UNL A   1      37.261  20.476  24.911  1.00  0.00     0.002 C 
ENDROOT
BRANCH   1   2
ATOM      2  C   UNL A   1      37.653  21.974  24.923  1.00  0.00     0.002 C 
BRANCH   2   3
ATOM      3  C   UNL A   1      36.757  23.145  24.047  1.00  0.00     0.021 C 
BRANCH   3   4
ATOM      4  C   UNL A   1      34.814  23.337  23.197  1.00  0.00     0.116 C 
BRANCH   4   5
ATOM      5  N   UNL A   1      33.803  24.562  23.080  1.00  0.00    -0.351 N 
ATOM      6  C   UNL A   1      32.755  25.110  23.740  1.00  0.00     0.281 C 
ATOM      7  O   UNL A   1      32.078  25.866  23.026  1.00  0.00    -0.268 OA
ATOM      8  H   UNL A   1      34.003  25.088  22.272  1.00  0.00     0.163 HD
BRANCH   6   9
ATOM      9  C   UNL A   1      32.407  24.816  25.223  1.00  0.00     0.181 C 
ATOM     10  C   UNL A   1      31.102  24.012  25.343  1.00  0.00     0.085 C 
ATOM     11  C   UNL A   1      32.140  26.115  26.011  1.00  0.00     0.144 C 
ATOM     12  C   UNL A   1      30.092  24.969  25.971  1.00  0.00     0.072 C 
ATOM     13  C   UNL A   1      30.653  26.404  25.807  1.00  0.00     0.191 C 
BRANCH   9  14
ATOM     14  N   UNL A   1      33.539  24.098  25.892  1.00  0.00    -0.336 N 
ATOM     15  C   UNL A   1      33.159  22.878  26.601  1.00  0.00     0.331 C 
ATOM     16  H   UNL A   1      34.224  23.851  25.177  1.00  0.00     0.346 HD
ATOM     17  H   UNL A   1      33.907  24.737  26.597  1.00  0.00     0.346 HD
ENDBRANCH   9  14
BRANCH  13  18
ATOM     18  N   UNL A   1      30.299  27.166  24.603  1.00  0.00    -0.323 N 
ATOM     19  C   UNL A   1      31.115  28.812  24.468  1.00  0.00     0.324 C 
ATOM     20  C   UNL A   1      28.655  26.913  23.764  1.00  0.00     0.324 C 
ATOM     21  H   UNL A   1      30.772  26.600  23.898  1.00  0.00     0.348 HD
ATOM     22  C   UNL A   1      30.073  30.377  23.957  1.00  0.00     0.324 C 
ATOM     23  C   UNL A   1      27.603  28.503  23.197  1.00  0.00     0.324 C 
ATOM     24  N   UNL A   1      28.440  30.156  23.128  1.00  0.00    -0.328 N 
ATOM     25  C   UNL A   1      27.549  31.273  23.408  1.00  0.00     0.333 C 
ATOM     26  H   UNL A   1      28.698  30.162  22.140  1.00  0.00     0.348 HD
ENDBRANCH  13  18
ENDBRANCH   6   9
ENDBRANCH   4   5
ENDBRANCH   3   4
ENDBRANCH   2   3
ENDBRANCH   1   2
BRANCH   1  27
ATOM     27  C   UNL A   1      38.408  19.487  25.095  1.00  0.00     0.021 C 
BRANCH  27  28
ATOM     28  C   UNL A   1      39.586  20.077  25.843  1.00  0.00     0.116 C 
BRANCH  28  29
ATOM     29  N   UNL A   1      40.566  19.043  26.144  1.00  0.00    -0.352 N 
ATOM     30  C   UNL A   1      41.919  19.215  26.290  1.00  0.00     0.251 C 
ATOM     31  H   UNL A   1      40.223  18.127  26.252  1.00  0.00     0.163 HD
ATOM     32  O   UNL A   1      42.694  18.269  26.218  1.00  0.00    -0.269 OA
BRANCH  30  33
ATOM     33  C   UNL A   1      42.411  20.583  26.546  1.00  0.00     0.039 A 
ATOM     34  C   UNL A   1      42.425  21.085  27.846  1.00  0.00     0.014 A 
ATOM     35  C   UNL A   1      42.904  21.338  25.476  1.00  0.00     0.014 A 
ATOM     36  C   UNL A   1      42.943  22.361  28.076  1.00  0.00     0.010 A 
ATOM     37  C   UNL A   1      43.496  22.568  25.720  1.00  0.00     0.010 A 
ATOM     38  C   UNL A   1      43.480  23.107  27.014  1.00  0.00    -0.014 A 
BRANCH  38  39
ATOM     39  C   UNL A   1      43.958  24.495  27.210  1.00  0.00     0.031 A 
ATOM     40  C   UNL A   1      42.993  25.535  27.718  1.00  0.00     0.074 A 
ATOM     41  C   UNL A   1      45.214  24.834  26.865  1.00  0.00     0.049 A 
ATOM     42  N   UNL A   1      43.182  26.814  27.907  1.00  0.00    -0.248 NA
ATOM     43  C   UNL A   1      41.621  25.084  28.015  1.00  0.00     0.031 C 
ATOM     44  C   UNL A   1      46.206  23.929  26.282  1.00  0.00     0.029 A 
ATOM     45  N   UNL A   1      45.861  26.039  26.933  1.00  0.00    -0.354 N 
ATOM     46  C   UNL A   1      41.950  27.322  28.300  1.00  0.00     0.074 A 
ATOM     47  C   UNL A   1      41.008  26.227  28.277  1.00  0.00     0.031 C 
ATOM     48  C   UNL A   1      47.341  24.611  26.054  1.00  0.00     0.029 A 
ATOM     49  C   UNL A   1      47.150  26.001  26.456  1.00  0.00     0.049 A 
ATOM     50  H   UNL A   1      45.444  26.857  27.289  1.00  0.00     0.167 HD
ATOM     51  C   UNL A   1      41.638  28.580  28.690  1.00  0.00     0.034 A 
ATOM     52  C   UNL A   1      48.073  26.979  26.363  1.00  0.00     0.034 A 
ATOM     53  C   UNL A   1      42.599  29.644  28.780  1.00  0.00     0.049 A 
ATOM     54  C   UNL A   1      47.724  28.352  26.874  1.00  0.00     0.074 A 
ATOM     55  C   UNL A   1      42.418  30.929  29.255  1.00  0.00     0.029 A 
ATOM     56  N   UNL A   1      43.926  29.539  28.391  1.00  0.00    -0.354 N 
ATOM     57  N   UNL A   1      46.598  28.777  27.396  1.00  0.00    -0.248 NA
ATOM     58  C   UNL A   1      48.784  29.369  26.824  1.00  0.00     0.031 C 
ATOM     59  C   UNL A   1      43.637  31.606  29.144  1.00  0.00     0.029 A 
ATOM     60  C   UNL A   1      44.579  30.738  28.613  1.00  0.00     0.049 A 
ATOM     61  H   UNL A   1      44.341  28.732  28.011  1.00  0.00     0.167 HD
ATOM     62  C   UNL A   1      46.823  30.097  27.768  1.00  0.00     0.074 A 
ATOM     63  C   UNL A   1      48.201  30.395  27.431  1.00  0.00     0.031 C 
ATOM     64  C   UNL A   1      45.967  30.990  28.323  1.00  0.00     0.034 A 
BRANCH  51  65
ATOM     65  C   UNL A   1      40.218  28.850  29.112  1.00  0.00     0.023 A 
ATOM     66  C   UNL A   1      39.235  29.086  28.130  1.00  0.00     0.012 A 
ATOM     67  C   UNL A   1      39.847  28.832  30.471  1.00  0.00     0.148 A 
ATOM     68  C   UNL A   1      37.913  29.338  28.491  1.00  0.00     0.002 A 
ATOM     69  C   UNL A   1      38.517  29.038  30.822  1.00  0.00     0.091 A 
ATOM     70  F   UNL A   1      40.799  28.632  31.392  1.00  0.00    -0.205 F 
ATOM     71  C   UNL A   1      37.552  29.303  29.835  1.00  0.00     0.022 A 
BRANCH  69  72
ATOM     72  S   UNL A   1      37.936  28.937  32.518  1.00  0.00     0.127 S 
ATOM     73  O   UNL A   1      36.559  29.411  32.388  1.00  0.00    -0.237 OA
ATOM     74  O   UNL A   1      38.063  27.507  32.802  1.00  0.00    -0.237 OA
ATOM     75  O   UNL A   1      38.822  29.792  33.297  1.00  0.00    -0.744 OA
ENDBRANCH  69  72
ENDBRANCH  51  65
BRANCH  52  76
ATOM     76  C   UNL A   1      49.437  26.669  25.852  1.00  0.00     0.023 A 
ATOM     77  C   UNL A   1      50.314  25.906  26.649  1.00  0.00     0.012 A 
ATOM     78  C   UNL A   1      49.858  27.083  24.574  1.00  0.00     0.148 A 
ATOM     79  C   UNL A   1      51.596  25.591  26.197  1.00  0.00     0.002 A 
ATOM     80  C   UNL A   1      51.117  26.720  24.107  1.00  0.00     0.091 A 
ATOM     81  F   UNL A   1      49.016  27.818  23.833  1.00  0.00    -0.205 F 
ATOM     82  C   UNL A   1      51.994  25.988  24.922  1.00  0.00     0.022 A 
BRANCH  80  83
ATOM     83  S   UNL A   1      51.658  27.074  22.431  1.00  0.00     0.127 S 
ATOM     84  O   UNL A   1      51.909  28.512  22.494  1.00  0.00    -0.237 OA
ATOM     85  O   UNL A   1      52.857  26.244  22.315  1.00  0.00    -0.237 OA
ATOM     86  O   UNL A   1      50.559  26.659  21.570  1.00  0.00    -0.744 OA
ENDBRANCH  80  83
ENDBRANCH  52  76
BRANCH  64  87
ATOM     87  C   UNL A   1      46.493  32.365  28.630  1.00  0.00     0.023 A 
ATOM     88  C   UNL A   1      47.023  32.640  29.905  1.00  0.00     0.012 A 
ATOM     89  C   UNL A   1      46.543  33.354  27.628  1.00  0.00     0.148 A 
ATOM     90  C   UNL A   1      47.570  33.889  30.189  1.00  0.00     0.002 A 
ATOM     91  C   UNL A   1      47.134  34.582  27.904  1.00  0.00     0.091 A 
ATOM     92  F   UNL A   1      46.017  33.077  26.426  1.00  0.00    -0.205 F 
ATOM     93  C   UNL A   1      47.637  34.855  29.186  1.00  0.00     0.022 A 
BRANCH  91  94
ATOM     94  S   UNL A   1      47.352  35.845  26.646  1.00  0.00     0.127 S 
ATOM     95  O   UNL A   1      48.067  35.107  25.605  1.00  0.00    -0.237 OA
ATOM     96  O   UNL A   1      45.970  36.191  26.309  1.00  0.00    -0.237 OA
ATOM     97  O   UNL A   1      48.103  36.918  27.282  1.00  0.00    -0.744 OA
ENDBRANCH  91  94
ENDBRANCH  64  87
ENDBRANCH  38  39
ENDBRANCH  30  33
ENDBRANCH  28  29
ENDBRANCH  27  28
ENDBRANCH   1  27
TORSDOF 18
ENDMDL
MODEL 3
REMARK VINA RESULT:     -12.3      1.957      8.046
REMARK SMILES C[NH2+][C@@]1(C(=O)NCCCCCCNC(=O)c2ccc(-c3c4nc(c(-c5cccc(S(=O)(=O)[O-])c5F)c5ccc([nH]5)c(-c5cccc(S(=O)(=O)[O-])c5F)c5nc(c(-c6cccc(S(=O)(=O)[O-])c6F)c6ccc3[nH]6)C=C5)C=C4)cc2)CC[C@H]([NH+]2CC[NH+](C)CC2)C1
REMARK SMILES IDX 10 1 9 2 8 3 7 4 6 5 4 6 5 7 3 9 79 10 89 11 80 12 81 13
REMARK SMILES IDX 2 14 1 15 82 18 83 19 88 20 84 22 87 23 85 24 86 25 11 27
REMARK SMILES IDX 12 28 13 29 14 30 15 32 16 33 17 34 78 35 18 36 77 37 19 38
REMARK SMILES IDX 20 39 21 40 71 41 22 42 76 43 70 44 72 45 23 46 75 47 69 48
REMARK SMILES IDX 68 49 24 51 56 52 36 53 55 54 37 55 40 56 54 57 73 58 38 59
REMARK SMILES IDX 39 60 53 62 74 63 41 64 25 65 26 66 34 67 27 68 29 69 35 70
REMARK SMILES IDX 28 71 30 72 31 73 32 74 33 75 57 76 58 77 66 78 59 79 61 80
REMARK SMILES IDX 67 81 60 82 62 83 63 84 64 85 65 86 42 87 43 88 51 89 44 90
REMARK SMILES IDX 46 91 52 92 45 93 47 94 48 95 49 96 50 97
REMARK H PARENT 6 8 2 16 2 17 82 21 85 26 13 31 72 50 40 61
REMARK Flexibility Score: inf
ROOT
ATOM      1  C   UNL A   1      31.657  29.305  25.798  1.00  0.00     0.002 C 
ENDROOT
BRANCH   1   2
ATOM      2  C   UNL A   1      33.030  28.809  25.283  1.00  0.00     0.002 C 
BRANCH   2   3
ATOM      3  C   UNL A   1      33.340  28.598  23.610  1.00  0.00     0.021 C 
BRANCH   3   4
ATOM      4  C   UNL A   1      33.559  26.986  22.234  1.00  0.00     0.116 C 
BRANCH   4   5
ATOM      5  N   UNL A   1      32.989  25.499  22.213  1.00  0.00    -0.351 N 
ATOM      6  C   UNL A   1      32.552  24.543  23.067  1.00  0.00     0.281 C 
ATOM      7  O   UNL A   1      32.556  23.410  22.562  1.00  0.00    -0.268 OA
ATOM      8  H   UNL A   1      32.937  25.171  21.286  1.00  0.00     0.163 HD
BRANCH   6   9
ATOM      9  C   UNL A   1      32.114  24.814  24.530  1.00  0.00     0.181 C 
ATOM     10  C   UNL A   1      33.326  25.094  25.433  1.00  0.00     0.085 C 
ATOM     11  C   UNL A   1      31.437  23.577  25.156  1.00  0.00     0.144 C 
ATOM     12  C   UNL A   1      33.422  23.891  26.369  1.00  0.00     0.072 C 
ATOM     13  C   UNL A   1      32.582  22.751  25.741  1.00  0.00     0.191 C 
BRANCH   9  14
ATOM     14  N   UNL A   1      31.136  25.947  24.581  1.00  0.00    -0.336 N 
ATOM     15  C   UNL A   1      30.171  25.877  25.677  1.00  0.00     0.331 C 
ATOM     16  H   UNL A   1      31.662  26.816  24.676  1.00  0.00     0.346 HD
ATOM     17  H   UNL A   1      30.594  25.898  23.718  1.00  0.00     0.346 HD
ENDBRANCH   9  14
BRANCH  13  18
ATOM     18  N   UNL A   1      33.241  21.814  24.821  1.00  0.00    -0.323 N 
ATOM     19  C   UNL A   1      32.161  20.456  24.204  1.00  0.00     0.324 C 
ATOM     20  C   UNL A   1      35.079  21.522  24.914  1.00  0.00     0.324 C 
ATOM     21  H   UNL A   1      33.356  22.423  24.011  1.00  0.00     0.348 HD
ATOM     22  C   UNL A   1      32.820  18.623  24.175  1.00  0.00     0.324 C 
ATOM     23  C   UNL A   1      35.766  19.657  24.842  1.00  0.00     0.324 C 
ATOM     24  N   UNL A   1      34.635  18.303  24.270  1.00  0.00    -0.328 N 
ATOM     25  C   UNL A   1      34.913  17.012  24.884  1.00  0.00     0.333 C 
ATOM     26  H   UNL A   1      34.900  18.280  23.285  1.00  0.00     0.348 HD
ENDBRANCH  13  18
ENDBRANCH   6   9
ENDBRANCH   4   5
ENDBRANCH   3   4
ENDBRANCH   2   3
ENDBRANCH   1   2
BRANCH   1  27
ATOM     27  C   UNL A   1      31.576  30.785  26.159  1.00  0.00     0.021 C 
BRANCH  27  28
ATOM     28  C   UNL A   1      32.792  31.278  26.916  1.00  0.00     0.116 C 
BRANCH  28  29
ATOM     29  N   UNL A   1      32.735  32.723  27.081  1.00  0.00    -0.352 N 
ATOM     30  C   UNL A   1      33.463  33.474  27.970  1.00  0.00     0.251 C 
ATOM     31  H   UNL A   1      32.112  33.210  26.498  1.00  0.00     0.163 HD
ATOM     32  O   UNL A   1      33.126  34.614  28.266  1.00  0.00    -0.269 OA
BRANCH  30  33
ATOM     33  C   UNL A   1      34.673  32.864  28.552  1.00  0.00     0.039 A 
ATOM     34  C   UNL A   1      35.932  33.215  28.068  1.00  0.00     0.014 A 
ATOM     35  C   UNL A   1      34.536  31.972  29.621  1.00  0.00     0.014 A 
ATOM     36  C   UNL A   1      37.068  32.668  28.666  1.00  0.00     0.010 A 
ATOM     37  C   UNL A   1      35.667  31.497  30.268  1.00  0.00     0.010 A 
ATOM     38  C   UNL A   1      36.940  31.807  29.768  1.00  0.00    -0.014 A 
BRANCH  38  39
ATOM     39  C   UNL A   1      38.119  31.142  30.370  1.00  0.00     0.031 A 
ATOM     40  C   UNL A   1      38.529  31.512  31.772  1.00  0.00     0.074 A 
ATOM     41  C   UNL A   1      38.854  30.280  29.644  1.00  0.00     0.049 A 
ATOM     42  N   UNL A   1      39.555  31.098  32.467  1.00  0.00    -0.248 NA
ATOM     43  C   UNL A   1      37.698  32.510  32.470  1.00  0.00     0.031 C 
ATOM     44  C   UNL A   1      38.600  29.916  28.249  1.00  0.00     0.029 A 
ATOM     45  N   UNL A   1      39.980  29.573  29.974  1.00  0.00    -0.354 N 
ATOM     46  C   UNL A   1      39.515  31.814  33.658  1.00  0.00     0.074 A 
ATOM     47  C   UNL A   1      38.395  32.721  33.575  1.00  0.00     0.031 C 
ATOM     48  C   UNL A   1      39.539  29.044  27.846  1.00  0.00     0.029 A 
ATOM     49  C   UNL A   1      40.470  28.803  28.945  1.00  0.00     0.049 A 
ATOM     50  H   UNL A   1      40.400  29.610  30.864  1.00  0.00     0.167 HD
ATOM     51  C   UNL A   1      40.313  31.695  34.745  1.00  0.00     0.034 A 
ATOM     52  C   UNL A   1      41.545  27.991  28.901  1.00  0.00     0.034 A 
ATOM     53  C   UNL A   1      41.378  30.737  34.846  1.00  0.00     0.049 A 
ATOM     54  C   UNL A   1      42.372  27.819  30.148  1.00  0.00     0.074 A 
ATOM     55  C   UNL A   1      42.186  30.459  35.933  1.00  0.00     0.029 A 
ATOM     56  N   UNL A   1      41.778  29.895  33.819  1.00  0.00    -0.354 N 
ATOM     57  N   UNL A   1      42.222  28.384  31.322  1.00  0.00    -0.248 NA
ATOM     58  C   UNL A   1      43.489  26.867  30.079  1.00  0.00     0.031 C 
ATOM     59  C   UNL A   1      43.083  29.453  35.558  1.00  0.00     0.029 A 
ATOM     60  C   UNL A   1      42.823  29.095  34.244  1.00  0.00     0.049 A 
ATOM     61  H   UNL A   1      41.377  29.870  32.920  1.00  0.00     0.167 HD
ATOM     62  C   UNL A   1      43.200  27.833  32.140  1.00  0.00     0.074 A 
ATOM     63  C   UNL A   1      43.924  26.872  31.333  1.00  0.00     0.031 C 
ATOM     64  C   UNL A   1      43.488  28.105  33.437  1.00  0.00     0.034 A 
BRANCH  51  65
ATOM     65  C   UNL A   1      40.015  32.574  35.931  1.00  0.00     0.023 A 
ATOM     66  C   UNL A   1      40.681  33.810  36.062  1.00  0.00     0.012 A 
ATOM     67  C   UNL A   1      39.055  32.201  36.891  1.00  0.00     0.148 A 
ATOM     68  C   UNL A   1      40.425  34.644  37.149  1.00  0.00     0.002 A 
ATOM     69  C   UNL A   1      38.771  33.059  37.948  1.00  0.00     0.091 A 
ATOM     70  F   UNL A   1      38.452  31.011  36.764  1.00  0.00    -0.205 F 
ATOM     71  C   UNL A   1      39.464  34.274  38.085  1.00  0.00     0.022 A 
BRANCH  69  72
ATOM     72  S   UNL A   1      37.495  32.711  39.163  1.00  0.00     0.127 S 
ATOM     73  O   UNL A   1      37.702  33.791  40.127  1.00  0.00    -0.237 OA
ATOM     74  O   UNL A   1      36.272  32.830  38.368  1.00  0.00    -0.237 OA
ATOM     75  O   UNL A   1      37.770  31.369  39.658  1.00  0.00    -0.744 OA
ENDBRANCH  69  72
ENDBRANCH  51  65
BRANCH  52  76
ATOM     76  C   UNL A   1      41.839  27.213  27.665  1.00  0.00     0.023 A 
ATOM     77  C   UNL A   1      42.376  27.879  26.545  1.00  0.00     0.012 A 
ATOM     78  C   UNL A   1      41.634  25.823  27.602  1.00  0.00     0.148 A 
ATOM     79  C   UNL A   1      42.671  27.179  25.374  1.00  0.00     0.002 A 
ATOM     80  C   UNL A   1      41.980  25.122  26.452  1.00  0.00     0.091 A 
ATOM     81  F   UNL A   1      41.112  25.207  28.673  1.00  0.00    -0.205 F 
ATOM     82  C   UNL A   1      42.483  25.800  25.331  1.00  0.00     0.022 A 
BRANCH  80  83
ATOM     83  S   UNL A   1      41.896  23.330  26.358  1.00  0.00     0.127 S 
ATOM     84  O   UNL A   1      42.530  23.066  25.068  1.00  0.00    -0.237 OA
ATOM     85  O   UNL A   1      42.683  22.926  27.525  1.00  0.00    -0.237 OA
ATOM     86  O   UNL A   1      40.481  22.999  26.450  1.00  0.00    -0.744 OA
ENDBRANCH  80  83
ENDBRANCH  52  76
BRANCH  64  87
ATOM     87  C   UNL A   1      44.612  27.339  34.078  1.00  0.00     0.023 A 
ATOM     88  C   UNL A   1      45.930  27.826  33.984  1.00  0.00     0.012 A 
ATOM     89  C   UNL A   1      44.350  26.187  34.846  1.00  0.00     0.148 A 
ATOM     90  C   UNL A   1      46.976  27.163  34.623  1.00  0.00     0.002 A 
ATOM     91  C   UNL A   1      45.390  25.559  35.519  1.00  0.00     0.091 A 
ATOM     92  F   UNL A   1      43.090  25.730  34.907  1.00  0.00    -0.205 F 
ATOM     93  C   UNL A   1      46.704  26.038  35.400  1.00  0.00     0.022 A 
BRANCH  91  94
ATOM     94  S   UNL A   1      45.117  24.166  36.620  1.00  0.00     0.127 S 
ATOM     95  O   UNL A   1      46.470  23.902  37.107  1.00  0.00    -0.237 OA
ATOM     96  O   UNL A   1      44.207  24.731  37.618  1.00  0.00    -0.237 OA
ATOM     97  O   UNL A   1      44.531  23.116  35.797  1.00  0.00    -0.744 OA
ENDBRANCH  91  94
ENDBRANCH  64  87
ENDBRANCH  38  39
ENDBRANCH  30  33
ENDBRANCH  28  29
ENDBRANCH  27  28
ENDBRANCH   1  27
TORSDOF 18
ENDMDL
