MODEL 1
REMARK VINA RESULT:     -12.1      0.000      0.000
REMARK SMILES C[C@@H]1CC[C@H]([N@@H+]2[C@@H](C(=O)NCCCCCCNC(=O)c3ccc(-c4c5nc(c(-c6cccc(S(=O)(=O)[O-])c6F)c6ccc([nH]6)c(-c6cccc(S(=O)(=O)[O-])c6F)c6nc(c(-c7cccc(S(=O)(=O)[O-])c7F)c7ccc4[nH]7)C=C6)C=C5)cc3)C[C@H]3CCCC[C@H]32)C1
REMARK SMILES IDX 14 1 13 2 12 3 11 4 10 5 8 6 9 7 7 9 6 10 89 11 83 13 84 14
REMARK SMILES IDX 88 15 85 16 87 17 86 18 5 19 1 20 2 21 3 22 90 23 4 24 15 25
REMARK SMILES IDX 16 26 17 27 18 28 19 30 20 31 21 32 82 33 22 34 81 35 23 36
REMARK SMILES IDX 24 37 25 38 75 39 26 40 80 41 74 42 76 43 27 44 79 45 73 46
REMARK SMILES IDX 72 47 28 49 60 50 40 51 59 52 41 53 44 54 58 55 77 56 42 57
REMARK SMILES IDX 43 58 57 60 78 61 45 62 29 63 30 64 38 65 31 66 33 67 39 68
REMARK SMILES IDX 32 69 34 70 35 71 36 72 37 73 61 74 62 75 70 76 63 77 65 78
REMARK SMILES IDX 71 79 64 80 66 81 67 82 68 83 69 84 46 85 47 86 55 87 48 88
REMARK SMILES IDX 50 89 56 90 49 91 51 92 52 93 53 94 54 95
REMARK H PARENT 10 8 6 12 17 29 76 48 44 59
REMARK Flexibility Score: inf
ROOT
ATOM      1  C   UNL A   1      33.117  28.659  25.707  1.00  0.00     0.002 C 
ENDROOT
BRANCH   1   2
ATOM      2  C   UNL A   1      32.671  27.915  26.968  1.00  0.00     0.002 C 
BRANCH   2   3
ATOM      3  C   UNL A   1      31.704  26.753  26.746  1.00  0.00     0.021 C 
BRANCH   3   4
ATOM      4  C   UNL A   1      32.309  25.517  26.098  1.00  0.00     0.116 C 
BRANCH   4   5
ATOM      5  N   UNL A   1      31.387  24.404  26.040  1.00  0.00    -0.351 N 
ATOM      6  C   UNL A   1      31.647  23.064  25.952  1.00  0.00     0.278 C 
ATOM      7  O   UNL A   1      30.665  22.317  25.903  1.00  0.00    -0.268 OA
ATOM      8  H   UNL A   1      30.433  24.647  26.068  1.00  0.00     0.163 HD
BRANCH   6   9
ATOM      9  C   UNL A   1      33.115  22.563  25.826  1.00  0.00     0.275 C 
ATOM     10  N   UNL A   1      33.581  22.715  24.414  1.00  0.00    -0.320 N 
ATOM     11  C   UNL A   1      33.638  21.370  23.831  1.00  0.00     0.188 C 
ATOM     12  H   UNL A   1      32.923  23.241  23.839  1.00  0.00     0.349 HD
ATOM     13  C   UNL A   1      33.317  21.071  26.152  1.00  0.00     0.085 C 
ATOM     14  C   UNL A   1      34.102  20.497  24.985  1.00  0.00     0.054 C 
ATOM     15  C   UNL A   1      32.261  20.939  23.285  1.00  0.00     0.065 C 
ATOM     16  C   UNL A   1      33.930  18.997  24.776  1.00  0.00     0.010 C 
ATOM     17  C   UNL A   1      32.239  19.446  22.964  1.00  0.00     0.006 C 
ATOM     18  C   UNL A   1      32.574  18.613  24.197  1.00  0.00     0.001 C 
BRANCH  10  19
ATOM     19  C   UNL A   1      34.748  23.602  24.278  1.00  0.00     0.185 C 
ATOM     20  C   UNL A   1      37.230  21.328  24.616  1.00  0.00     0.008 C 
ATOM     21  C   UNL A   1      37.087  22.790  24.206  1.00  0.00    -0.008 C 
ATOM     22  C   UNL A   1      36.957  23.717  25.411  1.00  0.00     0.009 C 
ATOM     23  C   UNL A   1      35.863  23.106  23.341  1.00  0.00     0.068 C 
ATOM     24  C   UNL A   1      35.478  24.072  25.550  1.00  0.00     0.065 C 
ENDBRANCH  10  19
ENDBRANCH   6   9
ENDBRANCH   4   5
ENDBRANCH   3   4
ENDBRANCH   2   3
ENDBRANCH   1   2
BRANCH   1  25
ATOM     25  C   UNL A   1      32.629  30.103  25.579  1.00  0.00     0.021 C 
BRANCH  25  26
ATOM     26  C   UNL A   1      32.085  30.722  26.862  1.00  0.00     0.116 C 
BRANCH  26  27
ATOM     27  N   UNL A   1      32.210  32.169  26.877  1.00  0.00    -0.352 N 
ATOM     28  C   UNL A   1      33.175  32.951  27.464  1.00  0.00     0.251 C 
ATOM     29  H   UNL A   1      31.503  32.659  26.399  1.00  0.00     0.163 HD
ATOM     30  O   UNL A   1      33.031  34.166  27.518  1.00  0.00    -0.269 OA
BRANCH  28  31
ATOM     31  C   UNL A   1      34.377  32.317  28.049  1.00  0.00     0.039 A 
ATOM     32  C   UNL A   1      35.557  33.060  28.133  1.00  0.00     0.014 A 
ATOM     33  C   UNL A   1      34.339  30.999  28.513  1.00  0.00     0.014 A 
ATOM     34  C   UNL A   1      36.685  32.497  28.734  1.00  0.00     0.010 A 
ATOM     35  C   UNL A   1      35.440  30.471  29.182  1.00  0.00     0.010 A 
ATOM     36  C   UNL A   1      36.627  31.210  29.291  1.00  0.00    -0.014 A 
BRANCH  36  37
ATOM     37  C   UNL A   1      37.796  30.626  29.999  1.00  0.00     0.031 A 
ATOM     38  C   UNL A   1      38.138  31.066  31.395  1.00  0.00     0.074 A 
ATOM     39  C   UNL A   1      38.598  29.758  29.351  1.00  0.00     0.049 A 
ATOM     40  N   UNL A   1      39.140  30.699  32.152  1.00  0.00    -0.248 NA
ATOM     41  C   UNL A   1      37.257  32.070  32.012  1.00  0.00     0.031 C 
ATOM     42  C   UNL A   1      38.420  29.317  27.966  1.00  0.00     0.029 A 
ATOM     43  N   UNL A   1      39.739  29.115  29.761  1.00  0.00    -0.354 N 
ATOM     44  C   UNL A   1      39.032  31.452  33.316  1.00  0.00     0.074 A 
ATOM     45  C   UNL A   1      37.889  32.322  33.149  1.00  0.00     0.031 C 
ATOM     46  C   UNL A   1      39.413  28.473  27.644  1.00  0.00     0.029 A 
ATOM     47  C   UNL A   1      40.315  28.338  28.784  1.00  0.00     0.049 A 
ATOM     48  H   UNL A   1      40.109  29.201  30.670  1.00  0.00     0.167 HD
ATOM     49  C   UNL A   1      39.795  31.403  34.433  1.00  0.00     0.034 A 
ATOM     50  C   UNL A   1      41.448  27.611  28.796  1.00  0.00     0.034 A 
ATOM     51  C   UNL A   1      40.914  30.515  34.605  1.00  0.00     0.049 A 
ATOM     52  C   UNL A   1      42.264  27.546  30.058  1.00  0.00     0.074 A 
ATOM     53  C   UNL A   1      41.695  30.322  35.731  1.00  0.00     0.029 A 
ATOM     54  N   UNL A   1      41.424  29.684  33.619  1.00  0.00    -0.354 N 
ATOM     55  N   UNL A   1      42.054  28.142  31.206  1.00  0.00    -0.248 NA
ATOM     56  C   UNL A   1      43.452  26.681  30.038  1.00  0.00     0.031 C 
ATOM     57  C   UNL A   1      42.702  29.405  35.412  1.00  0.00     0.029 A 
ATOM     58  C   UNL A   1      42.522  28.992  34.103  1.00  0.00     0.049 A 
ATOM     59  H   UNL A   1      41.059  29.599  32.709  1.00  0.00     0.167 HD
ATOM     60  C   UNL A   1      43.061  27.701  32.056  1.00  0.00     0.074 A 
ATOM     61  C   UNL A   1      43.871  26.772  31.294  1.00  0.00     0.031 C 
ATOM     62  C   UNL A   1      43.299  28.040  33.347  1.00  0.00     0.034 A 
BRANCH  49  63
ATOM     63  C   UNL A   1      39.423  32.320  35.571  1.00  0.00     0.023 A 
ATOM     64  C   UNL A   1      38.598  31.847  36.613  1.00  0.00     0.012 A 
ATOM     65  C   UNL A   1      39.913  33.640  35.627  1.00  0.00     0.148 A 
ATOM     66  C   UNL A   1      38.226  32.685  37.664  1.00  0.00     0.002 A 
ATOM     67  C   UNL A   1      39.580  34.453  36.704  1.00  0.00     0.091 A 
ATOM     68  F   UNL A   1      40.679  34.082  34.619  1.00  0.00    -0.205 F 
ATOM     69  C   UNL A   1      38.724  33.984  37.714  1.00  0.00     0.022 A 
BRANCH  67  70
ATOM     70  S   UNL A   1      40.239  36.112  36.903  1.00  0.00     0.127 S 
ATOM     71  O   UNL A   1      41.666  35.845  37.073  1.00  0.00    -0.237 OA
ATOM     72  O   UNL A   1      39.884  36.738  35.629  1.00  0.00    -0.237 OA
ATOM     73  O   UNL A   1      39.563  36.675  38.063  1.00  0.00    -0.744 OA
ENDBRANCH  67  70
ENDBRANCH  49  63
BRANCH  50  74
ATOM     74  C   UNL A   1      41.841  26.842  27.583  1.00  0.00     0.023 A 
ATOM     75  C   UNL A   1      42.491  27.500  26.521  1.00  0.00     0.012 A 
ATOM     76  C   UNL A   1      41.625  25.452  27.501  1.00  0.00     0.148 A 
ATOM     77  C   UNL A   1      42.896  26.793  25.389  1.00  0.00     0.002 A 
ATOM     78  C   UNL A   1      42.081  24.744  26.396  1.00  0.00     0.091 A 
ATOM     79  F   UNL A   1      40.999  24.848  28.521  1.00  0.00    -0.205 F 
ATOM     80  C   UNL A   1      42.701  25.415  25.330  1.00  0.00     0.022 A 
BRANCH  78  81
ATOM     81  S   UNL A   1      41.996  22.953  26.294  1.00  0.00     0.127 S 
ATOM     82  O   UNL A   1      40.555  22.718  26.324  1.00  0.00    -0.237 OA
ATOM     83  O   UNL A   1      42.637  22.698  25.004  1.00  0.00    -0.237 OA
ATOM     84  O   UNL A   1      42.739  22.454  27.444  1.00  0.00    -0.744 OA
ENDBRANCH  78  81
ENDBRANCH  50  74
BRANCH  62  85
ATOM     85  C   UNL A   1      44.464  27.383  34.041  1.00  0.00     0.023 A 
ATOM     86  C   UNL A   1      45.747  27.961  33.970  1.00  0.00     0.012 A 
ATOM     87  C   UNL A   1      44.270  26.227  34.824  1.00  0.00     0.148 A 
ATOM     88  C   UNL A   1      46.825  27.380  34.639  1.00  0.00     0.002 A 
ATOM     89  C   UNL A   1      45.336  25.685  35.531  1.00  0.00     0.091 A 
ATOM     90  F   UNL A   1      43.045  25.681  34.865  1.00  0.00    -0.205 F 
ATOM     91  C   UNL A   1      46.617  26.251  35.428  1.00  0.00     0.022 A 
BRANCH  89  92
ATOM     92  S   UNL A   1      45.143  24.293  36.650  1.00  0.00     0.127 S 
ATOM     93  O   UNL A   1      46.519  24.077  37.096  1.00  0.00    -0.237 OA
ATOM     94  O   UNL A   1      44.249  24.840  37.671  1.00  0.00    -0.237 OA
ATOM     95  O   UNL A   1      44.568  23.215  35.857  1.00  0.00    -0.744 OA
ENDBRANCH  89  92
ENDBRANCH  62  85
ENDBRANCH  36  37
ENDBRANCH  28  31
ENDBRANCH  26  27
ENDBRANCH  25  26
ENDBRANCH   1  25
TORSDOF 17
ENDMDL
MODEL 2
REMARK VINA RESULT:     -12.0      2.700      3.421
REMARK SMILES C[C@@H]1CC[C@H]([N@@H+]2[C@@H](C(=O)NCCCCCCNC(=O)c3ccc(-c4c5nc(c(-c6cccc(S(=O)(=O)[O-])c6F)c6ccc([nH]6)c(-c6cccc(S(=O)(=O)[O-])c6F)c6nc(c(-c7cccc(S(=O)(=O)[O-])c7F)c7ccc4[nH]7)C=C6)C=C5)cc3)C[C@H]3CCCC[C@H]32)C1
REMARK SMILES IDX 14 1 13 2 12 3 11 4 10 5 8 6 9 7 7 9 6 10 89 11 83 13 84 14
REMARK SMILES IDX 88 15 85 16 87 17 86 18 5 19 1 20 2 21 3 22 90 23 4 24 15 25
REMARK SMILES IDX 16 26 17 27 18 28 19 30 20 31 21 32 82 33 22 34 81 35 23 36
REMARK SMILES IDX 24 37 25 38 75 39 26 40 80 41 74 42 76 43 27 44 79 45 73 46
REMARK SMILES IDX 72 47 28 49 60 50 40 51 59 52 41 53 44 54 58 55 77 56 42 57
REMARK SMILES IDX 43 58 57 60 78 61 45 62 29 63 30 64 38 65 31 66 33 67 39 68
REMARK SMILES IDX 32 69 34 70 35 71 36 72 37 73 61 74 62 75 70 76 63 77 65 78
REMARK SMILES IDX 71 79 64 80 66 81 67 82 68 83 69 84 46 85 47 86 55 87 48 88
REMARK SMILES IDX 50 89 56 90 49 91 51 92 52 93 53 94 54 95
REMARK H PARENT 10 8 6 12 17 29 76 48 44 59
REMARK Flexibility Score: inf
ROOT
ATOM      1  C   UNL A   1      32.126  27.849  27.038  1.00  0.00     0.002 C 
ENDROOT
BRANCH   1   2
ATOM      2  C   UNL A   1      31.526  27.627  25.648  1.00  0.00     0.002 C 
BRANCH   2   3
ATOM      3  C   UNL A   1      30.953  26.235  25.387  1.00  0.00     0.021 C 
BRANCH   3   4
ATOM      4  C   UNL A   1      31.431  25.146  26.335  1.00  0.00     0.116 C 
BRANCH   4   5
ATOM      5  N   UNL A   1      30.696  23.910  26.187  1.00  0.00    -0.351 N 
ATOM      6  C   UNL A   1      31.164  22.636  26.015  1.00  0.00     0.278 C 
ATOM      7  O   UNL A   1      30.312  21.750  25.899  1.00  0.00    -0.268 OA
ATOM      8  H   UNL A   1      29.716  23.997  26.215  1.00  0.00     0.163 HD
BRANCH   6   9
ATOM      9  C   UNL A   1      32.693  22.380  25.882  1.00  0.00     0.275 C 
ATOM     10  N   UNL A   1      33.133  22.666  24.482  1.00  0.00    -0.320 N 
ATOM     11  C   UNL A   1      33.404  21.374  23.841  1.00  0.00     0.188 C 
ATOM     12  H   UNL A   1      32.401  23.106  23.924  1.00  0.00     0.349 HD
ATOM     13  C   UNL A   1      33.129  20.926  26.144  1.00  0.00     0.085 C 
ATOM     14  C   UNL A   1      33.998  20.536  24.960  1.00  0.00     0.054 C 
ATOM     15  C   UNL A   1      32.115  20.755  23.264  1.00  0.00     0.065 C 
ATOM     16  C   UNL A   1      34.067  19.039  24.685  1.00  0.00     0.010 C 
ATOM     17  C   UNL A   1      32.331  19.294  22.879  1.00  0.00     0.006 C 
ATOM     18  C   UNL A   1      32.791  18.471  24.077  1.00  0.00     0.001 C 
BRANCH  10  19
ATOM     19  C   UNL A   1      34.144  23.732  24.395  1.00  0.00     0.185 C 
ATOM     20  C   UNL A   1      36.948  21.844  24.271  1.00  0.00     0.008 C 
ATOM     21  C   UNL A   1      36.563  23.306  24.072  1.00  0.00    -0.008 C 
ATOM     22  C   UNL A   1      36.397  24.044  25.396  1.00  0.00     0.009 C 
ATOM     23  C   UNL A   1      35.240  23.534  23.334  1.00  0.00     0.068 C 
ATOM     24  C   UNL A   1      34.899  24.148  25.673  1.00  0.00     0.065 C 
ENDBRANCH  10  19
ENDBRANCH   6   9
ENDBRANCH   4   5
ENDBRANCH   3   4
ENDBRANCH   2   3
ENDBRANCH   1   2
BRANCH   1  25
ATOM     25  C   UNL A   1      33.618  28.189  27.072  1.00  0.00     0.021 C 
BRANCH  25  26
ATOM     26  C   UNL A   1      34.031  29.386  26.223  1.00  0.00     0.116 C 
BRANCH  26  27
ATOM     27  N   UNL A   1      33.859  30.648  26.921  1.00  0.00    -0.352 N 
ATOM     28  C   UNL A   1      34.602  31.180  27.948  1.00  0.00     0.251 C 
ATOM     29  H   UNL A   1      33.104  31.200  26.617  1.00  0.00     0.163 HD
ATOM     30  O   UNL A   1      34.211  32.184  28.531  1.00  0.00    -0.269 OA
BRANCH  28  31
ATOM     31  C   UNL A   1      35.862  30.523  28.359  1.00  0.00     0.039 A 
ATOM     32  C   UNL A   1      37.018  30.756  27.610  1.00  0.00     0.014 A 
ATOM     33  C   UNL A   1      35.904  29.686  29.478  1.00  0.00     0.014 A 
ATOM     34  C   UNL A   1      38.229  30.189  28.015  1.00  0.00     0.010 A 
ATOM     35  C   UNL A   1      37.125  29.190  29.924  1.00  0.00     0.010 A 
ATOM     36  C   UNL A   1      38.298  29.427  29.192  1.00  0.00    -0.014 A 
BRANCH  36  37
ATOM     37  C   UNL A   1      39.592  28.880  29.678  1.00  0.00     0.031 A 
ATOM     38  C   UNL A   1      40.339  29.563  30.790  1.00  0.00     0.074 A 
ATOM     39  C   UNL A   1      40.134  27.813  29.059  1.00  0.00     0.049 A 
ATOM     40  N   UNL A   1      41.496  29.256  31.315  1.00  0.00    -0.248 NA
ATOM     41  C   UNL A   1      39.718  30.766  31.369  1.00  0.00     0.031 C 
ATOM     42  C   UNL A   1      39.549  27.113  27.914  1.00  0.00     0.029 A 
ATOM     43  N   UNL A   1      41.314  27.150  29.287  1.00  0.00    -0.354 N 
ATOM     44  C   UNL A   1      41.760  30.244  32.258  1.00  0.00     0.074 A 
ATOM     45  C   UNL A   1      40.658  31.180  32.205  1.00  0.00     0.031 C 
ATOM     46  C   UNL A   1      40.368  26.116  27.544  1.00  0.00     0.029 A 
ATOM     47  C   UNL A   1      41.550  26.126  28.400  1.00  0.00     0.049 A 
ATOM     48  H   UNL A   1      41.931  27.383  30.018  1.00  0.00     0.167 HD
ATOM     49  C   UNL A   1      42.807  30.347  33.110  1.00  0.00     0.034 A 
ATOM     50  C   UNL A   1      42.605  25.297  28.278  1.00  0.00     0.034 A 
ATOM     51  C   UNL A   1      43.886  29.398  33.177  1.00  0.00     0.049 A 
ATOM     52  C   UNL A   1      43.743  25.411  29.254  1.00  0.00     0.074 A 
ATOM     53  C   UNL A   1      44.946  29.361  34.066  1.00  0.00     0.029 A 
ATOM     54  N   UNL A   1      44.054  28.328  32.312  1.00  0.00    -0.354 N 
ATOM     55  N   UNL A   1      43.897  26.253  30.246  1.00  0.00    -0.248 NA
ATOM     56  C   UNL A   1      44.835  24.435  29.120  1.00  0.00     0.031 C 
ATOM     57  C   UNL A   1      45.776  28.293  33.712  1.00  0.00     0.029 A 
ATOM     58  C   UNL A   1      45.211  27.636  32.632  1.00  0.00     0.049 A 
ATOM     59  H   UNL A   1      43.442  28.093  31.578  1.00  0.00     0.167 HD
ATOM     60  C   UNL A   1      45.084  25.892  30.874  1.00  0.00     0.074 A 
ATOM     61  C   UNL A   1      45.598  24.741  30.161  1.00  0.00     0.031 C 
ATOM     62  C   UNL A   1      45.695  26.468  31.938  1.00  0.00     0.034 A 
BRANCH  49  63
ATOM     63  C   UNL A   1      42.818  31.518  34.060  1.00  0.00     0.023 A 
ATOM     64  C   UNL A   1      43.385  32.745  33.655  1.00  0.00     0.012 A 
ATOM     65  C   UNL A   1      42.240  31.417  35.341  1.00  0.00     0.148 A 
ATOM     66  C   UNL A   1      43.423  33.834  34.525  1.00  0.00     0.002 A 
ATOM     67  C   UNL A   1      42.235  32.523  36.183  1.00  0.00     0.091 A 
ATOM     68  F   UNL A   1      41.723  30.240  35.719  1.00  0.00    -0.205 F 
ATOM     69  C   UNL A   1      42.840  33.726  35.784  1.00  0.00     0.022 A 
BRANCH  67  70
ATOM     70  S   UNL A   1      41.435  32.510  37.791  1.00  0.00     0.127 S 
ATOM     71  O   UNL A   1      40.081  32.083  37.443  1.00  0.00    -0.237 OA
ATOM     72  O   UNL A   1      42.221  31.511  38.517  1.00  0.00    -0.237 OA
ATOM     73  O   UNL A   1      41.553  33.865  38.308  1.00  0.00    -0.744 OA
ENDBRANCH  67  70
ENDBRANCH  49  63
BRANCH  50  74
ATOM     74  C   UNL A   1      42.599  24.252  27.217  1.00  0.00     0.023 A 
ATOM     75  C   UNL A   1      43.283  24.484  26.008  1.00  0.00     0.012 A 
ATOM     76  C   UNL A   1      41.969  23.010  27.423  1.00  0.00     0.148 A 
ATOM     77  C   UNL A   1      43.316  23.506  25.012  1.00  0.00     0.002 A 
ATOM     78  C   UNL A   1      42.055  22.020  26.453  1.00  0.00     0.091 A 
ATOM     79  F   UNL A   1      41.320  22.814  28.580  1.00  0.00    -0.205 F 
ATOM     80  C   UNL A   1      42.713  22.272  25.239  1.00  0.00     0.022 A 
BRANCH  78  81
ATOM     81  S   UNL A   1      41.427  20.357  26.711  1.00  0.00     0.127 S 
ATOM     82  O   UNL A   1      39.990  20.594  26.829  1.00  0.00    -0.237 OA
ATOM     83  O   UNL A   1      41.843  19.687  25.478  1.00  0.00    -0.237 OA
ATOM     84  O   UNL A   1      42.084  19.866  27.914  1.00  0.00    -0.744 OA
ENDBRANCH  78  81
ENDBRANCH  50  74
BRANCH  62  85
ATOM     85  C   UNL A   1      46.978  25.847  32.429  1.00  0.00     0.023 A 
ATOM     86  C   UNL A   1      46.964  24.973  33.534  1.00  0.00     0.012 A 
ATOM     87  C   UNL A   1      48.189  26.076  31.745  1.00  0.00     0.148 A 
ATOM     88  C   UNL A   1      48.140  24.365  33.972  1.00  0.00     0.002 A 
ATOM     89  C   UNL A   1      49.347  25.425  32.154  1.00  0.00     0.091 A 
ATOM     90  F   UNL A   1      48.187  26.925  30.707  1.00  0.00    -0.205 F 
ATOM     91  C   UNL A   1      49.327  24.581  33.276  1.00  0.00     0.022 A 
BRANCH  89  92
ATOM     92  S   UNL A   1      50.898  25.564  31.261  1.00  0.00     0.127 S 
ATOM     93  O   UNL A   1      51.752  24.635  31.999  1.00  0.00    -0.237 OA
ATOM     94  O   UNL A   1      50.524  25.115  29.920  1.00  0.00    -0.237 OA
ATOM     95  O   UNL A   1      51.286  26.966  31.342  1.00  0.00    -0.744 OA
ENDBRANCH  89  92
ENDBRANCH  62  85
ENDBRANCH  36  37
ENDBRANCH  28  31
ENDBRANCH  26  27
ENDBRANCH  25  26
ENDBRANCH   1  25
TORSDOF 17
ENDMDL
MODEL 3
REMARK VINA RESULT:     -12.0      5.057     10.428
REMARK SMILES C[C@@H]1CC[C@H]([N@@H+]2[C@@H](C(=O)NCCCCCCNC(=O)c3ccc(-c4c5nc(c(-c6cccc(S(=O)(=O)[O-])c6F)c6ccc([nH]6)c(-c6cccc(S(=O)(=O)[O-])c6F)c6nc(c(-c7cccc(S(=O)(=O)[O-])c7F)c7ccc4[nH]7)C=C6)C=C5)cc3)C[C@H]3CCCC[C@H]32)C1
REMARK SMILES IDX 14 1 13 2 12 3 11 4 10 5 8 6 9 7 7 9 6 10 89 11 83 13 84 14
REMARK SMILES IDX 88 15 85 16 87 17 86 18 5 19 1 20 2 21 3 22 90 23 4 24 15 25
REMARK SMILES IDX 16 26 17 27 18 28 19 30 20 31 21 32 82 33 22 34 81 35 23 36
REMARK SMILES IDX 24 37 25 38 75 39 26 40 80 41 74 42 76 43 27 44 79 45 73 46
REMARK SMILES IDX 72 47 28 49 60 50 40 51 59 52 41 53 44 54 58 55 77 56 42 57
REMARK SMILES IDX 43 58 57 60 78 61 45 62 29 63 30 64 38 65 31 66 33 67 39 68
REMARK SMILES IDX 32 69 34 70 35 71 36 72 37 73 61 74 62 75 70 76 63 77 65 78
REMARK SMILES IDX 71 79 64 80 66 81 67 82 68 83 69 84 46 85 47 86 55 87 48 88
REMARK SMILES IDX 50 89 56 90 49 91 51 92 52 93 53 94 54 95
REMARK H PARENT 10 8 6 12 17 29 76 48 44 59
REMARK Flexibility Score: inf
ROOT
ATOM      1  C   UNL A   1      35.949  22.834  23.533  1.00  0.00     0.002 C 
ENDROOT
BRANCH   1   2
ATOM      2  C   UNL A   1      34.568  22.567  24.138  1.00  0.00     0.002 C 
BRANCH   2   3
ATOM      3  C   UNL A   1      33.586  23.737  24.093  1.00  0.00     0.021 C 
BRANCH   3   4
ATOM      4  C   UNL A   1      33.995  24.896  23.196  1.00  0.00     0.116 C 
BRANCH   4   5
ATOM      5  N   UNL A   1      32.998  25.210  22.196  1.00  0.00    -0.351 N 
ATOM      6  C   UNL A   1      32.204  26.318  22.080  1.00  0.00     0.278 C 
ATOM      7  O   UNL A   1      31.416  26.331  21.130  1.00  0.00    -0.268 OA
ATOM      8  H   UNL A   1      32.873  24.528  21.497  1.00  0.00     0.163 HD
BRANCH   6   9
ATOM      9  C   UNL A   1      32.259  27.432  23.166  1.00  0.00     0.275 C 
ATOM     10  N   UNL A   1      31.441  27.024  24.349  1.00  0.00    -0.320 N 
ATOM     11  C   UNL A   1      30.223  27.843  24.335  1.00  0.00     0.188 C 
ATOM     12  H   UNL A   1      31.126  26.055  24.293  1.00  0.00     0.349 HD
ATOM     13  C   UNL A   1      31.674  28.788  22.728  1.00  0.00     0.085 C 
ATOM     14  C   UNL A   1      30.703  29.191  23.825  1.00  0.00     0.054 C 
ATOM     15  C   UNL A   1      29.142  27.221  23.428  1.00  0.00     0.065 C 
ATOM     16  C   UNL A   1      29.602  30.148  23.383  1.00  0.00     0.010 C 
ATOM     17  C   UNL A   1      28.008  28.210  23.167  1.00  0.00     0.006 C 
ATOM     18  C   UNL A   1      28.530  29.490  22.522  1.00  0.00     0.001 C 
BRANCH  10  19
ATOM     19  C   UNL A   1      32.223  26.928  25.592  1.00  0.00     0.185 C 
ATOM     20  C   UNL A   1      31.781  30.064  26.783  1.00  0.00     0.008 C 
ATOM     21  C   UNL A   1      32.341  28.736  27.282  1.00  0.00    -0.008 C 
ATOM     22  C   UNL A   1      33.758  28.482  26.778  1.00  0.00     0.009 C 
ATOM     23  C   UNL A   1      31.550  27.495  26.855  1.00  0.00     0.068 C 
ATOM     24  C   UNL A   1      33.656  27.495  25.617  1.00  0.00     0.065 C 
ENDBRANCH  10  19
ENDBRANCH   6   9
ENDBRANCH   4   5
ENDBRANCH   3   4
ENDBRANCH   2   3
ENDBRANCH   1   2
BRANCH   1  25
ATOM     25  C   UNL A   1      37.070  21.903  24.000  1.00  0.00     0.021 C 
BRANCH  25  26
ATOM     26  C   UNL A   1      37.304  21.871  25.506  1.00  0.00     0.116 C 
BRANCH  26  27
ATOM     27  N   UNL A   1      38.312  20.897  25.890  1.00  0.00    -0.352 N 
ATOM     28  C   UNL A   1      39.570  21.106  26.400  1.00  0.00     0.251 C 
ATOM     29  H   UNL A   1      38.057  19.954  25.769  1.00  0.00     0.163 HD
ATOM     30  O   UNL A   1      40.351  20.169  26.511  1.00  0.00    -0.269 OA
BRANCH  28  31
ATOM     31  C   UNL A   1      39.985  22.471  26.793  1.00  0.00     0.039 A 
ATOM     32  C   UNL A   1      40.960  22.620  27.782  1.00  0.00     0.014 A 
ATOM     33  C   UNL A   1      39.418  23.596  26.188  1.00  0.00     0.014 A 
ATOM     34  C   UNL A   1      41.405  23.898  28.127  1.00  0.00     0.010 A 
ATOM     35  C   UNL A   1      39.920  24.862  26.475  1.00  0.00     0.010 A 
ATOM     36  C   UNL A   1      40.911  25.028  27.454  1.00  0.00    -0.014 A 
BRANCH  36  37
ATOM     37  C   UNL A   1      41.428  26.388  27.756  1.00  0.00     0.031 A 
ATOM     38  C   UNL A   1      42.845  26.757  27.417  1.00  0.00     0.074 A 
ATOM     39  C   UNL A   1      40.643  27.264  28.413  1.00  0.00     0.049 A 
ATOM     40  N   UNL A   1      43.481  27.878  27.641  1.00  0.00    -0.248 NA
ATOM     41  C   UNL A   1      43.665  25.723  26.765  1.00  0.00     0.031 C 
ATOM     42  C   UNL A   1      39.278  26.997  28.871  1.00  0.00     0.029 A 
ATOM     43  N   UNL A   1      40.890  28.547  28.834  1.00  0.00    -0.354 N 
ATOM     44  C   UNL A   1      44.781  27.673  27.193  1.00  0.00     0.074 A 
ATOM     45  C   UNL A   1      44.852  26.308  26.720  1.00  0.00     0.031 C 
ATOM     46  C   UNL A   1      38.808  28.083  29.505  1.00  0.00     0.029 A 
ATOM     47  C   UNL A   1      39.845  29.110  29.528  1.00  0.00     0.049 A 
ATOM     48  H   UNL A   1      41.735  29.020  28.654  1.00  0.00     0.167 HD
ATOM     49  C   UNL A   1      45.814  28.548  27.154  1.00  0.00     0.034 A 
ATOM     50  C   UNL A   1      39.737  30.310  30.129  1.00  0.00     0.034 A 
ATOM     51  C   UNL A   1      45.729  29.913  27.601  1.00  0.00     0.049 A 
ATOM     52  C   UNL A   1      40.885  31.278  30.045  1.00  0.00     0.074 A 
ATOM     53  C   UNL A   1      46.689  30.906  27.519  1.00  0.00     0.029 A 
ATOM     54  N   UNL A   1      44.628  30.473  28.231  1.00  0.00    -0.354 N 
ATOM     55  N   UNL A   1      42.053  31.123  29.473  1.00  0.00    -0.248 NA
ATOM     56  C   UNL A   1      40.686  32.600  30.657  1.00  0.00     0.031 C 
ATOM     57  C   UNL A   1      46.182  32.055  28.136  1.00  0.00     0.029 A 
ATOM     58  C   UNL A   1      44.891  31.792  28.561  1.00  0.00     0.049 A 
ATOM     59  H   UNL A   1      43.784  30.002  28.415  1.00  0.00     0.167 HD
ATOM     60  C   UNL A   1      42.718  32.334  29.626  1.00  0.00     0.074 A 
ATOM     61  C   UNL A   1      41.812  33.220  30.328  1.00  0.00     0.031 C 
ATOM     62  C   UNL A   1      43.968  32.678  29.228  1.00  0.00     0.034 A 
BRANCH  49  63
ATOM     63  C   UNL A   1      47.119  28.059  26.578  1.00  0.00     0.023 A 
ATOM     64  C   UNL A   1      48.167  27.677  27.440  1.00  0.00     0.012 A 
ATOM     65  C   UNL A   1      47.298  27.945  25.185  1.00  0.00     0.148 A 
ATOM     66  C   UNL A   1      49.389  27.241  26.928  1.00  0.00     0.002 A 
ATOM     67  C   UNL A   1      48.500  27.460  24.683  1.00  0.00     0.091 A 
ATOM     68  F   UNL A   1      46.300  28.331  24.377  1.00  0.00    -0.205 F 
ATOM     69  C   UNL A   1      49.552  27.123  25.551  1.00  0.00     0.022 A 
BRANCH  67  70
ATOM     70  S   UNL A   1      48.778  27.193  22.928  1.00  0.00     0.127 S 
ATOM     71  O   UNL A   1      50.230  27.330  22.836  1.00  0.00    -0.237 OA
ATOM     72  O   UNL A   1      48.282  25.830  22.742  1.00  0.00    -0.237 OA
ATOM     73  O   UNL A   1      48.006  28.218  22.240  1.00  0.00    -0.744 OA
ENDBRANCH  67  70
ENDBRANCH  49  63
BRANCH  50  74
ATOM     74  C   UNL A   1      38.466  30.677  30.815  1.00  0.00     0.023 A 
ATOM     75  C   UNL A   1      38.320  30.423  32.192  1.00  0.00     0.012 A 
ATOM     76  C   UNL A   1      37.427  31.327  30.121  1.00  0.00     0.148 A 
ATOM     77  C   UNL A   1      37.150  30.786  32.860  1.00  0.00     0.002 A 
ATOM     78  C   UNL A   1      36.290  31.738  30.804  1.00  0.00     0.091 A 
ATOM     79  F   UNL A   1      37.588  31.554  28.809  1.00  0.00    -0.205 F 
ATOM     80  C   UNL A   1      36.141  31.453  32.170  1.00  0.00     0.022 A 
BRANCH  78  81
ATOM     81  S   UNL A   1      35.000  32.721  30.031  1.00  0.00     0.127 S 
ATOM     82  O   UNL A   1      34.067  32.915  31.137  1.00  0.00    -0.237 OA
ATOM     83  O   UNL A   1      35.739  33.918  29.628  1.00  0.00    -0.237 OA
ATOM     84  O   UNL A   1      34.502  31.920  28.921  1.00  0.00    -0.744 OA
ENDBRANCH  78  81
ENDBRANCH  50  74
BRANCH  62  85
ATOM     85  C   UNL A   1      44.430  34.084  29.509  1.00  0.00     0.023 A 
ATOM     86  C   UNL A   1      45.192  34.361  30.660  1.00  0.00     0.012 A 
ATOM     87  C   UNL A   1      44.167  35.120  28.589  1.00  0.00     0.148 A 
ATOM     88  C   UNL A   1      45.656  35.654  30.910  1.00  0.00     0.002 A 
ATOM     89  C   UNL A   1      44.677  36.392  28.817  1.00  0.00     0.091 A 
ATOM     90  F   UNL A   1      43.424  34.841  27.507  1.00  0.00    -0.205 F 
ATOM     91  C   UNL A   1      45.409  36.664  29.984  1.00  0.00     0.022 A 
BRANCH  89  92
ATOM     92  S   UNL A   1      44.495  37.731  27.634  1.00  0.00     0.127 S 
ATOM     93  O   UNL A   1      45.750  37.643  26.890  1.00  0.00    -0.237 OA
ATOM     94  O   UNL A   1      43.310  37.318  26.882  1.00  0.00    -0.237 OA
ATOM     95  O   UNL A   1      44.319  38.944  28.421  1.00  0.00    -0.744 OA
ENDBRANCH  89  92
ENDBRANCH  62  85
ENDBRANCH  36  37
ENDBRANCH  28  31
ENDBRANCH  26  27
ENDBRANCH  25  26
ENDBRANCH   1  25
TORSDOF 17
ENDMDL
