MODEL 1
REMARK VINA RESULT:     -11.8      0.000      0.000
REMARK SMILES O=C(NCCCCCCNC(=O)c1nn(-c2ccc([N+](=O)[O-])cc2)cc1CCO)c1ccc(-c2c3nc(c(-c4cccc(S(=O)(=O)[O-])c4F)c4ccc([nH]4)c(-c4cccc(S(=O)(=O)[O-])c4F)c4nc(c(-c5cccc(S(=O)(=O)[O-])c5F)c5ccc2[nH]5)C=C4)C=C3)cc1
REMARK SMILES IDX 6 1 5 2 4 3 3 4 1 5 2 6 30 8 31 9 92 10 32 11 91 12 33 13
REMARK SMILES IDX 34 14 35 15 85 16 36 17 90 18 84 19 86 20 37 21 89 22 83 23
REMARK SMILES IDX 82 24 38 26 70 27 50 28 69 29 51 30 54 31 68 32 87 33 52 34
REMARK SMILES IDX 53 35 67 37 88 38 55 39 39 40 40 41 48 42 41 43 43 44 49 45
REMARK SMILES IDX 42 46 44 47 45 48 46 49 47 50 71 51 72 52 80 53 73 54 75 55
REMARK SMILES IDX 81 56 74 57 76 58 77 59 78 60 79 61 56 62 57 63 65 64 58 65
REMARK SMILES IDX 60 66 66 67 59 68 61 69 62 70 63 71 64 72 7 73 8 74 9 75
REMARK SMILES IDX 10 76 11 77 12 79 13 80 14 81 26 82 15 83 25 84 27 85 28 86
REMARK SMILES IDX 29 87 16 89 17 90 24 91 18 92 23 93 19 94 20 95 21 96 22 97
REMARK H PARENT 3 7 86 25 54 36 10 78 29 88
REMARK Flexibility Score: inf
ROOT
ATOM      1  C   UNL A   1      37.133  22.691  24.231  1.00  0.00     0.002 C 
ENDROOT
BRANCH   1   2
ATOM      2  C   UNL A   1      37.715  21.712  25.255  1.00  0.00     0.021 C 
BRANCH   2   3
ATOM      3  C   UNL A   1      38.637  22.341  26.302  1.00  0.00     0.116 C 
BRANCH   3   4
ATOM      4  N   UNL A   1      40.049  22.220  26.011  1.00  0.00    -0.352 N 
ATOM      5  O   UNL A   1      42.241  22.461  25.996  1.00  0.00    -0.269 OA
ATOM      6  C   UNL A   1      41.159  22.957  26.321  1.00  0.00     0.251 C 
ATOM      7  H   UNL A   1      40.258  21.427  25.465  1.00  0.00     0.163 HD
BRANCH   6   8
ATOM      8  C   UNL A   1      41.139  24.304  26.956  1.00  0.00     0.039 A 
ATOM      9  C   UNL A   1      40.389  25.396  26.514  1.00  0.00     0.014 A 
ATOM     10  C   UNL A   1      41.969  24.474  28.079  1.00  0.00     0.014 A 
ATOM     11  C   UNL A   1      40.524  26.641  27.116  1.00  0.00     0.010 A 
ATOM     12  C   UNL A   1      42.088  25.710  28.704  1.00  0.00     0.010 A 
ATOM     13  C   UNL A   1      41.385  26.801  28.199  1.00  0.00    -0.014 A 
BRANCH  13  14
ATOM     14  C   UNL A   1      41.405  28.104  28.858  1.00  0.00     0.031 A 
ATOM     15  C   UNL A   1      42.433  29.058  28.353  1.00  0.00     0.074 A 
ATOM     16  C   UNL A   1      40.473  28.493  29.751  1.00  0.00     0.049 A 
ATOM     17  N   UNL A   1      43.382  29.646  29.009  1.00  0.00    -0.248 NA
ATOM     18  C   UNL A   1      42.459  29.315  26.905  1.00  0.00     0.031 C 
ATOM     19  C   UNL A   1      39.234  27.791  30.092  1.00  0.00     0.029 A 
ATOM     20  N   UNL A   1      40.362  29.679  30.419  1.00  0.00    -0.354 N 
ATOM     21  C   UNL A   1      43.987  30.516  28.098  1.00  0.00     0.074 A 
ATOM     22  C   UNL A   1      43.495  30.145  26.799  1.00  0.00     0.031 C 
ATOM     23  C   UNL A   1      38.387  28.663  30.680  1.00  0.00     0.029 A 
ATOM     24  C   UNL A   1      39.069  29.932  30.863  1.00  0.00     0.049 A 
ATOM     25  H   UNL A   1      41.118  30.291  30.569  1.00  0.00     0.167 HD
ATOM     26  C   UNL A   1      44.660  31.629  28.504  1.00  0.00     0.034 A 
ATOM     27  C   UNL A   1      38.565  31.127  31.257  1.00  0.00     0.034 A 
ATOM     28  C   UNL A   1      45.036  31.549  29.892  1.00  0.00     0.049 A 
ATOM     29  C   UNL A   1      39.698  32.018  31.587  1.00  0.00     0.074 A 
ATOM     30  C   UNL A   1      45.782  30.689  30.672  1.00  0.00     0.029 A 
ATOM     31  N   UNL A   1      44.350  32.350  30.770  1.00  0.00    -0.354 N 
ATOM     32  N   UNL A   1      40.482  31.857  32.616  1.00  0.00    -0.248 NA
ATOM     33  C   UNL A   1      40.185  32.930  30.565  1.00  0.00     0.031 C 
ATOM     34  C   UNL A   1      45.166  30.721  31.957  1.00  0.00     0.029 A 
ATOM     35  C   UNL A   1      44.095  31.614  31.889  1.00  0.00     0.049 A 
ATOM     36  H   UNL A   1      44.089  33.287  30.619  1.00  0.00     0.167 HD
ATOM     37  C   UNL A   1      41.724  32.289  32.175  1.00  0.00     0.074 A 
ATOM     38  C   UNL A   1      41.448  33.065  30.971  1.00  0.00     0.031 C 
ATOM     39  C   UNL A   1      42.875  31.729  32.656  1.00  0.00     0.034 A 
BRANCH  26  40
ATOM     40  C   UNL A   1      44.643  32.970  27.782  1.00  0.00     0.023 A 
ATOM     41  C   UNL A   1      45.841  33.361  27.132  1.00  0.00     0.012 A 
ATOM     42  C   UNL A   1      43.673  33.979  27.974  1.00  0.00     0.148 A 
ATOM     43  C   UNL A   1      46.108  34.696  26.812  1.00  0.00     0.002 A 
ATOM     44  C   UNL A   1      43.913  35.293  27.583  1.00  0.00     0.091 A 
ATOM     45  F   UNL A   1      42.551  33.721  28.648  1.00  0.00    -0.205 F 
ATOM     46  C   UNL A   1      45.144  35.666  27.044  1.00  0.00     0.022 A 
BRANCH  44  47
ATOM     47  S   UNL A   1      42.674  36.575  27.813  1.00  0.00     0.127 S 
ATOM     48  O   UNL A   1      41.465  35.895  27.358  1.00  0.00    -0.237 OA
ATOM     49  O   UNL A   1      42.748  36.814  29.254  1.00  0.00    -0.237 OA
ATOM     50  O   UNL A   1      43.128  37.698  27.001  1.00  0.00    -0.744 OA
ENDBRANCH  44  47
ENDBRANCH  26  40
BRANCH  27  51
ATOM     51  C   UNL A   1      37.178  31.633  31.160  1.00  0.00     0.023 A 
ATOM     52  C   UNL A   1      36.536  32.130  32.311  1.00  0.00     0.012 A 
ATOM     53  C   UNL A   1      36.568  31.861  29.906  1.00  0.00     0.148 A 
ATOM     54  C   UNL A   1      35.339  32.850  32.214  1.00  0.00     0.002 A 
ATOM     55  C   UNL A   1      35.368  32.559  29.817  1.00  0.00     0.091 A 
ATOM     56  F   UNL A   1      37.209  31.476  28.794  1.00  0.00    -0.205 F 
ATOM     57  C   UNL A   1      34.757  33.067  30.969  1.00  0.00     0.022 A 
BRANCH  55  58
ATOM     58  S   UNL A   1      34.561  32.867  28.240  1.00  0.00     0.127 S 
ATOM     59  O   UNL A   1      33.428  33.706  28.636  1.00  0.00    -0.237 OA
ATOM     60  O   UNL A   1      35.605  33.563  27.494  1.00  0.00    -0.237 OA
ATOM     61  O   UNL A   1      34.178  31.556  27.729  1.00  0.00    -0.744 OA
ENDBRANCH  55  58
ENDBRANCH  27  51
BRANCH  39  62
ATOM     62  C   UNL A   1      42.801  30.899  33.910  1.00  0.00     0.023 A 
ATOM     63  C   UNL A   1      42.873  31.477  35.193  1.00  0.00     0.012 A 
ATOM     64  C   UNL A   1      42.470  29.538  33.793  1.00  0.00     0.148 A 
ATOM     65  C   UNL A   1      42.648  30.709  36.336  1.00  0.00     0.002 A 
ATOM     66  C   UNL A   1      42.197  28.788  34.931  1.00  0.00     0.091 A 
ATOM     67  F   UNL A   1      42.400  29.002  32.565  1.00  0.00    -0.205 F 
ATOM     68  C   UNL A   1      42.296  29.368  36.205  1.00  0.00     0.022 A 
BRANCH  66  69
ATOM     69  S   UNL A   1      41.601  27.099  34.820  1.00  0.00     0.127 S 
ATOM     70  O   UNL A   1      41.267  26.799  36.210  1.00  0.00    -0.237 OA
ATOM     71  O   UNL A   1      40.448  27.229  33.928  1.00  0.00    -0.237 OA
ATOM     72  O   UNL A   1      42.702  26.326  34.254  1.00  0.00    -0.744 OA
ENDBRANCH  66  69
ENDBRANCH  39  62
ENDBRANCH  13  14
ENDBRANCH   6   8
ENDBRANCH   3   4
ENDBRANCH   2   3
ENDBRANCH   1   2
BRANCH   1  73
ATOM     73  C   UNL A   1      35.635  22.971  24.362  1.00  0.00     0.002 C 
BRANCH  73  74
ATOM     74  C   UNL A   1      35.217  23.756  25.610  1.00  0.00     0.021 C 
BRANCH  74  75
ATOM     75  C   UNL A   1      34.564  25.112  25.334  1.00  0.00     0.116 C 
BRANCH  75  76
ATOM     76  N   UNL A   1      33.384  25.324  26.161  1.00  0.00    -0.351 N 
ATOM     77  C   UNL A   1      32.144  24.757  26.026  1.00  0.00     0.272 C 
ATOM     78  H   UNL A   1      33.490  25.954  26.909  1.00  0.00     0.163 HD
ATOM     79  O   UNL A   1      31.195  25.177  26.714  1.00  0.00    -0.267 OA
BRANCH  77  80
ATOM     80  C   UNL A   1      31.949  23.717  25.020  1.00  0.00     0.153 A 
ATOM     81  N   UNL A   1      32.192  22.423  25.296  1.00  0.00    -0.162 NA
ATOM     82  C   UNL A   1      31.479  23.877  23.685  1.00  0.00     0.006 A 
ATOM     83  N   UNL A   1      32.097  21.789  24.112  1.00  0.00    -0.240 N 
ATOM     84  C   UNL A   1      31.664  22.631  23.115  1.00  0.00     0.119 A 
BRANCH  82  85
ATOM     85  C   UNL A   1      30.968  25.118  23.022  1.00  0.00     0.068 C 
BRANCH  85  86
ATOM     86  C   UNL A   1      31.984  25.759  22.071  1.00  0.00     0.161 C 
BRANCH  86  87
ATOM     87  O   UNL A   1      31.351  26.538  21.063  1.00  0.00    -0.396 OA
ATOM     88  H   UNL A   1      30.529  26.103  20.787  1.00  0.00     0.210 HD
ENDBRANCH  86  87
ENDBRANCH  85  86
ENDBRANCH  82  85
BRANCH  83  89
ATOM     89  C   UNL A   1      32.466  20.426  24.003  1.00  0.00     0.065 A 
ATOM     90  C   UNL A   1      33.189  19.828  25.047  1.00  0.00     0.035 A 
ATOM     91  C   UNL A   1      32.147  19.695  22.851  1.00  0.00     0.035 A 
ATOM     92  C   UNL A   1      33.568  18.486  24.957  1.00  0.00     0.088 A 
ATOM     93  C   UNL A   1      32.571  18.368  22.737  1.00  0.00     0.088 A 
ATOM     94  C   UNL A   1      33.267  17.764  23.795  1.00  0.00     0.269 A 
BRANCH  94  95
ATOM     95  N   UNL A   1      33.675  16.359  23.685  1.00  0.00     0.062 N 
ATOM     96  O   UNL A   1      34.412  16.046  22.740  1.00  0.00    -0.258 OA
ATOM     97  O   UNL A   1      33.279  15.576  24.562  1.00  0.00    -0.258 OA
ENDBRANCH  94  95
ENDBRANCH  83  89
ENDBRANCH  77  80
ENDBRANCH  75  76
ENDBRANCH  74  75
ENDBRANCH  73  74
ENDBRANCH   1  73
TORSDOF 21
ENDMDL
MODEL 2
REMARK VINA RESULT:     -11.8      2.936      8.348
REMARK SMILES O=C(NCCCCCCNC(=O)c1nn(-c2ccc([N+](=O)[O-])cc2)cc1CCO)c1ccc(-c2c3nc(c(-c4cccc(S(=O)(=O)[O-])c4F)c4ccc([nH]4)c(-c4cccc(S(=O)(=O)[O-])c4F)c4nc(c(-c5cccc(S(=O)(=O)[O-])c5F)c5ccc2[nH]5)C=C4)C=C3)cc1
REMARK SMILES IDX 6 1 5 2 4 3 3 4 1 5 2 6 30 8 31 9 92 10 32 11 91 12 33 13
REMARK SMILES IDX 34 14 35 15 85 16 36 17 90 18 84 19 86 20 37 21 89 22 83 23
REMARK SMILES IDX 82 24 38 26 70 27 50 28 69 29 51 30 54 31 68 32 87 33 52 34
REMARK SMILES IDX 53 35 67 37 88 38 55 39 39 40 40 41 48 42 41 43 43 44 49 45
REMARK SMILES IDX 42 46 44 47 45 48 46 49 47 50 71 51 72 52 80 53 73 54 75 55
REMARK SMILES IDX 81 56 74 57 76 58 77 59 78 60 79 61 56 62 57 63 65 64 58 65
REMARK SMILES IDX 60 66 66 67 59 68 61 69 62 70 63 71 64 72 7 73 8 74 9 75
REMARK SMILES IDX 10 76 11 77 12 79 13 80 14 81 26 82 15 83 25 84 27 85 28 86
REMARK SMILES IDX 29 87 16 89 17 90 24 91 18 92 23 93 19 94 20 95 21 96 22 97
REMARK H PARENT 3 7 86 25 54 36 10 78 29 88
REMARK Flexibility Score: inf
ROOT
ATOM      1  C   UNL A   1      32.153  29.058  27.276  1.00  0.00     0.002 C 
ENDROOT
BRANCH   1   2
ATOM      2  C   UNL A   1      32.791  30.343  26.740  1.00  0.00     0.021 C 
BRANCH   2   3
ATOM      3  C   UNL A   1      34.192  30.643  27.276  1.00  0.00     0.116 C 
BRANCH   3   4
ATOM      4  N   UNL A   1      34.222  31.544  28.408  1.00  0.00    -0.352 N 
ATOM      5  O   UNL A   1      34.863  32.814  30.093  1.00  0.00    -0.269 OA
ATOM      6  C   UNL A   1      35.169  31.893  29.332  1.00  0.00     0.251 C 
ATOM      7  H   UNL A   1      33.366  32.011  28.545  1.00  0.00     0.163 HD
BRANCH   6   8
ATOM      8  C   UNL A   1      36.483  31.212  29.505  1.00  0.00     0.039 A 
ATOM      9  C   UNL A   1      37.726  31.847  29.539  1.00  0.00     0.014 A 
ATOM     10  C   UNL A   1      36.444  29.811  29.620  1.00  0.00     0.014 A 
ATOM     11  C   UNL A   1      38.900  31.107  29.598  1.00  0.00     0.010 A 
ATOM     12  C   UNL A   1      37.615  29.065  29.709  1.00  0.00     0.010 A 
ATOM     13  C   UNL A   1      38.845  29.717  29.666  1.00  0.00    -0.014 A 
BRANCH  13  14
ATOM     14  C   UNL A   1      40.105  28.999  29.836  1.00  0.00     0.031 A 
ATOM     15  C   UNL A   1      40.482  28.698  31.247  1.00  0.00     0.074 A 
ATOM     16  C   UNL A   1      40.813  28.499  28.804  1.00  0.00     0.049 A 
ATOM     17  N   UNL A   1      41.556  29.039  31.886  1.00  0.00    -0.248 NA
ATOM     18  C   UNL A   1      39.485  28.006  32.077  1.00  0.00     0.031 C 
ATOM     19  C   UNL A   1      40.398  28.433  27.402  1.00  0.00     0.029 A 
ATOM     20  N   UNL A   1      41.984  27.795  28.823  1.00  0.00    -0.354 N 
ATOM     21  C   UNL A   1      41.465  28.414  33.134  1.00  0.00     0.074 A 
ATOM     22  C   UNL A   1      40.111  27.945  33.251  1.00  0.00     0.031 C 
ATOM     23  C   UNL A   1      41.157  27.516  26.765  1.00  0.00     0.029 A 
ATOM     24  C   UNL A   1      42.176  27.030  27.679  1.00  0.00     0.049 A 
ATOM     25  H   UNL A   1      42.625  27.827  29.570  1.00  0.00     0.167 HD
ATOM     26  C   UNL A   1      42.570  28.119  33.873  1.00  0.00     0.034 A 
ATOM     27  C   UNL A   1      43.042  26.000  27.527  1.00  0.00     0.034 A 
ATOM     28  C   UNL A   1      43.713  28.888  33.453  1.00  0.00     0.049 A 
ATOM     29  C   UNL A   1      44.071  26.104  28.584  1.00  0.00     0.074 A 
ATOM     30  C   UNL A   1      44.023  30.228  33.339  1.00  0.00     0.029 A 
ATOM     31  N   UNL A   1      44.700  28.217  32.774  1.00  0.00    -0.354 N 
ATOM     32  N   UNL A   1      44.980  27.037  28.635  1.00  0.00    -0.248 NA
ATOM     33  C   UNL A   1      43.888  25.341  29.809  1.00  0.00     0.031 C 
ATOM     34  C   UNL A   1      44.915  30.312  32.231  1.00  0.00     0.029 A 
ATOM     35  C   UNL A   1      45.113  29.017  31.749  1.00  0.00     0.049 A 
ATOM     36  H   UNL A   1      45.046  27.321  32.989  1.00  0.00     0.167 HD
ATOM     37  C   UNL A   1      45.165  27.268  29.990  1.00  0.00     0.074 A 
ATOM     38  C   UNL A   1      44.582  26.106  30.653  1.00  0.00     0.031 C 
ATOM     39  C   UNL A   1      45.500  28.510  30.452  1.00  0.00     0.034 A 
BRANCH  26  40
ATOM     40  C   UNL A   1      42.748  26.859  34.709  1.00  0.00     0.023 A 
ATOM     41  C   UNL A   1      42.573  26.993  36.110  1.00  0.00     0.012 A 
ATOM     42  C   UNL A   1      43.376  25.675  34.264  1.00  0.00     0.148 A 
ATOM     43  C   UNL A   1      43.106  26.068  37.015  1.00  0.00     0.002 A 
ATOM     44  C   UNL A   1      43.837  24.720  35.166  1.00  0.00     0.091 A 
ATOM     45  F   UNL A   1      43.656  25.501  32.971  1.00  0.00    -0.205 F 
ATOM     46  C   UNL A   1      43.745  24.932  36.542  1.00  0.00     0.022 A 
BRANCH  44  47
ATOM     47  S   UNL A   1      44.623  23.205  34.600  1.00  0.00     0.127 S 
ATOM     48  O   UNL A   1      43.611  22.676  33.691  1.00  0.00    -0.237 OA
ATOM     49  O   UNL A   1      45.833  23.714  33.955  1.00  0.00    -0.237 OA
ATOM     50  O   UNL A   1      44.876  22.430  35.808  1.00  0.00    -0.744 OA
ENDBRANCH  44  47
ENDBRANCH  26  40
BRANCH  27  51
ATOM     51  C   UNL A   1      42.925  24.800  26.669  1.00  0.00     0.023 A 
ATOM     52  C   UNL A   1      43.942  24.508  25.739  1.00  0.00     0.012 A 
ATOM     53  C   UNL A   1      41.952  23.808  26.925  1.00  0.00     0.148 A 
ATOM     54  C   UNL A   1      44.000  23.262  25.102  1.00  0.00     0.002 A 
ATOM     55  C   UNL A   1      42.001  22.580  26.275  1.00  0.00     0.091 A 
ATOM     56  F   UNL A   1      41.032  24.034  27.873  1.00  0.00    -0.205 F 
ATOM     57  C   UNL A   1      43.032  22.298  25.372  1.00  0.00     0.022 A 
BRANCH  55  58
ATOM     58  S   UNL A   1      40.780  21.294  26.574  1.00  0.00     0.127 S 
ATOM     59  O   UNL A   1      39.559  21.905  26.044  1.00  0.00    -0.237 OA
ATOM     60  O   UNL A   1      41.303  20.187  25.780  1.00  0.00    -0.237 OA
ATOM     61  O   UNL A   1      40.765  21.093  28.018  1.00  0.00    -0.744 OA
ENDBRANCH  55  58
ENDBRANCH  27  51
BRANCH  39  62
ATOM     62  C   UNL A   1      46.010  29.529  29.469  1.00  0.00     0.023 A 
ATOM     63  C   UNL A   1      47.376  29.634  29.143  1.00  0.00     0.012 A 
ATOM     64  C   UNL A   1      45.074  30.269  28.726  1.00  0.00     0.148 A 
ATOM     65  C   UNL A   1      47.804  30.479  28.118  1.00  0.00     0.002 A 
ATOM     66  C   UNL A   1      45.497  31.071  27.673  1.00  0.00     0.091 A 
ATOM     67  F   UNL A   1      43.774  30.155  29.043  1.00  0.00    -0.205 F 
ATOM     68  C   UNL A   1      46.864  31.187  27.374  1.00  0.00     0.022 A 
BRANCH  66  69
ATOM     69  S   UNL A   1      44.326  31.893  26.590  1.00  0.00     0.127 S 
ATOM     70  O   UNL A   1      43.808  32.956  27.447  1.00  0.00    -0.237 OA
ATOM     71  O   UNL A   1      45.179  32.353  25.493  1.00  0.00    -0.237 OA
ATOM     72  O   UNL A   1      43.362  30.870  26.199  1.00  0.00    -0.744 OA
ENDBRANCH  66  69
ENDBRANCH  39  62
ENDBRANCH  13  14
ENDBRANCH   6   8
ENDBRANCH   3   4
ENDBRANCH   2   3
ENDBRANCH   1   2
BRANCH   1  73
ATOM     73  C   UNL A   1      32.754  27.753  26.753  1.00  0.00     0.002 C 
BRANCH  73  74
ATOM     74  C   UNL A   1      33.400  27.834  25.366  1.00  0.00     0.021 C 
BRANCH  74  75
ATOM     75  C   UNL A   1      33.776  26.486  24.746  1.00  0.00     0.116 C 
BRANCH  75  76
ATOM     76  N   UNL A   1      33.705  26.519  23.292  1.00  0.00    -0.351 N 
ATOM     77  C   UNL A   1      33.245  25.545  22.446  1.00  0.00     0.272 C 
ATOM     78  H   UNL A   1      34.029  27.343  22.864  1.00  0.00     0.163 HD
ATOM     79  O   UNL A   1      33.413  25.664  21.218  1.00  0.00    -0.267 OA
BRANCH  77  80
ATOM     80  C   UNL A   1      32.628  24.349  23.014  1.00  0.00     0.153 A 
ATOM     81  N   UNL A   1      33.343  23.230  23.229  1.00  0.00    -0.162 NA
ATOM     82  C   UNL A   1      31.277  24.183  23.431  1.00  0.00     0.006 A 
ATOM     83  N   UNL A   1      32.435  22.295  23.566  1.00  0.00    -0.240 N 
ATOM     84  C   UNL A   1      31.176  22.832  23.703  1.00  0.00     0.119 A 
BRANCH  82  85
ATOM     85  C   UNL A   1      30.191  25.211  23.495  1.00  0.00     0.068 C 
BRANCH  85  86
ATOM     86  C   UNL A   1      30.146  25.964  24.829  1.00  0.00     0.161 C 
BRANCH  86  87
ATOM     87  O   UNL A   1      29.223  25.377  25.739  1.00  0.00    -0.396 OA
ATOM     88  H   UNL A   1      28.324  25.461  25.386  1.00  0.00     0.210 HD
ENDBRANCH  86  87
ENDBRANCH  85  86
ENDBRANCH  82  85
BRANCH  83  89
ATOM     89  C   UNL A   1      32.823  20.939  23.696  1.00  0.00     0.065 A 
ATOM     90  C   UNL A   1      32.137  19.958  22.964  1.00  0.00     0.035 A 
ATOM     91  C   UNL A   1      33.853  20.578  24.575  1.00  0.00     0.035 A 
ATOM     92  C   UNL A   1      32.499  18.614  23.082  1.00  0.00     0.088 A 
ATOM     93  C   UNL A   1      34.182  19.228  24.734  1.00  0.00     0.088 A 
ATOM     94  C   UNL A   1      33.515  18.254  23.977  1.00  0.00     0.269 A 
BRANCH  94  95
ATOM     95  N   UNL A   1      33.891  16.843  24.120  1.00  0.00     0.062 N 
ATOM     96  O   UNL A   1      34.007  16.391  25.268  1.00  0.00    -0.258 OA
ATOM     97  O   UNL A   1      34.044  16.182  23.082  1.00  0.00    -0.258 OA
ENDBRANCH  94  95
ENDBRANCH  83  89
ENDBRANCH  77  80
ENDBRANCH  75  76
ENDBRANCH  74  75
ENDBRANCH  73  74
ENDBRANCH   1  73
TORSDOF 21
ENDMDL
MODEL 3
REMARK VINA RESULT:     -11.8      2.967      8.414
REMARK SMILES O=C(NCCCCCCNC(=O)c1nn(-c2ccc([N+](=O)[O-])cc2)cc1CCO)c1ccc(-c2c3nc(c(-c4cccc(S(=O)(=O)[O-])c4F)c4ccc([nH]4)c(-c4cccc(S(=O)(=O)[O-])c4F)c4nc(c(-c5cccc(S(=O)(=O)[O-])c5F)c5ccc2[nH]5)C=C4)C=C3)cc1
REMARK SMILES IDX 6 1 5 2 4 3 3 4 1 5 2 6 30 8 31 9 92 10 32 11 91 12 33 13
REMARK SMILES IDX 34 14 35 15 85 16 36 17 90 18 84 19 86 20 37 21 89 22 83 23
REMARK SMILES IDX 82 24 38 26 70 27 50 28 69 29 51 30 54 31 68 32 87 33 52 34
REMARK SMILES IDX 53 35 67 37 88 38 55 39 39 40 40 41 48 42 41 43 43 44 49 45
REMARK SMILES IDX 42 46 44 47 45 48 46 49 47 50 71 51 72 52 80 53 73 54 75 55
REMARK SMILES IDX 81 56 74 57 76 58 77 59 78 60 79 61 56 62 57 63 65 64 58 65
REMARK SMILES IDX 60 66 66 67 59 68 61 69 62 70 63 71 64 72 7 73 8 74 9 75
REMARK SMILES IDX 10 76 11 77 12 79 13 80 14 81 26 82 15 83 25 84 27 85 28 86
REMARK SMILES IDX 29 87 16 89 17 90 24 91 18 92 23 93 19 94 20 95 21 96 22 97
REMARK H PARENT 3 7 86 25 54 36 10 78 29 88
REMARK Flexibility Score: inf
ROOT
ATOM      1  C   UNL A   1      33.835  28.190  26.064  1.00  0.00     0.002 C 
ENDROOT
BRANCH   1   2
ATOM      2  C   UNL A   1      33.938  29.061  27.319  1.00  0.00     0.021 C 
BRANCH   2   3
ATOM      3  C   UNL A   1      34.197  30.546  27.057  1.00  0.00     0.116 C 
BRANCH   3   4
ATOM      4  N   UNL A   1      34.247  31.367  28.247  1.00  0.00    -0.352 N 
ATOM      5  O   UNL A   1      34.914  32.499  30.018  1.00  0.00    -0.269 OA
ATOM      6  C   UNL A   1      35.197  31.622  29.198  1.00  0.00     0.251 C 
ATOM      7  H   UNL A   1      33.405  31.852  28.410  1.00  0.00     0.163 HD
BRANCH   6   8
ATOM      8  C   UNL A   1      36.487  30.889  29.334  1.00  0.00     0.039 A 
ATOM      9  C   UNL A   1      36.619  29.531  29.628  1.00  0.00     0.014 A 
ATOM     10  C   UNL A   1      37.656  31.655  29.169  1.00  0.00     0.014 A 
ATOM     11  C   UNL A   1      37.872  28.968  29.838  1.00  0.00     0.010 A 
ATOM     12  C   UNL A   1      38.915  31.092  29.349  1.00  0.00     0.010 A 
ATOM     13  C   UNL A   1      39.017  29.752  29.715  1.00  0.00    -0.014 A 
BRANCH  13  14
ATOM     14  C   UNL A   1      40.309  29.083  29.840  1.00  0.00     0.031 A 
ATOM     15  C   UNL A   1      40.748  28.800  31.236  1.00  0.00     0.074 A 
ATOM     16  C   UNL A   1      40.997  28.607  28.784  1.00  0.00     0.049 A 
ATOM     17  N   UNL A   1      41.830  29.183  31.836  1.00  0.00    -0.248 NA
ATOM     18  C   UNL A   1      39.808  28.074  32.103  1.00  0.00     0.031 C 
ATOM     19  C   UNL A   1      40.536  28.521  27.397  1.00  0.00     0.029 A 
ATOM     20  N   UNL A   1      42.194  27.948  28.761  1.00  0.00    -0.354 N 
ATOM     21  C   UNL A   1      41.808  28.559  33.087  1.00  0.00     0.074 A 
ATOM     22  C   UNL A   1      40.478  28.039  33.254  1.00  0.00     0.031 C 
ATOM     23  C   UNL A   1      41.305  27.632  26.735  1.00  0.00     0.029 A 
ATOM     24  C   UNL A   1      42.374  27.187  27.612  1.00  0.00     0.049 A 
ATOM     25  H   UNL A   1      42.860  28.006  29.484  1.00  0.00     0.167 HD
ATOM     26  C   UNL A   1      42.949  28.308  33.786  1.00  0.00     0.034 A 
ATOM     27  C   UNL A   1      43.273  26.190  27.431  1.00  0.00     0.034 A 
ATOM     28  C   UNL A   1      44.047  29.118  33.324  1.00  0.00     0.049 A 
ATOM     29  C   UNL A   1      44.334  26.335  28.450  1.00  0.00     0.074 A 
ATOM     30  C   UNL A   1      44.301  30.468  33.197  1.00  0.00     0.029 A 
ATOM     31  N   UNL A   1      45.033  28.483  32.611  1.00  0.00    -0.354 N 
ATOM     32  N   UNL A   1      45.208  27.302  28.466  1.00  0.00    -0.248 NA
ATOM     33  C   UNL A   1      44.224  25.570  29.681  1.00  0.00     0.031 C 
ATOM     34  C   UNL A   1      45.149  30.583  32.057  1.00  0.00     0.029 A 
ATOM     35  C   UNL A   1      45.378  29.295  31.571  1.00  0.00     0.049 A 
ATOM     36  H   UNL A   1      45.420  27.602  32.814  1.00  0.00     0.167 HD
ATOM     37  C   UNL A   1      45.433  27.544  29.813  1.00  0.00     0.074 A 
ATOM     38  C   UNL A   1      44.919  26.363  30.499  1.00  0.00     0.031 C 
ATOM     39  C   UNL A   1      45.737  28.799  30.260  1.00  0.00     0.034 A 
BRANCH  26  40
ATOM     40  C   UNL A   1      43.205  27.058  34.618  1.00  0.00     0.023 A 
ATOM     41  C   UNL A   1      43.294  27.232  36.022  1.00  0.00     0.012 A 
ATOM     42  C   UNL A   1      43.676  25.828  34.105  1.00  0.00     0.148 A 
ATOM     43  C   UNL A   1      43.928  26.297  36.846  1.00  0.00     0.002 A 
ATOM     44  C   UNL A   1      44.238  24.867  34.941  1.00  0.00     0.091 A 
ATOM     45  F   UNL A   1      43.707  25.610  32.789  1.00  0.00    -0.205 F 
ATOM     46  C   UNL A   1      44.408  25.114  36.303  1.00  0.00     0.022 A 
BRANCH  44  47
ATOM     47  S   UNL A   1      44.823  23.296  34.293  1.00  0.00     0.127 S 
ATOM     48  O   UNL A   1      46.175  23.643  33.866  1.00  0.00    -0.237 OA
ATOM     49  O   UNL A   1      44.746  22.434  35.473  1.00  0.00    -0.237 OA
ATOM     50  O   UNL A   1      43.882  22.941  33.238  1.00  0.00    -0.744 OA
ENDBRANCH  44  47
ENDBRANCH  26  40
BRANCH  27  51
ATOM     51  C   UNL A   1      43.170  24.984  26.579  1.00  0.00     0.023 A 
ATOM     52  C   UNL A   1      44.027  24.840  25.471  1.00  0.00     0.012 A 
ATOM     53  C   UNL A   1      42.412  23.863  26.986  1.00  0.00     0.148 A 
ATOM     54  C   UNL A   1      44.142  23.614  24.803  1.00  0.00     0.002 A 
ATOM     55  C   UNL A   1      42.515  22.653  26.307  1.00  0.00     0.091 A 
ATOM     56  F   UNL A   1      41.663  23.954  28.092  1.00  0.00    -0.205 F 
ATOM     57  C   UNL A   1      43.389  22.521  25.222  1.00  0.00     0.022 A 
BRANCH  55  58
ATOM     58  S   UNL A   1      41.566  21.205  26.793  1.00  0.00     0.127 S 
ATOM     59  O   UNL A   1      41.776  20.306  25.656  1.00  0.00    -0.237 OA
ATOM     60  O   UNL A   1      42.237  20.800  28.025  1.00  0.00    -0.237 OA
ATOM     61  O   UNL A   1      40.190  21.666  26.939  1.00  0.00    -0.744 OA
ENDBRANCH  55  58
ENDBRANCH  27  51
BRANCH  39  62
ATOM     62  C   UNL A   1      46.173  29.835  29.258  1.00  0.00     0.023 A 
ATOM     63  C   UNL A   1      47.521  29.988  28.881  1.00  0.00     0.012 A 
ATOM     64  C   UNL A   1      45.183  30.539  28.551  1.00  0.00     0.148 A 
ATOM     65  C   UNL A   1      47.879  30.846  27.840  1.00  0.00     0.002 A 
ATOM     66  C   UNL A   1      45.537  31.353  27.483  1.00  0.00     0.091 A 
ATOM     67  F   UNL A   1      43.901  30.379  28.918  1.00  0.00    -0.205 F 
ATOM     68  C   UNL A   1      46.886  31.518  27.132  1.00  0.00     0.022 A 
BRANCH  66  69
ATOM     69  S   UNL A   1      44.297  32.130  26.444  1.00  0.00     0.127 S 
ATOM     70  O   UNL A   1      43.756  33.159  27.329  1.00  0.00    -0.237 OA
ATOM     71  O   UNL A   1      45.094  32.641  25.328  1.00  0.00    -0.237 OA
ATOM     72  O   UNL A   1      43.370  31.067  26.070  1.00  0.00    -0.744 OA
ENDBRANCH  66  69
ENDBRANCH  39  62
ENDBRANCH  13  14
ENDBRANCH   6   8
ENDBRANCH   3   4
ENDBRANCH   2   3
ENDBRANCH   1   2
BRANCH   1  73
ATOM     73  C   UNL A   1      32.859  27.016  26.153  1.00  0.00     0.002 C 
BRANCH  73  74
ATOM     74  C   UNL A   1      33.496  25.623  26.093  1.00  0.00     0.021 C 
BRANCH  74  75
ATOM     75  C   UNL A   1      32.633  24.543  25.437  1.00  0.00     0.116 C 
BRANCH  75  76
ATOM     76  N   UNL A   1      32.738  24.572  23.985  1.00  0.00    -0.351 N 
ATOM     77  C   UNL A   1      33.457  23.737  23.173  1.00  0.00     0.272 C 
ATOM     78  H   UNL A   1      32.229  25.281  23.532  1.00  0.00     0.163 HD
ATOM     79  O   UNL A   1      33.577  24.004  21.963  1.00  0.00    -0.267 OA
BRANCH  77  80
ATOM     80  C   UNL A   1      34.131  22.583  23.764  1.00  0.00     0.153 A 
ATOM     81  N   UNL A   1      33.607  21.348  23.677  1.00  0.00    -0.162 NA
ATOM     82  C   UNL A   1      35.374  22.566  24.457  1.00  0.00     0.006 A 
ATOM     83  N   UNL A   1      34.373  20.586  24.481  1.00  0.00    -0.240 N 
ATOM     84  C   UNL A   1      35.453  21.284  24.967  1.00  0.00     0.119 A 
BRANCH  82  85
ATOM     85  C   UNL A   1      36.344  23.689  24.655  1.00  0.00     0.068 C 
BRANCH  85  86
ATOM     86  C   UNL A   1      37.621  23.265  25.390  1.00  0.00     0.161 C 
BRANCH  86  87
ATOM     87  O   UNL A   1      37.502  23.424  26.798  1.00  0.00    -0.396 OA
ATOM     88  H   UNL A   1      36.707  23.941  26.999  1.00  0.00     0.210 HD
ENDBRANCH  86  87
ENDBRANCH  85  86
ENDBRANCH  82  85
BRANCH  83  89
ATOM     89  C   UNL A   1      33.999  19.250  24.763  1.00  0.00     0.065 A 
ATOM     90  C   UNL A   1      34.736  18.199  24.195  1.00  0.00     0.035 A 
ATOM     91  C   UNL A   1      32.883  18.980  25.567  1.00  0.00     0.035 A 
ATOM     92  C   UNL A   1      34.381  16.873  24.456  1.00  0.00     0.088 A 
ATOM     93  C   UNL A   1      32.495  17.655  25.786  1.00  0.00     0.088 A 
ATOM     94  C   UNL A   1      33.253  16.607  25.242  1.00  0.00     0.269 A 
BRANCH  94  95
ATOM     95  N   UNL A   1      32.863  15.218  25.507  1.00  0.00     0.062 N 
ATOM     96  O   UNL A   1      31.671  14.992  25.760  1.00  0.00    -0.258 OA
ATOM     97  O   UNL A   1      33.746  14.350  25.436  1.00  0.00    -0.258 OA
ENDBRANCH  94  95
ENDBRANCH  83  89
ENDBRANCH  77  80
ENDBRANCH  75  76
ENDBRANCH  74  75
ENDBRANCH  73  74
ENDBRANCH   1  73
TORSDOF 21
ENDMDL
