MODEL 1
REMARK VINA RESULT:     -12.0      0.000      0.000
REMARK SMILES O=C(NCCCCCCNC(=O)[C@H]1CCN1C(=O)OCC1c2ccccc2-c2ccccc21)c1ccc(-c2c3nc(c(-c4cccc(S(=O)(=O)[O-])c4F)c4ccc([nH]4)c(-c4cccc(S(=O)(=O)[O-])c4F)c4nc(c(-c5cccc(S(=O)(=O)[O-])c5F)c5ccc2[nH]5)C=C4)C=C3)cc1
REMARK SMILES IDX 7 1 6 2 5 3 4 4 3 5 1 6 2 7 34 9 35 10 96 11 36 12 95 13
REMARK SMILES IDX 37 14 38 15 39 16 89 17 40 18 94 19 88 20 90 21 41 22 93 23
REMARK SMILES IDX 87 24 86 25 42 27 74 28 54 29 73 30 55 31 58 32 72 33 91 34
REMARK SMILES IDX 56 35 57 36 71 38 92 39 59 40 43 41 44 42 52 43 45 44 47 45
REMARK SMILES IDX 53 46 46 47 48 48 49 49 50 50 51 51 75 52 76 53 84 54 77 55
REMARK SMILES IDX 79 56 85 57 78 58 80 59 81 60 82 61 83 62 60 63 61 64 69 65
REMARK SMILES IDX 62 66 64 67 70 68 63 69 65 70 66 71 67 72 68 73 8 74 9 75
REMARK SMILES IDX 10 76 11 77 12 79 13 80 14 81 16 82 15 83 17 84 18 85 19 86
REMARK SMILES IDX 20 87 21 88 22 89 33 90 23 91 27 92 28 93 32 94 24 95 26 96
REMARK SMILES IDX 29 97 31 98 25 99 30 100
REMARK H PARENT 3 8 90 26 58 37 10 78
REMARK Flexibility Score: inf
ROOT
ATOM      1  C   UNL A   1      32.185  29.598  26.504  1.00  0.00     0.002 C 
ENDROOT
BRANCH   1   2
ATOM      2  C   UNL A   1      31.377  30.709  25.827  1.00  0.00     0.002 C 
BRANCH   2   3
ATOM      3  C   UNL A   1      31.304  32.031  26.590  1.00  0.00     0.021 C 
BRANCH   3   4
ATOM      4  C   UNL A   1      32.652  32.658  26.916  1.00  0.00     0.116 C 
BRANCH   4   5
ATOM      5  N   UNL A   1      32.521  33.959  27.546  1.00  0.00    -0.352 N 
ATOM      6  O   UNL A   1      32.865  35.513  29.142  1.00  0.00    -0.269 OA
ATOM      7  C   UNL A   1      33.228  34.470  28.608  1.00  0.00     0.251 C 
ATOM      8  H   UNL A   1      31.835  34.552  27.165  1.00  0.00     0.163 HD
BRANCH   7   9
ATOM      9  C   UNL A   1      34.414  33.739  29.105  1.00  0.00     0.039 A 
ATOM     10  C   UNL A   1      35.697  34.123  28.700  1.00  0.00     0.014 A 
ATOM     11  C   UNL A   1      34.244  32.669  29.986  1.00  0.00     0.014 A 
ATOM     12  C   UNL A   1      36.798  33.368  29.084  1.00  0.00     0.010 A 
ATOM     13  C   UNL A   1      35.362  31.967  30.444  1.00  0.00     0.010 A 
ATOM     14  C   UNL A   1      36.647  32.308  29.991  1.00  0.00    -0.014 A 
BRANCH  14  15
ATOM     15  C   UNL A   1      37.857  31.679  30.575  1.00  0.00     0.031 A 
ATOM     16  C   UNL A   1      38.635  30.629  29.837  1.00  0.00     0.074 A 
ATOM     17  C   UNL A   1      38.217  32.048  31.821  1.00  0.00     0.049 A 
ATOM     18  N   UNL A   1      39.690  29.966  30.235  1.00  0.00    -0.248 NA
ATOM     19  C   UNL A   1      38.178  30.269  28.486  1.00  0.00     0.031 C 
ATOM     20  C   UNL A   1      37.501  33.026  32.647  1.00  0.00     0.029 A 
ATOM     21  N   UNL A   1      39.251  31.636  32.622  1.00  0.00    -0.354 N 
ATOM     22  C   UNL A   1      39.995  29.078  29.212  1.00  0.00     0.074 A 
ATOM     23  C   UNL A   1      39.022  29.296  28.163  1.00  0.00     0.031 C 
ATOM     24  C   UNL A   1      38.112  33.135  33.834  1.00  0.00     0.029 A 
ATOM     25  C   UNL A   1      39.216  32.188  33.882  1.00  0.00     0.049 A 
ATOM     26  H   UNL A   1      39.947  31.006  32.326  1.00  0.00     0.167 HD
ATOM     27  C   UNL A   1      40.995  28.165  29.162  1.00  0.00     0.034 A 
ATOM     28  C   UNL A   1      39.957  31.927  34.975  1.00  0.00     0.034 A 
ATOM     29  C   UNL A   1      41.971  27.978  30.205  1.00  0.00     0.049 A 
ATOM     30  C   UNL A   1      41.050  30.905  34.880  1.00  0.00     0.074 A 
ATOM     31  C   UNL A   1      43.083  27.153  30.197  1.00  0.00     0.029 A 
ATOM     32  N   UNL A   1      41.934  28.587  31.448  1.00  0.00    -0.354 N 
ATOM     33  N   UNL A   1      41.433  30.205  33.841  1.00  0.00    -0.248 NA
ATOM     34  C   UNL A   1      41.827  30.648  36.100  1.00  0.00     0.031 C 
ATOM     35  C   UNL A   1      43.687  27.222  31.455  1.00  0.00     0.029 A 
ATOM     36  C   UNL A   1      42.979  28.124  32.231  1.00  0.00     0.049 A 
ATOM     37  H   UNL A   1      41.265  29.250  31.733  1.00  0.00     0.167 HD
ATOM     38  C   UNL A   1      42.506  29.438  34.276  1.00  0.00     0.074 A 
ATOM     39  C   UNL A   1      42.737  29.789  35.663  1.00  0.00     0.031 C 
ATOM     40  C   UNL A   1      43.222  28.510  33.597  1.00  0.00     0.034 A 
BRANCH  27  41
ATOM     41  C   UNL A   1      41.112  27.289  27.943  1.00  0.00     0.023 A 
ATOM     42  C   UNL A   1      41.804  27.752  26.807  1.00  0.00     0.012 A 
ATOM     43  C   UNL A   1      40.652  25.957  27.980  1.00  0.00     0.148 A 
ATOM     44  C   UNL A   1      42.027  26.904  25.720  1.00  0.00     0.002 A 
ATOM     45  C   UNL A   1      40.914  25.108  26.913  1.00  0.00     0.091 A 
ATOM     46  F   UNL A   1      39.984  25.544  29.066  1.00  0.00    -0.205 F 
ATOM     47  C   UNL A   1      41.595  25.581  25.779  1.00  0.00     0.022 A 
BRANCH  45  48
ATOM     48  S   UNL A   1      40.475  23.366  26.926  1.00  0.00     0.127 S 
ATOM     49  O   UNL A   1      41.022  22.934  28.212  1.00  0.00    -0.237 OA
ATOM     50  O   UNL A   1      39.014  23.419  26.874  1.00  0.00    -0.237 OA
ATOM     51  O   UNL A   1      41.110  22.779  25.755  1.00  0.00    -0.744 OA
ENDBRANCH  45  48
ENDBRANCH  27  41
BRANCH  28  52
ATOM     52  C   UNL A   1      39.667  32.628  36.258  1.00  0.00     0.023 A 
ATOM     53  C   UNL A   1      40.374  33.798  36.591  1.00  0.00     0.012 A 
ATOM     54  C   UNL A   1      38.688  32.140  37.144  1.00  0.00     0.148 A 
ATOM     55  C   UNL A   1      40.141  34.445  37.806  1.00  0.00     0.002 A 
ATOM     56  C   UNL A   1      38.415  32.824  38.321  1.00  0.00     0.091 A 
ATOM     57  F   UNL A   1      38.034  31.016  36.816  1.00  0.00    -0.205 F 
ATOM     58  C   UNL A   1      39.155  33.963  38.665  1.00  0.00     0.022 A 
BRANCH  56  59
ATOM     59  S   UNL A   1      37.066  32.353  39.411  1.00  0.00     0.127 S 
ATOM     60  O   UNL A   1      37.386  30.957  39.695  1.00  0.00    -0.237 OA
ATOM     61  O   UNL A   1      37.252  33.271  40.535  1.00  0.00    -0.237 OA
ATOM     62  O   UNL A   1      35.848  32.584  38.646  1.00  0.00    -0.744 OA
ENDBRANCH  56  59
ENDBRANCH  28  52
BRANCH  40  63
ATOM     63  C   UNL A   1      44.336  27.817  34.333  1.00  0.00     0.023 A 
ATOM     64  C   UNL A   1      45.614  28.408  34.385  1.00  0.00     0.012 A 
ATOM     65  C   UNL A   1      44.096  26.619  35.034  1.00  0.00     0.148 A 
ATOM     66  C   UNL A   1      46.645  27.802  35.099  1.00  0.00     0.002 A 
ATOM     67  C   UNL A   1      45.115  26.048  35.789  1.00  0.00     0.091 A 
ATOM     68  F   UNL A   1      42.877  26.067  34.958  1.00  0.00    -0.205 F 
ATOM     69  C   UNL A   1      46.393  26.631  35.811  1.00  0.00     0.022 A 
BRANCH  67  70
ATOM     70  S   UNL A   1      44.861  24.595  36.811  1.00  0.00     0.127 S 
ATOM     71  O   UNL A   1      43.820  25.055  37.729  1.00  0.00    -0.237 OA
ATOM     72  O   UNL A   1      44.418  23.604  35.832  1.00  0.00    -0.237 OA
ATOM     73  O   UNL A   1      46.148  24.306  37.431  1.00  0.00    -0.744 OA
ENDBRANCH  67  70
ENDBRANCH  40  63
ENDBRANCH  14  15
ENDBRANCH   7   9
ENDBRANCH   4   5
ENDBRANCH   3   4
ENDBRANCH   2   3
ENDBRANCH   1   2
BRANCH   1  74
ATOM     74  C   UNL A   1      31.466  28.259  26.686  1.00  0.00     0.021 C 
BRANCH  74  75
ATOM     75  C   UNL A   1      32.368  27.042  26.851  1.00  0.00     0.116 C 
BRANCH  75  76
ATOM     76  N   UNL A   1      31.642  25.842  27.212  1.00  0.00    -0.354 N 
ATOM     77  C   UNL A   1      31.856  24.544  26.806  1.00  0.00     0.243 C 
ATOM     78  H   UNL A   1      30.891  25.974  27.836  1.00  0.00     0.163 HD
ATOM     79  O   UNL A   1      31.087  23.695  27.276  1.00  0.00    -0.273 OA
BRANCH  77  80
ATOM     80  C   UNL A   1      33.034  24.216  25.812  1.00  0.00     0.179 C 
ATOM     81  C   UNL A   1      34.147  23.207  26.227  1.00  0.00     0.057 C 
ATOM     82  N   UNL A   1      32.701  23.192  24.825  1.00  0.00    -0.296 N 
ATOM     83  C   UNL A   1      33.324  22.112  25.551  1.00  0.00     0.126 C 
BRANCH  82  84
ATOM     84  C   UNL A   1      31.952  23.122  23.702  1.00  0.00     0.410 C 
ATOM     85  O   UNL A   1      32.448  22.800  22.629  1.00  0.00    -0.224 OA
BRANCH  84  86
ATOM     86  O   UNL A   1      30.659  23.510  23.862  1.00  0.00    -0.448 OA
BRANCH  86  87
ATOM     87  C   UNL A   1      30.263  24.643  23.038  1.00  0.00     0.248 C 
BRANCH  87  88
ATOM     88  C   UNL A   1      30.437  25.983  23.789  1.00  0.00     0.088 C 
ATOM     89  C   UNL A   1      31.611  26.858  23.327  1.00  0.00    -0.029 A 
ATOM     90  C   UNL A   1      29.261  26.950  23.598  1.00  0.00    -0.029 A 
ATOM     91  C   UNL A   1      32.964  26.558  23.257  1.00  0.00     0.005 A 
ATOM     92  C   UNL A   1      31.162  28.158  23.011  1.00  0.00    -0.014 A 
ATOM     93  C   UNL A   1      29.729  28.213  23.169  1.00  0.00    -0.014 A 
ATOM     94  C   UNL A   1      27.910  26.735  23.823  1.00  0.00     0.005 A 
ATOM     95  C   UNL A   1      33.865  27.552  22.866  1.00  0.00     0.000 A 
ATOM     96  C   UNL A   1      32.055  29.150  22.629  1.00  0.00     0.009 A 
ATOM     97  C   UNL A   1      28.851  29.266  22.961  1.00  0.00     0.009 A 
ATOM     98  C   UNL A   1      27.023  27.795  23.604  1.00  0.00     0.000 A 
ATOM     99  C   UNL A   1      33.416  28.841  22.558  1.00  0.00     0.001 A 
ATOM    100  C   UNL A   1      27.489  29.050  23.180  1.00  0.00     0.001 A 
ENDBRANCH  87  88
ENDBRANCH  86  87
ENDBRANCH  84  86
ENDBRANCH  82  84
ENDBRANCH  77  80
ENDBRANCH  75  76
ENDBRANCH  74  75
ENDBRANCH   1  74
TORSDOF 20
ENDMDL
MODEL 2
REMARK VINA RESULT:     -11.3      2.085      7.921
REMARK SMILES O=C(NCCCCCCNC(=O)[C@H]1CCN1C(=O)OCC1c2ccccc2-c2ccccc21)c1ccc(-c2c3nc(c(-c4cccc(S(=O)(=O)[O-])c4F)c4ccc([nH]4)c(-c4cccc(S(=O)(=O)[O-])c4F)c4nc(c(-c5cccc(S(=O)(=O)[O-])c5F)c5ccc2[nH]5)C=C4)C=C3)cc1
REMARK SMILES IDX 7 1 6 2 5 3 4 4 3 5 1 6 2 7 34 9 35 10 96 11 36 12 95 13
REMARK SMILES IDX 37 14 38 15 39 16 89 17 40 18 94 19 88 20 90 21 41 22 93 23
REMARK SMILES IDX 87 24 86 25 42 27 74 28 54 29 73 30 55 31 58 32 72 33 91 34
REMARK SMILES IDX 56 35 57 36 71 38 92 39 59 40 43 41 44 42 52 43 45 44 47 45
REMARK SMILES IDX 53 46 46 47 48 48 49 49 50 50 51 51 75 52 76 53 84 54 77 55
REMARK SMILES IDX 79 56 85 57 78 58 80 59 81 60 82 61 83 62 60 63 61 64 69 65
REMARK SMILES IDX 62 66 64 67 70 68 63 69 65 70 66 71 67 72 68 73 8 74 9 75
REMARK SMILES IDX 10 76 11 77 12 79 13 80 14 81 16 82 15 83 17 84 18 85 19 86
REMARK SMILES IDX 20 87 21 88 22 89 33 90 23 91 27 92 28 93 32 94 24 95 26 96
REMARK SMILES IDX 29 97 31 98 25 99 30 100
REMARK H PARENT 3 8 90 26 58 37 10 78
REMARK Flexibility Score: inf
ROOT
ATOM      1  C   UNL A   1      31.949  30.494  25.880  1.00  0.00     0.002 C 
ENDROOT
BRANCH   1   2
ATOM      2  C   UNL A   1      31.051  31.553  26.526  1.00  0.00     0.002 C 
BRANCH   2   3
ATOM      3  C   UNL A   1      31.589  32.983  26.494  1.00  0.00     0.021 C 
BRANCH   3   4
ATOM      4  C   UNL A   1      32.725  33.263  27.468  1.00  0.00     0.116 C 
BRANCH   4   5
ATOM      5  N   UNL A   1      32.703  34.625  27.969  1.00  0.00    -0.352 N 
ATOM      6  O   UNL A   1      33.129  36.282  29.437  1.00  0.00    -0.269 OA
ATOM      7  C   UNL A   1      33.405  35.160  29.023  1.00  0.00     0.251 C 
ATOM      8  H   UNL A   1      32.106  35.246  27.494  1.00  0.00     0.163 HD
BRANCH   7   9
ATOM      9  C   UNL A   1      34.477  34.362  29.656  1.00  0.00     0.039 A 
ATOM     10  C   UNL A   1      35.786  34.430  29.168  1.00  0.00     0.014 A 
ATOM     11  C   UNL A   1      34.174  33.547  30.747  1.00  0.00     0.014 A 
ATOM     12  C   UNL A   1      36.766  33.600  29.696  1.00  0.00     0.010 A 
ATOM     13  C   UNL A   1      35.182  32.779  31.337  1.00  0.00     0.010 A 
ATOM     14  C   UNL A   1      36.485  32.796  30.811  1.00  0.00    -0.014 A 
BRANCH  14  15
ATOM     15  C   UNL A   1      37.601  32.110  31.507  1.00  0.00     0.031 A 
ATOM     16  C   UNL A   1      38.148  32.614  32.810  1.00  0.00     0.074 A 
ATOM     17  C   UNL A   1      38.148  31.034  30.906  1.00  0.00     0.049 A 
ATOM     18  N   UNL A   1      39.142  32.139  33.515  1.00  0.00    -0.248 NA
ATOM     19  C   UNL A   1      37.508  33.799  33.402  1.00  0.00     0.031 C 
ATOM     20  C   UNL A   1      37.725  30.489  29.612  1.00  0.00     0.029 A 
ATOM     21  N   UNL A   1      39.187  30.221  31.280  1.00  0.00    -0.354 N 
ATOM     22  C   UNL A   1      39.283  32.990  34.604  1.00  0.00     0.074 A 
ATOM     23  C   UNL A   1      38.259  34.005  34.478  1.00  0.00     0.031 C 
ATOM     24  C   UNL A   1      38.494  29.438  29.300  1.00  0.00     0.029 A 
ATOM     25  C   UNL A   1      39.509  29.278  30.332  1.00  0.00     0.049 A 
ATOM     26  H   UNL A   1      39.656  30.304  32.142  1.00  0.00     0.167 HD
ATOM     27  C   UNL A   1      40.188  32.925  35.610  1.00  0.00     0.034 A 
ATOM     28  C   UNL A   1      40.536  28.411  30.269  1.00  0.00     0.034 A 
ATOM     29  C   UNL A   1      41.185  31.893  35.734  1.00  0.00     0.049 A 
ATOM     30  C   UNL A   1      41.521  28.374  31.400  1.00  0.00     0.074 A 
ATOM     31  C   UNL A   1      42.074  31.683  36.774  1.00  0.00     0.029 A 
ATOM     32  N   UNL A   1      41.453  30.926  34.779  1.00  0.00    -0.354 N 
ATOM     33  N   UNL A   1      41.527  29.073  32.508  1.00  0.00    -0.248 NA
ATOM     34  C   UNL A   1      42.630  27.418  31.284  1.00  0.00     0.031 C 
ATOM     35  C   UNL A   1      42.916  30.624  36.424  1.00  0.00     0.029 A 
ATOM     36  C   UNL A   1      42.522  30.145  35.186  1.00  0.00     0.049 A 
ATOM     37  H   UNL A   1      40.958  30.811  33.936  1.00  0.00     0.167 HD
ATOM     38  C   UNL A   1      42.627  28.630  33.229  1.00  0.00     0.074 A 
ATOM     39  C   UNL A   1      43.241  27.574  32.450  1.00  0.00     0.031 C 
ATOM     40  C   UNL A   1      43.100  29.071  34.419  1.00  0.00     0.034 A 
BRANCH  27  41
ATOM     41  C   UNL A   1      40.158  33.986  36.678  1.00  0.00     0.023 A 
ATOM     42  C   UNL A   1      40.534  35.307  36.369  1.00  0.00     0.012 A 
ATOM     43  C   UNL A   1      39.627  33.695  37.951  1.00  0.00     0.148 A 
ATOM     44  C   UNL A   1      40.392  36.323  37.316  1.00  0.00     0.002 A 
ATOM     45  C   UNL A   1      39.450  34.718  38.873  1.00  0.00     0.091 A 
ATOM     46  F   UNL A   1      39.290  32.427  38.227  1.00  0.00    -0.205 F 
ATOM     47  C   UNL A   1      39.838  36.031  38.560  1.00  0.00     0.022 A 
BRANCH  45  48
ATOM     48  S   UNL A   1      38.668  34.463  40.470  1.00  0.00     0.127 S 
ATOM     49  O   UNL A   1      37.518  33.637  40.106  1.00  0.00    -0.237 OA
ATOM     50  O   UNL A   1      39.712  33.758  41.212  1.00  0.00    -0.237 OA
ATOM     51  O   UNL A   1      38.343  35.788  40.978  1.00  0.00    -0.744 OA
ENDBRANCH  45  48
ENDBRANCH  27  41
BRANCH  28  52
ATOM     52  C   UNL A   1      40.698  27.529  29.078  1.00  0.00     0.023 A 
ATOM     53  C   UNL A   1      39.957  26.338  28.984  1.00  0.00     0.012 A 
ATOM     54  C   UNL A   1      41.582  27.874  28.037  1.00  0.00     0.148 A 
ATOM     55  C   UNL A   1      40.124  25.483  27.894  1.00  0.00     0.002 A 
ATOM     56  C   UNL A   1      41.696  27.052  26.925  1.00  0.00     0.091 A 
ATOM     57  F   UNL A   1      42.291  29.006  28.151  1.00  0.00    -0.205 F 
ATOM     58  C   UNL A   1      40.987  25.844  26.860  1.00  0.00     0.022 A 
BRANCH  56  59
ATOM     59  S   UNL A   1      42.673  27.514  25.489  1.00  0.00     0.127 S 
ATOM     60  O   UNL A   1      44.016  27.595  26.056  1.00  0.00    -0.237 OA
ATOM     61  O   UNL A   1      42.448  26.380  24.592  1.00  0.00    -0.237 OA
ATOM     62  O   UNL A   1      42.104  28.770  25.019  1.00  0.00    -0.744 OA
ENDBRANCH  56  59
ENDBRANCH  28  52
BRANCH  40  63
ATOM     63  C   UNL A   1      44.334  28.406  34.966  1.00  0.00     0.023 A 
ATOM     64  C   UNL A   1      45.605  28.936  34.669  1.00  0.00     0.012 A 
ATOM     65  C   UNL A   1      44.229  27.300  35.832  1.00  0.00     0.148 A 
ATOM     66  C   UNL A   1      46.755  28.359  35.202  1.00  0.00     0.002 A 
ATOM     67  C   UNL A   1      45.377  26.763  36.403  1.00  0.00     0.091 A 
ATOM     68  F   UNL A   1      43.010  26.803  36.089  1.00  0.00    -0.205 F 
ATOM     69  C   UNL A   1      46.641  27.282  36.078  1.00  0.00     0.022 A 
BRANCH  67  70
ATOM     70  S   UNL A   1      45.324  25.437  37.613  1.00  0.00     0.127 S 
ATOM     71  O   UNL A   1      44.501  26.029  38.667  1.00  0.00    -0.237 OA
ATOM     72  O   UNL A   1      44.676  24.362  36.863  1.00  0.00    -0.237 OA
ATOM     73  O   UNL A   1      46.707  25.173  37.985  1.00  0.00    -0.744 OA
ENDBRANCH  67  70
ENDBRANCH  40  63
ENDBRANCH  14  15
ENDBRANCH   7   9
ENDBRANCH   4   5
ENDBRANCH   3   4
ENDBRANCH   2   3
ENDBRANCH   1   2
BRANCH   1  74
ATOM     74  C   UNL A   1      32.748  29.612  26.844  1.00  0.00     0.021 C 
BRANCH  74  75
ATOM     75  C   UNL A   1      33.939  28.881  26.236  1.00  0.00     0.116 C 
BRANCH  75  76
ATOM     76  N   UNL A   1      34.050  29.068  24.805  1.00  0.00    -0.354 N 
ATOM     77  C   UNL A   1      33.897  28.144  23.795  1.00  0.00     0.243 C 
ATOM     78  H   UNL A   1      34.263  29.984  24.513  1.00  0.00     0.163 HD
ATOM     79  O   UNL A   1      34.040  28.572  22.642  1.00  0.00    -0.273 OA
BRANCH  77  80
ATOM     80  C   UNL A   1      33.549  26.648  24.146  1.00  0.00     0.179 C 
ATOM     81  C   UNL A   1      32.224  26.310  24.895  1.00  0.00     0.057 C 
ATOM     82  N   UNL A   1      32.923  25.918  23.046  1.00  0.00    -0.296 N 
ATOM     83  C   UNL A   1      31.575  26.099  23.528  1.00  0.00     0.126 C 
BRANCH  82  84
ATOM     84  C   UNL A   1      33.327  25.377  21.875  1.00  0.00     0.410 C 
ATOM     85  O   UNL A   1      33.033  25.895  20.804  1.00  0.00    -0.224 OA
BRANCH  84  86
ATOM     86  O   UNL A   1      33.995  24.200  21.998  1.00  0.00    -0.448 OA
BRANCH  86  87
ATOM     87  C   UNL A   1      33.144  23.048  22.258  1.00  0.00     0.248 C 
BRANCH  87  88
ATOM     88  C   UNL A   1      33.550  22.319  23.560  1.00  0.00     0.088 C 
ATOM     89  C   UNL A   1      34.911  22.716  24.149  1.00  0.00    -0.029 A 
ATOM     90  C   UNL A   1      32.622  22.619  24.744  1.00  0.00    -0.029 A 
ATOM     91  C   UNL A   1      36.171  22.680  23.568  1.00  0.00     0.005 A 
ATOM     92  C   UNL A   1      34.771  23.095  25.501  1.00  0.00    -0.014 A 
ATOM     93  C   UNL A   1      33.375  23.043  25.863  1.00  0.00    -0.014 A 
ATOM     94  C   UNL A   1      31.244  22.487  24.828  1.00  0.00     0.005 A 
ATOM     95  C   UNL A   1      37.286  23.029  24.334  1.00  0.00     0.000 A 
ATOM     96  C   UNL A   1      35.878  23.435  26.267  1.00  0.00     0.009 A 
ATOM     97  C   UNL A   1      32.757  23.340  27.068  1.00  0.00     0.009 A 
ATOM     98  C   UNL A   1      30.620  22.796  26.042  1.00  0.00     0.000 A 
ATOM     99  C   UNL A   1      37.143  23.399  25.675  1.00  0.00     0.001 A 
ATOM    100  C   UNL A   1      31.369  23.215  27.152  1.00  0.00     0.001 A 
ENDBRANCH  87  88
ENDBRANCH  86  87
ENDBRANCH  84  86
ENDBRANCH  82  84
ENDBRANCH  77  80
ENDBRANCH  75  76
ENDBRANCH  74  75
ENDBRANCH   1  74
TORSDOF 20
ENDMDL
MODEL 3
REMARK VINA RESULT:     -11.2      1.879      2.195
REMARK SMILES O=C(NCCCCCCNC(=O)[C@H]1CCN1C(=O)OCC1c2ccccc2-c2ccccc21)c1ccc(-c2c3nc(c(-c4cccc(S(=O)(=O)[O-])c4F)c4ccc([nH]4)c(-c4cccc(S(=O)(=O)[O-])c4F)c4nc(c(-c5cccc(S(=O)(=O)[O-])c5F)c5ccc2[nH]5)C=C4)C=C3)cc1
REMARK SMILES IDX 7 1 6 2 5 3 4 4 3 5 1 6 2 7 34 9 35 10 96 11 36 12 95 13
REMARK SMILES IDX 37 14 38 15 39 16 89 17 40 18 94 19 88 20 90 21 41 22 93 23
REMARK SMILES IDX 87 24 86 25 42 27 74 28 54 29 73 30 55 31 58 32 72 33 91 34
REMARK SMILES IDX 56 35 57 36 71 38 92 39 59 40 43 41 44 42 52 43 45 44 47 45
REMARK SMILES IDX 53 46 46 47 48 48 49 49 50 50 51 51 75 52 76 53 84 54 77 55
REMARK SMILES IDX 79 56 85 57 78 58 80 59 81 60 82 61 83 62 60 63 61 64 69 65
REMARK SMILES IDX 62 66 64 67 70 68 63 69 65 70 66 71 67 72 68 73 8 74 9 75
REMARK SMILES IDX 10 76 11 77 12 79 13 80 14 81 16 82 15 83 17 84 18 85 19 86
REMARK SMILES IDX 20 87 21 88 22 89 33 90 23 91 27 92 28 93 32 94 24 95 26 96
REMARK SMILES IDX 29 97 31 98 25 99 30 100
REMARK H PARENT 3 8 90 26 58 37 10 78
REMARK Flexibility Score: inf
ROOT
ATOM      1  C   UNL A   1      31.982  29.567  27.058  1.00  0.00     0.002 C 
ENDROOT
BRANCH   1   2
ATOM      2  C   UNL A   1      31.602  30.691  26.090  1.00  0.00     0.002 C 
BRANCH   2   3
ATOM      3  C   UNL A   1      31.508  32.088  26.703  1.00  0.00     0.021 C 
BRANCH   3   4
ATOM      4  C   UNL A   1      32.823  32.648  27.226  1.00  0.00     0.116 C 
BRANCH   4   5
ATOM      5  N   UNL A   1      32.680  33.988  27.765  1.00  0.00    -0.352 N 
ATOM      6  O   UNL A   1      32.991  35.646  29.260  1.00  0.00    -0.269 OA
ATOM      7  C   UNL A   1      33.364  34.569  28.805  1.00  0.00     0.251 C 
ATOM      8  H   UNL A   1      32.003  34.554  27.330  1.00  0.00     0.163 HD
BRANCH   7   9
ATOM      9  C   UNL A   1      34.538  33.874  29.375  1.00  0.00     0.039 A 
ATOM     10  C   UNL A   1      35.828  34.202  28.944  1.00  0.00     0.014 A 
ATOM     11  C   UNL A   1      34.350  32.893  30.351  1.00  0.00     0.014 A 
ATOM     12  C   UNL A   1      36.918  33.474  29.404  1.00  0.00     0.010 A 
ATOM     13  C   UNL A   1      35.457  32.223  30.880  1.00  0.00     0.010 A 
ATOM     14  C   UNL A   1      36.748  32.505  30.405  1.00  0.00    -0.014 A 
BRANCH  14  15
ATOM     15  C   UNL A   1      37.948  31.918  31.052  1.00  0.00     0.031 A 
ATOM     16  C   UNL A   1      38.706  30.782  30.430  1.00  0.00     0.074 A 
ATOM     17  C   UNL A   1      38.315  32.409  32.253  1.00  0.00     0.049 A 
ATOM     18  N   UNL A   1      39.749  30.146  30.895  1.00  0.00    -0.248 NA
ATOM     19  C   UNL A   1      38.240  30.292  29.123  1.00  0.00     0.031 C 
ATOM     20  C   UNL A   1      37.618  33.481  32.972  1.00  0.00     0.029 A 
ATOM     21  N   UNL A   1      39.342  32.064  33.094  1.00  0.00    -0.354 N 
ATOM     22  C   UNL A   1      40.037  29.150  29.971  1.00  0.00     0.074 A 
ATOM     23  C   UNL A   1      39.067  29.275  28.904  1.00  0.00     0.031 C 
ATOM     24  C   UNL A   1      38.232  33.703  34.142  1.00  0.00     0.029 A 
ATOM     25  C   UNL A   1      39.320  32.746  34.289  1.00  0.00     0.049 A 
ATOM     26  H   UNL A   1      40.027  31.394  32.866  1.00  0.00     0.167 HD
ATOM     27  C   UNL A   1      41.019  28.219  30.018  1.00  0.00     0.034 A 
ATOM     28  C   UNL A   1      40.056  32.588  35.404  1.00  0.00     0.034 A 
ATOM     29  C   UNL A   1      41.993  28.124  31.075  1.00  0.00     0.049 A 
ATOM     30  C   UNL A   1      41.131  31.541  35.418  1.00  0.00     0.074 A 
ATOM     31  C   UNL A   1      43.089  27.283  31.155  1.00  0.00     0.029 A 
ATOM     32  N   UNL A   1      41.969  28.861  32.248  1.00  0.00    -0.354 N 
ATOM     33  N   UNL A   1      41.500  30.729  34.458  1.00  0.00    -0.248 NA
ATOM     34  C   UNL A   1      41.905  31.400  36.659  1.00  0.00     0.031 C 
ATOM     35  C   UNL A   1      43.697  27.473  32.399  1.00  0.00     0.029 A 
ATOM     36  C   UNL A   1      43.005  28.463  33.076  1.00  0.00     0.049 A 
ATOM     37  H   UNL A   1      41.312  29.562  32.461  1.00  0.00     0.167 HD
ATOM     38  C   UNL A   1      42.559  29.993  34.972  1.00  0.00     0.074 A 
ATOM     39  C   UNL A   1      42.798  30.483  36.314  1.00  0.00     0.031 C 
ATOM     40  C   UNL A   1      43.257  28.986  34.394  1.00  0.00     0.034 A 
BRANCH  27  41
ATOM     41  C   UNL A   1      41.119  27.218  28.897  1.00  0.00     0.023 A 
ATOM     42  C   UNL A   1      40.203  26.151  28.821  1.00  0.00     0.012 A 
ATOM     43  C   UNL A   1      42.040  27.418  27.848  1.00  0.00     0.148 A 
ATOM     44  C   UNL A   1      40.208  25.291  27.722  1.00  0.00     0.002 A 
ATOM     45  C   UNL A   1      42.011  26.584  26.738  1.00  0.00     0.091 A 
ATOM     46  F   UNL A   1      42.911  28.432  27.949  1.00  0.00    -0.205 F 
ATOM     47  C   UNL A   1      41.101  25.516  26.677  1.00  0.00     0.022 A 
BRANCH  45  48
ATOM     48  S   UNL A   1      43.060  26.839  25.302  1.00  0.00     0.127 S 
ATOM     49  O   UNL A   1      42.361  27.925  24.617  1.00  0.00    -0.237 OA
ATOM     50  O   UNL A   1      44.330  27.225  25.916  1.00  0.00    -0.237 OA
ATOM     51  O   UNL A   1      43.084  25.571  24.588  1.00  0.00    -0.744 OA
ENDBRANCH  45  48
ENDBRANCH  27  41
BRANCH  28  52
ATOM     52  C   UNL A   1      39.781  33.424  36.606  1.00  0.00     0.023 A 
ATOM     53  C   UNL A   1      38.636  33.175  37.385  1.00  0.00     0.012 A 
ATOM     54  C   UNL A   1      40.656  34.461  36.983  1.00  0.00     0.148 A 
ATOM     55  C   UNL A   1      38.344  33.972  38.492  1.00  0.00     0.002 A 
ATOM     56  C   UNL A   1      40.395  35.209  38.122  1.00  0.00     0.091 A 
ATOM     57  F   UNL A   1      41.735  34.693  36.220  1.00  0.00    -0.205 F 
ATOM     58  C   UNL A   1      39.228  34.983  38.866  1.00  0.00     0.022 A 
BRANCH  56  59
ATOM     59  S   UNL A   1      41.553  36.430  38.752  1.00  0.00     0.127 S 
ATOM     60  O   UNL A   1      40.747  37.114  39.759  1.00  0.00    -0.237 OA
ATOM     61  O   UNL A   1      42.622  35.585  39.286  1.00  0.00    -0.237 OA
ATOM     62  O   UNL A   1      41.944  37.228  37.598  1.00  0.00    -0.744 OA
ENDBRANCH  56  59
ENDBRANCH  28  52
BRANCH  40  63
ATOM     63  C   UNL A   1      44.359  28.353  35.200  1.00  0.00     0.023 A 
ATOM     64  C   UNL A   1      45.693  28.764  35.004  1.00  0.00     0.012 A 
ATOM     65  C   UNL A   1      44.064  27.408  36.201  1.00  0.00     0.148 A 
ATOM     66  C   UNL A   1      46.721  28.220  35.772  1.00  0.00     0.002 A 
ATOM     67  C   UNL A   1      45.087  26.910  37.000  1.00  0.00     0.091 A 
ATOM     68  F   UNL A   1      42.790  27.021  36.360  1.00  0.00    -0.205 F 
ATOM     69  C   UNL A   1      46.417  27.305  36.777  1.00  0.00     0.022 A 
BRANCH  67  70
ATOM     70  S   UNL A   1      44.784  25.800  38.378  1.00  0.00     0.127 S 
ATOM     71  O   UNL A   1      45.984  25.999  39.189  1.00  0.00    -0.237 OA
ATOM     72  O   UNL A   1      43.559  26.354  38.954  1.00  0.00    -0.237 OA
ATOM     73  O   UNL A   1      44.640  24.470  37.803  1.00  0.00    -0.744 OA
ENDBRANCH  67  70
ENDBRANCH  40  63
ENDBRANCH  14  15
ENDBRANCH   7   9
ENDBRANCH   4   5
ENDBRANCH   3   4
ENDBRANCH   2   3
ENDBRANCH   1   2
BRANCH   1  74
ATOM     74  C   UNL A   1      31.299  28.217  26.822  1.00  0.00     0.021 C 
BRANCH  74  75
ATOM     75  C   UNL A   1      32.221  27.005  26.803  1.00  0.00     0.116 C 
BRANCH  75  76
ATOM     76  N   UNL A   1      31.557  25.779  27.193  1.00  0.00    -0.354 N 
ATOM     77  C   UNL A   1      31.830  24.485  26.809  1.00  0.00     0.243 C 
ATOM     78  H   UNL A   1      30.805  25.886  27.820  1.00  0.00     0.163 HD
ATOM     79  O   UNL A   1      31.105  23.609  27.301  1.00  0.00    -0.273 OA
BRANCH  77  80
ATOM     80  C   UNL A   1      33.015  24.195  25.812  1.00  0.00     0.179 C 
ATOM     81  C   UNL A   1      34.146  23.200  26.212  1.00  0.00     0.057 C 
ATOM     82  N   UNL A   1      32.701  23.181  24.808  1.00  0.00    -0.296 N 
ATOM     83  C   UNL A   1      33.344  22.101  25.517  1.00  0.00     0.126 C 
BRANCH  82  84
ATOM     84  C   UNL A   1      31.954  23.114  23.683  1.00  0.00     0.410 C 
ATOM     85  O   UNL A   1      32.448  22.771  22.615  1.00  0.00    -0.224 OA
BRANCH  84  86
ATOM     86  O   UNL A   1      30.669  23.530  23.834  1.00  0.00    -0.448 OA
BRANCH  86  87
ATOM     87  C   UNL A   1      30.304  24.673  23.010  1.00  0.00     0.248 C 
BRANCH  87  88
ATOM     88  C   UNL A   1      30.471  26.006  23.775  1.00  0.00     0.088 C 
ATOM     89  C   UNL A   1      31.646  26.887  23.331  1.00  0.00    -0.029 A 
ATOM     90  C   UNL A   1      29.295  26.973  23.586  1.00  0.00    -0.029 A 
ATOM     91  C   UNL A   1      33.001  26.590  23.267  1.00  0.00     0.005 A 
ATOM     92  C   UNL A   1      31.198  28.190  23.025  1.00  0.00    -0.014 A 
ATOM     93  C   UNL A   1      29.763  28.241  23.174  1.00  0.00    -0.014 A 
ATOM     94  C   UNL A   1      27.942  26.754  23.800  1.00  0.00     0.005 A 
ATOM     95  C   UNL A   1      33.902  27.589  22.893  1.00  0.00     0.000 A 
ATOM     96  C   UNL A   1      32.092  29.187  22.659  1.00  0.00     0.009 A 
ATOM     97  C   UNL A   1      28.885  29.294  22.970  1.00  0.00     0.009 A 
ATOM     98  C   UNL A   1      27.056  27.815  23.585  1.00  0.00     0.000 A 
ATOM     99  C   UNL A   1      33.453  28.881  22.595  1.00  0.00     0.001 A 
ATOM    100  C   UNL A   1      27.523  29.074  23.177  1.00  0.00     0.001 A 
ENDBRANCH  87  88
ENDBRANCH  86  87
ENDBRANCH  84  86
ENDBRANCH  82  84
ENDBRANCH  77  80
ENDBRANCH  75  76
ENDBRANCH  74  75
ENDBRANCH   1  74
TORSDOF 20
ENDMDL
