MODEL 1
REMARK VINA RESULT:      -8.6      0.000      0.000
REMARK SMILES C[C@@H]1[C@H](C(=O)NCCCCCCNC(=O)c2ccc(-c3c4nc(c(-c5cccc(S(=O)(=O)[O-])c5F)c5ccc([nH]5)c(-c5cccc(S(=O)(=O)[O-])c5F)c5nc(c(-c6cccc(S(=O)(=O)[O-])c6F)c6ccc3[nH]6)C=C5)C=C4)cc2)CCN1C(=O)COCc1ccccc1
REMARK SMILES IDX 8 1 7 2 6 3 4 4 5 5 3 7 1 8 2 9 81 10 79 11 80 12 82 13
REMARK SMILES IDX 83 14 84 15 85 16 86 17 87 18 88 19 92 20 89 21 91 22 90 23
REMARK SMILES IDX 9 24 10 25 11 26 12 27 13 28 14 29 15 31 16 32 17 33 78 34
REMARK SMILES IDX 18 35 77 36 19 37 20 38 21 39 71 40 22 41 76 42 70 43 72 44
REMARK SMILES IDX 23 45 75 46 69 47 68 48 24 50 56 51 36 52 55 53 37 54 40 55
REMARK SMILES IDX 54 56 73 57 38 58 39 59 53 61 74 62 41 63 25 64 26 65 34 66
REMARK SMILES IDX 27 67 29 68 35 69 28 70 30 71 31 72 32 73 33 74 57 75 58 76
REMARK SMILES IDX 66 77 59 78 61 79 67 80 60 81 62 82 63 83 64 84 65 85 42 86
REMARK SMILES IDX 43 87 51 88 44 89 46 90 52 91 45 92 47 93 48 94 49 95 50 96
REMARK H PARENT 6 6 13 30 72 49 40 60
REMARK Flexibility Score: inf
ROOT
ATOM      1  C   UNL A   1      44.738  22.752  27.531  1.00  0.00     0.021 C 
ENDROOT
BRANCH   1   2
ATOM      2  C   UNL A   1      45.786  23.845  27.324  1.00  0.00     0.116 C 
BRANCH   2   3
ATOM      3  N   UNL A   1      46.373  23.770  25.996  1.00  0.00    -0.356 N 
ATOM      4  C   UNL A   1      46.651  24.724  25.072  1.00  0.00     0.225 C 
ATOM      5  O   UNL A   1      47.059  24.335  23.972  1.00  0.00    -0.275 OA
ATOM      6  H   UNL A   1      46.614  22.858  25.715  1.00  0.00     0.163 HD
BRANCH   4   7
ATOM      7  C   UNL A   1      46.489  26.216  25.323  1.00  0.00     0.102 C 
ATOM      8  C   UNL A   1      43.892  25.910  25.225  1.00  0.00     0.032 C 
ATOM      9  C   UNL A   1      45.088  26.851  25.174  1.00  0.00     0.094 C 
ATOM     10  N   UNL A   1      45.069  27.914  26.196  1.00  0.00    -0.337 N 
ATOM     11  C   UNL A   1      47.062  26.715  26.648  1.00  0.00     0.037 C 
ATOM     12  C   UNL A   1      46.336  28.019  26.893  1.00  0.00     0.121 C 
BRANCH  10  13
ATOM     13  C   UNL A   1      44.146  28.930  26.369  1.00  0.00     0.248 C 
ATOM     14  O   UNL A   1      42.974  28.800  26.008  1.00  0.00    -0.272 OA
BRANCH  13  15
ATOM     15  C   UNL A   1      44.610  30.243  27.007  1.00  0.00     0.260 C 
BRANCH  15  16
ATOM     16  O   UNL A   1      45.143  31.226  26.126  1.00  0.00    -0.367 OA
BRANCH  16  17
ATOM     17  C   UNL A   1      45.554  32.422  26.790  1.00  0.00     0.196 C 
BRANCH  17  18
ATOM     18  C   UNL A   1      44.439  33.433  26.838  1.00  0.00    -0.022 A 
ATOM     19  C   UNL A   1      43.963  34.019  25.659  1.00  0.00     0.006 A 
ATOM     20  C   UNL A   1      43.933  33.864  28.074  1.00  0.00     0.006 A 
ATOM     21  C   UNL A   1      43.016  35.042  25.718  1.00  0.00     0.000 A 
ATOM     22  C   UNL A   1      42.991  34.889  28.129  1.00  0.00     0.000 A 
ATOM     23  C   UNL A   1      42.538  35.481  26.951  1.00  0.00     0.000 A 
ENDBRANCH  17  18
ENDBRANCH  16  17
ENDBRANCH  15  16
ENDBRANCH  13  15
ENDBRANCH  10  13
ENDBRANCH   4   7
ENDBRANCH   2   3
ENDBRANCH   1   2
BRANCH   1  24
ATOM     24  C   UNL A   1      43.654  23.085  28.557  1.00  0.00     0.002 C 
BRANCH  24  25
ATOM     25  C   UNL A   1      42.255  23.296  27.978  1.00  0.00     0.002 C 
BRANCH  25  26
ATOM     26  C   UNL A   1      41.781  22.225  26.991  1.00  0.00     0.021 C 
BRANCH  26  27
ATOM     27  C   UNL A   1      40.434  21.583  27.317  1.00  0.00     0.116 C 
BRANCH  27  28
ATOM     28  N   UNL A   1      39.403  21.956  26.366  1.00  0.00    -0.352 N 
ATOM     29  C   UNL A   1      38.780  23.165  26.183  1.00  0.00     0.251 C 
ATOM     30  H   UNL A   1      39.108  21.237  25.764  1.00  0.00     0.163 HD
ATOM     31  O   UNL A   1      37.796  23.236  25.452  1.00  0.00    -0.269 OA
BRANCH  29  32
ATOM     32  C   UNL A   1      39.283  24.376  26.869  1.00  0.00     0.039 A 
ATOM     33  C   UNL A   1      40.090  25.264  26.153  1.00  0.00     0.014 A 
ATOM     34  C   UNL A   1      38.996  24.618  28.216  1.00  0.00     0.014 A 
ATOM     35  C   UNL A   1      40.578  26.414  26.779  1.00  0.00     0.010 A 
ATOM     36  C   UNL A   1      39.429  25.798  28.817  1.00  0.00     0.010 A 
ATOM     37  C   UNL A   1      40.238  26.700  28.111  1.00  0.00    -0.014 A 
BRANCH  37  38
ATOM     38  C   UNL A   1      40.733  27.933  28.775  1.00  0.00     0.031 A 
ATOM     39  C   UNL A   1      42.139  27.998  29.308  1.00  0.00     0.074 A 
ATOM     40  C   UNL A   1      39.898  28.975  28.952  1.00  0.00     0.049 A 
ATOM     41  N   UNL A   1      42.745  28.984  29.917  1.00  0.00    -0.248 NA
ATOM     42  C   UNL A   1      42.968  26.789  29.161  1.00  0.00     0.031 C 
ATOM     43  C   UNL A   1      38.488  29.004  28.555  1.00  0.00     0.029 A 
ATOM     44  N   UNL A   1      40.106  30.202  29.529  1.00  0.00    -0.354 N 
ATOM     45  C   UNL A   1      44.008  28.510  30.251  1.00  0.00     0.074 A 
ATOM     46  C   UNL A   1      44.071  27.133  29.811  1.00  0.00     0.031 C 
ATOM     47  C   UNL A   1      37.961  30.191  28.893  1.00  0.00     0.029 A 
ATOM     48  C   UNL A   1      38.986  31.000  29.546  1.00  0.00     0.049 A 
ATOM     49  H   UNL A   1      40.975  30.485  29.894  1.00  0.00     0.167 HD
ATOM     50  C   UNL A   1      45.035  29.168  30.840  1.00  0.00     0.034 A 
ATOM     51  C   UNL A   1      38.806  32.246  30.030  1.00  0.00     0.034 A 
ATOM     52  C   UNL A   1      44.987  30.550  31.232  1.00  0.00     0.049 A 
ATOM     53  C   UNL A   1      39.979  32.973  30.631  1.00  0.00     0.074 A 
ATOM     54  C   UNL A   1      46.003  31.335  31.748  1.00  0.00     0.029 A 
ATOM     55  N   UNL A   1      43.860  31.356  31.154  1.00  0.00    -0.354 N 
ATOM     56  N   UNL A   1      41.216  32.564  30.779  1.00  0.00    -0.248 NA
ATOM     57  C   UNL A   1      39.741  34.347  31.096  1.00  0.00     0.031 C 
ATOM     58  C   UNL A   1      45.486  32.612  31.998  1.00  0.00     0.029 A 
ATOM     59  C   UNL A   1      44.152  32.626  31.621  1.00  0.00     0.049 A 
ATOM     60  H   UNL A   1      42.981  31.066  30.817  1.00  0.00     0.167 HD
ATOM     61  C   UNL A   1      41.910  33.638  31.323  1.00  0.00     0.074 A 
ATOM     62  C   UNL A   1      40.961  34.725  31.454  1.00  0.00     0.031 C 
ATOM     63  C   UNL A   1      43.211  33.714  31.698  1.00  0.00     0.034 A 
BRANCH  50  64
ATOM     64  C   UNL A   1      46.327  28.417  31.037  1.00  0.00     0.023 A 
ATOM     65  C   UNL A   1      47.399  28.641  30.149  1.00  0.00     0.012 A 
ATOM     66  C   UNL A   1      46.503  27.539  32.124  1.00  0.00     0.148 A 
ATOM     67  C   UNL A   1      48.614  27.981  30.319  1.00  0.00     0.002 A 
ATOM     68  C   UNL A   1      47.732  26.915  32.312  1.00  0.00     0.091 A 
ATOM     69  F   UNL A   1      45.466  27.321  32.945  1.00  0.00    -0.205 F 
ATOM     70  C   UNL A   1      48.784  27.126  31.405  1.00  0.00     0.022 A 
BRANCH  68  71
ATOM     71  S   UNL A   1      48.075  25.855  33.721  1.00  0.00     0.127 S 
ATOM     72  O   UNL A   1      46.986  24.884  33.633  1.00  0.00    -0.237 OA
ATOM     73  O   UNL A   1      49.397  25.320  33.389  1.00  0.00    -0.237 OA
ATOM     74  O   UNL A   1      48.048  26.723  34.890  1.00  0.00    -0.744 OA
ENDBRANCH  68  71
ENDBRANCH  50  64
BRANCH  51  75
ATOM     75  C   UNL A   1      37.481  32.913  29.889  1.00  0.00     0.023 A 
ATOM     76  C   UNL A   1      37.002  33.232  28.603  1.00  0.00     0.012 A 
ATOM     77  C   UNL A   1      36.682  33.205  31.011  1.00  0.00     0.148 A 
ATOM     78  C   UNL A   1      35.765  33.855  28.438  1.00  0.00     0.002 A 
ATOM     79  C   UNL A   1      35.427  33.777  30.835  1.00  0.00     0.091 A 
ATOM     80  F   UNL A   1      37.160  32.909  32.227  1.00  0.00    -0.205 F 
ATOM     81  C   UNL A   1      34.973  34.119  29.553  1.00  0.00     0.022 A 
BRANCH  79  82
ATOM     82  S   UNL A   1      34.287  34.025  32.203  1.00  0.00     0.127 S 
ATOM     83  O   UNL A   1      33.280  34.894  31.599  1.00  0.00    -0.237 OA
ATOM     84  O   UNL A   1      33.838  32.660  32.477  1.00  0.00    -0.237 OA
ATOM     85  O   UNL A   1      35.082  34.617  33.270  1.00  0.00    -0.744 OA
ENDBRANCH  79  82
ENDBRANCH  51  75
BRANCH  63  86
ATOM     86  C   UNL A   1      43.698  35.019  32.267  1.00  0.00     0.023 A 
ATOM     87  C   UNL A   1      44.243  35.994  31.407  1.00  0.00     0.012 A 
ATOM     88  C   UNL A   1      43.552  35.311  33.638  1.00  0.00     0.148 A 
ATOM     89  C   UNL A   1      44.664  37.225  31.907  1.00  0.00     0.002 A 
ATOM     90  C   UNL A   1      43.931  36.559  34.121  1.00  0.00     0.091 A 
ATOM     91  F   UNL A   1      43.050  34.364  34.444  1.00  0.00    -0.205 F 
ATOM     92  C   UNL A   1      44.498  37.512  33.259  1.00  0.00     0.022 A 
BRANCH  90  93
ATOM     93  S   UNL A   1      43.665  37.048  35.829  1.00  0.00     0.127 S 
ATOM     94  O   UNL A   1      44.602  36.177  36.538  1.00  0.00    -0.237 OA
ATOM     95  O   UNL A   1      44.042  38.461  35.811  1.00  0.00    -0.237 OA
ATOM     96  O   UNL A   1      42.254  36.805  36.098  1.00  0.00    -0.744 OA
ENDBRANCH  90  93
ENDBRANCH  63  86
ENDBRANCH  37  38
ENDBRANCH  29  32
ENDBRANCH  27  28
ENDBRANCH  26  27
ENDBRANCH  25  26
ENDBRANCH  24  25
ENDBRANCH   1  24
TORSDOF 21
ENDMDL
MODEL 2
REMARK VINA RESULT:      -8.5      4.995     11.372
REMARK SMILES C[C@@H]1[C@H](C(=O)NCCCCCCNC(=O)c2ccc(-c3c4nc(c(-c5cccc(S(=O)(=O)[O-])c5F)c5ccc([nH]5)c(-c5cccc(S(=O)(=O)[O-])c5F)c5nc(c(-c6cccc(S(=O)(=O)[O-])c6F)c6ccc3[nH]6)C=C5)C=C4)cc2)CCN1C(=O)COCc1ccccc1
REMARK SMILES IDX 8 1 7 2 6 3 4 4 5 5 3 7 1 8 2 9 81 10 79 11 80 12 82 13
REMARK SMILES IDX 83 14 84 15 85 16 86 17 87 18 88 19 92 20 89 21 91 22 90 23
REMARK SMILES IDX 9 24 10 25 11 26 12 27 13 28 14 29 15 31 16 32 17 33 78 34
REMARK SMILES IDX 18 35 77 36 19 37 20 38 21 39 71 40 22 41 76 42 70 43 72 44
REMARK SMILES IDX 23 45 75 46 69 47 68 48 24 50 56 51 36 52 55 53 37 54 40 55
REMARK SMILES IDX 54 56 73 57 38 58 39 59 53 61 74 62 41 63 25 64 26 65 34 66
REMARK SMILES IDX 27 67 29 68 35 69 28 70 30 71 31 72 32 73 33 74 57 75 58 76
REMARK SMILES IDX 66 77 59 78 61 79 67 80 60 81 62 82 63 83 64 84 65 85 42 86
REMARK SMILES IDX 43 87 51 88 44 89 46 90 52 91 45 92 47 93 48 94 49 95 50 96
REMARK H PARENT 6 6 13 30 72 49 40 60
REMARK Flexibility Score: inf
ROOT
ATOM      1  C   UNL A   1      35.721  30.693  27.668  1.00  0.00     0.021 C 
ENDROOT
BRANCH   1   2
ATOM      2  C   UNL A   1      34.972  29.364  27.579  1.00  0.00     0.116 C 
BRANCH   2   3
ATOM      3  N   UNL A   1      33.534  29.561  27.648  1.00  0.00    -0.356 N 
ATOM      4  C   UNL A   1      32.548  29.377  26.734  1.00  0.00     0.225 C 
ATOM      5  O   UNL A   1      31.411  29.739  27.058  1.00  0.00    -0.275 OA
ATOM      6  H   UNL A   1      33.216  29.889  28.521  1.00  0.00     0.163 HD
BRANCH   4   7
ATOM      7  C   UNL A   1      32.772  28.760  25.363  1.00  0.00     0.102 C 
ATOM      8  C   UNL A   1      32.058  26.438  26.335  1.00  0.00     0.032 C 
ATOM      9  C   UNL A   1      32.739  27.222  25.220  1.00  0.00     0.094 C 
ATOM     10  N   UNL A   1      32.162  26.999  23.882  1.00  0.00    -0.337 N 
ATOM     11  C   UNL A   1      31.894  29.325  24.248  1.00  0.00     0.037 C 
ATOM     12  C   UNL A   1      31.908  28.247  23.187  1.00  0.00     0.121 C 
BRANCH  10  13
ATOM     13  C   UNL A   1      32.094  25.825  23.154  1.00  0.00     0.248 C 
ATOM     14  O   UNL A   1      31.170  25.023  23.317  1.00  0.00    -0.272 OA
BRANCH  13  15
ATOM     15  C   UNL A   1      33.203  25.521  22.143  1.00  0.00     0.260 C 
BRANCH  15  16
ATOM     16  O   UNL A   1      33.813  24.238  22.233  1.00  0.00    -0.367 OA
BRANCH  16  17
ATOM     17  C   UNL A   1      34.407  23.978  23.507  1.00  0.00     0.196 C 
BRANCH  17  18
ATOM     18  C   UNL A   1      34.111  22.577  23.974  1.00  0.00    -0.022 A 
ATOM     19  C   UNL A   1      35.081  21.842  24.666  1.00  0.00     0.006 A 
ATOM     20  C   UNL A   1      32.894  21.966  23.638  1.00  0.00     0.006 A 
ATOM     21  C   UNL A   1      34.848  20.505  24.990  1.00  0.00     0.000 A 
ATOM     22  C   UNL A   1      32.667  20.630  23.959  1.00  0.00     0.000 A 
ATOM     23  C   UNL A   1      33.646  19.899  24.630  1.00  0.00     0.000 A 
ENDBRANCH  17  18
ENDBRANCH  16  17
ENDBRANCH  15  16
ENDBRANCH  13  15
ENDBRANCH  10  13
ENDBRANCH   4   7
ENDBRANCH   2   3
ENDBRANCH   1   2
BRANCH   1  24
ATOM     24  C   UNL A   1      35.101  31.719  28.616  1.00  0.00     0.002 C 
BRANCH  24  25
ATOM     25  C   UNL A   1      35.000  33.140  28.059  1.00  0.00     0.002 C 
BRANCH  25  26
ATOM     26  C   UNL A   1      33.642  33.825  28.242  1.00  0.00     0.021 C 
BRANCH  26  27
ATOM     27  C   UNL A   1      33.700  35.299  28.636  1.00  0.00     0.116 C 
BRANCH  27  28
ATOM     28  N   UNL A   1      32.885  35.588  29.802  1.00  0.00    -0.352 N 
ATOM     29  C   UNL A   1      33.057  35.195  31.106  1.00  0.00     0.251 C 
ATOM     30  H   UNL A   1      32.094  36.147  29.633  1.00  0.00     0.163 HD
ATOM     31  O   UNL A   1      32.156  35.382  31.920  1.00  0.00    -0.269 OA
BRANCH  29  32
ATOM     32  C   UNL A   1      34.315  34.541  31.529  1.00  0.00     0.039 A 
ATOM     33  C   UNL A   1      34.278  33.193  31.892  1.00  0.00     0.014 A 
ATOM     34  C   UNL A   1      35.514  35.256  31.606  1.00  0.00     0.014 A 
ATOM     35  C   UNL A   1      35.452  32.552  32.296  1.00  0.00     0.010 A 
ATOM     36  C   UNL A   1      36.694  34.599  31.946  1.00  0.00     0.010 A 
ATOM     37  C   UNL A   1      36.674  33.244  32.310  1.00  0.00    -0.014 A 
BRANCH  37  38
ATOM     38  C   UNL A   1      37.930  32.564  32.715  1.00  0.00     0.031 A 
ATOM     39  C   UNL A   1      38.523  32.809  34.077  1.00  0.00     0.074 A 
ATOM     40  C   UNL A   1      38.570  31.770  31.835  1.00  0.00     0.049 A 
ATOM     41  N   UNL A   1      39.611  32.307  34.604  1.00  0.00    -0.248 NA
ATOM     42  C   UNL A   1      37.819  33.759  34.954  1.00  0.00     0.031 C 
ATOM     43  C   UNL A   1      38.142  31.518  30.457  1.00  0.00     0.029 A 
ATOM     44  N   UNL A   1      39.728  31.044  31.960  1.00  0.00    -0.354 N 
ATOM     45  C   UNL A   1      39.737  32.900  35.854  1.00  0.00     0.074 A 
ATOM     46  C   UNL A   1      38.635  33.828  35.995  1.00  0.00     0.031 C 
ATOM     47  C   UNL A   1      39.019  30.691  29.868  1.00  0.00     0.029 A 
ATOM     48  C   UNL A   1      40.081  30.367  30.816  1.00  0.00     0.049 A 
ATOM     49  H   UNL A   1      40.254  31.009  32.791  1.00  0.00     0.167 HD
ATOM     50  C   UNL A   1      40.664  32.670  36.815  1.00  0.00     0.034 A 
ATOM     51  C   UNL A   1      41.140  29.573  30.561  1.00  0.00     0.034 A 
ATOM     52  C   UNL A   1      41.729  31.711  36.693  1.00  0.00     0.049 A 
ATOM     53  C   UNL A   1      42.126  29.292  31.663  1.00  0.00     0.074 A 
ATOM     54  C   UNL A   1      42.662  31.335  37.643  1.00  0.00     0.029 A 
ATOM     55  N   UNL A   1      42.006  30.978  35.548  1.00  0.00    -0.354 N 
ATOM     56  N   UNL A   1      42.128  29.729  32.899  1.00  0.00    -0.248 NA
ATOM     57  C   UNL A   1      43.232  28.378  31.347  1.00  0.00     0.031 C 
ATOM     58  C   UNL A   1      43.514  30.385  37.067  1.00  0.00     0.029 A 
ATOM     59  C   UNL A   1      43.100  30.158  35.764  1.00  0.00     0.049 A 
ATOM     60  H   UNL A   1      41.499  31.033  34.706  1.00  0.00     0.167 HD
ATOM     61  C   UNL A   1      43.215  29.120  33.517  1.00  0.00     0.074 A 
ATOM     62  C   UNL A   1      43.832  28.263  32.525  1.00  0.00     0.031 C 
ATOM     63  C   UNL A   1      43.672  29.271  34.784  1.00  0.00     0.034 A 
BRANCH  50  64
ATOM     64  C   UNL A   1      40.530  33.423  38.113  1.00  0.00     0.023 A 
ATOM     65  C   UNL A   1      41.345  34.549  38.347  1.00  0.00     0.012 A 
ATOM     66  C   UNL A   1      39.565  33.057  39.072  1.00  0.00     0.148 A 
ATOM     67  C   UNL A   1      41.228  35.280  39.527  1.00  0.00     0.002 A 
ATOM     68  C   UNL A   1      39.425  33.817  40.229  1.00  0.00     0.091 A 
ATOM     69  F   UNL A   1      38.814  31.971  38.844  1.00  0.00    -0.205 F 
ATOM     70  C   UNL A   1      40.261  34.921  40.463  1.00  0.00     0.022 A 
BRANCH  68  71
ATOM     71  S   UNL A   1      38.161  33.481  41.462  1.00  0.00     0.127 S 
ATOM     72  O   UNL A   1      38.595  32.186  41.984  1.00  0.00    -0.237 OA
ATOM     73  O   UNL A   1      38.331  34.600  42.390  1.00  0.00    -0.237 OA
ATOM     74  O   UNL A   1      36.895  33.475  40.744  1.00  0.00    -0.744 OA
ENDBRANCH  68  71
ENDBRANCH  50  64
BRANCH  51  75
ATOM     75  C   UNL A   1      41.274  28.919  29.228  1.00  0.00     0.023 A 
ATOM     76  C   UNL A   1      42.011  29.563  28.215  1.00  0.00     0.012 A 
ATOM     77  C   UNL A   1      40.706  27.658  28.968  1.00  0.00     0.148 A 
ATOM     78  C   UNL A   1      42.157  28.976  26.958  1.00  0.00     0.002 A 
ATOM     79  C   UNL A   1      40.901  27.054  27.730  1.00  0.00     0.091 A 
ATOM     80  F   UNL A   1      39.996  27.067  29.938  1.00  0.00    -0.205 F 
ATOM     81  C   UNL A   1      41.610  27.718  26.718  1.00  0.00     0.022 A 
BRANCH  79  82
ATOM     82  S   UNL A   1      40.348  25.380  27.383  1.00  0.00     0.127 S 
ATOM     83  O   UNL A   1      40.787  25.200  26.001  1.00  0.00    -0.237 OA
ATOM     84  O   UNL A   1      41.094  24.602  28.373  1.00  0.00    -0.237 OA
ATOM     85  O   UNL A   1      38.907  25.392  27.597  1.00  0.00    -0.744 OA
ENDBRANCH  79  82
ENDBRANCH  51  75
BRANCH  63  86
ATOM     86  C   UNL A   1      44.887  28.478  35.186  1.00  0.00     0.023 A 
ATOM     87  C   UNL A   1      46.167  29.054  35.062  1.00  0.00     0.012 A 
ATOM     88  C   UNL A   1      44.759  27.194  35.753  1.00  0.00     0.148 A 
ATOM     89  C   UNL A   1      47.303  28.353  35.465  1.00  0.00     0.002 A 
ATOM     90  C   UNL A   1      45.892  26.520  36.196  1.00  0.00     0.091 A 
ATOM     91  F   UNL A   1      43.535  26.654  35.845  1.00  0.00    -0.205 F 
ATOM     92  C   UNL A   1      47.165  27.093  36.042  1.00  0.00     0.022 A 
BRANCH  90  93
ATOM     93  S   UNL A   1      45.799  24.935  37.035  1.00  0.00     0.127 S 
ATOM     94  O   UNL A   1      44.894  25.236  38.143  1.00  0.00    -0.237 OA
ATOM     95  O   UNL A   1      45.230  24.068  36.003  1.00  0.00    -0.237 OA
ATOM     96  O   UNL A   1      47.167  24.603  37.413  1.00  0.00    -0.744 OA
ENDBRANCH  90  93
ENDBRANCH  63  86
ENDBRANCH  37  38
ENDBRANCH  29  32
ENDBRANCH  27  28
ENDBRANCH  26  27
ENDBRANCH  25  26
ENDBRANCH  24  25
ENDBRANCH   1  24
TORSDOF 21
ENDMDL
MODEL 3
REMARK VINA RESULT:      -8.4      5.003     10.751
REMARK SMILES C[C@@H]1[C@H](C(=O)NCCCCCCNC(=O)c2ccc(-c3c4nc(c(-c5cccc(S(=O)(=O)[O-])c5F)c5ccc([nH]5)c(-c5cccc(S(=O)(=O)[O-])c5F)c5nc(c(-c6cccc(S(=O)(=O)[O-])c6F)c6ccc3[nH]6)C=C5)C=C4)cc2)CCN1C(=O)COCc1ccccc1
REMARK SMILES IDX 8 1 7 2 6 3 4 4 5 5 3 7 1 8 2 9 81 10 79 11 80 12 82 13
REMARK SMILES IDX 83 14 84 15 85 16 86 17 87 18 88 19 92 20 89 21 91 22 90 23
REMARK SMILES IDX 9 24 10 25 11 26 12 27 13 28 14 29 15 31 16 32 17 33 78 34
REMARK SMILES IDX 18 35 77 36 19 37 20 38 21 39 71 40 22 41 76 42 70 43 72 44
REMARK SMILES IDX 23 45 75 46 69 47 68 48 24 50 56 51 36 52 55 53 37 54 40 55
REMARK SMILES IDX 54 56 73 57 38 58 39 59 53 61 74 62 41 63 25 64 26 65 34 66
REMARK SMILES IDX 27 67 29 68 35 69 28 70 30 71 31 72 32 73 33 74 57 75 58 76
REMARK SMILES IDX 66 77 59 78 61 79 67 80 60 81 62 82 63 83 64 84 65 85 42 86
REMARK SMILES IDX 43 87 51 88 44 89 46 90 52 91 45 92 47 93 48 94 49 95 50 96
REMARK H PARENT 6 6 13 30 72 49 40 60
REMARK Flexibility Score: inf
ROOT
ATOM      1  C   UNL A   1      32.805  29.090  26.750  1.00  0.00     0.021 C 
ENDROOT
BRANCH   1   2
ATOM      2  C   UNL A   1      32.052  28.115  27.654  1.00  0.00     0.116 C 
BRANCH   2   3
ATOM      3  N   UNL A   1      31.034  27.386  26.916  1.00  0.00    -0.356 N 
ATOM      4  C   UNL A   1      31.112  26.552  25.848  1.00  0.00     0.225 C 
ATOM      5  O   UNL A   1      30.043  26.160  25.367  1.00  0.00    -0.275 OA
ATOM      6  H   UNL A   1      30.120  27.522  27.253  1.00  0.00     0.163 HD
BRANCH   4   7
ATOM      7  C   UNL A   1      32.422  26.087  25.232  1.00  0.00     0.102 C 
ATOM      8  C   UNL A   1      32.096  23.763  26.387  1.00  0.00     0.032 C 
ATOM      9  C   UNL A   1      33.031  24.744  25.693  1.00  0.00     0.094 C 
ATOM     10  N   UNL A   1      33.680  24.212  24.481  1.00  0.00    -0.337 N 
ATOM     11  C   UNL A   1      32.455  26.085  23.705  1.00  0.00     0.037 C 
ATOM     12  C   UNL A   1      33.576  25.129  23.362  1.00  0.00     0.121 C 
BRANCH  10  13
ATOM     13  C   UNL A   1      34.550  23.142  24.365  1.00  0.00     0.248 C 
ATOM     14  O   UNL A   1      34.855  22.682  23.261  1.00  0.00    -0.272 OA
BRANCH  13  15
ATOM     15  C   UNL A   1      35.121  22.518  25.641  1.00  0.00     0.260 C 
BRANCH  15  16
ATOM     16  O   UNL A   1      35.093  21.097  25.723  1.00  0.00    -0.367 OA
BRANCH  16  17
ATOM     17  C   UNL A   1      33.772  20.552  25.698  1.00  0.00     0.196 C 
BRANCH  17  18
ATOM     18  C   UNL A   1      33.646  19.467  24.662  1.00  0.00    -0.022 A 
ATOM     19  C   UNL A   1      32.558  19.453  23.781  1.00  0.00     0.006 A 
ATOM     20  C   UNL A   1      34.568  18.410  24.634  1.00  0.00     0.006 A 
ATOM     21  C   UNL A   1      32.380  18.382  22.904  1.00  0.00     0.000 A 
ATOM     22  C   UNL A   1      34.384  17.340  23.761  1.00  0.00     0.000 A 
ATOM     23  C   UNL A   1      33.288  17.324  22.902  1.00  0.00     0.000 A 
ENDBRANCH  17  18
ENDBRANCH  16  17
ENDBRANCH  15  16
ENDBRANCH  13  15
ENDBRANCH  10  13
ENDBRANCH   4   7
ENDBRANCH   2   3
ENDBRANCH   1   2
BRANCH   1  24
ATOM     24  C   UNL A   1      34.192  29.493  27.250  1.00  0.00     0.002 C 
BRANCH  24  25
ATOM     25  C   UNL A   1      34.325  30.953  27.688  1.00  0.00     0.002 C 
BRANCH  25  26
ATOM     26  C   UNL A   1      33.024  31.760  27.698  1.00  0.00     0.021 C 
BRANCH  26  27
ATOM     27  C   UNL A   1      33.021  33.009  26.820  1.00  0.00     0.116 C 
BRANCH  27  28
ATOM     28  N   UNL A   1      32.679  34.205  27.568  1.00  0.00    -0.352 N 
ATOM     29  C   UNL A   1      33.156  34.646  28.777  1.00  0.00     0.251 C 
ATOM     30  H   UNL A   1      32.005  34.786  27.146  1.00  0.00     0.163 HD
ATOM     31  O   UNL A   1      32.605  35.588  29.340  1.00  0.00    -0.269 OA
BRANCH  29  32
ATOM     32  C   UNL A   1      34.321  33.984  29.405  1.00  0.00     0.039 A 
ATOM     33  C   UNL A   1      34.101  33.128  30.487  1.00  0.00     0.014 A 
ATOM     34  C   UNL A   1      35.623  34.232  28.959  1.00  0.00     0.014 A 
ATOM     35  C   UNL A   1      35.185  32.493  31.098  1.00  0.00     0.010 A 
ATOM     36  C   UNL A   1      36.694  33.547  29.528  1.00  0.00     0.010 A 
ATOM     37  C   UNL A   1      36.489  32.682  30.613  1.00  0.00    -0.014 A 
BRANCH  37  38
ATOM     38  C   UNL A   1      37.643  31.991  31.242  1.00  0.00     0.031 A 
ATOM     39  C   UNL A   1      38.427  30.962  30.472  1.00  0.00     0.074 A 
ATOM     40  C   UNL A   1      37.950  32.245  32.530  1.00  0.00     0.049 A 
ATOM     41  N   UNL A   1      39.460  30.257  30.854  1.00  0.00    -0.248 NA
ATOM     42  C   UNL A   1      37.979  30.668  29.100  1.00  0.00     0.031 C 
ATOM     43  C   UNL A   1      37.216  33.158  33.408  1.00  0.00     0.029 A 
ATOM     44  N   UNL A   1      38.947  31.745  33.328  1.00  0.00    -0.354 N 
ATOM     45  C   UNL A   1      39.766  29.419  29.789  1.00  0.00     0.074 A 
ATOM     46  C   UNL A   1      38.786  29.676  28.755  1.00  0.00     0.031 C 
ATOM     47  C   UNL A   1      37.791  33.158  34.621  1.00  0.00     0.029 A 
ATOM     48  C   UNL A   1      38.922  32.234  34.614  1.00  0.00     0.049 A 
ATOM     49  H   UNL A   1      39.618  31.098  33.012  1.00  0.00     0.167 HD
ATOM     50  C   UNL A   1      40.789  28.539  29.665  1.00  0.00     0.034 A 
ATOM     51  C   UNL A   1      39.721  31.971  35.666  1.00  0.00     0.034 A 
ATOM     52  C   UNL A   1      41.790  28.323  30.674  1.00  0.00     0.049 A 
ATOM     53  C   UNL A   1      40.883  31.031  35.486  1.00  0.00     0.074 A 
ATOM     54  C   UNL A   1      42.920  27.525  30.608  1.00  0.00     0.029 A 
ATOM     55  N   UNL A   1      41.783  28.902  31.934  1.00  0.00    -0.354 N 
ATOM     56  N   UNL A   1      41.257  30.379  34.410  1.00  0.00    -0.248 NA
ATOM     57  C   UNL A   1      41.754  30.819  36.650  1.00  0.00     0.031 C 
ATOM     58  C   UNL A   1      43.587  27.610  31.836  1.00  0.00     0.029 A 
ATOM     59  C   UNL A   1      42.882  28.474  32.659  1.00  0.00     0.049 A 
ATOM     60  H   UNL A   1      41.096  29.526  32.264  1.00  0.00     0.167 HD
ATOM     61  C   UNL A   1      42.423  29.707  34.759  1.00  0.00     0.074 A 
ATOM     62  C   UNL A   1      42.706  30.051  36.138  1.00  0.00     0.031 C 
ATOM     63  C   UNL A   1      43.180  28.865  34.013  1.00  0.00     0.034 A 
BRANCH  50  64
ATOM     64  C   UNL A   1      40.916  27.791  28.363  1.00  0.00     0.023 A 
ATOM     65  C   UNL A   1      41.547  28.415  27.267  1.00  0.00     0.012 A 
ATOM     66  C   UNL A   1      40.469  26.462  28.238  1.00  0.00     0.148 A 
ATOM     67  C   UNL A   1      41.701  27.740  26.057  1.00  0.00     0.002 A 
ATOM     68  C   UNL A   1      40.664  25.781  27.041  1.00  0.00     0.091 A 
ATOM     69  F   UNL A   1      39.851  25.893  29.283  1.00  0.00    -0.205 F 
ATOM     70  C   UNL A   1      41.270  26.421  25.947  1.00  0.00     0.022 A 
BRANCH  68  71
ATOM     71  S   UNL A   1      40.211  24.055  26.822  1.00  0.00     0.127 S 
ATOM     72  O   UNL A   1      38.802  24.165  26.450  1.00  0.00    -0.237 OA
ATOM     73  O   UNL A   1      41.098  23.639  25.736  1.00  0.00    -0.237 OA
ATOM     74  O   UNL A   1      40.473  23.409  28.100  1.00  0.00    -0.744 OA
ENDBRANCH  68  71
ENDBRANCH  50  64
BRANCH  51  75
ATOM     75  C   UNL A   1      39.499  32.674  36.962  1.00  0.00     0.023 A 
ATOM     76  C   UNL A   1      40.288  33.795  37.283  1.00  0.00     0.012 A 
ATOM     77  C   UNL A   1      38.497  32.260  37.860  1.00  0.00     0.148 A 
ATOM     78  C   UNL A   1      40.103  34.475  38.487  1.00  0.00     0.002 A 
ATOM     79  C   UNL A   1      38.281  32.975  39.033  1.00  0.00     0.091 A 
ATOM     80  F   UNL A   1      37.766  31.182  37.545  1.00  0.00    -0.205 F 
ATOM     81  C   UNL A   1      39.094  34.072  39.357  1.00  0.00     0.022 A 
BRANCH  79  82
ATOM     82  S   UNL A   1      36.917  32.607  40.143  1.00  0.00     0.127 S 
ATOM     83  O   UNL A   1      37.014  33.698  41.109  1.00  0.00    -0.237 OA
ATOM     84  O   UNL A   1      35.765  32.681  39.244  1.00  0.00    -0.237 OA
ATOM     85  O   UNL A   1      37.185  31.272  40.660  1.00  0.00    -0.744 OA
ENDBRANCH  79  82
ENDBRANCH  51  75
BRANCH  63  86
ATOM     86  C   UNL A   1      44.404  28.271  34.657  1.00  0.00     0.023 A 
ATOM     87  C   UNL A   1      45.628  28.968  34.603  1.00  0.00     0.012 A 
ATOM     88  C   UNL A   1      44.328  27.062  35.377  1.00  0.00     0.148 A 
ATOM     89  C   UNL A   1      46.764  28.455  35.226  1.00  0.00     0.002 A 
ATOM     90  C   UNL A   1      45.454  26.581  36.036  1.00  0.00     0.091 A 
ATOM     91  F   UNL A   1      43.160  26.403  35.401  1.00  0.00    -0.205 F 
ATOM     92  C   UNL A   1      46.675  27.270  35.952  1.00  0.00     0.022 A 
BRANCH  90  93
ATOM     93  S   UNL A   1      45.407  25.112  37.070  1.00  0.00     0.127 S 
ATOM     94  O   UNL A   1      44.575  24.213  36.273  1.00  0.00    -0.237 OA
ATOM     95  O   UNL A   1      46.818  24.735  37.141  1.00  0.00    -0.237 OA
ATOM     96  O   UNL A   1      44.834  25.539  38.341  1.00  0.00    -0.744 OA
ENDBRANCH  90  93
ENDBRANCH  63  86
ENDBRANCH  37  38
ENDBRANCH  29  32
ENDBRANCH  27  28
ENDBRANCH  26  27
ENDBRANCH  25  26
ENDBRANCH  24  25
ENDBRANCH   1  24
TORSDOF 21
ENDMDL
