MODEL 1
REMARK VINA RESULT:     -11.6      0.000      0.000
REMARK SMILES Cc1ccc(NC(=O)CN2C(=O)S/C(=C\c3cc(Cl)c(OCC(=O)NCCCCCCNC(=O)c4ccc(-c5c6nc(c(-c7cccc(S(=O)(=O)[O-])c7F)c7ccc([nH]7)c(-c7cccc(S(=O)(=O)[O-])c7F)c7nc(c(-c8cccc(S(=O)(=O)[O-])c8F)c8ccc5[nH]8)C=C7)C=C6)cc4)c(Cl)c3)C2=O)cc1
REMARK SMILES IDX 27 1 26 2 25 3 23 4 24 5 22 7 21 8 20 9 16 10 17 11 100 12
REMARK SMILES IDX 18 13 98 14 19 15 99 16 15 17 10 18 11 19 101 20 12 21 13 22
REMARK SMILES IDX 14 23 102 24 9 25 7 26 6 27 8 29 5 30 1 31 2 32 3 33 104 34
REMARK SMILES IDX 4 35 103 36 28 37 29 38 30 39 31 40 32 41 33 42 34 44 35 45
REMARK SMILES IDX 36 46 97 47 37 48 96 49 38 50 39 51 40 52 90 53 41 54 95 55
REMARK SMILES IDX 89 56 91 57 42 58 94 59 88 60 87 61 43 63 75 64 55 65 74 66
REMARK SMILES IDX 56 67 59 68 73 69 92 70 57 71 58 72 72 74 93 75 60 76 44 77
REMARK SMILES IDX 45 78 53 79 46 80 48 81 54 82 47 83 49 84 50 85 51 86 52 87
REMARK SMILES IDX 76 88 77 89 85 90 78 91 80 92 86 93 79 94 81 95 82 96 83 97
REMARK SMILES IDX 84 98 61 99 62 100 70 101 63 102 65 103 71 104 64 105 66 106
REMARK SMILES IDX 67 107 68 108 69 109
REMARK H PARENT 25 6 6 28 32 43 91 62 59 73
REMARK Flexibility Score: inf
ROOT
ATOM      1  C   UNL A   1      36.835  19.050  24.619  1.00  0.00     0.021 C 
ENDROOT
BRANCH   1   2
ATOM      2  C   UNL A   1      35.895  17.913  25.005  1.00  0.00     0.116 C 
BRANCH   2   3
ATOM      3  N   UNL A   1      34.842  17.704  24.037  1.00  0.00    -0.353 N 
ATOM      4  C   UNL A   1      33.552  18.136  24.081  1.00  0.00     0.257 C 
ATOM      5  O   UNL A   1      32.884  18.047  23.049  1.00  0.00    -0.271 OA
ATOM      6  H   UNL A   1      35.092  17.182  23.240  1.00  0.00     0.163 HD
BRANCH   4   7
ATOM      7  C   UNL A   1      33.007  18.781  25.365  1.00  0.00     0.329 C 
BRANCH   7   8
ATOM      8  O   UNL A   1      32.133  19.887  25.258  1.00  0.00    -0.481 OA
BRANCH   8   9
ATOM      9  C   UNL A   1      32.547  21.159  24.973  1.00  0.00     0.157 A 
ATOM     10  C   UNL A   1      33.517  23.849  24.754  1.00  0.00    -0.021 A 
ATOM     11  C   UNL A   1      33.618  23.171  25.962  1.00  0.00     0.032 A 
ATOM     12  C   UNL A   1      32.890  23.187  23.692  1.00  0.00     0.032 A 
ATOM     13  C   UNL A   1      33.127  21.851  26.068  1.00  0.00     0.085 A 
ATOM     14  C   UNL A   1      32.482  21.848  23.762  1.00  0.00     0.085 A 
ATOM     15  Cl  UNL A   1      33.282  21.080  27.616  1.00  0.00    -0.080 Cl
ATOM     16  Cl  UNL A   1      32.039  21.197  22.227  1.00  0.00    -0.080 Cl
BRANCH  10  17
ATOM     17  C   UNL A   1      33.963  25.248  24.556  1.00  0.00     0.029 C 
ATOM     18  N   UNL A   1      32.542  27.969  22.737  1.00  0.00    -0.259 N 
ATOM     19  C   UNL A   1      31.833  26.999  22.096  1.00  0.00     0.294 C 
ATOM     20  C   UNL A   1      33.546  27.516  23.584  1.00  0.00     0.268 C 
ATOM     21  O   UNL A   1      30.698  27.079  21.625  1.00  0.00    -0.261 OA
ATOM     22  S   UNL A   1      32.731  25.507  22.103  1.00  0.00    -0.022 SA
ATOM     23  C   UNL A   1      33.589  26.015  23.514  1.00  0.00     0.083 C 
ATOM     24  O   UNL A   1      34.174  28.187  24.373  1.00  0.00    -0.268 OA
BRANCH  18  25
ATOM     25  C   UNL A   1      31.973  29.300  22.889  1.00  0.00     0.230 C 
BRANCH  25  26
ATOM     26  C   UNL A   1      30.721  29.312  23.772  1.00  0.00     0.244 C 
ATOM     27  N   UNL A   1      30.622  30.136  24.858  1.00  0.00    -0.325 N 
ATOM     28  H   UNL A   1      29.706  30.430  25.064  1.00  0.00     0.169 HD
ATOM     29  O   UNL A   1      29.753  28.595  23.496  1.00  0.00    -0.273 OA
BRANCH  27  30
ATOM     30  C   UNL A   1      31.600  30.637  25.727  1.00  0.00     0.041 A 
ATOM     31  C   UNL A   1      34.355  32.228  28.642  1.00  0.00     0.044 C 
ATOM     32  C   UNL A   1      33.384  31.689  27.636  1.00  0.00    -0.051 A 
ATOM     33  C   UNL A   1      33.558  30.398  27.131  1.00  0.00     0.005 A 
ATOM     34  C   UNL A   1      32.302  32.451  27.185  1.00  0.00     0.005 A 
ATOM     35  C   UNL A   1      32.671  29.874  26.187  1.00  0.00     0.026 A 
ATOM     36  C   UNL A   1      31.409  31.921  26.248  1.00  0.00     0.026 A 
ENDBRANCH  27  30
ENDBRANCH  25  26
ENDBRANCH  18  25
ENDBRANCH  10  17
ENDBRANCH   8   9
ENDBRANCH   7   8
ENDBRANCH   4   7
ENDBRANCH   2   3
ENDBRANCH   1   2
BRANCH   1  37
ATOM     37  C   UNL A   1      36.386  20.468  25.000  1.00  0.00     0.002 C 
BRANCH  37  38
ATOM     38  C   UNL A   1      37.462  21.561  25.086  1.00  0.00     0.002 C 
BRANCH  38  39
ATOM     39  C   UNL A   1      37.253  22.656  26.127  1.00  0.00     0.021 C 
BRANCH  39  40
ATOM     40  C   UNL A   1      38.283  23.772  26.109  1.00  0.00     0.116 C 
BRANCH  40  41
ATOM     41  N   UNL A   1      39.344  23.598  27.082  1.00  0.00    -0.352 N 
ATOM     42  C   UNL A   1      40.043  24.554  27.801  1.00  0.00     0.251 C 
ATOM     43  H   UNL A   1      39.608  22.665  27.256  1.00  0.00     0.163 HD
ATOM     44  O   UNL A   1      41.076  24.219  28.374  1.00  0.00    -0.269 OA
BRANCH  42  45
ATOM     45  C   UNL A   1      39.444  25.898  28.026  1.00  0.00     0.039 A 
ATOM     46  C   UNL A   1      39.870  26.908  27.154  1.00  0.00     0.014 A 
ATOM     47  C   UNL A   1      38.844  26.233  29.232  1.00  0.00     0.014 A 
ATOM     48  C   UNL A   1      40.045  28.195  27.642  1.00  0.00     0.010 A 
ATOM     49  C   UNL A   1      39.104  27.472  29.756  1.00  0.00     0.010 A 
ATOM     50  C   UNL A   1      39.808  28.403  28.990  1.00  0.00    -0.014 A 
BRANCH  50  51
ATOM     51  C   UNL A   1      40.251  29.552  29.746  1.00  0.00     0.031 A 
ATOM     52  C   UNL A   1      39.335  30.703  29.849  1.00  0.00     0.074 A 
ATOM     53  C   UNL A   1      41.312  29.366  30.568  1.00  0.00     0.049 A 
ATOM     54  N   UNL A   1      39.643  31.810  30.424  1.00  0.00    -0.248 NA
ATOM     55  C   UNL A   1      37.980  30.698  29.293  1.00  0.00     0.031 C 
ATOM     56  C   UNL A   1      41.627  30.114  31.779  1.00  0.00     0.029 A 
ATOM     57  N   UNL A   1      42.407  28.496  30.452  1.00  0.00    -0.354 N 
ATOM     58  C   UNL A   1      38.465  32.493  30.626  1.00  0.00     0.074 A 
ATOM     59  C   UNL A   1      37.504  31.855  29.764  1.00  0.00     0.031 C 
ATOM     60  C   UNL A   1      42.914  29.897  32.102  1.00  0.00     0.029 A 
ATOM     61  C   UNL A   1      43.505  29.203  30.974  1.00  0.00     0.049 A 
ATOM     62  H   UNL A   1      42.407  27.583  30.083  1.00  0.00     0.167 HD
ATOM     63  C   UNL A   1      38.420  33.397  31.641  1.00  0.00     0.034 A 
ATOM     64  C   UNL A   1      44.526  29.709  30.210  1.00  0.00     0.034 A 
ATOM     65  C   UNL A   1      39.776  33.642  32.159  1.00  0.00     0.049 A 
ATOM     66  C   UNL A   1      44.647  31.232  30.302  1.00  0.00     0.074 A 
ATOM     67  C   UNL A   1      40.447  33.225  33.294  1.00  0.00     0.029 A 
ATOM     68  N   UNL A   1      40.743  34.155  31.297  1.00  0.00    -0.354 N 
ATOM     69  N   UNL A   1      43.759  32.001  30.874  1.00  0.00    -0.248 NA
ATOM     70  C   UNL A   1      45.761  32.009  29.762  1.00  0.00     0.031 C 
ATOM     71  C   UNL A   1      41.845  33.371  33.048  1.00  0.00     0.029 A 
ATOM     72  C   UNL A   1      42.019  33.930  31.792  1.00  0.00     0.049 A 
ATOM     73  H   UNL A   1      40.547  34.616  30.450  1.00  0.00     0.167 HD
ATOM     74  C   UNL A   1      44.069  33.320  30.683  1.00  0.00     0.074 A 
ATOM     75  C   UNL A   1      45.381  33.267  30.056  1.00  0.00     0.031 C 
ATOM     76  C   UNL A   1      43.193  34.328  31.007  1.00  0.00     0.034 A 
BRANCH  63  77
ATOM     77  C   UNL A   1      37.167  33.923  32.324  1.00  0.00     0.023 A 
ATOM     78  C   UNL A   1      37.094  33.755  33.725  1.00  0.00     0.012 A 
ATOM     79  C   UNL A   1      36.011  34.466  31.705  1.00  0.00     0.148 A 
ATOM     80  C   UNL A   1      35.951  34.083  34.465  1.00  0.00     0.002 A 
ATOM     81  C   UNL A   1      34.893  34.853  32.452  1.00  0.00     0.091 A 
ATOM     82  F   UNL A   1      35.927  34.537  30.376  1.00  0.00    -0.205 F 
ATOM     83  C   UNL A   1      34.854  34.645  33.832  1.00  0.00     0.022 A 
BRANCH  81  84
ATOM     84  S   UNL A   1      33.446  35.635  31.707  1.00  0.00     0.127 S 
ATOM     85  O   UNL A   1      33.475  35.102  30.345  1.00  0.00    -0.237 OA
ATOM     86  O   UNL A   1      32.353  35.125  32.535  1.00  0.00    -0.237 OA
ATOM     87  O   UNL A   1      33.656  37.074  31.811  1.00  0.00    -0.744 OA
ENDBRANCH  81  84
ENDBRANCH  63  77
BRANCH  64  88
ATOM     88  C   UNL A   1      44.815  28.888  28.993  1.00  0.00     0.023 A 
ATOM     89  C   UNL A   1      44.447  29.456  27.749  1.00  0.00     0.012 A 
ATOM     90  C   UNL A   1      45.790  27.877  29.013  1.00  0.00     0.148 A 
ATOM     91  C   UNL A   1      45.188  29.188  26.597  1.00  0.00     0.002 A 
ATOM     92  C   UNL A   1      46.514  27.601  27.854  1.00  0.00     0.091 A 
ATOM     93  F   UNL A   1      46.041  27.247  30.168  1.00  0.00    -0.205 F 
ATOM     94  C   UNL A   1      46.257  28.301  26.664  1.00  0.00     0.022 A 
BRANCH  92  95
ATOM     95  S   UNL A   1      47.885  26.437  27.867  1.00  0.00     0.127 S 
ATOM     96  O   UNL A   1      48.220  26.359  26.450  1.00  0.00    -0.237 OA
ATOM     97  O   UNL A   1      48.880  27.120  28.693  1.00  0.00    -0.237 OA
ATOM     98  O   UNL A   1      47.340  25.230  28.471  1.00  0.00    -0.744 OA
ENDBRANCH  92  95
ENDBRANCH  64  88
BRANCH  76  99
ATOM     99  C   UNL A   1      43.341  35.791  30.603  1.00  0.00     0.023 A 
ATOM    100  C   UNL A   1      44.000  36.738  31.409  1.00  0.00     0.012 A 
ATOM    101  C   UNL A   1      42.933  36.241  29.317  1.00  0.00     0.148 A 
ATOM    102  C   UNL A   1      44.173  38.069  31.008  1.00  0.00     0.002 A 
ATOM    103  C   UNL A   1      43.227  37.528  28.871  1.00  0.00     0.091 A 
ATOM    104  F   UNL A   1      42.228  35.431  28.513  1.00  0.00    -0.205 F 
ATOM    105  C   UNL A   1      43.809  38.459  29.730  1.00  0.00     0.022 A 
BRANCH 103 106
ATOM    106  S   UNL A   1      43.025  37.985  27.142  1.00  0.00     0.127 S 
ATOM    107  O   UNL A   1      44.199  38.823  26.911  1.00  0.00    -0.237 OA
ATOM    108  O   UNL A   1      43.063  36.685  26.471  1.00  0.00    -0.237 OA
ATOM    109  O   UNL A   1      41.732  38.653  27.071  1.00  0.00    -0.744 OA
ENDBRANCH 103 106
ENDBRANCH  76  99
ENDBRANCH  50  51
ENDBRANCH  42  45
ENDBRANCH  40  41
ENDBRANCH  39  40
ENDBRANCH  38  39
ENDBRANCH  37  38
ENDBRANCH   1  37
TORSDOF 22
ENDMDL
MODEL 2
REMARK VINA RESULT:     -11.2      6.646     13.969
REMARK SMILES Cc1ccc(NC(=O)CN2C(=O)S/C(=C\c3cc(Cl)c(OCC(=O)NCCCCCCNC(=O)c4ccc(-c5c6nc(c(-c7cccc(S(=O)(=O)[O-])c7F)c7ccc([nH]7)c(-c7cccc(S(=O)(=O)[O-])c7F)c7nc(c(-c8cccc(S(=O)(=O)[O-])c8F)c8ccc5[nH]8)C=C7)C=C6)cc4)c(Cl)c3)C2=O)cc1
REMARK SMILES IDX 27 1 26 2 25 3 23 4 24 5 22 7 21 8 20 9 16 10 17 11 100 12
REMARK SMILES IDX 18 13 98 14 19 15 99 16 15 17 10 18 11 19 101 20 12 21 13 22
REMARK SMILES IDX 14 23 102 24 9 25 7 26 6 27 8 29 5 30 1 31 2 32 3 33 104 34
REMARK SMILES IDX 4 35 103 36 28 37 29 38 30 39 31 40 32 41 33 42 34 44 35 45
REMARK SMILES IDX 36 46 97 47 37 48 96 49 38 50 39 51 40 52 90 53 41 54 95 55
REMARK SMILES IDX 89 56 91 57 42 58 94 59 88 60 87 61 43 63 75 64 55 65 74 66
REMARK SMILES IDX 56 67 59 68 73 69 92 70 57 71 58 72 72 74 93 75 60 76 44 77
REMARK SMILES IDX 45 78 53 79 46 80 48 81 54 82 47 83 49 84 50 85 51 86 52 87
REMARK SMILES IDX 76 88 77 89 85 90 78 91 80 92 86 93 79 94 81 95 82 96 83 97
REMARK SMILES IDX 84 98 61 99 62 100 70 101 63 102 65 103 71 104 64 105 66 106
REMARK SMILES IDX 67 107 68 108 69 109
REMARK H PARENT 25 6 6 28 32 43 91 62 59 73
REMARK Flexibility Score: inf
ROOT
ATOM      1  C   UNL A   1      41.193  29.649  34.523  1.00  0.00     0.021 C 
ENDROOT
BRANCH   1   2
ATOM      2  C   UNL A   1      40.725  31.090  34.694  1.00  0.00     0.116 C 
BRANCH   2   3
ATOM      3  N   UNL A   1      39.711  31.231  35.715  1.00  0.00    -0.353 N 
ATOM      4  C   UNL A   1      38.361  31.317  35.562  1.00  0.00     0.257 C 
ATOM      5  O   UNL A   1      37.663  31.201  36.572  1.00  0.00    -0.271 OA
ATOM      6  H   UNL A   1      40.040  31.268  36.641  1.00  0.00     0.163 HD
BRANCH   4   7
ATOM      7  C   UNL A   1      37.760  31.472  34.156  1.00  0.00     0.329 C 
BRANCH   7   8
ATOM      8  O   UNL A   1      37.773  32.746  33.542  1.00  0.00    -0.481 OA
BRANCH   8   9
ATOM      9  C   UNL A   1      38.627  33.093  32.531  1.00  0.00     0.157 A 
ATOM     10  C   UNL A   1      40.578  34.071  30.670  1.00  0.00    -0.021 A 
ATOM     11  C   UNL A   1      40.583  34.523  31.983  1.00  0.00     0.032 A 
ATOM     12  C   UNL A   1      39.567  33.175  30.300  1.00  0.00     0.032 A 
ATOM     13  C   UNL A   1      39.613  34.048  32.892  1.00  0.00     0.085 A 
ATOM     14  C   UNL A   1      38.657  32.631  31.216  1.00  0.00     0.085 A 
ATOM     15  Cl  UNL A   1      39.684  34.674  34.511  1.00  0.00    -0.080 Cl
ATOM     16  Cl  UNL A   1      37.738  31.326  30.559  1.00  0.00    -0.080 Cl
BRANCH  10  17
ATOM     17  C   UNL A   1      41.526  34.540  29.634  1.00  0.00     0.029 C 
ATOM     18  N   UNL A   1      44.120  32.869  27.841  1.00  0.00    -0.259 N 
ATOM     19  C   UNL A   1      44.040  31.950  28.844  1.00  0.00     0.294 C 
ATOM     20  C   UNL A   1      43.383  34.030  28.035  1.00  0.00     0.268 C 
ATOM     21  O   UNL A   1      44.248  30.738  28.776  1.00  0.00    -0.261 OA
ATOM     22  S   UNL A   1      43.480  32.714  30.304  1.00  0.00    -0.022 SA
ATOM     23  C   UNL A   1      42.711  33.952  29.377  1.00  0.00     0.083 C 
ATOM     24  O   UNL A   1      43.173  34.891  27.209  1.00  0.00    -0.268 OA
BRANCH  18  25
ATOM     25  C   UNL A   1      44.533  32.452  26.510  1.00  0.00     0.230 C 
BRANCH  25  26
ATOM     26  C   UNL A   1      45.758  33.221  26.002  1.00  0.00     0.244 C 
ATOM     27  N   UNL A   1      47.025  32.876  26.382  1.00  0.00    -0.325 N 
ATOM     28  H   UNL A   1      47.717  33.063  25.709  1.00  0.00     0.169 HD
ATOM     29  O   UNL A   1      45.624  34.155  25.203  1.00  0.00    -0.273 OA
BRANCH  27  30
ATOM     30  C   UNL A   1      47.507  32.302  27.566  1.00  0.00     0.041 A 
ATOM     31  C   UNL A   1      49.294  30.462  31.036  1.00  0.00     0.044 C 
ATOM     32  C   UNL A   1      48.683  31.087  29.818  1.00  0.00    -0.051 A 
ATOM     33  C   UNL A   1      48.260  32.418  29.863  1.00  0.00     0.005 A 
ATOM     34  C   UNL A   1      48.522  30.367  28.631  1.00  0.00     0.005 A 
ATOM     35  C   UNL A   1      47.681  33.022  28.745  1.00  0.00     0.026 A 
ATOM     36  C   UNL A   1      47.951  30.976  27.509  1.00  0.00     0.026 A 
ENDBRANCH  27  30
ENDBRANCH  25  26
ENDBRANCH  18  25
ENDBRANCH  10  17
ENDBRANCH   8   9
ENDBRANCH   7   8
ENDBRANCH   4   7
ENDBRANCH   2   3
ENDBRANCH   1   2
BRANCH   1  37
ATOM     37  C   UNL A   1      41.260  29.117  33.085  1.00  0.00     0.002 C 
BRANCH  37  38
ATOM     38  C   UNL A   1      41.404  30.140  31.948  1.00  0.00     0.002 C 
BRANCH  38  39
ATOM     39  C   UNL A   1      40.944  29.702  30.561  1.00  0.00     0.021 C 
BRANCH  39  40
ATOM     40  C   UNL A   1      41.397  28.317  30.136  1.00  0.00     0.116 C 
BRANCH  40  41
ATOM     41  N   UNL A   1      40.335  27.506  29.572  1.00  0.00    -0.352 N 
ATOM     42  C   UNL A   1      40.377  26.617  28.511  1.00  0.00     0.251 C 
ATOM     43  H   UNL A   1      39.457  27.600  30.008  1.00  0.00     0.163 HD
ATOM     44  O   UNL A   1      39.317  26.230  28.026  1.00  0.00    -0.269 OA
BRANCH  42  45
ATOM     45  C   UNL A   1      41.672  26.007  28.104  1.00  0.00     0.039 A 
ATOM     46  C   UNL A   1      42.048  24.852  28.803  1.00  0.00     0.014 A 
ATOM     47  C   UNL A   1      42.626  26.729  27.399  1.00  0.00     0.014 A 
ATOM     48  C   UNL A   1      43.386  24.648  29.106  1.00  0.00     0.010 A 
ATOM     49  C   UNL A   1      43.937  26.596  27.774  1.00  0.00     0.010 A 
ATOM     50  C   UNL A   1      44.284  25.627  28.716  1.00  0.00    -0.014 A 
BRANCH  50  51
ATOM     51  C   UNL A   1      45.629  25.772  29.223  1.00  0.00     0.031 A 
ATOM     52  C   UNL A   1      46.736  25.266  28.391  1.00  0.00     0.074 A 
ATOM     53  C   UNL A   1      45.803  26.643  30.246  1.00  0.00     0.049 A 
ATOM     54  N   UNL A   1      47.966  25.263  28.763  1.00  0.00    -0.248 NA
ATOM     55  C   UNL A   1      46.537  24.703  27.053  1.00  0.00     0.031 C 
ATOM     56  C   UNL A   1      47.021  27.371  30.584  1.00  0.00     0.029 A 
ATOM     57  N   UNL A   1      44.927  27.014  31.277  1.00  0.00    -0.354 N 
ATOM     58  C   UNL A   1      48.722  25.051  27.633  1.00  0.00     0.074 A 
ATOM     59  C   UNL A   1      47.802  24.541  26.650  1.00  0.00     0.031 C 
ATOM     60  C   UNL A   1      46.917  27.830  31.844  1.00  0.00     0.029 A 
ATOM     61  C   UNL A   1      45.739  27.201  32.410  1.00  0.00     0.049 A 
ATOM     62  H   UNL A   1      43.950  27.123  31.220  1.00  0.00     0.167 HD
ATOM     63  C   UNL A   1      50.002  25.512  27.629  1.00  0.00     0.034 A 
ATOM     64  C   UNL A   1      45.766  26.348  33.485  1.00  0.00     0.034 A 
ATOM     65  C   UNL A   1      50.394  25.928  28.985  1.00  0.00     0.049 A 
ATOM     66  C   UNL A   1      47.140  25.714  33.714  1.00  0.00     0.074 A 
ATOM     67  C   UNL A   1      50.533  27.161  29.596  1.00  0.00     0.029 A 
ATOM     68  N   UNL A   1      50.383  24.982  30.009  1.00  0.00    -0.354 N 
ATOM     69  N   UNL A   1      48.134  25.802  32.870  1.00  0.00    -0.248 NA
ATOM     70  C   UNL A   1      47.508  24.935  34.894  1.00  0.00     0.031 C 
ATOM     71  C   UNL A   1      50.472  26.955  31.006  1.00  0.00     0.029 A 
ATOM     72  C   UNL A   1      50.355  25.596  31.252  1.00  0.00     0.049 A 
ATOM     73  H   UNL A   1      50.394  24.008  29.868  1.00  0.00     0.167 HD
ATOM     74  C   UNL A   1      49.185  25.027  33.279  1.00  0.00     0.074 A 
ATOM     75  C   UNL A   1      48.772  24.575  34.599  1.00  0.00     0.031 C 
ATOM     76  C   UNL A   1      50.269  24.784  32.471  1.00  0.00     0.034 A 
BRANCH  63  77
ATOM     77  C   UNL A   1      50.854  25.792  26.400  1.00  0.00     0.023 A 
ATOM     78  C   UNL A   1      52.015  25.003  26.242  1.00  0.00     0.012 A 
ATOM     79  C   UNL A   1      50.678  26.831  25.448  1.00  0.00     0.148 A 
ATOM     80  C   UNL A   1      52.950  25.232  25.226  1.00  0.00     0.002 A 
ATOM     81  C   UNL A   1      51.580  27.019  24.394  1.00  0.00     0.091 A 
ATOM     82  F   UNL A   1      49.690  27.715  25.589  1.00  0.00    -0.205 F 
ATOM     83  C   UNL A   1      52.727  26.232  24.292  1.00  0.00     0.022 A 
BRANCH  81  84
ATOM     84  S   UNL A   1      51.334  28.268  23.113  1.00  0.00     0.127 S 
ATOM     85  O   UNL A   1      51.577  29.511  23.845  1.00  0.00    -0.237 OA
ATOM     86  O   UNL A   1      52.370  27.925  22.139  1.00  0.00    -0.237 OA
ATOM     87  O   UNL A   1      49.971  28.095  22.626  1.00  0.00    -0.744 OA
ENDBRANCH  81  84
ENDBRANCH  63  77
BRANCH  64  88
ATOM     88  C   UNL A   1      44.451  25.684  33.744  1.00  0.00     0.023 A 
ATOM     89  C   UNL A   1      44.336  24.333  33.332  1.00  0.00     0.012 A 
ATOM     90  C   UNL A   1      43.574  26.168  34.729  1.00  0.00     0.148 A 
ATOM     91  C   UNL A   1      43.531  23.440  34.039  1.00  0.00     0.002 A 
ATOM     92  C   UNL A   1      42.759  25.272  35.419  1.00  0.00     0.091 A 
ATOM     93  F   UNL A   1      43.592  27.475  35.022  1.00  0.00    -0.205 F 
ATOM     94  C   UNL A   1      42.785  23.900  35.118  1.00  0.00     0.022 A 
BRANCH  92  95
ATOM     95  S   UNL A   1      41.743  25.812  36.801  1.00  0.00     0.127 S 
ATOM     96  O   UNL A   1      41.001  24.596  37.116  1.00  0.00    -0.237 OA
ATOM     97  O   UNL A   1      42.737  26.197  37.801  1.00  0.00    -0.237 OA
ATOM     98  O   UNL A   1      40.967  26.926  36.276  1.00  0.00    -0.744 OA
ENDBRANCH  92  95
ENDBRANCH  64  88
BRANCH  76  99
ATOM     99  C   UNL A   1      51.353  23.745  32.735  1.00  0.00     0.023 A 
ATOM    100  C   UNL A   1      52.727  24.044  32.660  1.00  0.00     0.012 A 
ATOM    101  C   UNL A   1      51.022  22.444  33.206  1.00  0.00     0.148 A 
ATOM    102  C   UNL A   1      53.715  23.095  32.950  1.00  0.00     0.002 A 
ATOM    103  C   UNL A   1      52.007  21.550  33.622  1.00  0.00     0.091 A 
ATOM    104  F   UNL A   1      49.742  22.045  33.235  1.00  0.00    -0.205 F 
ATOM    105  C   UNL A   1      53.356  21.855  33.455  1.00  0.00     0.022 A 
BRANCH 103 106
ATOM    106  S   UNL A   1      51.586  20.056  34.533  1.00  0.00     0.127 S 
ATOM    107  O   UNL A   1      50.269  19.731  33.990  1.00  0.00    -0.237 OA
ATOM    108  O   UNL A   1      52.653  19.138  34.132  1.00  0.00    -0.237 OA
ATOM    109  O   UNL A   1      51.627  20.438  35.937  1.00  0.00    -0.744 OA
ENDBRANCH 103 106
ENDBRANCH  76  99
ENDBRANCH  50  51
ENDBRANCH  42  45
ENDBRANCH  40  41
ENDBRANCH  39  40
ENDBRANCH  38  39
ENDBRANCH  37  38
ENDBRANCH   1  37
TORSDOF 22
ENDMDL
MODEL 3
REMARK VINA RESULT:     -11.2      5.578     10.162
REMARK SMILES Cc1ccc(NC(=O)CN2C(=O)S/C(=C\c3cc(Cl)c(OCC(=O)NCCCCCCNC(=O)c4ccc(-c5c6nc(c(-c7cccc(S(=O)(=O)[O-])c7F)c7ccc([nH]7)c(-c7cccc(S(=O)(=O)[O-])c7F)c7nc(c(-c8cccc(S(=O)(=O)[O-])c8F)c8ccc5[nH]8)C=C7)C=C6)cc4)c(Cl)c3)C2=O)cc1
REMARK SMILES IDX 27 1 26 2 25 3 23 4 24 5 22 7 21 8 20 9 16 10 17 11 100 12
REMARK SMILES IDX 18 13 98 14 19 15 99 16 15 17 10 18 11 19 101 20 12 21 13 22
REMARK SMILES IDX 14 23 102 24 9 25 7 26 6 27 8 29 5 30 1 31 2 32 3 33 104 34
REMARK SMILES IDX 4 35 103 36 28 37 29 38 30 39 31 40 32 41 33 42 34 44 35 45
REMARK SMILES IDX 36 46 97 47 37 48 96 49 38 50 39 51 40 52 90 53 41 54 95 55
REMARK SMILES IDX 89 56 91 57 42 58 94 59 88 60 87 61 43 63 75 64 55 65 74 66
REMARK SMILES IDX 56 67 59 68 73 69 92 70 57 71 58 72 72 74 93 75 60 76 44 77
REMARK SMILES IDX 45 78 53 79 46 80 48 81 54 82 47 83 49 84 50 85 51 86 52 87
REMARK SMILES IDX 76 88 77 89 85 90 78 91 80 92 86 93 79 94 81 95 82 96 83 97
REMARK SMILES IDX 84 98 61 99 62 100 70 101 63 102 65 103 71 104 64 105 66 106
REMARK SMILES IDX 67 107 68 108 69 109
REMARK H PARENT 25 6 6 28 32 43 91 62 59 73
REMARK Flexibility Score: inf
ROOT
ATOM      1  C   UNL A   1      36.807  19.397  24.647  1.00  0.00     0.021 C 
ENDROOT
BRANCH   1   2
ATOM      2  C   UNL A   1      35.890  18.260  25.084  1.00  0.00     0.116 C 
BRANCH   2   3
ATOM      3  N   UNL A   1      34.885  17.942  24.095  1.00  0.00    -0.353 N 
ATOM      4  C   UNL A   1      33.558  18.246  24.107  1.00  0.00     0.257 C 
ATOM      5  O   UNL A   1      32.925  18.083  23.061  1.00  0.00    -0.271 OA
ATOM      6  H   UNL A   1      35.202  17.440  23.310  1.00  0.00     0.163 HD
BRANCH   4   7
ATOM      7  C   UNL A   1      32.924  18.846  25.371  1.00  0.00     0.329 C 
BRANCH   7   8
ATOM      8  O   UNL A   1      32.082  19.976  25.246  1.00  0.00    -0.481 OA
BRANCH   8   9
ATOM      9  C   UNL A   1      32.521  21.212  24.859  1.00  0.00     0.157 A 
ATOM     10  C   UNL A   1      33.551  23.853  24.423  1.00  0.00    -0.021 A 
ATOM     11  C   UNL A   1      33.658  23.264  25.676  1.00  0.00     0.032 A 
ATOM     12  C   UNL A   1      32.888  23.129  23.424  1.00  0.00     0.032 A 
ATOM     13  C   UNL A   1      33.138  21.969  25.889  1.00  0.00     0.085 A 
ATOM     14  C   UNL A   1      32.450  21.810  23.601  1.00  0.00     0.085 A 
ATOM     15  Cl  UNL A   1      33.303  21.312  27.488  1.00  0.00    -0.080 Cl
ATOM     16  Cl  UNL A   1      31.963  21.057  22.126  1.00  0.00    -0.080 Cl
BRANCH  10  17
ATOM     17  C   UNL A   1      34.027  25.221  24.113  1.00  0.00     0.029 C 
ATOM     18  N   UNL A   1      32.398  28.037  22.646  1.00  0.00    -0.259 N 
ATOM     19  C   UNL A   1      31.500  27.117  22.196  1.00  0.00     0.294 C 
ATOM     20  C   UNL A   1      33.540  27.516  23.242  1.00  0.00     0.268 C 
ATOM     21  O   UNL A   1      30.294  27.272  22.001  1.00  0.00    -0.261 OA
ATOM     22  S   UNL A   1      32.278  25.571  22.010  1.00  0.00    -0.022 SA
ATOM     23  C   UNL A   1      33.470  26.016  23.178  1.00  0.00     0.083 C 
ATOM     24  O   UNL A   1      34.375  28.141  23.857  1.00  0.00    -0.268 OA
BRANCH  18  25
ATOM     25  C   UNL A   1      31.965  29.401  22.912  1.00  0.00     0.230 C 
BRANCH  25  26
ATOM     26  C   UNL A   1      30.823  29.472  23.932  1.00  0.00     0.244 C 
ATOM     27  N   UNL A   1      31.034  29.903  25.211  1.00  0.00    -0.325 N 
ATOM     28  H   UNL A   1      30.262  30.353  25.622  1.00  0.00     0.169 HD
ATOM     29  O   UNL A   1      29.670  29.170  23.602  1.00  0.00    -0.273 OA
BRANCH  27  30
ATOM     30  C   UNL A   1      32.162  29.817  26.038  1.00  0.00     0.041 A 
ATOM     31  C   UNL A   1      35.778  29.333  28.343  1.00  0.00     0.044 C 
ATOM     32  C   UNL A   1      34.523  29.481  27.536  1.00  0.00    -0.051 A 
ATOM     33  C   UNL A   1      34.124  30.749  27.107  1.00  0.00     0.005 A 
ATOM     34  C   UNL A   1      33.736  28.376  27.202  1.00  0.00     0.005 A 
ATOM     35  C   UNL A   1      32.955  30.916  26.360  1.00  0.00     0.026 A 
ATOM     36  C   UNL A   1      32.571  28.543  26.445  1.00  0.00     0.026 A 
ENDBRANCH  27  30
ENDBRANCH  25  26
ENDBRANCH  18  25
ENDBRANCH  10  17
ENDBRANCH   8   9
ENDBRANCH   7   8
ENDBRANCH   4   7
ENDBRANCH   2   3
ENDBRANCH   1   2
BRANCH   1  37
ATOM     37  C   UNL A   1      36.216  20.813  24.701  1.00  0.00     0.002 C 
BRANCH  37  38
ATOM     38  C   UNL A   1      37.187  21.999  24.606  1.00  0.00     0.002 C 
BRANCH  38  39
ATOM     39  C   UNL A   1      37.252  22.938  25.807  1.00  0.00     0.021 C 
BRANCH  39  40
ATOM     40  C   UNL A   1      38.652  23.290  26.279  1.00  0.00     0.116 C 
BRANCH  40  41
ATOM     41  N   UNL A   1      38.690  24.412  27.197  1.00  0.00    -0.352 N 
ATOM     42  C   UNL A   1      39.744  24.889  27.958  1.00  0.00     0.251 C 
ATOM     43  H   UNL A   1      37.844  24.906  27.294  1.00  0.00     0.163 HD
ATOM     44  O   UNL A   1      39.503  25.682  28.864  1.00  0.00    -0.269 OA
BRANCH  42  45
ATOM     45  C   UNL A   1      41.146  24.591  27.555  1.00  0.00     0.039 A 
ATOM     46  C   UNL A   1      41.868  23.763  28.424  1.00  0.00     0.014 A 
ATOM     47  C   UNL A   1      41.820  25.382  26.635  1.00  0.00     0.014 A 
ATOM     48  C   UNL A   1      43.217  24.009  28.631  1.00  0.00     0.010 A 
ATOM     49  C   UNL A   1      43.126  25.703  26.899  1.00  0.00     0.010 A 
ATOM     50  C   UNL A   1      43.775  25.092  27.974  1.00  0.00    -0.014 A 
BRANCH  50  51
ATOM     51  C   UNL A   1      45.037  25.710  28.310  1.00  0.00     0.031 A 
ATOM     52  C   UNL A   1      46.188  25.451  27.425  1.00  0.00     0.074 A 
ATOM     53  C   UNL A   1      44.996  26.730  29.202  1.00  0.00     0.049 A 
ATOM     54  N   UNL A   1      47.377  25.876  27.659  1.00  0.00    -0.248 NA
ATOM     55  C   UNL A   1      46.086  24.669  26.190  1.00  0.00     0.031 C 
ATOM     56  C   UNL A   1      45.941  27.833  29.320  1.00  0.00     0.029 A 
ATOM     57  N   UNL A   1      44.120  26.960  30.274  1.00  0.00    -0.354 N 
ATOM     58  C   UNL A   1      48.083  25.745  26.485  1.00  0.00     0.074 A 
ATOM     59  C   UNL A   1      47.306  24.845  25.673  1.00  0.00     0.031 C 
ATOM     60  C   UNL A   1      45.784  28.414  30.522  1.00  0.00     0.029 A 
ATOM     61  C   UNL A   1      44.907  27.544  31.282  1.00  0.00     0.049 A 
ATOM     62  H   UNL A   1      43.157  26.757  30.312  1.00  0.00     0.167 HD
ATOM     63  C   UNL A   1      49.148  26.567  26.288  1.00  0.00     0.034 A 
ATOM     64  C   UNL A   1      45.276  26.902  32.438  1.00  0.00     0.034 A 
ATOM     65  C   UNL A   1      49.480  27.272  27.536  1.00  0.00     0.049 A 
ATOM     66  C   UNL A   1      46.792  26.756  32.586  1.00  0.00     0.074 A 
ATOM     67  C   UNL A   1      49.264  28.563  27.983  1.00  0.00     0.029 A 
ATOM     68  N   UNL A   1      49.838  26.524  28.657  1.00  0.00    -0.354 N 
ATOM     69  N   UNL A   1      47.647  27.021  31.634  1.00  0.00    -0.248 NA
ATOM     70  C   UNL A   1      47.466  26.302  33.801  1.00  0.00     0.031 C 
ATOM     71  C   UNL A   1      49.367  28.552  29.406  1.00  0.00     0.029 A 
ATOM     72  C   UNL A   1      49.703  27.271  29.817  1.00  0.00     0.049 A 
ATOM     73  H   UNL A   1      50.147  25.590  28.627  1.00  0.00     0.167 HD
ATOM     74  C   UNL A   1      48.914  26.669  32.012  1.00  0.00     0.074 A 
ATOM     75  C   UNL A   1      48.755  26.306  33.412  1.00  0.00     0.031 C 
ATOM     76  C   UNL A   1      49.962  26.655  31.123  1.00  0.00     0.034 A 
BRANCH  63  77
ATOM     77  C   UNL A   1      49.782  26.916  24.950  1.00  0.00     0.023 A 
ATOM     78  C   UNL A   1      48.901  27.091  23.859  1.00  0.00     0.012 A 
ATOM     79  C   UNL A   1      51.167  26.979  24.642  1.00  0.00     0.148 A 
ATOM     80  C   UNL A   1      49.353  27.295  22.550  1.00  0.00     0.002 A 
ATOM     81  C   UNL A   1      51.618  27.247  23.345  1.00  0.00     0.091 A 
ATOM     82  F   UNL A   1      52.079  26.692  25.572  1.00  0.00    -0.205 F 
ATOM     83  C   UNL A   1      50.712  27.388  22.293  1.00  0.00     0.022 A 
BRANCH  81  84
ATOM     84  S   UNL A   1      53.368  27.429  22.940  1.00  0.00     0.127 S 
ATOM     85  O   UNL A   1      53.754  26.055  22.616  1.00  0.00    -0.237 OA
ATOM     86  O   UNL A   1      53.332  28.336  21.792  1.00  0.00    -0.237 OA
ATOM     87  O   UNL A   1      54.009  27.986  24.125  1.00  0.00    -0.744 OA
ENDBRANCH  81  84
ENDBRANCH  63  77
BRANCH  64  88
ATOM     88  C   UNL A   1      44.258  25.914  32.913  1.00  0.00     0.023 A 
ATOM     89  C   UNL A   1      44.528  24.551  32.637  1.00  0.00     0.012 A 
ATOM     90  C   UNL A   1      43.367  26.230  33.952  1.00  0.00     0.148 A 
ATOM     91  C   UNL A   1      44.105  23.551  33.514  1.00  0.00     0.002 A 
ATOM     92  C   UNL A   1      42.934  25.223  34.813  1.00  0.00     0.091 A 
ATOM     93  F   UNL A   1      43.008  27.509  34.126  1.00  0.00    -0.205 F 
ATOM     94  C   UNL A   1      43.355  23.895  34.632  1.00  0.00     0.022 A 
BRANCH  92  95
ATOM     95  S   UNL A   1      41.931  25.599  36.257  1.00  0.00     0.127 S 
ATOM     96  O   UNL A   1      41.700  24.270  36.811  1.00  0.00    -0.237 OA
ATOM     97  O   UNL A   1      42.816  26.448  37.053  1.00  0.00    -0.237 OA
ATOM     98  O   UNL A   1      40.764  26.291  35.727  1.00  0.00    -0.744 OA
ENDBRANCH  92  95
ENDBRANCH  64  88
BRANCH  76  99
ATOM     99  C   UNL A   1      51.333  26.043  31.384  1.00  0.00     0.023 A 
ATOM    100  C   UNL A   1      52.520  26.800  31.356  1.00  0.00     0.012 A 
ATOM    101  C   UNL A   1      51.465  24.690  31.805  1.00  0.00     0.148 A 
ATOM    102  C   UNL A   1      53.771  26.239  31.644  1.00  0.00     0.002 A 
ATOM    103  C   UNL A   1      52.691  24.175  32.219  1.00  0.00     0.091 A 
ATOM    104  F   UNL A   1      50.402  23.874  31.785  1.00  0.00    -0.205 F 
ATOM    105  C   UNL A   1      53.855  24.933  32.099  1.00  0.00     0.022 A 
BRANCH 103 106
ATOM    106  S   UNL A   1      52.799  22.593  33.070  1.00  0.00     0.127 S 
ATOM    107  O   UNL A   1      54.134  22.136  32.692  1.00  0.00    -0.237 OA
ATOM    108  O   UNL A   1      52.664  22.986  34.474  1.00  0.00    -0.237 OA
ATOM    109  O   UNL A   1      51.681  21.808  32.563  1.00  0.00    -0.744 OA
ENDBRANCH 103 106
ENDBRANCH  76  99
ENDBRANCH  50  51
ENDBRANCH  42  45
ENDBRANCH  40  41
ENDBRANCH  39  40
ENDBRANCH  38  39
ENDBRANCH  37  38
ENDBRANCH   1  37
TORSDOF 22
ENDMDL
