MODEL 1
REMARK VINA RESULT:     -12.7      0.000      0.000
REMARK SMILES C/C(=C(/F)C(=O)NCCCCCCNC(=O)c1ccc(-c2c3nc(c(-c4cccc(S(=O)(=O)[O-])c4F)c4ccc([nH]4)c(-c4cccc(S(=O)(=O)[O-])c4F)c4nc(c(-c5cccc(S(=O)(=O)[O-])c5F)c5ccc2[nH]5)C=C4)C=C3)cc1)c1cccc(-n2cnnn2)c1
REMARK SMILES IDX 11 1 10 2 9 3 8 4 7 5 5 6 6 7 3 9 1 10 2 11 4 12 80 13 81 14
REMARK SMILES IDX 90 15 82 16 84 17 83 18 85 19 86 20 89 21 87 22 88 23 12 24
REMARK SMILES IDX 13 25 14 26 15 27 16 29 17 30 18 31 79 32 19 33 78 34 20 35
REMARK SMILES IDX 21 36 22 37 72 38 23 39 77 40 71 41 73 42 24 43 76 44 70 45
REMARK SMILES IDX 69 46 25 48 57 49 37 50 56 51 38 52 41 53 55 54 74 55 39 56
REMARK SMILES IDX 40 57 54 59 75 60 42 61 26 62 27 63 35 64 28 65 30 66 36 67
REMARK SMILES IDX 29 68 31 69 32 70 33 71 34 72 58 73 59 74 67 75 60 76 62 77
REMARK SMILES IDX 68 78 61 79 63 80 64 81 65 82 66 83 43 84 44 85 52 86 45 87
REMARK SMILES IDX 47 88 53 89 46 90 48 91 49 92 50 93 51 94
REMARK H PARENT 7 8 14 28 73 47 41 58
REMARK Flexibility Score: inf
ROOT
ATOM      1  C   UNL A   1      36.663  22.757  23.567  1.00  0.00     0.002 C 
ENDROOT
BRANCH   1   2
ATOM      2  C   UNL A   1      35.225  23.282  23.652  1.00  0.00     0.002 C 
BRANCH   2   3
ATOM      3  C   UNL A   1      34.953  24.251  24.812  1.00  0.00     0.021 C 
BRANCH   3   4
ATOM      4  C   UNL A   1      33.610  24.973  24.716  1.00  0.00     0.116 C 
BRANCH   4   5
ATOM      5  N   UNL A   1      32.822  24.749  25.918  1.00  0.00    -0.350 N 
ATOM      6  C   UNL A   1      32.064  23.703  26.345  1.00  0.00     0.280 C 
ATOM      7  O   UNL A   1      31.425  23.869  27.384  1.00  0.00    -0.267 OA
ATOM      8  H   UNL A   1      32.840  25.507  26.547  1.00  0.00     0.163 HD
BRANCH   6   9
ATOM      9  C   UNL A   1      32.042  22.410  25.592  1.00  0.00     0.191 C 
ATOM     10  C   UNL A   1      34.043  21.269  26.709  1.00  0.00     0.048 C 
ATOM     11  C   UNL A   1      32.908  21.386  25.729  1.00  0.00    -0.002 C 
ATOM     12  F   UNL A   1      31.047  22.279  24.689  1.00  0.00    -0.201 F 
BRANCH  11  13
ATOM     13  C   UNL A   1      32.774  20.236  24.801  1.00  0.00    -0.017 A 
ATOM     14  C   UNL A   1      32.360  20.443  23.476  1.00  0.00     0.008 A 
ATOM     15  C   UNL A   1      33.101  18.938  25.216  1.00  0.00     0.037 A 
ATOM     16  C   UNL A   1      32.297  19.381  22.573  1.00  0.00     0.003 A 
ATOM     17  C   UNL A   1      33.051  17.871  24.304  1.00  0.00     0.069 A 
ATOM     18  C   UNL A   1      32.662  18.099  22.977  1.00  0.00     0.028 A 
BRANCH  17  19
ATOM     19  N   UNL A   1      33.406  16.567  24.712  1.00  0.00    -0.201 N 
ATOM     20  C   UNL A   1      32.609  15.568  25.211  1.00  0.00     0.252 A 
ATOM     21  N   UNL A   1      34.679  16.111  24.689  1.00  0.00    -0.040 NA
ATOM     22  N   UNL A   1      33.357  14.543  25.550  1.00  0.00    -0.117 NA
ATOM     23  N   UNL A   1      34.640  14.901  25.228  1.00  0.00    -0.024 NA
ENDBRANCH  17  19
ENDBRANCH  11  13
ENDBRANCH   6   9
ENDBRANCH   4   5
ENDBRANCH   3   4
ENDBRANCH   2   3
ENDBRANCH   1   2
BRANCH   1  24
ATOM     24  C   UNL A   1      36.908  21.417  24.266  1.00  0.00     0.021 C 
BRANCH  24  25
ATOM     25  C   UNL A   1      37.559  21.527  25.643  1.00  0.00     0.116 C 
BRANCH  25  26
ATOM     26  N   UNL A   1      38.684  20.614  25.792  1.00  0.00    -0.352 N 
ATOM     27  C   UNL A   1      39.961  20.873  26.228  1.00  0.00     0.251 C 
ATOM     28  H   UNL A   1      38.504  19.678  25.547  1.00  0.00     0.163 HD
ATOM     29  O   UNL A   1      40.836  20.019  26.116  1.00  0.00    -0.269 OA
BRANCH  27  30
ATOM     30  C   UNL A   1      40.282  22.194  26.807  1.00  0.00     0.039 A 
ATOM     31  C   UNL A   1      41.091  22.256  27.945  1.00  0.00     0.014 A 
ATOM     32  C   UNL A   1      39.810  23.368  26.213  1.00  0.00     0.014 A 
ATOM     33  C   UNL A   1      41.501  23.498  28.433  1.00  0.00     0.010 A 
ATOM     34  C   UNL A   1      40.271  24.603  26.663  1.00  0.00     0.010 A 
ATOM     35  C   UNL A   1      41.136  24.680  27.765  1.00  0.00    -0.014 A 
BRANCH  35  36
ATOM     36  C   UNL A   1      41.711  25.994  28.152  1.00  0.00     0.031 A 
ATOM     37  C   UNL A   1      40.851  27.053  28.783  1.00  0.00     0.074 A 
ATOM     38  C   UNL A   1      42.991  26.269  27.829  1.00  0.00     0.049 A 
ATOM     39  N   UNL A   1      41.163  28.282  29.103  1.00  0.00    -0.248 NA
ATOM     40  C   UNL A   1      39.454  26.694  29.072  1.00  0.00     0.031 C 
ATOM     41  C   UNL A   1      43.906  25.350  27.146  1.00  0.00     0.029 A 
ATOM     42  N   UNL A   1      43.734  27.412  27.995  1.00  0.00    -0.354 N 
ATOM     43  C   UNL A   1      40.000  28.853  29.604  1.00  0.00     0.074 A 
ATOM     44  C   UNL A   1      38.967  27.843  29.521  1.00  0.00     0.031 C 
ATOM     45  C   UNL A   1      45.082  25.965  26.949  1.00  0.00     0.029 A 
ATOM     46  C   UNL A   1      44.995  27.332  27.451  1.00  0.00     0.049 A 
ATOM     47  H   UNL A   1      43.396  28.212  28.460  1.00  0.00     0.167 HD
ATOM     48  C   UNL A   1      39.815  30.097  30.107  1.00  0.00     0.034 A 
ATOM     49  C   UNL A   1      45.967  28.259  27.347  1.00  0.00     0.034 A 
ATOM     50  C   UNL A   1      40.852  31.090  30.213  1.00  0.00     0.049 A 
ATOM     51  C   UNL A   1      45.734  29.631  27.918  1.00  0.00     0.074 A 
ATOM     52  C   UNL A   1      40.784  32.344  30.794  1.00  0.00     0.029 A 
ATOM     53  N   UNL A   1      42.137  30.952  29.712  1.00  0.00    -0.354 N 
ATOM     54  N   UNL A   1      44.681  30.096  28.542  1.00  0.00    -0.248 NA
ATOM     55  C   UNL A   1      46.835  30.598  27.794  1.00  0.00     0.031 C 
ATOM     56  C   UNL A   1      42.018  32.977  30.614  1.00  0.00     0.029 A 
ATOM     57  C   UNL A   1      42.864  32.107  29.947  1.00  0.00     0.049 A 
ATOM     58  H   UNL A   1      42.482  30.151  29.257  1.00  0.00     0.167 HD
ATOM     59  C   UNL A   1      44.997  31.400  28.905  1.00  0.00     0.074 A 
ATOM     60  C   UNL A   1      46.354  31.640  28.459  1.00  0.00     0.031 C 
ATOM     61  C   UNL A   1      44.227  32.323  29.532  1.00  0.00     0.034 A 
BRANCH  48  62
ATOM     62  C   UNL A   1      38.446  30.448  30.631  1.00  0.00     0.023 A 
ATOM     63  C   UNL A   1      38.116  30.143  31.968  1.00  0.00     0.012 A 
ATOM     64  C   UNL A   1      37.519  31.143  29.831  1.00  0.00     0.148 A 
ATOM     65  C   UNL A   1      36.874  30.500  32.491  1.00  0.00     0.002 A 
ATOM     66  C   UNL A   1      36.299  31.532  30.373  1.00  0.00     0.091 A 
ATOM     67  F   UNL A   1      37.844  31.405  28.557  1.00  0.00    -0.205 F 
ATOM     68  C   UNL A   1      35.971  31.203  31.699  1.00  0.00     0.022 A 
BRANCH  66  69
ATOM     69  S   UNL A   1      35.097  32.507  29.461  1.00  0.00     0.127 S 
ATOM     70  O   UNL A   1      34.245  33.008  30.539  1.00  0.00    -0.237 OA
ATOM     71  O   UNL A   1      35.941  33.521  28.829  1.00  0.00    -0.237 OA
ATOM     72  O   UNL A   1      34.453  31.587  28.534  1.00  0.00    -0.744 OA
ENDBRANCH  66  69
ENDBRANCH  48  62
BRANCH  49  73
ATOM     73  C   UNL A   1      47.266  27.910  26.704  1.00  0.00     0.023 A 
ATOM     74  C   UNL A   1      48.379  27.606  27.510  1.00  0.00     0.012 A 
ATOM     75  C   UNL A   1      47.397  27.855  25.302  1.00  0.00     0.148 A 
ATOM     76  C   UNL A   1      49.609  27.285  26.934  1.00  0.00     0.002 A 
ATOM     77  C   UNL A   1      48.610  27.478  24.735  1.00  0.00     0.091 A 
ATOM     78  F   UNL A   1      46.331  28.161  24.550  1.00  0.00    -0.205 F 
ATOM     79  C   UNL A   1      49.721  27.210  25.548  1.00  0.00     0.022 A 
BRANCH  77  80
ATOM     80  S   UNL A   1      48.805  27.222  22.967  1.00  0.00     0.127 S 
ATOM     81  O   UNL A   1      50.256  27.293  22.813  1.00  0.00    -0.237 OA
ATOM     82  O   UNL A   1      48.229  25.890  22.788  1.00  0.00    -0.237 OA
ATOM     83  O   UNL A   1      48.048  28.291  22.330  1.00  0.00    -0.744 OA
ENDBRANCH  77  80
ENDBRANCH  49  73
BRANCH  61  84
ATOM     84  C   UNL A   1      44.831  33.680  29.787  1.00  0.00     0.023 A 
ATOM     85  C   UNL A   1      45.539  33.913  30.983  1.00  0.00     0.012 A 
ATOM     86  C   UNL A   1      44.759  34.699  28.817  1.00  0.00     0.148 A 
ATOM     87  C   UNL A   1      46.139  35.149  31.223  1.00  0.00     0.002 A 
ATOM     88  C   UNL A   1      45.400  35.911  29.042  1.00  0.00     0.091 A 
ATOM     89  F   UNL A   1      44.068  34.463  27.692  1.00  0.00    -0.205 F 
ATOM     90  C   UNL A   1      46.079  36.142  30.250  1.00  0.00     0.022 A 
BRANCH  88  91
ATOM     91  S   UNL A   1      45.458  37.219  27.812  1.00  0.00     0.127 S 
ATOM     92  O   UNL A   1      46.481  38.105  28.366  1.00  0.00    -0.237 OA
ATOM     93  O   UNL A   1      45.864  36.493  26.609  1.00  0.00    -0.237 OA
ATOM     94  O   UNL A   1      44.115  37.781  27.757  1.00  0.00    -0.744 OA
ENDBRANCH  88  91
ENDBRANCH  61  84
ENDBRANCH  35  36
ENDBRANCH  27  30
ENDBRANCH  25  26
ENDBRANCH  24  25
ENDBRANCH   1  24
TORSDOF 18
ENDMDL
MODEL 2
REMARK VINA RESULT:     -12.7      0.573      7.499
REMARK SMILES C/C(=C(/F)C(=O)NCCCCCCNC(=O)c1ccc(-c2c3nc(c(-c4cccc(S(=O)(=O)[O-])c4F)c4ccc([nH]4)c(-c4cccc(S(=O)(=O)[O-])c4F)c4nc(c(-c5cccc(S(=O)(=O)[O-])c5F)c5ccc2[nH]5)C=C4)C=C3)cc1)c1cccc(-n2cnnn2)c1
REMARK SMILES IDX 11 1 10 2 9 3 8 4 7 5 5 6 6 7 3 9 1 10 2 11 4 12 80 13 81 14
REMARK SMILES IDX 90 15 82 16 84 17 83 18 85 19 86 20 89 21 87 22 88 23 12 24
REMARK SMILES IDX 13 25 14 26 15 27 16 29 17 30 18 31 79 32 19 33 78 34 20 35
REMARK SMILES IDX 21 36 22 37 72 38 23 39 77 40 71 41 73 42 24 43 76 44 70 45
REMARK SMILES IDX 69 46 25 48 57 49 37 50 56 51 38 52 41 53 55 54 74 55 39 56
REMARK SMILES IDX 40 57 54 59 75 60 42 61 26 62 27 63 35 64 28 65 30 66 36 67
REMARK SMILES IDX 29 68 31 69 32 70 33 71 34 72 58 73 59 74 67 75 60 76 62 77
REMARK SMILES IDX 68 78 61 79 63 80 64 81 65 82 66 83 43 84 44 85 52 86 45 87
REMARK SMILES IDX 47 88 53 89 46 90 48 91 49 92 50 93 51 94
REMARK H PARENT 7 8 14 28 73 47 41 58
REMARK Flexibility Score: inf
ROOT
ATOM      1  C   UNL A   1      36.649  23.046  23.582  1.00  0.00     0.002 C 
ENDROOT
BRANCH   1   2
ATOM      2  C   UNL A   1      35.180  23.444  23.761  1.00  0.00     0.002 C 
BRANCH   2   3
ATOM      3  C   UNL A   1      34.919  24.496  24.850  1.00  0.00     0.021 C 
BRANCH   3   4
ATOM      4  C   UNL A   1      33.550  25.166  24.749  1.00  0.00     0.116 C 
BRANCH   4   5
ATOM      5  N   UNL A   1      32.780  24.940  25.963  1.00  0.00    -0.350 N 
ATOM      6  C   UNL A   1      32.046  23.884  26.410  1.00  0.00     0.280 C 
ATOM      7  O   UNL A   1      31.417  24.049  27.455  1.00  0.00    -0.267 OA
ATOM      8  H   UNL A   1      32.792  25.704  26.585  1.00  0.00     0.163 HD
BRANCH   6   9
ATOM      9  C   UNL A   1      32.039  22.584  25.669  1.00  0.00     0.191 C 
ATOM     10  C   UNL A   1      33.986  21.435  26.870  1.00  0.00     0.048 C 
ATOM     11  C   UNL A   1      32.888  21.553  25.848  1.00  0.00    -0.002 C 
ATOM     12  F   UNL A   1      31.076  22.454  24.731  1.00  0.00    -0.201 F 
BRANCH  11  13
ATOM     13  C   UNL A   1      32.776  20.395  24.928  1.00  0.00    -0.017 A 
ATOM     14  C   UNL A   1      32.304  20.577  23.618  1.00  0.00     0.008 A 
ATOM     15  C   UNL A   1      33.181  19.116  25.331  1.00  0.00     0.037 A 
ATOM     16  C   UNL A   1      32.260  19.511  22.719  1.00  0.00     0.003 A 
ATOM     17  C   UNL A   1      33.149  18.045  24.424  1.00  0.00     0.069 A 
ATOM     18  C   UNL A   1      32.701  18.250  23.112  1.00  0.00     0.028 A 
BRANCH  17  19
ATOM     19  N   UNL A   1      33.582  16.761  24.820  1.00  0.00    -0.201 N 
ATOM     20  C   UNL A   1      34.860  16.285  24.966  1.00  0.00     0.252 A 
ATOM     21  N   UNL A   1      32.727  15.752  25.102  1.00  0.00    -0.040 NA
ATOM     22  N   UNL A   1      34.816  15.006  25.264  1.00  0.00    -0.117 NA
ATOM     23  N   UNL A   1      33.485  14.689  25.335  1.00  0.00    -0.024 NA
ENDBRANCH  17  19
ENDBRANCH  11  13
ENDBRANCH   6   9
ENDBRANCH   4   5
ENDBRANCH   3   4
ENDBRANCH   2   3
ENDBRANCH   1   2
BRANCH   1  24
ATOM     24  C   UNL A   1      37.028  21.680  24.160  1.00  0.00     0.021 C 
BRANCH  24  25
ATOM     25  C   UNL A   1      37.431  21.700  25.632  1.00  0.00     0.116 C 
BRANCH  25  26
ATOM     26  N   UNL A   1      38.564  20.824  25.903  1.00  0.00    -0.352 N 
ATOM     27  C   UNL A   1      39.820  21.144  26.357  1.00  0.00     0.251 C 
ATOM     28  H   UNL A   1      38.406  19.867  25.737  1.00  0.00     0.163 HD
ATOM     29  O   UNL A   1      40.711  20.299  26.353  1.00  0.00    -0.269 OA
BRANCH  27  30
ATOM     30  C   UNL A   1      40.101  22.517  26.825  1.00  0.00     0.039 A 
ATOM     31  C   UNL A   1      40.974  22.700  27.900  1.00  0.00     0.014 A 
ATOM     32  C   UNL A   1      39.528  23.620  26.186  1.00  0.00     0.014 A 
ATOM     33  C   UNL A   1      41.342  23.994  28.277  1.00  0.00     0.010 A 
ATOM     34  C   UNL A   1      39.946  24.907  26.521  1.00  0.00     0.010 A 
ATOM     35  C   UNL A   1      40.870  25.105  27.557  1.00  0.00    -0.014 A 
BRANCH  35  36
ATOM     36  C   UNL A   1      41.393  26.471  27.817  1.00  0.00     0.031 A 
ATOM     37  C   UNL A   1      42.813  26.828  27.480  1.00  0.00     0.074 A 
ATOM     38  C   UNL A   1      40.611  27.359  28.464  1.00  0.00     0.049 A 
ATOM     39  N   UNL A   1      43.460  27.940  27.716  1.00  0.00    -0.248 NA
ATOM     40  C   UNL A   1      43.620  25.796  26.810  1.00  0.00     0.031 C 
ATOM     41  C   UNL A   1      39.238  27.106  28.911  1.00  0.00     0.029 A 
ATOM     42  N   UNL A   1      40.867  28.639  28.891  1.00  0.00    -0.354 N 
ATOM     43  C   UNL A   1      44.754  27.735  27.252  1.00  0.00     0.074 A 
ATOM     44  C   UNL A   1      44.808  26.381  26.743  1.00  0.00     0.031 C 
ATOM     45  C   UNL A   1      38.778  28.191  29.552  1.00  0.00     0.029 A 
ATOM     46  C   UNL A   1      39.829  29.201  29.599  1.00  0.00     0.049 A 
ATOM     47  H   UNL A   1      41.713  29.109  28.708  1.00  0.00     0.167 HD
ATOM     48  C   UNL A   1      45.794  28.602  27.233  1.00  0.00     0.034 A 
ATOM     49  C   UNL A   1      39.740  30.385  30.234  1.00  0.00     0.034 A 
ATOM     50  C   UNL A   1      45.728  29.957  27.715  1.00  0.00     0.049 A 
ATOM     51  C   UNL A   1      40.910  31.329  30.192  1.00  0.00     0.074 A 
ATOM     52  C   UNL A   1      46.701  30.939  27.651  1.00  0.00     0.029 A 
ATOM     53  N   UNL A   1      44.640  30.515  28.367  1.00  0.00    -0.354 N 
ATOM     54  N   UNL A   1      42.069  31.180  29.597  1.00  0.00    -0.248 NA
ATOM     55  C   UNL A   1      40.752  32.616  30.885  1.00  0.00     0.031 C 
ATOM     56  C   UNL A   1      46.213  32.081  28.295  1.00  0.00     0.029 A 
ATOM     57  C   UNL A   1      44.926  31.819  28.734  1.00  0.00     0.049 A 
ATOM     58  H   UNL A   1      43.789  30.053  28.543  1.00  0.00     0.167 HD
ATOM     59  C   UNL A   1      42.768  32.360  29.825  1.00  0.00     0.074 A 
ATOM     60  C   UNL A   1      41.890  33.226  30.584  1.00  0.00     0.031 C 
ATOM     61  C   UNL A   1      44.031  32.688  29.457  1.00  0.00     0.034 A 
BRANCH  48  62
ATOM     62  C   UNL A   1      47.090  28.132  26.624  1.00  0.00     0.023 A 
ATOM     63  C   UNL A   1      48.145  27.725  27.467  1.00  0.00     0.012 A 
ATOM     64  C   UNL A   1      47.237  28.019  25.228  1.00  0.00     0.148 A 
ATOM     65  C   UNL A   1      49.337  27.241  26.929  1.00  0.00     0.002 A 
ATOM     66  C   UNL A   1      48.413  27.495  24.701  1.00  0.00     0.091 A 
ATOM     67  F   UNL A   1      46.231  28.429  24.443  1.00  0.00    -0.205 F 
ATOM     68  C   UNL A   1      49.467  27.116  25.549  1.00  0.00     0.022 A 
BRANCH  66  69
ATOM     69  S   UNL A   1      48.651  27.221  22.942  1.00  0.00     0.127 S 
ATOM     70  O   UNL A   1      50.078  27.506  22.790  1.00  0.00    -0.237 OA
ATOM     71  O   UNL A   1      48.293  25.810  22.800  1.00  0.00    -0.237 OA
ATOM     72  O   UNL A   1      47.755  28.148  22.265  1.00  0.00    -0.744 OA
ENDBRANCH  66  69
ENDBRANCH  48  62
BRANCH  49  73
ATOM     73  C   UNL A   1      38.480  30.762  30.937  1.00  0.00     0.023 A 
ATOM     74  C   UNL A   1      38.323  30.436  32.297  1.00  0.00     0.012 A 
ATOM     75  C   UNL A   1      37.451  31.458  30.273  1.00  0.00     0.148 A 
ATOM     76  C   UNL A   1      37.149  30.767  32.977  1.00  0.00     0.002 A 
ATOM     77  C   UNL A   1      36.310  31.837  30.972  1.00  0.00     0.091 A 
ATOM     78  F   UNL A   1      37.613  31.747  28.975  1.00  0.00    -0.205 F 
ATOM     79  C   UNL A   1      36.149  31.477  32.318  1.00  0.00     0.022 A 
BRANCH  77  80
ATOM     80  S   UNL A   1      35.035  32.870  30.240  1.00  0.00     0.127 S 
ATOM     81  O   UNL A   1      34.519  32.004  29.182  1.00  0.00    -0.237 OA
ATOM     82  O   UNL A   1      34.127  33.075  31.368  1.00  0.00    -0.237 OA
ATOM     83  O   UNL A   1      35.716  34.078  29.794  1.00  0.00    -0.744 OA
ENDBRANCH  77  80
ENDBRANCH  49  73
BRANCH  61  84
ATOM     84  C   UNL A   1      44.544  34.046  29.858  1.00  0.00     0.023 A 
ATOM     85  C   UNL A   1      45.298  34.184  31.041  1.00  0.00     0.012 A 
ATOM     86  C   UNL A   1      44.341  35.171  29.034  1.00  0.00     0.148 A 
ATOM     87  C   UNL A   1      45.814  35.424  31.413  1.00  0.00     0.002 A 
ATOM     88  C   UNL A   1      44.900  36.394  29.387  1.00  0.00     0.091 A 
ATOM     89  F   UNL A   1      43.607  35.023  27.921  1.00  0.00    -0.205 F 
ATOM     90  C   UNL A   1      45.625  36.524  30.582  1.00  0.00     0.022 A 
BRANCH  88  91
ATOM     91  S   UNL A   1      44.790  37.847  28.337  1.00  0.00     0.127 S 
ATOM     92  O   UNL A   1      43.352  38.115  28.349  1.00  0.00    -0.237 OA
ATOM     93  O   UNL A   1      45.599  38.820  29.071  1.00  0.00    -0.237 OA
ATOM     94  O   UNL A   1      45.338  37.455  27.045  1.00  0.00    -0.744 OA
ENDBRANCH  88  91
ENDBRANCH  61  84
ENDBRANCH  35  36
ENDBRANCH  27  30
ENDBRANCH  25  26
ENDBRANCH  24  25
ENDBRANCH   1  24
TORSDOF 18
ENDMDL
MODEL 3
REMARK VINA RESULT:     -12.4      6.631     10.153
REMARK SMILES C/C(=C(/F)C(=O)NCCCCCCNC(=O)c1ccc(-c2c3nc(c(-c4cccc(S(=O)(=O)[O-])c4F)c4ccc([nH]4)c(-c4cccc(S(=O)(=O)[O-])c4F)c4nc(c(-c5cccc(S(=O)(=O)[O-])c5F)c5ccc2[nH]5)C=C4)C=C3)cc1)c1cccc(-n2cnnn2)c1
REMARK SMILES IDX 11 1 10 2 9 3 8 4 7 5 5 6 6 7 3 9 1 10 2 11 4 12 80 13 81 14
REMARK SMILES IDX 90 15 82 16 84 17 83 18 85 19 86 20 89 21 87 22 88 23 12 24
REMARK SMILES IDX 13 25 14 26 15 27 16 29 17 30 18 31 79 32 19 33 78 34 20 35
REMARK SMILES IDX 21 36 22 37 72 38 23 39 77 40 71 41 73 42 24 43 76 44 70 45
REMARK SMILES IDX 69 46 25 48 57 49 37 50 56 51 38 52 41 53 55 54 74 55 39 56
REMARK SMILES IDX 40 57 54 59 75 60 42 61 26 62 27 63 35 64 28 65 30 66 36 67
REMARK SMILES IDX 29 68 31 69 32 70 33 71 34 72 58 73 59 74 67 75 60 76 62 77
REMARK SMILES IDX 68 78 61 79 63 80 64 81 65 82 66 83 43 84 44 85 52 86 45 87
REMARK SMILES IDX 47 88 53 89 46 90 48 91 49 92 50 93 51 94
REMARK H PARENT 7 8 14 28 73 47 41 58
REMARK Flexibility Score: inf
ROOT
ATOM      1  C   UNL A   1      32.088  30.431  26.166  1.00  0.00     0.002 C 
ENDROOT
BRANCH   1   2
ATOM      2  C   UNL A   1      31.893  29.370  27.256  1.00  0.00     0.002 C 
BRANCH   2   3
ATOM      3  C   UNL A   1      32.947  28.253  27.273  1.00  0.00     0.021 C 
BRANCH   3   4
ATOM      4  C   UNL A   1      33.691  28.081  25.950  1.00  0.00     0.116 C 
BRANCH   4   5
ATOM      5  N   UNL A   1      33.551  26.719  25.459  1.00  0.00    -0.350 N 
ATOM      6  C   UNL A   1      32.509  26.034  24.913  1.00  0.00     0.280 C 
ATOM      7  O   UNL A   1      32.686  24.836  24.692  1.00  0.00    -0.267 OA
ATOM      8  H   UNL A   1      34.375  26.184  25.539  1.00  0.00     0.163 HD
BRANCH   6   9
ATOM      9  C   UNL A   1      31.226  26.727  24.576  1.00  0.00     0.191 C 
ATOM     10  C   UNL A   1      31.532  26.912  22.041  1.00  0.00     0.048 C 
ATOM     11  C   UNL A   1      30.826  27.127  23.352  1.00  0.00    -0.002 C 
ATOM     12  F   UNL A   1      30.402  26.966  25.619  1.00  0.00    -0.201 F 
BRANCH  11  13
ATOM     13  C   UNL A   1      29.564  27.900  23.254  1.00  0.00    -0.017 A 
ATOM     14  C   UNL A   1      28.334  27.282  23.531  1.00  0.00     0.008 A 
ATOM     15  C   UNL A   1      29.581  29.263  22.931  1.00  0.00     0.037 A 
ATOM     16  C   UNL A   1      27.146  28.013  23.510  1.00  0.00     0.003 A 
ATOM     17  C   UNL A   1      28.387  30.003  22.923  1.00  0.00     0.069 A 
ATOM     18  C   UNL A   1      27.172  29.377  23.228  1.00  0.00     0.028 A 
BRANCH  17  19
ATOM     19  N   UNL A   1      28.406  31.383  22.624  1.00  0.00    -0.201 N 
ATOM     20  C   UNL A   1      28.823  32.432  23.402  1.00  0.00     0.252 A 
ATOM     21  N   UNL A   1      27.953  31.887  21.453  1.00  0.00    -0.040 NA
ATOM     22  N   UNL A   1      28.584  33.561  22.775  1.00  0.00    -0.117 NA
ATOM     23  N   UNL A   1      28.035  33.205  21.570  1.00  0.00    -0.024 NA
ENDBRANCH  17  19
ENDBRANCH  11  13
ENDBRANCH   6   9
ENDBRANCH   4   5
ENDBRANCH   3   4
ENDBRANCH   2   3
ENDBRANCH   1   2
BRANCH   1  24
ATOM     24  C   UNL A   1      31.780  31.867  26.595  1.00  0.00     0.021 C 
BRANCH  24  25
ATOM     25  C   UNL A   1      32.906  32.560  27.358  1.00  0.00     0.116 C 
BRANCH  25  26
ATOM     26  N   UNL A   1      32.600  33.957  27.639  1.00  0.00    -0.352 N 
ATOM     27  C   UNL A   1      33.086  34.769  28.635  1.00  0.00     0.251 C 
ATOM     28  H   UNL A   1      31.954  34.378  27.029  1.00  0.00     0.163 HD
ATOM     29  O   UNL A   1      32.579  35.869  28.836  1.00  0.00    -0.269 OA
BRANCH  27  30
ATOM     30  C   UNL A   1      34.204  34.300  29.481  1.00  0.00     0.039 A 
ATOM     31  C   UNL A   1      33.917  33.682  30.700  1.00  0.00     0.014 A 
ATOM     32  C   UNL A   1      35.528  34.447  29.059  1.00  0.00     0.014 A 
ATOM     33  C   UNL A   1      34.954  33.128  31.454  1.00  0.00     0.010 A 
ATOM     34  C   UNL A   1      36.554  33.839  29.780  1.00  0.00     0.010 A 
ATOM     35  C   UNL A   1      36.275  33.158  30.974  1.00  0.00    -0.014 A 
BRANCH  35  36
ATOM     36  C   UNL A   1      37.363  32.416  31.662  1.00  0.00     0.031 A 
ATOM     37  C   UNL A   1      37.892  32.883  32.989  1.00  0.00     0.074 A 
ATOM     38  C   UNL A   1      37.949  31.379  31.030  1.00  0.00     0.049 A 
ATOM     39  N   UNL A   1      38.892  32.410  33.687  1.00  0.00    -0.248 NA
ATOM     40  C   UNL A   1      37.229  34.045  33.601  1.00  0.00     0.031 C 
ATOM     41  C   UNL A   1      37.574  30.877  29.705  1.00  0.00     0.029 A 
ATOM     42  N   UNL A   1      39.006  30.584  31.397  1.00  0.00    -0.354 N 
ATOM     43  C   UNL A   1      38.998  33.229  34.805  1.00  0.00     0.074 A 
ATOM     44  C   UNL A   1      37.975  34.246  34.678  1.00  0.00     0.031 C 
ATOM     45  C   UNL A   1      38.390  29.866  29.371  1.00  0.00     0.029 A 
ATOM     46  C   UNL A   1      39.370  29.672  30.433  1.00  0.00     0.049 A 
ATOM     47  H   UNL A   1      39.460  30.659  32.268  1.00  0.00     0.167 HD
ATOM     48  C   UNL A   1      39.853  33.130  35.850  1.00  0.00     0.034 A 
ATOM     49  C   UNL A   1      40.391  28.793  30.396  1.00  0.00     0.034 A 
ATOM     50  C   UNL A   1      40.851  32.101  35.985  1.00  0.00     0.049 A 
ATOM     51  C   UNL A   1      41.322  28.703  31.573  1.00  0.00     0.074 A 
ATOM     52  C   UNL A   1      41.699  31.863  37.052  1.00  0.00     0.029 A 
ATOM     53  N   UNL A   1      41.148  31.153  35.020  1.00  0.00    -0.354 N 
ATOM     54  N   UNL A   1      41.298  29.376  32.698  1.00  0.00    -0.248 NA
ATOM     55  C   UNL A   1      42.407  27.714  31.489  1.00  0.00     0.031 C 
ATOM     56  C   UNL A   1      42.533  30.791  36.717  1.00  0.00     0.029 A 
ATOM     57  C   UNL A   1      42.185  30.343  35.454  1.00  0.00     0.049 A 
ATOM     58  H   UNL A   1      40.690  31.066  34.153  1.00  0.00     0.167 HD
ATOM     59  C   UNL A   1      42.346  28.877  33.463  1.00  0.00     0.074 A 
ATOM     60  C   UNL A   1      42.965  27.824  32.686  1.00  0.00     0.031 C 
ATOM     61  C   UNL A   1      42.771  29.271  34.689  1.00  0.00     0.034 A 
BRANCH  48  62
ATOM     62  C   UNL A   1      39.721  34.136  36.965  1.00  0.00     0.023 A 
ATOM     63  C   UNL A   1      40.077  35.480  36.732  1.00  0.00     0.012 A 
ATOM     64  C   UNL A   1      39.175  33.770  38.211  1.00  0.00     0.148 A 
ATOM     65  C   UNL A   1      39.919  36.439  37.731  1.00  0.00     0.002 A 
ATOM     66  C   UNL A   1      38.982  34.741  39.187  1.00  0.00     0.091 A 
ATOM     67  F   UNL A   1      38.862  32.484  38.419  1.00  0.00    -0.205 F 
ATOM     68  C   UNL A   1      39.362  36.073  38.954  1.00  0.00     0.022 A 
BRANCH  66  69
ATOM     69  S   UNL A   1      38.201  34.388  40.767  1.00  0.00     0.127 S 
ATOM     70  O   UNL A   1      37.935  35.735  41.271  1.00  0.00    -0.237 OA
ATOM     71  O   UNL A   1      37.010  33.642  40.361  1.00  0.00    -0.237 OA
ATOM     72  O   UNL A   1      39.172  33.617  41.531  1.00  0.00    -0.744 OA
ENDBRANCH  66  69
ENDBRANCH  48  62
BRANCH  49  73
ATOM     73  C   UNL A   1      40.564  27.901  29.214  1.00  0.00     0.023 A 
ATOM     74  C   UNL A   1      39.805  26.720  29.120  1.00  0.00     0.012 A 
ATOM     75  C   UNL A   1      41.459  28.227  28.176  1.00  0.00     0.148 A 
ATOM     76  C   UNL A   1      39.955  25.862  28.030  1.00  0.00     0.002 A 
ATOM     77  C   UNL A   1      41.561  27.398  27.064  1.00  0.00     0.091 A 
ATOM     78  F   UNL A   1      42.184  29.349  28.289  1.00  0.00    -0.205 F 
ATOM     79  C   UNL A   1      40.824  26.207  26.998  1.00  0.00     0.022 A 
BRANCH  77  80
ATOM     80  S   UNL A   1      42.551  27.833  25.629  1.00  0.00     0.127 S 
ATOM     81  O   UNL A   1      41.931  29.087  25.207  1.00  0.00    -0.237 OA
ATOM     82  O   UNL A   1      43.885  27.970  26.212  1.00  0.00    -0.237 OA
ATOM     83  O   UNL A   1      42.414  26.716  24.705  1.00  0.00    -0.744 OA
ENDBRANCH  77  80
ENDBRANCH  49  73
BRANCH  61  84
ATOM     84  C   UNL A   1      43.958  28.556  35.279  1.00  0.00     0.023 A 
ATOM     85  C   UNL A   1      45.258  28.895  34.851  1.00  0.00     0.012 A 
ATOM     86  C   UNL A   1      43.794  27.601  36.302  1.00  0.00     0.148 A 
ATOM     87  C   UNL A   1      46.373  28.272  35.410  1.00  0.00     0.002 A 
ATOM     88  C   UNL A   1      44.913  27.021  36.888  1.00  0.00     0.091 A 
ATOM     89  F   UNL A   1      42.549  27.281  36.684  1.00  0.00    -0.205 F 
ATOM     90  C   UNL A   1      46.202  27.346  36.434  1.00  0.00     0.022 A 
BRANCH  88  91
ATOM     91  S   UNL A   1      44.799  25.885  38.275  1.00  0.00     0.127 S 
ATOM     92  O   UNL A   1      44.091  26.694  39.266  1.00  0.00    -0.237 OA
ATOM     93  O   UNL A   1      44.017  24.786  37.711  1.00  0.00    -0.237 OA
ATOM     94  O   UNL A   1      46.170  25.536  38.624  1.00  0.00    -0.744 OA
ENDBRANCH  88  91
ENDBRANCH  61  84
ENDBRANCH  35  36
ENDBRANCH  27  30
ENDBRANCH  25  26
ENDBRANCH  24  25
ENDBRANCH   1  24
TORSDOF 18
ENDMDL
