MODEL 1
REMARK VINA RESULT:     -11.1      0.000      0.000
REMARK SMILES Cc1cc(NCc2ccco2)cc(C(=O)NCCCCCCNC(=O)c2ccc(-c3c4nc(c(-c5cccc(S(=O)(=O)[O-])c5F)c5ccc([nH]5)c(-c5cccc(S(=O)(=O)[O-])c5F)c5nc(c(-c6cccc(S(=O)(=O)[O-])c6F)c6ccc3[nH]6)C=C5)C=C4)cc2)c1N
REMARK SMILES IDX 19 1 18 2 17 3 16 4 14 5 15 6 13 8 1 9 2 10 3 11 89 12 4 13
REMARK SMILES IDX 12 14 90 15 5 18 6 20 7 21 8 22 11 23 9 24 10 25 20 26 21 27
REMARK SMILES IDX 22 28 23 29 24 30 25 32 26 33 27 34 88 35 28 36 87 37 29 38
REMARK SMILES IDX 30 39 31 40 81 41 32 42 86 43 80 44 82 45 33 46 85 47 79 48
REMARK SMILES IDX 78 49 34 51 66 52 46 53 65 54 47 55 50 56 64 57 83 58 48 59
REMARK SMILES IDX 49 60 63 62 84 63 51 64 35 65 36 66 44 67 37 68 39 69 45 70
REMARK SMILES IDX 38 71 40 72 41 73 42 74 43 75 67 76 68 77 76 78 69 79 71 80
REMARK SMILES IDX 77 81 70 82 72 83 73 84 74 85 75 86 52 87 53 88 61 89 54 90
REMARK SMILES IDX 56 91 62 92 55 93 57 94 58 95 59 96 60 97
REMARK H PARENT 16 7 90 16 90 17 5 19 23 31 82 50 50 61
REMARK Flexibility Score: inf
ROOT
ATOM      1  C   UNL A   1      31.800  29.055  26.918  1.00  0.00     0.002 C 
ENDROOT
BRANCH   1   2
ATOM      2  C   UNL A   1      31.302  27.807  26.176  1.00  0.00     0.021 C 
BRANCH   2   3
ATOM      3  C   UNL A   1      32.156  26.567  26.464  1.00  0.00     0.116 C 
BRANCH   3   4
ATOM      4  N   UNL A   1      31.309  25.510  26.979  1.00  0.00    -0.352 N 
ATOM      5  C   UNL A   1      30.979  24.256  26.527  1.00  0.00     0.253 C 
ATOM      6  O   UNL A   1      30.121  23.658  27.186  1.00  0.00    -0.269 OA
ATOM      7  H   UNL A   1      30.879  25.740  27.833  1.00  0.00     0.163 HD
BRANCH   5   8
ATOM      8  C   UNL A   1      31.631  23.581  25.353  1.00  0.00     0.065 A 
ATOM      9  C   UNL A   1      33.755  20.483  24.610  1.00  0.00     0.046 C 
ATOM     10  C   UNL A   1      33.015  21.786  24.468  1.00  0.00    -0.025 A 
ATOM     11  C   UNL A   1      32.994  22.421  23.212  1.00  0.00     0.031 A 
ATOM     12  C   UNL A   1      32.345  22.374  25.558  1.00  0.00     0.047 A 
ATOM     13  C   UNL A   1      32.282  23.603  22.987  1.00  0.00     0.036 A 
ATOM     14  C   UNL A   1      31.523  24.092  24.050  1.00  0.00     0.041 A 
BRANCH  12  15
ATOM     15  N   UNL A   1      32.512  21.830  26.839  1.00  0.00    -0.398 N 
ATOM     16  H   UNL A   1      31.728  21.529  27.353  1.00  0.00     0.156 HD
ATOM     17  H   UNL A   1      33.414  21.750  27.226  1.00  0.00     0.156 HD
ENDBRANCH  12  15
BRANCH  13  18
ATOM     18  N   UNL A   1      32.302  24.170  21.729  1.00  0.00    -0.378 N 
ATOM     19  H   UNL A   1      31.775  23.719  21.030  1.00  0.00     0.161 HD
BRANCH  18  20
ATOM     20  C   UNL A   1      33.028  25.373  21.329  1.00  0.00     0.188 C 
BRANCH  20  21
ATOM     21  C   UNL A   1      32.473  26.663  21.837  1.00  0.00     0.122 A 
ATOM     22  C   UNL A   1      33.026  27.739  22.505  1.00  0.00     0.047 A 
ATOM     23  O   UNL A   1      31.122  26.838  21.716  1.00  0.00    -0.467 OA
ATOM     24  C   UNL A   1      31.950  28.596  22.845  1.00  0.00     0.042 A 
ATOM     25  C   UNL A   1      30.815  28.004  22.342  1.00  0.00     0.195 A 
ENDBRANCH  20  21
ENDBRANCH  18  20
ENDBRANCH  13  18
ENDBRANCH   5   8
ENDBRANCH   3   4
ENDBRANCH   2   3
ENDBRANCH   1   2
BRANCH   1  26
ATOM     26  C   UNL A   1      31.935  30.303  26.038  1.00  0.00     0.002 C 
BRANCH  26  27
ATOM     27  C   UNL A   1      31.693  31.628  26.767  1.00  0.00     0.021 C 
BRANCH  27  28
ATOM     28  C   UNL A   1      32.969  32.318  27.238  1.00  0.00     0.116 C 
BRANCH  28  29
ATOM     29  N   UNL A   1      32.717  33.704  27.601  1.00  0.00    -0.352 N 
ATOM     30  C   UNL A   1      33.224  34.429  28.651  1.00  0.00     0.251 C 
ATOM     31  H   UNL A   1      32.097  34.190  27.011  1.00  0.00     0.163 HD
ATOM     32  O   UNL A   1      32.712  35.498  28.964  1.00  0.00    -0.269 OA
BRANCH  30  33
ATOM     33  C   UNL A   1      34.385  33.910  29.402  1.00  0.00     0.039 A 
ATOM     34  C   UNL A   1      34.172  33.015  30.452  1.00  0.00     0.014 A 
ATOM     35  C   UNL A   1      35.682  34.319  29.076  1.00  0.00     0.014 A 
ATOM     36  C   UNL A   1      35.265  32.493  31.145  1.00  0.00     0.010 A 
ATOM     37  C   UNL A   1      36.772  33.742  29.717  1.00  0.00     0.010 A 
ATOM     38  C   UNL A   1      36.575  32.832  30.767  1.00  0.00    -0.014 A 
BRANCH  38  39
ATOM     39  C   UNL A   1      37.752  32.243  31.453  1.00  0.00     0.031 A 
ATOM     40  C   UNL A   1      38.514  31.113  30.813  1.00  0.00     0.074 A 
ATOM     41  C   UNL A   1      38.082  32.667  32.689  1.00  0.00     0.049 A 
ATOM     42  N   UNL A   1      39.527  30.433  31.283  1.00  0.00    -0.248 NA
ATOM     43  C   UNL A   1      38.062  30.669  29.483  1.00  0.00     0.031 C 
ATOM     44  C   UNL A   1      37.372  33.701  33.446  1.00  0.00     0.029 A 
ATOM     45  N   UNL A   1      39.081  32.263  33.539  1.00  0.00    -0.354 N 
ATOM     46  C   UNL A   1      39.811  29.463  30.328  1.00  0.00     0.074 A 
ATOM     47  C   UNL A   1      38.843  29.621  29.267  1.00  0.00     0.031 C 
ATOM     48  C   UNL A   1      37.957  33.850  34.644  1.00  0.00     0.029 A 
ATOM     49  C   UNL A   1      39.062  32.904  34.756  1.00  0.00     0.049 A 
ATOM     50  H   UNL A   1      39.747  31.579  33.300  1.00  0.00     0.167 HD
ATOM     51  C   UNL A   1      40.804  28.544  30.324  1.00  0.00     0.034 A 
ATOM     52  C   UNL A   1      39.841  32.739  35.845  1.00  0.00     0.034 A 
ATOM     53  C   UNL A   1      41.792  28.421  31.362  1.00  0.00     0.049 A 
ATOM     54  C   UNL A   1      40.962  31.736  35.794  1.00  0.00     0.074 A 
ATOM     55  C   UNL A   1      42.891  27.582  31.407  1.00  0.00     0.029 A 
ATOM     56  N   UNL A   1      41.795  29.149  32.541  1.00  0.00    -0.354 N 
ATOM     57  N   UNL A   1      41.312  30.939  34.814  1.00  0.00    -0.248 NA
ATOM     58  C   UNL A   1      41.820  31.636  36.983  1.00  0.00     0.031 C 
ATOM     59  C   UNL A   1      43.544  27.784  32.627  1.00  0.00     0.029 A 
ATOM     60  C   UNL A   1      42.871  28.773  33.326  1.00  0.00     0.049 A 
ATOM     61  H   UNL A   1      41.130  29.833  32.784  1.00  0.00     0.167 HD
ATOM     62  C   UNL A   1      42.452  30.274  35.252  1.00  0.00     0.074 A 
ATOM     63  C   UNL A   1      42.745  30.777  36.578  1.00  0.00     0.031 C 
ATOM     64  C   UNL A   1      43.182  29.323  34.619  1.00  0.00     0.034 A 
BRANCH  51  65
ATOM     65  C   UNL A   1      40.909  27.624  29.134  1.00  0.00     0.023 A 
ATOM     66  C   UNL A   1      40.094  26.476  29.067  1.00  0.00     0.012 A 
ATOM     67  C   UNL A   1      41.753  27.936  28.051  1.00  0.00     0.148 A 
ATOM     68  C   UNL A   1      40.139  25.635  27.956  1.00  0.00     0.002 A 
ATOM     69  C   UNL A   1      41.759  27.120  26.926  1.00  0.00     0.091 A 
ATOM     70  F   UNL A   1      42.534  29.022  28.142  1.00  0.00    -0.205 F 
ATOM     71  C   UNL A   1      40.962  25.964  26.882  1.00  0.00     0.022 A 
BRANCH  69  72
ATOM     72  S   UNL A   1      42.721  27.497  25.457  1.00  0.00     0.127 S 
ATOM     73  O   UNL A   1      42.475  26.315  24.631  1.00  0.00    -0.237 OA
ATOM     74  O   UNL A   1      42.078  28.720  24.977  1.00  0.00    -0.237 OA
ATOM     75  O   UNL A   1      44.095  27.667  25.907  1.00  0.00    -0.744 OA
ENDBRANCH  69  72
ENDBRANCH  51  65
BRANCH  52  76
ATOM     76  C   UNL A   1      39.623  33.582  37.055  1.00  0.00     0.023 A 
ATOM     77  C   UNL A   1      38.609  33.236  37.968  1.00  0.00     0.012 A 
ATOM     78  C   UNL A   1      40.422  34.713  37.313  1.00  0.00     0.148 A 
ATOM     79  C   UNL A   1      38.365  34.024  39.093  1.00  0.00     0.002 A 
ATOM     80  C   UNL A   1      40.215  35.459  38.466  1.00  0.00     0.091 A 
ATOM     81  F   UNL A   1      41.378  35.032  36.428  1.00  0.00    -0.205 F 
ATOM     82  C   UNL A   1      39.174  35.129  39.348  1.00  0.00     0.022 A 
BRANCH  80  83
ATOM     83  S   UNL A   1      41.296  36.813  38.942  1.00  0.00     0.127 S 
ATOM     84  O   UNL A   1      40.338  37.816  39.397  1.00  0.00    -0.237 OA
ATOM     85  O   UNL A   1      42.101  36.202  40.000  1.00  0.00    -0.237 OA
ATOM     86  O   UNL A   1      42.049  37.154  37.742  1.00  0.00    -0.744 OA
ENDBRANCH  80  83
ENDBRANCH  52  76
BRANCH  64  87
ATOM     87  C   UNL A   1      44.401  28.790  35.327  1.00  0.00     0.023 A 
ATOM     88  C   UNL A   1      45.666  29.356  35.075  1.00  0.00     0.012 A 
ATOM     89  C   UNL A   1      44.276  27.780  36.302  1.00  0.00     0.148 A 
ATOM     90  C   UNL A   1      46.794  28.899  35.755  1.00  0.00     0.002 A 
ATOM     91  C   UNL A   1      45.395  27.367  37.014  1.00  0.00     0.091 A 
ATOM     92  F   UNL A   1      43.065  27.243  36.515  1.00  0.00    -0.205 F 
ATOM     93  C   UNL A   1      46.656  27.915  36.733  1.00  0.00     0.022 A 
BRANCH  91  94
ATOM     94  S   UNL A   1      45.297  26.179  38.357  1.00  0.00     0.127 S 
ATOM     95  O   UNL A   1      45.119  24.922  37.631  1.00  0.00    -0.237 OA
ATOM     96  O   UNL A   1      46.603  26.332  39.000  1.00  0.00    -0.237 OA
ATOM     97  O   UNL A   1      44.167  26.592  39.178  1.00  0.00    -0.744 OA
ENDBRANCH  91  94
ENDBRANCH  64  87
ENDBRANCH  38  39
ENDBRANCH  30  33
ENDBRANCH  28  29
ENDBRANCH  27  28
ENDBRANCH  26  27
ENDBRANCH   1  26
TORSDOF 20
ENDMDL
MODEL 2
REMARK VINA RESULT:     -11.1      5.425      8.396
REMARK SMILES Cc1cc(NCc2ccco2)cc(C(=O)NCCCCCCNC(=O)c2ccc(-c3c4nc(c(-c5cccc(S(=O)(=O)[O-])c5F)c5ccc([nH]5)c(-c5cccc(S(=O)(=O)[O-])c5F)c5nc(c(-c6cccc(S(=O)(=O)[O-])c6F)c6ccc3[nH]6)C=C5)C=C4)cc2)c1N
REMARK SMILES IDX 19 1 18 2 17 3 16 4 14 5 15 6 13 8 1 9 2 10 3 11 89 12 4 13
REMARK SMILES IDX 12 14 90 15 5 18 6 20 7 21 8 22 11 23 9 24 10 25 20 26 21 27
REMARK SMILES IDX 22 28 23 29 24 30 25 32 26 33 27 34 88 35 28 36 87 37 29 38
REMARK SMILES IDX 30 39 31 40 81 41 32 42 86 43 80 44 82 45 33 46 85 47 79 48
REMARK SMILES IDX 78 49 34 51 66 52 46 53 65 54 47 55 50 56 64 57 83 58 48 59
REMARK SMILES IDX 49 60 63 62 84 63 51 64 35 65 36 66 44 67 37 68 39 69 45 70
REMARK SMILES IDX 38 71 40 72 41 73 42 74 43 75 67 76 68 77 76 78 69 79 71 80
REMARK SMILES IDX 77 81 70 82 72 83 73 84 74 85 75 86 52 87 53 88 61 89 54 90
REMARK SMILES IDX 56 91 62 92 55 93 57 94 58 95 59 96 60 97
REMARK H PARENT 16 7 90 16 90 17 5 19 23 31 82 50 50 61
REMARK Flexibility Score: inf
ROOT
ATOM      1  C   UNL A   1      33.611  23.735  23.315  1.00  0.00     0.002 C 
ENDROOT
BRANCH   1   2
ATOM      2  C   UNL A   1      32.525  22.956  24.070  1.00  0.00     0.021 C 
BRANCH   2   3
ATOM      3  C   UNL A   1      31.108  23.413  23.706  1.00  0.00     0.116 C 
BRANCH   3   4
ATOM      4  N   UNL A   1      30.439  23.897  24.899  1.00  0.00    -0.352 N 
ATOM      5  C   UNL A   1      30.051  25.142  25.327  1.00  0.00     0.253 C 
ATOM      6  O   UNL A   1      29.593  25.195  26.474  1.00  0.00    -0.269 OA
ATOM      7  H   UNL A   1      30.218  23.181  25.535  1.00  0.00     0.163 HD
BRANCH   5   8
ATOM      8  C   UNL A   1      30.098  26.382  24.478  1.00  0.00     0.065 A 
ATOM      9  C   UNL A   1      27.689  28.726  22.646  1.00  0.00     0.046 C 
ATOM     10  C   UNL A   1      28.941  28.060  23.149  1.00  0.00    -0.025 A 
ATOM     11  C   UNL A   1      30.190  28.575  22.756  1.00  0.00     0.031 A 
ATOM     12  C   UNL A   1      28.885  26.942  24.004  1.00  0.00     0.047 A 
ATOM     13  C   UNL A   1      31.395  28.047  23.226  1.00  0.00     0.036 A 
ATOM     14  C   UNL A   1      31.308  27.025  24.171  1.00  0.00     0.041 A 
BRANCH  12  15
ATOM     15  N   UNL A   1      27.649  26.330  24.253  1.00  0.00    -0.398 N 
ATOM     16  H   UNL A   1      27.056  26.097  23.504  1.00  0.00     0.156 HD
ATOM     17  H   UNL A   1      27.375  26.132  25.178  1.00  0.00     0.156 HD
ENDBRANCH  12  15
BRANCH  13  18
ATOM     18  N   UNL A   1      32.585  28.604  22.801  1.00  0.00    -0.378 N 
ATOM     19  H   UNL A   1      32.605  28.960  21.884  1.00  0.00     0.161 HD
BRANCH  18  20
ATOM     20  C   UNL A   1      33.818  28.716  23.576  1.00  0.00     0.188 C 
BRANCH  20  21
ATOM     21  C   UNL A   1      33.644  28.973  25.036  1.00  0.00     0.122 A 
ATOM     22  C   UNL A   1      34.024  28.288  26.174  1.00  0.00     0.047 A 
ATOM     23  O   UNL A   1      32.888  30.059  25.381  1.00  0.00    -0.467 OA
ATOM     24  C   UNL A   1      33.435  28.969  27.268  1.00  0.00     0.042 A 
ATOM     25  C   UNL A   1      32.756  30.038  26.733  1.00  0.00     0.195 A 
ENDBRANCH  20  21
ENDBRANCH  18  20
ENDBRANCH  13  18
ENDBRANCH   5   8
ENDBRANCH   3   4
ENDBRANCH   2   3
ENDBRANCH   1   2
BRANCH   1  26
ATOM     26  C   UNL A   1      34.815  24.137  24.175  1.00  0.00     0.002 C 
BRANCH  26  27
ATOM     27  C   UNL A   1      35.670  22.963  24.663  1.00  0.00     0.021 C 
BRANCH  27  28
ATOM     28  C   UNL A   1      36.419  23.241  25.962  1.00  0.00     0.116 C 
BRANCH  28  29
ATOM     29  N   UNL A   1      37.543  22.333  26.129  1.00  0.00    -0.352 N 
ATOM     30  C   UNL A   1      38.863  22.624  26.370  1.00  0.00     0.251 C 
ATOM     31  H   UNL A   1      37.327  21.375  26.059  1.00  0.00     0.163 HD
ATOM     32  O   UNL A   1      39.720  21.760  26.224  1.00  0.00    -0.269 OA
BRANCH  30  33
ATOM     33  C   UNL A   1      39.241  23.986  26.801  1.00  0.00     0.039 A 
ATOM     34  C   UNL A   1      38.917  24.405  28.093  1.00  0.00     0.014 A 
ATOM     35  C   UNL A   1      39.900  24.851  25.923  1.00  0.00     0.014 A 
ATOM     36  C   UNL A   1      39.299  25.678  28.520  1.00  0.00     0.010 A 
ATOM     37  C   UNL A   1      40.346  26.089  26.374  1.00  0.00     0.010 A 
ATOM     38  C   UNL A   1      40.039  26.520  27.674  1.00  0.00    -0.014 A 
BRANCH  38  39
ATOM     39  C   UNL A   1      40.505  27.854  28.130  1.00  0.00     0.031 A 
ATOM     40  C   UNL A   1      41.978  28.159  28.194  1.00  0.00     0.074 A 
ATOM     41  C   UNL A   1      39.606  28.758  28.566  1.00  0.00     0.049 A 
ATOM     42  N   UNL A   1      42.576  29.241  28.620  1.00  0.00    -0.248 NA
ATOM     43  C   UNL A   1      42.901  27.101  27.749  1.00  0.00     0.031 C 
ATOM     44  C   UNL A   1      38.158  28.551  28.625  1.00  0.00     0.029 A 
ATOM     45  N   UNL A   1      39.779  30.024  29.068  1.00  0.00    -0.354 N 
ATOM     46  C   UNL A   1      43.939  28.983  28.529  1.00  0.00     0.074 A 
ATOM     47  C   UNL A   1      44.081  27.631  28.038  1.00  0.00     0.031 C 
ATOM     48  C   UNL A   1      37.576  29.648  29.133  1.00  0.00     0.029 A 
ATOM     49  C   UNL A   1      38.607  30.625  29.465  1.00  0.00     0.049 A 
ATOM     50  H   UNL A   1      40.659  30.460  29.138  1.00  0.00     0.167 HD
ATOM     51  C   UNL A   1      44.978  29.807  28.802  1.00  0.00     0.034 A 
ATOM     52  C   UNL A   1      38.390  31.824  30.042  1.00  0.00     0.034 A 
ATOM     53  C   UNL A   1      44.831  31.166  29.248  1.00  0.00     0.049 A 
ATOM     54  C   UNL A   1      39.561  32.734  30.297  1.00  0.00     0.074 A 
ATOM     55  C   UNL A   1      45.818  32.111  29.466  1.00  0.00     0.029 A 
ATOM     56  N   UNL A   1      43.622  31.772  29.554  1.00  0.00    -0.354 N 
ATOM     57  N   UNL A   1      40.833  32.530  30.051  1.00  0.00    -0.248 NA
ATOM     58  C   UNL A   1      39.266  34.054  30.872  1.00  0.00     0.031 C 
ATOM     59  C   UNL A   1      45.208  33.280  29.930  1.00  0.00     0.029 A 
ATOM     60  C   UNL A   1      43.838  33.075  29.969  1.00  0.00     0.049 A 
ATOM     61  H   UNL A   1      42.740  31.340  29.486  1.00  0.00     0.167 HD
ATOM     62  C   UNL A   1      41.483  33.707  30.404  1.00  0.00     0.074 A 
ATOM     63  C   UNL A   1      40.461  34.627  30.860  1.00  0.00     0.031 C 
ATOM     64  C   UNL A   1      42.806  33.997  30.366  1.00  0.00     0.034 A 
BRANCH  51  65
ATOM     65  C   UNL A   1      46.373  29.282  28.580  1.00  0.00     0.023 A 
ATOM     66  C   UNL A   1      47.205  29.022  29.688  1.00  0.00     0.012 A 
ATOM     67  C   UNL A   1      46.832  28.973  27.285  1.00  0.00     0.148 A 
ATOM     68  C   UNL A   1      48.482  28.493  29.511  1.00  0.00     0.002 A 
ATOM     69  C   UNL A   1      48.087  28.401  27.118  1.00  0.00     0.091 A 
ATOM     70  F   UNL A   1      46.033  29.245  26.243  1.00  0.00    -0.205 F 
ATOM     71  C   UNL A   1      48.918  28.171  28.228  1.00  0.00     0.022 A 
BRANCH  69  72
ATOM     72  S   UNL A   1      48.711  27.875  25.518  1.00  0.00     0.127 S 
ATOM     73  O   UNL A   1      47.655  28.343  24.621  1.00  0.00    -0.237 OA
ATOM     74  O   UNL A   1      49.967  28.619  25.421  1.00  0.00    -0.237 OA
ATOM     75  O   UNL A   1      48.864  26.430  25.600  1.00  0.00    -0.744 OA
ENDBRANCH  69  72
ENDBRANCH  51  65
BRANCH  52  76
ATOM     76  C   UNL A   1      37.001  32.257  30.367  1.00  0.00     0.023 A 
ATOM     77  C   UNL A   1      36.473  31.994  31.645  1.00  0.00     0.012 A 
ATOM     78  C   UNL A   1      36.206  32.938  29.423  1.00  0.00     0.148 A 
ATOM     79  C   UNL A   1      35.166  32.364  31.966  1.00  0.00     0.002 A 
ATOM     80  C   UNL A   1      34.927  33.356  29.768  1.00  0.00     0.091 A 
ATOM     81  F   UNL A   1      36.721  33.171  28.207  1.00  0.00    -0.205 F 
ATOM     82  C   UNL A   1      34.397  33.052  31.032  1.00  0.00     0.022 A 
BRANCH  80  83
ATOM     83  S   UNL A   1      33.921  34.367  28.677  1.00  0.00     0.127 S 
ATOM     84  O   UNL A   1      33.529  33.405  27.651  1.00  0.00    -0.237 OA
ATOM     85  O   UNL A   1      32.841  34.794  29.567  1.00  0.00    -0.237 OA
ATOM     86  O   UNL A   1      34.789  35.450  28.232  1.00  0.00    -0.744 OA
ENDBRANCH  80  83
ENDBRANCH  52  76
BRANCH  64  87
ATOM     87  C   UNL A   1      43.233  35.380  30.785  1.00  0.00     0.023 A 
ATOM     88  C   UNL A   1      43.622  35.625  32.117  1.00  0.00     0.012 A 
ATOM     89  C   UNL A   1      43.321  36.418  29.836  1.00  0.00     0.148 A 
ATOM     90  C   UNL A   1      44.058  36.890  32.505  1.00  0.00     0.002 A 
ATOM     91  C   UNL A   1      43.806  37.662  30.219  1.00  0.00     0.091 A 
ATOM     92  F   UNL A   1      42.929  36.169  28.578  1.00  0.00    -0.205 F 
ATOM     93  C   UNL A   1      44.163  37.904  31.555  1.00  0.00     0.022 A 
BRANCH  91  94
ATOM     94  S   UNL A   1      44.069  38.996  29.045  1.00  0.00     0.127 S 
ATOM     95  O   UNL A   1      44.909  39.911  29.816  1.00  0.00    -0.237 OA
ATOM     96  O   UNL A   1      44.757  38.312  27.949  1.00  0.00    -0.237 OA
ATOM     97  O   UNL A   1      42.745  39.501  28.706  1.00  0.00    -0.744 OA
ENDBRANCH  91  94
ENDBRANCH  64  87
ENDBRANCH  38  39
ENDBRANCH  30  33
ENDBRANCH  28  29
ENDBRANCH  27  28
ENDBRANCH  26  27
ENDBRANCH   1  26
TORSDOF 20
ENDMDL
MODEL 3
REMARK VINA RESULT:     -11.0      5.899      9.120
REMARK SMILES Cc1cc(NCc2ccco2)cc(C(=O)NCCCCCCNC(=O)c2ccc(-c3c4nc(c(-c5cccc(S(=O)(=O)[O-])c5F)c5ccc([nH]5)c(-c5cccc(S(=O)(=O)[O-])c5F)c5nc(c(-c6cccc(S(=O)(=O)[O-])c6F)c6ccc3[nH]6)C=C5)C=C4)cc2)c1N
REMARK SMILES IDX 19 1 18 2 17 3 16 4 14 5 15 6 13 8 1 9 2 10 3 11 89 12 4 13
REMARK SMILES IDX 12 14 90 15 5 18 6 20 7 21 8 22 11 23 9 24 10 25 20 26 21 27
REMARK SMILES IDX 22 28 23 29 24 30 25 32 26 33 27 34 88 35 28 36 87 37 29 38
REMARK SMILES IDX 30 39 31 40 81 41 32 42 86 43 80 44 82 45 33 46 85 47 79 48
REMARK SMILES IDX 78 49 34 51 66 52 46 53 65 54 47 55 50 56 64 57 83 58 48 59
REMARK SMILES IDX 49 60 63 62 84 63 51 64 35 65 36 66 44 67 37 68 39 69 45 70
REMARK SMILES IDX 38 71 40 72 41 73 42 74 43 75 67 76 68 77 76 78 69 79 71 80
REMARK SMILES IDX 77 81 70 82 72 83 73 84 74 85 75 86 52 87 53 88 61 89 54 90
REMARK SMILES IDX 56 91 62 92 55 93 57 94 58 95 59 96 60 97
REMARK H PARENT 16 7 90 16 90 17 5 19 23 31 82 50 50 61
REMARK Flexibility Score: inf
ROOT
ATOM      1  C   UNL A   1      35.421  22.899  26.507  1.00  0.00     0.002 C 
ENDROOT
BRANCH   1   2
ATOM      2  C   UNL A   1      34.203  23.317  27.342  1.00  0.00     0.021 C 
BRANCH   2   3
ATOM      3  C   UNL A   1      33.371  22.119  27.815  1.00  0.00     0.116 C 
BRANCH   3   4
ATOM      4  N   UNL A   1      31.965  22.392  27.591  1.00  0.00    -0.352 N 
ATOM      5  C   UNL A   1      31.220  22.664  26.470  1.00  0.00     0.253 C 
ATOM      6  O   UNL A   1      30.037  22.960  26.672  1.00  0.00    -0.269 OA
ATOM      7  H   UNL A   1      31.432  22.381  28.417  1.00  0.00     0.163 HD
BRANCH   5   8
ATOM      8  C   UNL A   1      31.740  22.561  25.064  1.00  0.00     0.065 A 
ATOM      9  C   UNL A   1      32.847  24.864  22.213  1.00  0.00     0.046 C 
ATOM     10  C   UNL A   1      32.465  23.646  23.010  1.00  0.00    -0.025 A 
ATOM     11  C   UNL A   1      32.533  22.382  22.394  1.00  0.00     0.031 A 
ATOM     12  C   UNL A   1      32.048  23.747  24.352  1.00  0.00     0.047 A 
ATOM     13  C   UNL A   1      32.249  21.201  23.085  1.00  0.00     0.036 A 
ATOM     14  C   UNL A   1      31.965  21.321  24.445  1.00  0.00     0.041 A 
BRANCH  12  15
ATOM     15  N   UNL A   1      31.818  25.014  24.905  1.00  0.00    -0.398 N 
ATOM     16  H   UNL A   1      31.424  25.094  25.803  1.00  0.00     0.156 HD
ATOM     17  H   UNL A   1      32.049  25.823  24.395  1.00  0.00     0.156 HD
ENDBRANCH  12  15
BRANCH  13  18
ATOM     18  N   UNL A   1      32.339  19.995  22.420  1.00  0.00    -0.378 N 
ATOM     19  H   UNL A   1      32.790  20.004  21.545  1.00  0.00     0.161 HD
BRANCH  18  20
ATOM     20  C   UNL A   1      31.831  18.706  22.883  1.00  0.00     0.188 C 
BRANCH  20  21
ATOM     21  C   UNL A   1      32.845  17.786  23.479  1.00  0.00     0.122 A 
ATOM     22  C   UNL A   1      33.241  17.520  24.775  1.00  0.00     0.047 A 
ATOM     23  O   UNL A   1      33.635  17.096  22.603  1.00  0.00    -0.467 OA
ATOM     24  C   UNL A   1      34.357  16.652  24.684  1.00  0.00     0.042 A 
ATOM     25  C   UNL A   1      34.556  16.424  23.343  1.00  0.00     0.195 A 
ENDBRANCH  20  21
ENDBRANCH  18  20
ENDBRANCH  13  18
ENDBRANCH   5   8
ENDBRANCH   3   4
ENDBRANCH   2   3
ENDBRANCH   1   2
BRANCH   1  26
ATOM     26  C   UNL A   1      35.280  21.537  25.818  1.00  0.00     0.002 C 
BRANCH  26  27
ATOM     27  C   UNL A   1      35.827  21.485  24.389  1.00  0.00     0.021 C 
BRANCH  27  28
ATOM     28  C   UNL A   1      37.345  21.606  24.303  1.00  0.00     0.116 C 
BRANCH  28  29
ATOM     29  N   UNL A   1      38.004  20.520  25.013  1.00  0.00    -0.352 N 
ATOM     30  C   UNL A   1      39.151  20.548  25.766  1.00  0.00     0.251 C 
ATOM     31  H   UNL A   1      37.566  19.641  24.942  1.00  0.00     0.163 HD
ATOM     32  O   UNL A   1      39.709  19.502  26.077  1.00  0.00    -0.269 OA
BRANCH  30  33
ATOM     33  C   UNL A   1      39.708  21.848  26.196  1.00  0.00     0.039 A 
ATOM     34  C   UNL A   1      41.032  21.909  26.634  1.00  0.00     0.014 A 
ATOM     35  C   UNL A   1      38.916  23.000  26.178  1.00  0.00     0.014 A 
ATOM     36  C   UNL A   1      41.577  23.138  27.010  1.00  0.00     0.010 A 
ATOM     37  C   UNL A   1      39.482  24.234  26.481  1.00  0.00     0.010 A 
ATOM     38  C   UNL A   1      40.815  24.314  26.913  1.00  0.00    -0.014 A 
BRANCH  38  39
ATOM     39  C   UNL A   1      41.394  25.638  27.252  1.00  0.00     0.031 A 
ATOM     40  C   UNL A   1      42.819  25.956  26.887  1.00  0.00     0.074 A 
ATOM     41  C   UNL A   1      40.664  26.520  27.963  1.00  0.00     0.049 A 
ATOM     42  N   UNL A   1      43.516  27.031  27.150  1.00  0.00    -0.248 NA
ATOM     43  C   UNL A   1      43.570  24.922  26.154  1.00  0.00     0.031 C 
ATOM     44  C   UNL A   1      39.298  26.295  28.443  1.00  0.00     0.029 A 
ATOM     45  N   UNL A   1      40.977  27.771  28.431  1.00  0.00    -0.354 N 
ATOM     46  C   UNL A   1      44.791  26.790  26.651  1.00  0.00     0.074 A 
ATOM     47  C   UNL A   1      44.782  25.455  26.097  1.00  0.00     0.031 C 
ATOM     48  C   UNL A   1      38.892  27.371  29.135  1.00  0.00     0.029 A 
ATOM     49  C   UNL A   1      39.975  28.348  29.176  1.00  0.00     0.049 A 
ATOM     50  H   UNL A   1      41.838  28.214  28.252  1.00  0.00     0.167 HD
ATOM     51  C   UNL A   1      45.863  27.616  26.630  1.00  0.00     0.034 A 
ATOM     52  C   UNL A   1      39.937  29.527  29.830  1.00  0.00     0.034 A 
ATOM     53  C   UNL A   1      45.853  28.960  27.142  1.00  0.00     0.049 A 
ATOM     54  C   UNL A   1      41.131  30.440  29.755  1.00  0.00     0.074 A 
ATOM     55  C   UNL A   1      46.860  29.908  27.087  1.00  0.00     0.029 A 
ATOM     56  N   UNL A   1      44.789  29.544  27.812  1.00  0.00    -0.354 N 
ATOM     57  N   UNL A   1      42.272  30.257  29.137  1.00  0.00    -0.248 NA
ATOM     58  C   UNL A   1      41.018  31.740  30.434  1.00  0.00     0.031 C 
ATOM     59  C   UNL A   1      46.414  31.056  27.749  1.00  0.00     0.029 A 
ATOM     60  C   UNL A   1      45.117  30.836  28.185  1.00  0.00     0.049 A 
ATOM     61  H   UNL A   1      43.927  29.104  27.994  1.00  0.00     0.167 HD
ATOM     62  C   UNL A   1      42.996  31.430  29.318  1.00  0.00     0.074 A 
ATOM     63  C   UNL A   1      42.155  32.325  30.086  1.00  0.00     0.031 C 
ATOM     64  C   UNL A   1      44.249  31.735  28.899  1.00  0.00     0.034 A 
BRANCH  51  65
ATOM     65  C   UNL A   1      47.130  27.113  25.988  1.00  0.00     0.023 A 
ATOM     66  C   UNL A   1      47.362  27.355  24.619  1.00  0.00     0.012 A 
ATOM     67  C   UNL A   1      48.123  26.471  26.754  1.00  0.00     0.148 A 
ATOM     68  C   UNL A   1      48.547  26.939  24.014  1.00  0.00     0.002 A 
ATOM     69  C   UNL A   1      49.322  26.102  26.155  1.00  0.00     0.091 A 
ATOM     70  F   UNL A   1      47.876  26.233  28.050  1.00  0.00    -0.205 F 
ATOM     71  C   UNL A   1      49.531  26.325  24.784  1.00  0.00     0.022 A 
BRANCH  69  72
ATOM     72  S   UNL A   1      50.685  25.378  27.074  1.00  0.00     0.127 S 
ATOM     73  O   UNL A   1      51.095  26.495  27.924  1.00  0.00    -0.237 OA
ATOM     74  O   UNL A   1      50.025  24.282  27.784  1.00  0.00    -0.237 OA
ATOM     75  O   UNL A   1      51.664  24.959  26.081  1.00  0.00    -0.744 OA
ENDBRANCH  69  72
ENDBRANCH  51  65
BRANCH  52  76
ATOM     76  C   UNL A   1      38.706  29.936  30.565  1.00  0.00     0.023 A 
ATOM     77  C   UNL A   1      38.515  29.503  31.891  1.00  0.00     0.012 A 
ATOM     78  C   UNL A   1      37.734  30.759  29.965  1.00  0.00     0.148 A 
ATOM     79  C   UNL A   1      37.359  29.847  32.593  1.00  0.00     0.002 A 
ATOM     80  C   UNL A   1      36.614  31.148  30.689  1.00  0.00     0.091 A 
ATOM     81  F   UNL A   1      37.929  31.154  28.698  1.00  0.00    -0.205 F 
ATOM     82  C   UNL A   1      36.413  30.677  31.996  1.00  0.00     0.022 A 
BRANCH  80  83
ATOM     83  S   UNL A   1      35.417  32.325  30.047  1.00  0.00     0.127 S 
ATOM     84  O   UNL A   1      34.910  31.625  28.870  1.00  0.00    -0.237 OA
ATOM     85  O   UNL A   1      34.471  32.433  31.157  1.00  0.00    -0.237 OA
ATOM     86  O   UNL A   1      36.168  33.546  29.785  1.00  0.00    -0.744 OA
ENDBRANCH  80  83
ENDBRANCH  52  76
BRANCH  64  87
ATOM     87  C   UNL A   1      44.779  33.109  29.216  1.00  0.00     0.023 A 
ATOM     88  C   UNL A   1      45.494  33.331  30.410  1.00  0.00     0.012 A 
ATOM     89  C   UNL A   1      44.633  34.162  28.291  1.00  0.00     0.148 A 
ATOM     90  C   UNL A   1      46.025  34.588  30.694  1.00  0.00     0.002 A 
ATOM     91  C   UNL A   1      45.210  35.397  28.557  1.00  0.00     0.091 A 
ATOM     92  F   UNL A   1      43.935  33.935  27.169  1.00  0.00    -0.205 F 
ATOM     93  C   UNL A   1      45.894  35.616  29.762  1.00  0.00     0.022 A 
BRANCH  91  94
ATOM     94  S   UNL A   1      45.179  36.748  27.374  1.00  0.00     0.127 S 
ATOM     95  O   UNL A   1      46.059  36.244  26.321  1.00  0.00    -0.237 OA
ATOM     96  O   UNL A   1      43.763  36.807  27.009  1.00  0.00    -0.237 OA
ATOM     97  O   UNL A   1      45.669  37.920  28.088  1.00  0.00    -0.744 OA
ENDBRANCH  91  94
ENDBRANCH  64  87
ENDBRANCH  38  39
ENDBRANCH  30  33
ENDBRANCH  28  29
ENDBRANCH  27  28
ENDBRANCH  26  27
ENDBRANCH   1  26
TORSDOF 20
ENDMDL
