MODEL 1
REMARK VINA RESULT:     -12.3      0.000      0.000
REMARK SMILES C[C@H]1CC[C@@](C[C@@H]2CCCc3ccccc32)(C(=O)NCCCCCCNC(=O)c2ccc(-c3c4nc(c(-c5cccc(S(=O)(=O)[O-])c5F)c5ccc([nH]5)c(-c5cccc(S(=O)(=O)[O-])c5F)c5nc(c(-c6cccc(S(=O)(=O)[O-])c6F)c6ccc3[nH]6)C=C5)C=C4)cc2)C1
REMARK SMILES IDX 23 1 22 2 21 3 20 4 19 5 17 6 18 7 5 9 1 10 2 11 3 12 92 13
REMARK SMILES IDX 4 14 6 15 7 16 8 17 16 18 9 19 11 20 15 21 10 22 12 23 14 24
REMARK SMILES IDX 13 25 24 26 25 27 26 28 27 29 28 31 29 32 30 33 91 34 31 35
REMARK SMILES IDX 90 36 32 37 33 38 34 39 84 40 35 41 89 42 83 43 85 44 36 45
REMARK SMILES IDX 88 46 82 47 81 48 37 50 69 51 49 52 68 53 50 54 53 55 67 56
REMARK SMILES IDX 86 57 51 58 52 59 66 61 87 62 54 63 38 64 39 65 47 66 40 67
REMARK SMILES IDX 42 68 48 69 41 70 43 71 44 72 45 73 46 74 70 75 71 76 79 77
REMARK SMILES IDX 72 78 74 79 80 80 73 81 75 82 76 83 77 84 78 85 55 86 56 87
REMARK SMILES IDX 64 88 57 89 59 90 65 91 58 92 60 93 61 94 62 95 63 96
REMARK H PARENT 19 8 26 30 85 49 53 60
REMARK Flexibility Score: inf
ROOT
ATOM      1  C   UNL A   1      31.769  30.672  25.983  1.00  0.00     0.002 C 
ENDROOT
BRANCH   1   2
ATOM      2  C   UNL A   1      33.106  29.930  26.149  1.00  0.00     0.002 C 
BRANCH   2   3
ATOM      3  C   UNL A   1      33.018  28.427  26.460  1.00  0.00     0.021 C 
BRANCH   3   4
ATOM      4  C   UNL A   1      31.927  27.874  27.405  1.00  0.00     0.116 C 
BRANCH   4   5
ATOM      5  N   UNL A   1      31.061  26.767  26.851  1.00  0.00    -0.356 N 
ATOM      6  C   UNL A   1      30.899  25.523  26.344  1.00  0.00     0.226 C 
ATOM      7  O   UNL A   1      29.690  25.234  26.524  1.00  0.00    -0.274 OA
ATOM      8  H   UNL A   1      30.150  27.141  26.869  1.00  0.00     0.163 HD
BRANCH   6   9
ATOM      9  C   UNL A   1      31.759  24.420  25.502  1.00  0.00     0.050 C 
ATOM     10  C   UNL A   1      35.656  24.072  25.850  1.00  0.00     0.007 C 
ATOM     11  C   UNL A   1      34.215  23.802  25.405  1.00  0.00    -0.013 C 
ATOM     12  C   UNL A   1      33.531  22.763  26.275  1.00  0.00     0.004 C 
ATOM     13  C   UNL A   1      33.263  24.998  25.506  1.00  0.00     0.020 C 
ATOM     14  C   UNL A   1      32.043  23.128  26.322  1.00  0.00     0.017 C 
BRANCH   9  15
ATOM     15  C   UNL A   1      31.423  24.078  24.007  1.00  0.00     0.025 C 
BRANCH  15  16
ATOM     16  C   UNL A   1      31.209  25.134  22.872  1.00  0.00     0.020 C 
ATOM     17  C   UNL A   1      32.260  25.082  21.786  1.00  0.00     0.009 C 
ATOM     18  C   UNL A   1      30.940  26.615  23.136  1.00  0.00    -0.042 A 
ATOM     19  C   UNL A   1      33.551  25.798  22.173  1.00  0.00     0.005 C 
ATOM     20  C   UNL A   1      31.950  27.585  22.932  1.00  0.00    -0.045 A 
ATOM     21  C   UNL A   1      29.617  27.071  23.250  1.00  0.00     0.004 A 
ATOM     22  C   UNL A   1      33.368  27.225  22.621  1.00  0.00     0.036 C 
ATOM     23  C   UNL A   1      31.639  28.950  22.859  1.00  0.00     0.004 A 
ATOM     24  C   UNL A   1      29.313  28.435  23.118  1.00  0.00     0.000 A 
ATOM     25  C   UNL A   1      30.323  29.371  22.919  1.00  0.00     0.000 A 
ENDBRANCH  15  16
ENDBRANCH   9  15
ENDBRANCH   6   9
ENDBRANCH   4   5
ENDBRANCH   3   4
ENDBRANCH   2   3
ENDBRANCH   1   2
BRANCH   1  26
ATOM     26  C   UNL A   1      31.579  32.007  26.730  1.00  0.00     0.021 C 
BRANCH  26  27
ATOM     27  C   UNL A   1      32.829  32.690  27.296  1.00  0.00     0.116 C 
BRANCH  27  28
ATOM     28  N   UNL A   1      32.582  34.059  27.724  1.00  0.00    -0.352 N 
ATOM     29  C   UNL A   1      33.133  34.786  28.753  1.00  0.00     0.251 C 
ATOM     30  H   UNL A   1      31.912  34.543  27.191  1.00  0.00     0.163 HD
ATOM     31  O   UNL A   1      32.628  35.857  29.080  1.00  0.00    -0.269 OA
BRANCH  29  32
ATOM     32  C   UNL A   1      34.327  34.292  29.473  1.00  0.00     0.039 A 
ATOM     33  C   UNL A   1      34.156  33.565  30.656  1.00  0.00     0.014 A 
ATOM     34  C   UNL A   1      35.611  34.592  29.014  1.00  0.00     0.014 A 
ATOM     35  C   UNL A   1      35.274  33.076  31.340  1.00  0.00     0.010 A 
ATOM     36  C   UNL A   1      36.723  34.065  29.672  1.00  0.00     0.010 A 
ATOM     37  C   UNL A   1      36.566  33.294  30.836  1.00  0.00    -0.014 A 
BRANCH  37  38
ATOM     38  C   UNL A   1      37.763  32.689  31.478  1.00  0.00     0.031 A 
ATOM     39  C   UNL A   1      38.473  31.531  30.832  1.00  0.00     0.074 A 
ATOM     40  C   UNL A   1      38.135  33.109  32.703  1.00  0.00     0.049 A 
ATOM     41  N   UNL A   1      39.466  30.813  31.290  1.00  0.00    -0.248 NA
ATOM     42  C   UNL A   1      37.986  31.107  29.509  1.00  0.00     0.031 C 
ATOM     43  C   UNL A   1      37.476  34.171  33.465  1.00  0.00     0.029 A 
ATOM     44  N   UNL A   1      39.128  32.665  33.543  1.00  0.00    -0.354 N 
ATOM     45  C   UNL A   1      39.697  29.829  30.336  1.00  0.00     0.074 A 
ATOM     46  C   UNL A   1      38.726  30.031  29.281  1.00  0.00     0.031 C 
ATOM     47  C   UNL A   1      38.067  34.284  34.665  1.00  0.00     0.029 A 
ATOM     48  C   UNL A   1      39.124  33.284  34.772  1.00  0.00     0.049 A 
ATOM     49  H   UNL A   1      39.779  31.971  33.290  1.00  0.00     0.167 HD
ATOM     50  C   UNL A   1      40.642  28.859  30.330  1.00  0.00     0.034 A 
ATOM     51  C   UNL A   1      39.869  33.055  35.873  1.00  0.00     0.034 A 
ATOM     52  C   UNL A   1      41.626  28.689  31.365  1.00  0.00     0.049 A 
ATOM     53  C   UNL A   1      40.931  31.991  35.830  1.00  0.00     0.074 A 
ATOM     54  C   UNL A   1      42.698  27.813  31.398  1.00  0.00     0.029 A 
ATOM     55  N   UNL A   1      41.649  29.392  32.559  1.00  0.00    -0.354 N 
ATOM     56  N   UNL A   1      41.255  31.191  34.843  1.00  0.00    -0.248 NA
ATOM     57  C   UNL A   1      41.750  31.816  37.038  1.00  0.00     0.031 C 
ATOM     58  C   UNL A   1      43.346  27.962  32.628  1.00  0.00     0.029 A 
ATOM     59  C   UNL A   1      42.698  28.951  33.349  1.00  0.00     0.049 A 
ATOM     60  H   UNL A   1      41.014  30.101  32.810  1.00  0.00     0.167 HD
ATOM     61  C   UNL A   1      42.327  30.434  35.301  1.00  0.00     0.074 A 
ATOM     62  C   UNL A   1      42.615  30.890  36.646  1.00  0.00     0.031 C 
ATOM     63  C   UNL A   1      43.000  29.440  34.671  1.00  0.00     0.034 A 
BRANCH  50  64
ATOM     64  C   UNL A   1      40.686  27.927  29.147  1.00  0.00     0.023 A 
ATOM     65  C   UNL A   1      39.787  26.843  29.079  1.00  0.00     0.012 A 
ATOM     66  C   UNL A   1      41.574  28.156  28.076  1.00  0.00     0.148 A 
ATOM     67  C   UNL A   1      39.796  25.981  27.982  1.00  0.00     0.002 A 
ATOM     68  C   UNL A   1      41.545  27.318  26.967  1.00  0.00     0.091 A 
ATOM     69  F   UNL A   1      42.434  29.181  28.167  1.00  0.00    -0.205 F 
ATOM     70  C   UNL A   1      40.666  26.223  26.925  1.00  0.00     0.022 A 
BRANCH  68  71
ATOM     71  S   UNL A   1      42.573  27.593  25.519  1.00  0.00     0.127 S 
ATOM     72  O   UNL A   1      42.263  26.414  24.711  1.00  0.00    -0.237 OA
ATOM     73  O   UNL A   1      42.037  28.849  24.995  1.00  0.00    -0.237 OA
ATOM     74  O   UNL A   1      43.942  27.675  26.007  1.00  0.00    -0.744 OA
ENDBRANCH  68  71
ENDBRANCH  50  64
BRANCH  51  75
ATOM     75  C   UNL A   1      39.655  33.883  37.094  1.00  0.00     0.023 A 
ATOM     76  C   UNL A   1      40.071  35.228  37.102  1.00  0.00     0.012 A 
ATOM     77  C   UNL A   1      39.001  33.359  38.227  1.00  0.00     0.148 A 
ATOM     78  C   UNL A   1      39.864  36.030  38.225  1.00  0.00     0.002 A 
ATOM     79  C   UNL A   1      38.746  34.179  39.321  1.00  0.00     0.091 A 
ATOM     80  F   UNL A   1      38.623  32.074  38.204  1.00  0.00    -0.205 F 
ATOM     81  C   UNL A   1      39.191  35.510  39.329  1.00  0.00     0.022 A 
BRANCH  79  82
ATOM     82  S   UNL A   1      37.767  33.637  40.726  1.00  0.00     0.127 S 
ATOM     83  O   UNL A   1      37.675  34.860  41.517  1.00  0.00    -0.237 OA
ATOM     84  O   UNL A   1      36.522  33.219  40.085  1.00  0.00    -0.237 OA
ATOM     85  O   UNL A   1      38.522  32.546  41.334  1.00  0.00    -0.744 OA
ENDBRANCH  79  82
ENDBRANCH  51  75
BRANCH  63  86
ATOM     86  C   UNL A   1      44.127  28.774  35.416  1.00  0.00     0.023 A 
ATOM     87  C   UNL A   1      45.436  29.281  35.298  1.00  0.00     0.012 A 
ATOM     88  C   UNL A   1      43.874  27.711  36.305  1.00  0.00     0.148 A 
ATOM     89  C   UNL A   1      46.481  28.727  36.036  1.00  0.00     0.002 A 
ATOM     90  C   UNL A   1      44.910  27.194  37.073  1.00  0.00     0.091 A 
ATOM     91  F   UNL A   1      42.624  27.233  36.390  1.00  0.00    -0.205 F 
ATOM     92  C   UNL A   1      46.215  27.692  36.932  1.00  0.00     0.022 A 
BRANCH  90  93
ATOM     93  S   UNL A   1      44.652  25.930  38.323  1.00  0.00     0.127 S 
ATOM     94  O   UNL A   1      43.777  26.621  39.270  1.00  0.00    -0.237 OA
ATOM     95  O   UNL A   1      44.003  24.867  37.556  1.00  0.00    -0.237 OA
ATOM     96  O   UNL A   1      45.973  25.590  38.833  1.00  0.00    -0.744 OA
ENDBRANCH  90  93
ENDBRANCH  63  86
ENDBRANCH  37  38
ENDBRANCH  29  32
ENDBRANCH  27  28
ENDBRANCH  26  27
ENDBRANCH   1  26
TORSDOF 18
ENDMDL
MODEL 2
REMARK VINA RESULT:     -12.0      2.057      3.622
REMARK SMILES C[C@H]1CC[C@@](C[C@@H]2CCCc3ccccc32)(C(=O)NCCCCCCNC(=O)c2ccc(-c3c4nc(c(-c5cccc(S(=O)(=O)[O-])c5F)c5ccc([nH]5)c(-c5cccc(S(=O)(=O)[O-])c5F)c5nc(c(-c6cccc(S(=O)(=O)[O-])c6F)c6ccc3[nH]6)C=C5)C=C4)cc2)C1
REMARK SMILES IDX 23 1 22 2 21 3 20 4 19 5 17 6 18 7 5 9 1 10 2 11 3 12 92 13
REMARK SMILES IDX 4 14 6 15 7 16 8 17 16 18 9 19 11 20 15 21 10 22 12 23 14 24
REMARK SMILES IDX 13 25 24 26 25 27 26 28 27 29 28 31 29 32 30 33 91 34 31 35
REMARK SMILES IDX 90 36 32 37 33 38 34 39 84 40 35 41 89 42 83 43 85 44 36 45
REMARK SMILES IDX 88 46 82 47 81 48 37 50 69 51 49 52 68 53 50 54 53 55 67 56
REMARK SMILES IDX 86 57 51 58 52 59 66 61 87 62 54 63 38 64 39 65 47 66 40 67
REMARK SMILES IDX 42 68 48 69 41 70 43 71 44 72 45 73 46 74 70 75 71 76 79 77
REMARK SMILES IDX 72 78 74 79 80 80 73 81 75 82 76 83 77 84 78 85 55 86 56 87
REMARK SMILES IDX 64 88 57 89 59 90 65 91 58 92 60 93 61 94 62 95 63 96
REMARK H PARENT 19 8 26 30 85 49 53 60
REMARK Flexibility Score: inf
ROOT
ATOM      1  C   UNL A   1      31.240  29.595  24.477  1.00  0.00     0.002 C 
ENDROOT
BRANCH   1   2
ATOM      2  C   UNL A   1      31.386  28.675  23.253  1.00  0.00     0.002 C 
BRANCH   2   3
ATOM      3  C   UNL A   1      32.595  28.941  22.340  1.00  0.00     0.021 C 
BRANCH   3   4
ATOM      4  C   UNL A   1      33.823  28.004  22.356  1.00  0.00     0.116 C 
BRANCH   4   5
ATOM      5  N   UNL A   1      33.552  26.541  22.093  1.00  0.00    -0.356 N 
ATOM      6  C   UNL A   1      32.816  25.418  22.260  1.00  0.00     0.226 C 
ATOM      7  O   UNL A   1      33.102  24.673  21.291  1.00  0.00    -0.274 OA
ATOM      8  H   UNL A   1      34.284  26.263  21.496  1.00  0.00     0.163 HD
BRANCH   6   9
ATOM      9  C   UNL A   1      31.819  24.759  23.372  1.00  0.00     0.050 C 
ATOM     10  C   UNL A   1      31.033  26.508  26.800  1.00  0.00     0.007 C 
ATOM     11  C   UNL A   1      30.995  25.491  25.655  1.00  0.00    -0.013 C 
ATOM     12  C   UNL A   1      29.879  25.780  24.667  1.00  0.00     0.004 C 
ATOM     13  C   UNL A   1      32.236  25.472  24.755  1.00  0.00     0.020 C 
ATOM     14  C   UNL A   1      30.371  25.323  23.289  1.00  0.00     0.017 C 
BRANCH   9  15
ATOM     15  C   UNL A   1      31.808  23.215  23.659  1.00  0.00     0.025 C 
BRANCH  15  16
ATOM     16  C   UNL A   1      33.033  22.391  24.178  1.00  0.00     0.020 C 
ATOM     17  C   UNL A   1      32.733  21.563  25.407  1.00  0.00     0.009 C 
ATOM     18  C   UNL A   1      34.423  22.989  24.394  1.00  0.00    -0.042 A 
ATOM     19  C   UNL A   1      32.768  22.378  26.696  1.00  0.00     0.005 C 
ATOM     20  C   UNL A   1      34.902  23.261  25.697  1.00  0.00    -0.045 A 
ATOM     21  C   UNL A   1      35.363  22.959  23.351  1.00  0.00     0.004 A 
ATOM     22  C   UNL A   1      34.042  23.152  26.916  1.00  0.00     0.036 C 
ATOM     23  C   UNL A   1      36.263  23.502  25.933  1.00  0.00     0.004 A 
ATOM     24  C   UNL A   1      36.729  23.144  23.610  1.00  0.00     0.000 A 
ATOM     25  C   UNL A   1      37.178  23.412  24.899  1.00  0.00     0.000 A 
ENDBRANCH  15  16
ENDBRANCH   9  15
ENDBRANCH   6   9
ENDBRANCH   4   5
ENDBRANCH   3   4
ENDBRANCH   2   3
ENDBRANCH   1   2
BRANCH   1  26
ATOM     26  C   UNL A   1      32.383  29.622  25.510  1.00  0.00     0.021 C 
BRANCH  26  27
ATOM     27  C   UNL A   1      32.082  30.220  26.889  1.00  0.00     0.116 C 
BRANCH  27  28
ATOM     28  N   UNL A   1      32.037  31.675  26.877  1.00  0.00    -0.352 N 
ATOM     29  C   UNL A   1      32.874  32.599  27.457  1.00  0.00     0.251 C 
ATOM     30  H   UNL A   1      31.287  32.061  26.371  1.00  0.00     0.163 HD
ATOM     31  O   UNL A   1      32.537  33.779  27.508  1.00  0.00    -0.269 OA
BRANCH  29  32
ATOM     32  C   UNL A   1      34.178  32.188  28.024  1.00  0.00     0.039 A 
ATOM     33  C   UNL A   1      35.207  33.131  28.117  1.00  0.00     0.014 A 
ATOM     34  C   UNL A   1      34.402  30.865  28.410  1.00  0.00     0.014 A 
ATOM     35  C   UNL A   1      36.440  32.763  28.666  1.00  0.00     0.010 A 
ATOM     36  C   UNL A   1      35.616  30.512  28.999  1.00  0.00     0.010 A 
ATOM     37  C   UNL A   1      36.644  31.458  29.142  1.00  0.00    -0.014 A 
BRANCH  37  38
ATOM     38  C   UNL A   1      37.901  31.071  29.835  1.00  0.00     0.031 A 
ATOM     39  C   UNL A   1      38.864  30.112  29.191  1.00  0.00     0.074 A 
ATOM     40  C   UNL A   1      38.114  31.496  31.096  1.00  0.00     0.049 A 
ATOM     41  N   UNL A   1      39.955  29.584  29.684  1.00  0.00    -0.248 NA
ATOM     42  C   UNL A   1      38.544  29.665  27.826  1.00  0.00     0.031 C 
ATOM     43  C   UNL A   1      37.214  32.366  31.854  1.00  0.00     0.029 A 
ATOM     44  N   UNL A   1      39.129  31.217  31.980  1.00  0.00    -0.354 N 
ATOM     45  C   UNL A   1      40.431  28.714  28.710  1.00  0.00     0.074 A 
ATOM     46  C   UNL A   1      39.498  28.771  27.604  1.00  0.00     0.031 C 
ATOM     47  C   UNL A   1      37.705  32.535  33.093  1.00  0.00     0.029 A 
ATOM     48  C   UNL A   1      38.935  31.760  33.228  1.00  0.00     0.049 A 
ATOM     49  H   UNL A   1      39.919  30.680  31.742  1.00  0.00     0.167 HD
ATOM     50  C   UNL A   1      41.551  27.953  28.727  1.00  0.00     0.034 A 
ATOM     51  C   UNL A   1      39.649  31.630  34.365  1.00  0.00     0.034 A 
ATOM     52  C   UNL A   1      42.492  27.930  29.815  1.00  0.00     0.049 A 
ATOM     53  C   UNL A   1      40.904  30.802  34.348  1.00  0.00     0.074 A 
ATOM     54  C   UNL A   1      43.714  27.284  29.882  1.00  0.00     0.029 A 
ATOM     55  N   UNL A   1      42.308  28.564  31.034  1.00  0.00    -0.354 N 
ATOM     56  N   UNL A   1      41.436  30.133  33.355  1.00  0.00    -0.248 NA
ATOM     57  C   UNL A   1      41.675  30.733  35.598  1.00  0.00     0.031 C 
ATOM     58  C   UNL A   1      44.252  27.498  31.155  1.00  0.00     0.029 A 
ATOM     59  C   UNL A   1      43.380  28.302  31.871  1.00  0.00     0.049 A 
ATOM     60  H   UNL A   1      41.530  29.118  31.271  1.00  0.00     0.167 HD
ATOM     61  C   UNL A   1      42.612  29.582  33.850  1.00  0.00     0.074 A 
ATOM     62  C   UNL A   1      42.729  30.018  35.227  1.00  0.00     0.031 C 
ATOM     63  C   UNL A   1      43.505  28.774  33.226  1.00  0.00     0.034 A 
BRANCH  50  64
ATOM     64  C   UNL A   1      41.846  27.108  27.515  1.00  0.00     0.023 A 
ATOM     65  C   UNL A   1      42.397  27.707  26.363  1.00  0.00     0.012 A 
ATOM     66  C   UNL A   1      41.636  25.714  27.534  1.00  0.00     0.148 A 
ATOM     67  C   UNL A   1      42.699  26.940  25.238  1.00  0.00     0.002 A 
ATOM     68  C   UNL A   1      41.981  24.950  26.424  1.00  0.00     0.091 A 
ATOM     69  F   UNL A   1      41.094  25.164  28.630  1.00  0.00    -0.205 F 
ATOM     70  C   UNL A   1      42.501  25.563  25.272  1.00  0.00     0.022 A 
BRANCH  68  71
ATOM     71  S   UNL A   1      41.836  23.159  26.398  1.00  0.00     0.127 S 
ATOM     72  O   UNL A   1      42.415  22.837  25.095  1.00  0.00    -0.237 OA
ATOM     73  O   UNL A   1      42.658  22.767  27.543  1.00  0.00    -0.237 OA
ATOM     74  O   UNL A   1      40.417  22.869  26.542  1.00  0.00    -0.744 OA
ENDBRANCH  68  71
ENDBRANCH  50  64
BRANCH  51  75
ATOM     75  C   UNL A   1      39.206  32.337  35.600  1.00  0.00     0.023 A 
ATOM     76  C   UNL A   1      39.445  33.718  35.733  1.00  0.00     0.012 A 
ATOM     77  C   UNL A   1      38.511  31.659  36.621  1.00  0.00     0.148 A 
ATOM     78  C   UNL A   1      39.023  34.407  36.870  1.00  0.00     0.002 A 
ATOM     79  C   UNL A   1      38.043  32.362  37.726  1.00  0.00     0.091 A 
ATOM     80  F   UNL A   1      38.305  30.342  36.483  1.00  0.00    -0.205 F 
ATOM     81  C   UNL A   1      38.311  33.733  37.860  1.00  0.00     0.022 A 
BRANCH  79  82
ATOM     82  S   UNL A   1      37.002  31.608  38.980  1.00  0.00     0.127 S 
ATOM     83  O   UNL A   1      37.919  31.507  40.111  1.00  0.00    -0.237 OA
ATOM     84  O   UNL A   1      35.940  32.603  39.130  1.00  0.00    -0.237 OA
ATOM     85  O   UNL A   1      36.557  30.340  38.412  1.00  0.00    -0.744 OA
ENDBRANCH  79  82
ENDBRANCH  51  75
BRANCH  63  86
ATOM     86  C   UNL A   1      44.701  28.310  34.016  1.00  0.00     0.023 A 
ATOM     87  C   UNL A   1      45.856  29.114  34.068  1.00  0.00     0.012 A 
ATOM     88  C   UNL A   1      44.645  27.128  34.780  1.00  0.00     0.148 A 
ATOM     89  C   UNL A   1      46.946  28.739  34.852  1.00  0.00     0.002 A 
ATOM     90  C   UNL A   1      45.715  26.784  35.597  1.00  0.00     0.091 A 
ATOM     91  F   UNL A   1      43.541  26.369  34.704  1.00  0.00    -0.205 F 
ATOM     92  C   UNL A   1      46.870  27.581  35.625  1.00  0.00     0.022 A 
BRANCH  90  93
ATOM     93  S   UNL A   1      45.675  25.368  36.701  1.00  0.00     0.127 S 
ATOM     94  O   UNL A   1      45.551  24.257  35.757  1.00  0.00    -0.237 OA
ATOM     95  O   UNL A   1      46.974  25.460  37.368  1.00  0.00    -0.237 OA
ATOM     96  O   UNL A   1      44.527  25.569  37.575  1.00  0.00    -0.744 OA
ENDBRANCH  90  93
ENDBRANCH  63  86
ENDBRANCH  37  38
ENDBRANCH  29  32
ENDBRANCH  27  28
ENDBRANCH  26  27
ENDBRANCH   1  26
TORSDOF 18
ENDMDL
MODEL 3
REMARK VINA RESULT:     -11.9      5.600     10.428
REMARK SMILES C[C@H]1CC[C@@](C[C@@H]2CCCc3ccccc32)(C(=O)NCCCCCCNC(=O)c2ccc(-c3c4nc(c(-c5cccc(S(=O)(=O)[O-])c5F)c5ccc([nH]5)c(-c5cccc(S(=O)(=O)[O-])c5F)c5nc(c(-c6cccc(S(=O)(=O)[O-])c6F)c6ccc3[nH]6)C=C5)C=C4)cc2)C1
REMARK SMILES IDX 23 1 22 2 21 3 20 4 19 5 17 6 18 7 5 9 1 10 2 11 3 12 92 13
REMARK SMILES IDX 4 14 6 15 7 16 8 17 16 18 9 19 11 20 15 21 10 22 12 23 14 24
REMARK SMILES IDX 13 25 24 26 25 27 26 28 27 29 28 31 29 32 30 33 91 34 31 35
REMARK SMILES IDX 90 36 32 37 33 38 34 39 84 40 35 41 89 42 83 43 85 44 36 45
REMARK SMILES IDX 88 46 82 47 81 48 37 50 69 51 49 52 68 53 50 54 53 55 67 56
REMARK SMILES IDX 86 57 51 58 52 59 66 61 87 62 54 63 38 64 39 65 47 66 40 67
REMARK SMILES IDX 42 68 48 69 41 70 43 71 44 72 45 73 46 74 70 75 71 76 79 77
REMARK SMILES IDX 72 78 74 79 80 80 73 81 75 82 76 83 77 84 78 85 55 86 56 87
REMARK SMILES IDX 64 88 57 89 59 90 65 91 58 92 60 93 61 94 62 95 63 96
REMARK H PARENT 19 8 26 30 85 49 53 60
REMARK Flexibility Score: inf
ROOT
ATOM      1  C   UNL A   1      35.113  22.768  23.286  1.00  0.00     0.002 C 
ENDROOT
BRANCH   1   2
ATOM      2  C   UNL A   1      33.843  23.533  22.875  1.00  0.00     0.002 C 
BRANCH   2   3
ATOM      3  C   UNL A   1      32.508  22.796  23.076  1.00  0.00     0.021 C 
BRANCH   3   4
ATOM      4  C   UNL A   1      31.169  23.567  23.084  1.00  0.00     0.116 C 
BRANCH   4   5
ATOM      5  N   UNL A   1      31.175  24.924  22.418  1.00  0.00    -0.356 N 
ATOM      6  C   UNL A   1      31.045  26.270  22.459  1.00  0.00     0.226 C 
ATOM      7  O   UNL A   1      31.640  26.703  21.442  1.00  0.00    -0.274 OA
ATOM      8  H   UNL A   1      31.376  24.729  21.474  1.00  0.00     0.163 HD
BRANCH   6   9
ATOM      9  C   UNL A   1      30.267  27.401  23.344  1.00  0.00     0.050 C 
ATOM     10  C   UNL A   1      28.093  30.232  21.705  1.00  0.00     0.007 C 
ATOM     11  C   UNL A   1      28.761  29.357  22.771  1.00  0.00    -0.013 C 
ATOM     12  C   UNL A   1      27.861  28.224  23.229  1.00  0.00     0.004 C 
ATOM     13  C   UNL A   1      30.021  28.614  22.314  1.00  0.00     0.020 C 
ATOM     14  C   UNL A   1      28.773  27.046  23.590  1.00  0.00     0.017 C 
BRANCH   9  15
ATOM     15  C   UNL A   1      30.916  28.036  24.625  1.00  0.00     0.025 C 
BRANCH  15  16
ATOM     16  C   UNL A   1      31.250  27.258  25.940  1.00  0.00     0.020 C 
ATOM     17  C   UNL A   1      32.431  27.821  26.698  1.00  0.00     0.009 C 
ATOM     18  C   UNL A   1      31.382  25.736  26.012  1.00  0.00    -0.042 A 
ATOM     19  C   UNL A   1      33.773  27.375  26.124  1.00  0.00     0.005 C 
ATOM     20  C   UNL A   1      32.652  25.122  26.115  1.00  0.00    -0.045 A 
ATOM     21  C   UNL A   1      30.257  24.955  26.318  1.00  0.00     0.004 A 
ATOM     22  C   UNL A   1      33.934  25.882  25.989  1.00  0.00     0.036 C 
ATOM     23  C   UNL A   1      32.778  23.779  26.498  1.00  0.00     0.004 A 
ATOM     24  C   UNL A   1      30.400  23.629  26.755  1.00  0.00     0.000 A 
ATOM     25  C   UNL A   1      31.658  23.044  26.848  1.00  0.00     0.000 A 
ENDBRANCH  15  16
ENDBRANCH   9  15
ENDBRANCH   6   9
ENDBRANCH   4   5
ENDBRANCH   3   4
ENDBRANCH   2   3
ENDBRANCH   1   2
BRANCH   1  26
ATOM     26  C   UNL A   1      35.918  23.288  24.493  1.00  0.00     0.021 C 
BRANCH  26  27
ATOM     27  C   UNL A   1      35.973  22.405  25.745  1.00  0.00     0.116 C 
BRANCH  27  28
ATOM     28  N   UNL A   1      36.964  21.343  25.646  1.00  0.00    -0.352 N 
ATOM     29  C   UNL A   1      38.330  21.380  25.797  1.00  0.00     0.251 C 
ATOM     30  H   UNL A   1      36.596  20.454  25.437  1.00  0.00     0.163 HD
ATOM     31  O   UNL A   1      39.006  20.411  25.457  1.00  0.00    -0.269 OA
BRANCH  29  32
ATOM     32  C   UNL A   1      38.997  22.573  26.361  1.00  0.00     0.039 A 
ATOM     33  C   UNL A   1      40.054  22.400  27.262  1.00  0.00     0.014 A 
ATOM     34  C   UNL A   1      38.546  23.857  26.049  1.00  0.00     0.014 A 
ATOM     35  C   UNL A   1      40.706  23.517  27.792  1.00  0.00     0.010 A 
ATOM     36  C   UNL A   1      39.228  24.970  26.542  1.00  0.00     0.010 A 
ATOM     37  C   UNL A   1      40.320  24.813  27.411  1.00  0.00    -0.014 A 
BRANCH  37  38
ATOM     38  C   UNL A   1      41.069  26.013  27.868  1.00  0.00     0.031 A 
ATOM     39  C   UNL A   1      40.364  27.118  28.605  1.00  0.00     0.074 A 
ATOM     40  C   UNL A   1      42.360  26.157  27.511  1.00  0.00     0.049 A 
ATOM     41  N   UNL A   1      40.828  28.279  28.989  1.00  0.00    -0.248 NA
ATOM     42  C   UNL A   1      38.945  26.903  28.927  1.00  0.00     0.031 C 
ATOM     43  C   UNL A   1      43.130  25.188  26.728  1.00  0.00     0.029 A 
ATOM     44  N   UNL A   1      43.241  27.191  27.718  1.00  0.00    -0.354 N 
ATOM     45  C   UNL A   1      39.753  28.949  29.562  1.00  0.00     0.074 A 
ATOM     46  C   UNL A   1      38.607  28.071  29.456  1.00  0.00     0.031 C 
ATOM     47  C   UNL A   1      44.359  25.680  26.505  1.00  0.00     0.029 A 
ATOM     48  C   UNL A   1      44.455  27.011  27.098  1.00  0.00     0.049 A 
ATOM     49  H   UNL A   1      43.023  27.985  28.258  1.00  0.00     0.167 HD
ATOM     50  C   UNL A   1      39.727  30.174  30.138  1.00  0.00     0.034 A 
ATOM     51  C   UNL A   1      45.520  27.832  26.994  1.00  0.00     0.034 A 
ATOM     52  C   UNL A   1      40.880  31.025  30.272  1.00  0.00     0.049 A 
ATOM     53  C   UNL A   1      45.475  29.176  27.668  1.00  0.00     0.074 A 
ATOM     54  C   UNL A   1      40.985  32.232  30.942  1.00  0.00     0.029 A 
ATOM     55  N   UNL A   1      42.120  30.772  29.708  1.00  0.00    -0.354 N 
ATOM     56  N   UNL A   1      44.505  29.715  28.365  1.00  0.00    -0.248 NA
ATOM     57  C   UNL A   1      46.679  30.013  27.569  1.00  0.00     0.031 C 
ATOM     58  C   UNL A   1      42.280  32.725  30.752  1.00  0.00     0.029 A 
ATOM     59  C   UNL A   1      42.990  31.812  29.990  1.00  0.00     0.049 A 
ATOM     60  H   UNL A   1      42.350  29.971  29.184  1.00  0.00     0.167 HD
ATOM     61  C   UNL A   1      44.987  30.942  28.806  1.00  0.00     0.074 A 
ATOM     62  C   UNL A   1      46.346  31.056  28.318  1.00  0.00     0.031 C 
ATOM     63  C   UNL A   1      44.354  31.896  29.533  1.00  0.00     0.034 A 
BRANCH  50  64
ATOM     64  C   UNL A   1      38.418  30.657  30.708  1.00  0.00     0.023 A 
ATOM     65  C   UNL A   1      38.126  30.437  32.070  1.00  0.00     0.012 A 
ATOM     66  C   UNL A   1      37.504  31.378  29.914  1.00  0.00     0.148 A 
ATOM     67  C   UNL A   1      36.931  30.895  32.623  1.00  0.00     0.002 A 
ATOM     68  C   UNL A   1      36.335  31.869  30.484  1.00  0.00     0.091 A 
ATOM     69  F   UNL A   1      37.790  31.561  28.617  1.00  0.00    -0.205 F 
ATOM     70  C   UNL A   1      36.041  31.618  31.834  1.00  0.00     0.022 A 
BRANCH  68  71
ATOM     71  S   UNL A   1      35.162  32.879  29.571  1.00  0.00     0.127 S 
ATOM     72  O   UNL A   1      34.192  33.216  30.612  1.00  0.00    -0.237 OA
ATOM     73  O   UNL A   1      35.996  33.997  29.130  1.00  0.00    -0.237 OA
ATOM     74  O   UNL A   1      34.659  32.036  28.496  1.00  0.00    -0.744 OA
ENDBRANCH  68  71
ENDBRANCH  50  64
BRANCH  51  75
ATOM     75  C   UNL A   1      46.730  27.382  26.249  1.00  0.00     0.023 A 
ATOM     76  C   UNL A   1      46.873  27.716  24.889  1.00  0.00     0.012 A 
ATOM     77  C   UNL A   1      47.759  26.665  26.893  1.00  0.00     0.148 A 
ATOM     78  C   UNL A   1      48.006  27.324  24.175  1.00  0.00     0.002 A 
ATOM     79  C   UNL A   1      48.911  26.327  26.191  1.00  0.00     0.091 A 
ATOM     80  F   UNL A   1      47.599  26.345  28.184  1.00  0.00    -0.205 F 
ATOM     81  C   UNL A   1      49.030  26.642  24.828  1.00  0.00     0.022 A 
BRANCH  79  82
ATOM     82  S   UNL A   1      50.336  25.571  26.981  1.00  0.00     0.127 S 
ATOM     83  O   UNL A   1      50.660  26.548  28.015  1.00  0.00    -0.237 OA
ATOM     84  O   UNL A   1      49.778  24.311  27.470  1.00  0.00    -0.237 OA
ATOM     85  O   UNL A   1      51.333  25.413  25.927  1.00  0.00    -0.744 OA
ENDBRANCH  79  82
ENDBRANCH  51  75
BRANCH  63  86
ATOM     86  C   UNL A   1      45.121  33.150  29.863  1.00  0.00     0.023 A 
ATOM     87  C   UNL A   1      45.916  33.195  31.025  1.00  0.00     0.012 A 
ATOM     88  C   UNL A   1      45.129  34.244  28.975  1.00  0.00     0.148 A 
ATOM     89  C   UNL A   1      46.691  34.318  31.310  1.00  0.00     0.002 A 
ATOM     90  C   UNL A   1      45.941  35.340  29.241  1.00  0.00     0.091 A 
ATOM     91  F   UNL A   1      44.353  34.186  27.883  1.00  0.00    -0.205 F 
ATOM     92  C   UNL A   1      46.713  35.384  30.412  1.00  0.00     0.022 A 
BRANCH  90  93
ATOM     93  S   UNL A   1      46.112  36.717  28.100  1.00  0.00     0.127 S 
ATOM     94  O   UNL A   1      45.251  36.297  26.995  1.00  0.00    -0.237 OA
ATOM     95  O   UNL A   1      45.594  37.836  28.887  1.00  0.00    -0.237 OA
ATOM     96  O   UNL A   1      47.531  36.804  27.781  1.00  0.00    -0.744 OA
ENDBRANCH  90  93
ENDBRANCH  63  86
ENDBRANCH  37  38
ENDBRANCH  29  32
ENDBRANCH  27  28
ENDBRANCH  26  27
ENDBRANCH   1  26
TORSDOF 18
ENDMDL
