MODEL 1
REMARK VINA RESULT:     -12.5      0.000      0.000
REMARK SMILES Cc1cc(Br)cc2c1O[C@H](C(F)(F)F)C(C(=O)NCCCCCCNC(=O)c1ccc(-c3c4nc(c(-c5cccc(S(=O)(=O)[O-])c5F)c5ccc([nH]5)c(-c5cccc(S(=O)(=O)[O-])c5F)c5nc(c(-c6cccc(S(=O)(=O)[O-])c6F)c6ccc3[nH]6)C=C5)C=C4)cc1)=C2
REMARK SMILES IDX 22 1 21 2 20 3 19 4 18 5 16 6 17 7 15 9 1 10 2 11 3 12 8 13
REMARK SMILES IDX 4 14 7 15 9 16 5 17 6 18 91 19 10 20 11 21 12 22 13 23 14 24
REMARK SMILES IDX 23 25 24 26 25 27 26 28 27 30 28 31 29 32 90 33 30 34 89 35
REMARK SMILES IDX 31 36 32 37 33 38 83 39 34 40 88 41 82 42 84 43 35 44 87 45
REMARK SMILES IDX 81 46 80 47 36 49 68 50 48 51 67 52 49 53 52 54 66 55 85 56
REMARK SMILES IDX 50 57 51 58 65 60 86 61 53 62 37 63 38 64 46 65 39 66 41 67
REMARK SMILES IDX 47 68 40 69 42 70 43 71 44 72 45 73 69 74 70 75 78 76 71 77
REMARK SMILES IDX 73 78 79 79 72 80 74 81 75 82 76 83 77 84 54 85 55 86 63 87
REMARK SMILES IDX 56 88 58 89 64 90 57 91 59 92 60 93 61 94 62 95
REMARK H PARENT 18 8 25 29 84 48 52 59
REMARK Flexibility Score: inf
ROOT
ATOM      1  C   UNL A   1      31.473  27.281  25.975  1.00  0.00     0.002 C 
ENDROOT
BRANCH   1   2
ATOM      2  C   UNL A   1      30.281  26.363  25.672  1.00  0.00     0.002 C 
BRANCH   2   3
ATOM      3  C   UNL A   1      29.855  26.326  24.203  1.00  0.00     0.021 C 
BRANCH   3   4
ATOM      4  C   UNL A   1      30.338  25.083  23.464  1.00  0.00     0.116 C 
BRANCH   4   5
ATOM      5  N   UNL A   1      31.387  25.398  22.507  1.00  0.00    -0.352 N 
ATOM      6  C   UNL A   1      32.632  24.952  22.220  1.00  0.00     0.251 C 
ATOM      7  O   UNL A   1      33.185  25.502  21.261  1.00  0.00    -0.270 OA
ATOM      8  H   UNL A   1      31.119  26.132  21.907  1.00  0.00     0.163 HD
BRANCH   6   9
ATOM      9  C   UNL A   1      33.352  23.879  22.969  1.00  0.00     0.067 C 
ATOM     10  C   UNL A   1      36.813  20.857  25.280  1.00  0.00     0.048 C 
ATOM     11  C   UNL A   1      35.403  20.684  24.789  1.00  0.00    -0.007 A 
ATOM     12  C   UNL A   1      34.730  19.476  25.001  1.00  0.00     0.023 A 
ATOM     13  C   UNL A   1      34.714  21.737  24.170  1.00  0.00     0.130 A 
ATOM     14  C   UNL A   1      33.413  19.322  24.568  1.00  0.00     0.019 A 
ATOM     15  C   UNL A   1      33.398  21.582  23.722  1.00  0.00     0.019 A 
ATOM     16  O   UNL A   1      35.409  22.894  23.989  1.00  0.00    -0.475 OA
ATOM     17  Br  UNL A   1      32.525  17.676  24.849  1.00  0.00    -0.051 Br
ATOM     18  C   UNL A   1      32.745  20.365  23.923  1.00  0.00     0.027 A 
ATOM     19  C   UNL A   1      32.749  22.678  23.008  1.00  0.00     0.025 C 
ATOM     20  C   UNL A   1      34.658  24.090  23.681  1.00  0.00     0.314 C 
BRANCH  20  21
ATOM     21  C   UNL A   1      34.503  24.936  24.959  1.00  0.00     0.429 C 
ATOM     22  F   UNL A   1      33.453  24.500  25.693  1.00  0.00    -0.167 F 
ATOM     23  F   UNL A   1      35.590  24.866  25.762  1.00  0.00    -0.167 F 
ATOM     24  F   UNL A   1      34.300  26.245  24.687  1.00  0.00    -0.167 F 
ENDBRANCH  20  21
ENDBRANCH   6   9
ENDBRANCH   4   5
ENDBRANCH   3   4
ENDBRANCH   2   3
ENDBRANCH   1   2
BRANCH   1  25
ATOM     25  C   UNL A   1      31.540  28.561  25.134  1.00  0.00     0.021 C 
BRANCH  25  26
ATOM     26  C   UNL A   1      32.721  29.467  25.461  1.00  0.00     0.116 C 
BRANCH  26  27
ATOM     27  N   UNL A   1      32.283  30.790  25.879  1.00  0.00    -0.352 N 
ATOM     28  C   UNL A   1      32.762  31.577  26.892  1.00  0.00     0.251 C 
ATOM     29  H   UNL A   1      31.536  31.172  25.362  1.00  0.00     0.163 HD
ATOM     30  O   UNL A   1      32.131  32.569  27.254  1.00  0.00    -0.269 OA
BRANCH  28  31
ATOM     31  C   UNL A   1      34.035  31.223  27.549  1.00  0.00     0.039 A 
ATOM     32  C   UNL A   1      34.979  32.225  27.782  1.00  0.00     0.014 A 
ATOM     33  C   UNL A   1      34.292  29.903  27.930  1.00  0.00     0.014 A 
ATOM     34  C   UNL A   1      36.166  31.909  28.446  1.00  0.00     0.010 A 
ATOM     35  C   UNL A   1      35.443  29.604  28.652  1.00  0.00     0.010 A 
ATOM     36  C   UNL A   1      36.394  30.603  28.910  1.00  0.00    -0.014 A 
BRANCH  36  37
ATOM     37  C   UNL A   1      37.618  30.261  29.673  1.00  0.00     0.031 A 
ATOM     38  C   UNL A   1      38.642  29.332  29.081  1.00  0.00     0.074 A 
ATOM     39  C   UNL A   1      37.770  30.733  30.926  1.00  0.00     0.049 A 
ATOM     40  N   UNL A   1      39.743  28.876  29.616  1.00  0.00    -0.248 NA
ATOM     41  C   UNL A   1      38.387  28.835  27.717  1.00  0.00     0.031 C 
ATOM     42  C   UNL A   1      36.813  31.595  31.625  1.00  0.00     0.029 A 
ATOM     43  N   UNL A   1      38.773  30.541  31.842  1.00  0.00    -0.354 N 
ATOM     44  C   UNL A   1      40.300  28.024  28.669  1.00  0.00     0.074 A 
ATOM     45  C   UNL A   1      39.397  27.995  27.541  1.00  0.00     0.031 C 
ATOM     46  C   UNL A   1      37.281  31.866  32.853  1.00  0.00     0.029 A 
ATOM     47  C   UNL A   1      38.550  31.171  33.045  1.00  0.00     0.049 A 
ATOM     48  H   UNL A   1      39.576  30.002  31.657  1.00  0.00     0.167 HD
ATOM     49  C   UNL A   1      41.474  27.353  28.724  1.00  0.00     0.034 A 
ATOM     50  C   UNL A   1      39.283  31.182  34.176  1.00  0.00     0.034 A 
ATOM     51  C   UNL A   1      42.382  27.415  29.838  1.00  0.00     0.049 A 
ATOM     52  C   UNL A   1      40.591  30.438  34.204  1.00  0.00     0.074 A 
ATOM     53  C   UNL A   1      43.622  26.816  29.965  1.00  0.00     0.029 A 
ATOM     54  N   UNL A   1      42.152  28.114  31.011  1.00  0.00    -0.354 N 
ATOM     55  N   UNL A   1      41.158  29.736  33.252  1.00  0.00    -0.248 NA
ATOM     56  C   UNL A   1      41.376  30.516  35.443  1.00  0.00     0.031 C 
ATOM     57  C   UNL A   1      44.130  27.130  31.228  1.00  0.00     0.029 A 
ATOM     58  C   UNL A   1      43.226  27.959  31.871  1.00  0.00     0.049 A 
ATOM     59  H   UNL A   1      41.345  28.644  31.205  1.00  0.00     0.167 HD
ATOM     60  C   UNL A   1      42.385  29.325  33.762  1.00  0.00     0.074 A 
ATOM     61  C   UNL A   1      42.485  29.871  35.100  1.00  0.00     0.031 C 
ATOM     62  C   UNL A   1      43.337  28.556  33.178  1.00  0.00     0.034 A 
BRANCH  49  63
ATOM     63  C   UNL A   1      41.886  26.540  27.524  1.00  0.00     0.023 A 
ATOM     64  C   UNL A   1      42.631  27.153  26.495  1.00  0.00     0.012 A 
ATOM     65  C   UNL A   1      41.636  25.155  27.463  1.00  0.00     0.148 A 
ATOM     66  C   UNL A   1      43.106  26.405  25.419  1.00  0.00     0.002 A 
ATOM     67  C   UNL A   1      42.155  24.407  26.412  1.00  0.00     0.091 A 
ATOM     68  F   UNL A   1      40.910  24.594  28.440  1.00  0.00    -0.205 F 
ATOM     69  C   UNL A   1      42.881  25.032  25.385  1.00  0.00     0.022 A 
BRANCH  67  70
ATOM     70  S   UNL A   1      42.003  22.619  26.322  1.00  0.00     0.127 S 
ATOM     71  O   UNL A   1      42.676  22.205  27.553  1.00  0.00    -0.237 OA
ATOM     72  O   UNL A   1      40.552  22.436  26.328  1.00  0.00    -0.237 OA
ATOM     73  O   UNL A   1      42.666  22.219  25.090  1.00  0.00    -0.744 OA
ENDBRANCH  67  70
ENDBRANCH  49  63
BRANCH  50  74
ATOM     74  C   UNL A   1      38.830  31.992  35.345  1.00  0.00     0.023 A 
ATOM     75  C   UNL A   1      38.924  33.397  35.289  1.00  0.00     0.012 A 
ATOM     76  C   UNL A   1      38.266  31.389  36.485  1.00  0.00     0.148 A 
ATOM     77  C   UNL A   1      38.490  34.182  36.356  1.00  0.00     0.002 A 
ATOM     78  C   UNL A   1      37.779  32.179  37.518  1.00  0.00     0.091 A 
ATOM     79  F   UNL A   1      38.195  30.050  36.525  1.00  0.00    -0.205 F 
ATOM     80  C   UNL A   1      37.906  33.577  37.465  1.00  0.00     0.022 A 
BRANCH  78  81
ATOM     81  S   UNL A   1      36.883  31.496  38.918  1.00  0.00     0.127 S 
ATOM     82  O   UNL A   1      36.652  30.122  38.484  1.00  0.00    -0.237 OA
ATOM     83  O   UNL A   1      37.857  31.648  40.000  1.00  0.00    -0.237 OA
ATOM     84  O   UNL A   1      35.691  32.321  39.064  1.00  0.00    -0.744 OA
ENDBRANCH  78  81
ENDBRANCH  50  74
BRANCH  62  85
ATOM     85  C   UNL A   1      44.599  28.281  33.953  1.00  0.00     0.023 A 
ATOM     86  C   UNL A   1      45.688  29.170  33.865  1.00  0.00     0.012 A 
ATOM     87  C   UNL A   1      44.662  27.197  34.855  1.00  0.00     0.148 A 
ATOM     88  C   UNL A   1      46.830  28.970  34.639  1.00  0.00     0.002 A 
ATOM     89  C   UNL A   1      45.780  27.038  35.664  1.00  0.00     0.091 A 
ATOM     90  F   UNL A   1      43.622  26.352  34.912  1.00  0.00    -0.205 F 
ATOM     91  C   UNL A   1      46.870  27.916  35.549  1.00  0.00     0.022 A 
BRANCH  89  92
ATOM     92  S   UNL A   1      45.873  25.780  36.943  1.00  0.00     0.127 S 
ATOM     93  O   UNL A   1      45.761  24.551  36.159  1.00  0.00    -0.237 OA
ATOM     94  O   UNL A   1      47.199  26.019  37.516  1.00  0.00    -0.237 OA
ATOM     95  O   UNL A   1      44.765  26.045  37.850  1.00  0.00    -0.744 OA
ENDBRANCH  89  92
ENDBRANCH  62  85
ENDBRANCH  36  37
ENDBRANCH  28  31
ENDBRANCH  26  27
ENDBRANCH  25  26
ENDBRANCH   1  25
TORSDOF 17
ENDMDL
MODEL 2
REMARK VINA RESULT:     -12.4      5.479      8.076
REMARK SMILES Cc1cc(Br)cc2c1O[C@H](C(F)(F)F)C(C(=O)NCCCCCCNC(=O)c1ccc(-c3c4nc(c(-c5cccc(S(=O)(=O)[O-])c5F)c5ccc([nH]5)c(-c5cccc(S(=O)(=O)[O-])c5F)c5nc(c(-c6cccc(S(=O)(=O)[O-])c6F)c6ccc3[nH]6)C=C5)C=C4)cc1)=C2
REMARK SMILES IDX 22 1 21 2 20 3 19 4 18 5 16 6 17 7 15 9 1 10 2 11 3 12 8 13
REMARK SMILES IDX 4 14 7 15 9 16 5 17 6 18 91 19 10 20 11 21 12 22 13 23 14 24
REMARK SMILES IDX 23 25 24 26 25 27 26 28 27 30 28 31 29 32 90 33 30 34 89 35
REMARK SMILES IDX 31 36 32 37 33 38 83 39 34 40 88 41 82 42 84 43 35 44 87 45
REMARK SMILES IDX 81 46 80 47 36 49 68 50 48 51 67 52 49 53 52 54 66 55 85 56
REMARK SMILES IDX 50 57 51 58 65 60 86 61 53 62 37 63 38 64 46 65 39 66 41 67
REMARK SMILES IDX 47 68 40 69 42 70 43 71 44 72 45 73 69 74 70 75 78 76 71 77
REMARK SMILES IDX 73 78 79 79 72 80 74 81 75 82 76 83 77 84 54 85 55 86 63 87
REMARK SMILES IDX 56 88 58 89 64 90 57 91 59 92 60 93 61 94 62 95
REMARK H PARENT 18 8 25 29 84 48 52 59
REMARK Flexibility Score: inf
ROOT
ATOM      1  C   UNL A   1      35.374  21.820  24.737  1.00  0.00     0.002 C 
ENDROOT
BRANCH   1   2
ATOM      2  C   UNL A   1      33.974  21.431  25.230  1.00  0.00     0.002 C 
BRANCH   2   3
ATOM      3  C   UNL A   1      32.926  21.268  24.126  1.00  0.00     0.021 C 
BRANCH   3   4
ATOM      4  C   UNL A   1      31.901  22.395  24.093  1.00  0.00     0.116 C 
BRANCH   4   5
ATOM      5  N   UNL A   1      31.253  22.574  25.382  1.00  0.00    -0.352 N 
ATOM      6  C   UNL A   1      30.864  23.611  26.159  1.00  0.00     0.251 C 
ATOM      7  O   UNL A   1      30.295  23.301  27.212  1.00  0.00    -0.270 OA
ATOM      8  H   UNL A   1      31.041  21.708  25.801  1.00  0.00     0.163 HD
BRANCH   6   9
ATOM      9  C   UNL A   1      31.079  25.053  25.836  1.00  0.00     0.067 C 
ATOM     10  C   UNL A   1      32.374  30.031  25.809  1.00  0.00     0.048 C 
ATOM     11  C   UNL A   1      31.384  29.180  25.063  1.00  0.00    -0.007 A 
ATOM     12  C   UNL A   1      30.603  29.742  24.047  1.00  0.00     0.023 A 
ATOM     13  C   UNL A   1      31.265  27.807  25.320  1.00  0.00     0.130 A 
ATOM     14  C   UNL A   1      29.702  28.949  23.336  1.00  0.00     0.019 A 
ATOM     15  C   UNL A   1      30.352  27.011  24.620  1.00  0.00     0.019 A 
ATOM     16  O   UNL A   1      32.047  27.306  26.315  1.00  0.00    -0.475 OA
ATOM     17  Br  UNL A   1      28.643  29.729  21.977  1.00  0.00    -0.051 Br
ATOM     18  C   UNL A   1      29.565  27.589  23.621  1.00  0.00     0.027 A 
ATOM     19  C   UNL A   1      30.202  25.605  24.979  1.00  0.00     0.025 C 
ATOM     20  C   UNL A   1      32.213  25.871  26.384  1.00  0.00     0.314 C 
BRANCH  20  21
ATOM     21  C   UNL A   1      33.571  25.487  25.765  1.00  0.00     0.429 C 
ATOM     22  F   UNL A   1      34.424  26.538  25.799  1.00  0.00    -0.167 F 
ATOM     23  F   UNL A   1      34.178  24.476  26.431  1.00  0.00    -0.167 F 
ATOM     24  F   UNL A   1      33.454  25.092  24.476  1.00  0.00    -0.167 F 
ENDBRANCH  20  21
ENDBRANCH   6   9
ENDBRANCH   4   5
ENDBRANCH   3   4
ENDBRANCH   2   3
ENDBRANCH   1   2
BRANCH   1  25
ATOM     25  C   UNL A   1      36.481  20.806  25.048  1.00  0.00     0.021 C 
BRANCH  25  26
ATOM     26  C   UNL A   1      37.849  21.428  25.304  1.00  0.00     0.116 C 
BRANCH  26  27
ATOM     27  N   UNL A   1      38.784  20.458  25.852  1.00  0.00    -0.352 N 
ATOM     28  C   UNL A   1      40.009  20.671  26.428  1.00  0.00     0.251 C 
ATOM     29  H   UNL A   1      38.497  19.517  25.801  1.00  0.00     0.163 HD
ATOM     30  O   UNL A   1      40.767  19.724  26.634  1.00  0.00    -0.269 OA
BRANCH  28  31
ATOM     31  C   UNL A   1      40.412  22.042  26.794  1.00  0.00     0.039 A 
ATOM     32  C   UNL A   1      41.117  22.248  27.981  1.00  0.00     0.014 A 
ATOM     33  C   UNL A   1      40.091  23.120  25.963  1.00  0.00     0.014 A 
ATOM     34  C   UNL A   1      41.546  23.534  28.312  1.00  0.00     0.010 A 
ATOM     35  C   UNL A   1      40.580  24.389  26.259  1.00  0.00     0.010 A 
ATOM     36  C   UNL A   1      41.304  24.609  27.440  1.00  0.00    -0.014 A 
BRANCH  36  37
ATOM     37  C   UNL A   1      41.806  25.971  27.741  1.00  0.00     0.031 A 
ATOM     38  C   UNL A   1      43.217  26.351  27.386  1.00  0.00     0.074 A 
ATOM     39  C   UNL A   1      41.012  26.838  28.399  1.00  0.00     0.049 A 
ATOM     40  N   UNL A   1      43.850  27.470  27.619  1.00  0.00    -0.248 NA
ATOM     41  C   UNL A   1      44.032  25.335  26.696  1.00  0.00     0.031 C 
ATOM     42  C   UNL A   1      39.645  26.558  28.845  1.00  0.00     0.029 A 
ATOM     43  N   UNL A   1      41.243  28.122  28.823  1.00  0.00    -0.354 N 
ATOM     44  C   UNL A   1      45.137  27.289  27.127  1.00  0.00     0.074 A 
ATOM     45  C   UNL A   1      45.210  25.938  26.617  1.00  0.00     0.031 C 
ATOM     46  C   UNL A   1      39.155  27.642  29.469  1.00  0.00     0.029 A 
ATOM     47  C   UNL A   1      40.182  28.679  29.500  1.00  0.00     0.049 A 
ATOM     48  H   UNL A   1      42.088  28.600  28.659  1.00  0.00     0.167 HD
ATOM     49  C   UNL A   1      46.155  28.179  27.077  1.00  0.00     0.034 A 
ATOM     50  C   UNL A   1      40.054  29.887  30.085  1.00  0.00     0.034 A 
ATOM     51  C   UNL A   1      46.062  29.532  27.556  1.00  0.00     0.049 A 
ATOM     52  C   UNL A   1      41.197  30.861  30.001  1.00  0.00     0.074 A 
ATOM     53  C   UNL A   1      47.020  30.528  27.498  1.00  0.00     0.029 A 
ATOM     54  N   UNL A   1      44.951  30.079  28.177  1.00  0.00    -0.354 N 
ATOM     55  N   UNL A   1      42.365  30.711  29.424  1.00  0.00    -0.248 NA
ATOM     56  C   UNL A   1      40.995  32.181  30.614  1.00  0.00     0.031 C 
ATOM     57  C   UNL A   1      46.498  31.670  28.111  1.00  0.00     0.029 A 
ATOM     58  C   UNL A   1      45.200  31.399  28.513  1.00  0.00     0.049 A 
ATOM     59  H   UNL A   1      44.109  29.600  28.354  1.00  0.00     0.167 HD
ATOM     60  C   UNL A   1      43.020  31.930  29.567  1.00  0.00     0.074 A 
ATOM     61  C   UNL A   1      42.111  32.812  30.270  1.00  0.00     0.031 C 
ATOM     62  C   UNL A   1      44.265  32.282  29.161  1.00  0.00     0.034 A 
BRANCH  49  63
ATOM     63  C   UNL A   1      47.444  27.750  26.425  1.00  0.00     0.023 A 
ATOM     64  C   UNL A   1      48.452  27.153  27.211  1.00  0.00     0.012 A 
ATOM     65  C   UNL A   1      47.616  27.832  25.029  1.00  0.00     0.148 A 
ATOM     66  C   UNL A   1      49.616  26.663  26.622  1.00  0.00     0.002 A 
ATOM     67  C   UNL A   1      48.757  27.296  24.443  1.00  0.00     0.091 A 
ATOM     68  F   UNL A   1      46.656  28.420  24.302  1.00  0.00    -0.205 F 
ATOM     69  C   UNL A   1      49.762  26.720  25.238  1.00  0.00     0.022 A 
BRANCH  67  70
ATOM     70  S   UNL A   1      49.000  27.234  22.664  1.00  0.00     0.127 S 
ATOM     71  O   UNL A   1      50.460  27.219  22.568  1.00  0.00    -0.237 OA
ATOM     72  O   UNL A   1      48.352  25.971  22.312  1.00  0.00    -0.237 OA
ATOM     73  O   UNL A   1      48.357  28.424  22.127  1.00  0.00    -0.744 OA
ENDBRANCH  67  70
ENDBRANCH  49  63
BRANCH  50  74
ATOM     74  C   UNL A   1      38.762  30.265  30.729  1.00  0.00     0.023 A 
ATOM     75  C   UNL A   1      38.534  29.916  32.075  1.00  0.00     0.012 A 
ATOM     76  C   UNL A   1      37.783  31.004  30.039  1.00  0.00     0.148 A 
ATOM     77  C   UNL A   1      37.346  30.273  32.712  1.00  0.00     0.002 A 
ATOM     78  C   UNL A   1      36.628  31.410  30.697  1.00  0.00     0.091 A 
ATOM     79  F   UNL A   1      38.012  31.318  28.755  1.00  0.00    -0.205 F 
ATOM     80  C   UNL A   1      36.398  31.030  32.029  1.00  0.00     0.022 A 
BRANCH  78  81
ATOM     81  S   UNL A   1      35.422  32.507  29.943  1.00  0.00     0.127 S 
ATOM     82  O   UNL A   1      34.364  32.526  30.949  1.00  0.00    -0.237 OA
ATOM     83  O   UNL A   1      36.183  33.752  29.822  1.00  0.00    -0.237 OA
ATOM     84  O   UNL A   1      35.071  31.892  28.670  1.00  0.00    -0.744 OA
ENDBRANCH  78  81
ENDBRANCH  50  74
BRANCH  62  85
ATOM     85  C   UNL A   1      44.723  33.694  29.423  1.00  0.00     0.023 A 
ATOM     86  C   UNL A   1      45.367  34.012  30.634  1.00  0.00     0.012 A 
ATOM     87  C   UNL A   1      44.610  34.678  28.418  1.00  0.00     0.148 A 
ATOM     88  C   UNL A   1      45.868  35.295  30.853  1.00  0.00     0.002 A 
ATOM     89  C   UNL A   1      45.163  35.937  28.622  1.00  0.00     0.091 A 
ATOM     90  F   UNL A   1      43.979  34.360  27.279  1.00  0.00    -0.205 F 
ATOM     91  C   UNL A   1      45.780  36.251  29.844  1.00  0.00     0.022 A 
BRANCH  89  92
ATOM     92  S   UNL A   1      45.198  37.194  27.339  1.00  0.00     0.127 S 
ATOM     93  O   UNL A   1      45.913  38.279  28.007  1.00  0.00    -0.237 OA
ATOM     94  O   UNL A   1      45.953  36.528  26.276  1.00  0.00    -0.237 OA
ATOM     95  O   UNL A   1      43.807  37.472  27.010  1.00  0.00    -0.744 OA
ENDBRANCH  89  92
ENDBRANCH  62  85
ENDBRANCH  36  37
ENDBRANCH  28  31
ENDBRANCH  26  27
ENDBRANCH  25  26
ENDBRANCH   1  25
TORSDOF 17
ENDMDL
MODEL 3
REMARK VINA RESULT:     -12.3      5.350      7.991
REMARK SMILES Cc1cc(Br)cc2c1O[C@H](C(F)(F)F)C(C(=O)NCCCCCCNC(=O)c1ccc(-c3c4nc(c(-c5cccc(S(=O)(=O)[O-])c5F)c5ccc([nH]5)c(-c5cccc(S(=O)(=O)[O-])c5F)c5nc(c(-c6cccc(S(=O)(=O)[O-])c6F)c6ccc3[nH]6)C=C5)C=C4)cc1)=C2
REMARK SMILES IDX 22 1 21 2 20 3 19 4 18 5 16 6 17 7 15 9 1 10 2 11 3 12 8 13
REMARK SMILES IDX 4 14 7 15 9 16 5 17 6 18 91 19 10 20 11 21 12 22 13 23 14 24
REMARK SMILES IDX 23 25 24 26 25 27 26 28 27 30 28 31 29 32 90 33 30 34 89 35
REMARK SMILES IDX 31 36 32 37 33 38 83 39 34 40 88 41 82 42 84 43 35 44 87 45
REMARK SMILES IDX 81 46 80 47 36 49 68 50 48 51 67 52 49 53 52 54 66 55 85 56
REMARK SMILES IDX 50 57 51 58 65 60 86 61 53 62 37 63 38 64 46 65 39 66 41 67
REMARK SMILES IDX 47 68 40 69 42 70 43 71 44 72 45 73 69 74 70 75 78 76 71 77
REMARK SMILES IDX 73 78 79 79 72 80 74 81 75 82 76 83 77 84 54 85 55 86 63 87
REMARK SMILES IDX 56 88 58 89 64 90 57 91 59 92 60 93 61 94 62 95
REMARK H PARENT 18 8 25 29 84 48 52 59
REMARK Flexibility Score: inf
ROOT
ATOM      1  C   UNL A   1      34.597  23.084  26.773  1.00  0.00     0.002 C 
ENDROOT
BRANCH   1   2
ATOM      2  C   UNL A   1      33.364  22.187  26.950  1.00  0.00     0.002 C 
BRANCH   2   3
ATOM      3  C   UNL A   1      33.058  21.273  25.762  1.00  0.00     0.021 C 
BRANCH   3   4
ATOM      4  C   UNL A   1      32.171  21.926  24.708  1.00  0.00     0.116 C 
BRANCH   4   5
ATOM      5  N   UNL A   1      32.934  22.342  23.543  1.00  0.00    -0.352 N 
ATOM      6  C   UNL A   1      33.267  23.509  22.942  1.00  0.00     0.251 C 
ATOM      7  O   UNL A   1      33.991  23.405  21.946  1.00  0.00    -0.270 OA
ATOM      8  H   UNL A   1      33.309  21.569  23.062  1.00  0.00     0.163 HD
BRANCH   6   9
ATOM      9  C   UNL A   1      32.822  24.862  23.391  1.00  0.00     0.067 C 
ATOM     10  C   UNL A   1      30.680  29.512  23.881  1.00  0.00     0.048 C 
ATOM     11  C   UNL A   1      31.846  28.801  24.511  1.00  0.00    -0.007 A 
ATOM     12  C   UNL A   1      32.574  29.419  25.533  1.00  0.00     0.023 A 
ATOM     13  C   UNL A   1      32.188  27.494  24.137  1.00  0.00     0.130 A 
ATOM     14  C   UNL A   1      33.640  28.750  26.136  1.00  0.00     0.019 A 
ATOM     15  C   UNL A   1      33.265  26.826  24.729  1.00  0.00     0.019 A 
ATOM     16  O   UNL A   1      31.448  26.934  23.140  1.00  0.00    -0.475 OA
ATOM     17  Br  UNL A   1      34.623  29.607  27.505  1.00  0.00    -0.051 Br
ATOM     18  C   UNL A   1      33.995  27.461  25.735  1.00  0.00     0.027 A 
ATOM     19  C   UNL A   1      33.637  25.498  24.250  1.00  0.00     0.025 C 
ATOM     20  C   UNL A   1      31.532  25.501  22.962  1.00  0.00     0.314 C 
BRANCH  20  21
ATOM     21  C   UNL A   1      30.301  24.837  23.608  1.00  0.00     0.429 C 
ATOM     22  F   UNL A   1      29.988  23.688  22.964  1.00  0.00    -0.167 F 
ATOM     23  F   UNL A   1      30.510  24.507  24.904  1.00  0.00    -0.167 F 
ATOM     24  F   UNL A   1      29.211  25.637  23.578  1.00  0.00    -0.167 F 
ENDBRANCH  20  21
ENDBRANCH   6   9
ENDBRANCH   4   5
ENDBRANCH   3   4
ENDBRANCH   2   3
ENDBRANCH   1   2
BRANCH   1  25
ATOM     25  C   UNL A   1      35.605  22.607  25.721  1.00  0.00     0.021 C 
BRANCH  25  26
ATOM     26  C   UNL A   1      36.941  23.340  25.754  1.00  0.00     0.116 C 
BRANCH  26  27
ATOM     27  N   UNL A   1      38.040  22.438  26.062  1.00  0.00    -0.352 N 
ATOM     28  C   UNL A   1      39.309  22.736  26.481  1.00  0.00     0.251 C 
ATOM     29  H   UNL A   1      37.844  21.479  25.952  1.00  0.00     0.163 HD
ATOM     30  O   UNL A   1      40.180  21.868  26.479  1.00  0.00    -0.269 OA
BRANCH  28  31
ATOM     31  C   UNL A   1      39.624  24.107  26.929  1.00  0.00     0.039 A 
ATOM     32  C   UNL A   1      39.421  24.446  28.268  1.00  0.00     0.014 A 
ATOM     33  C   UNL A   1      40.117  25.052  26.024  1.00  0.00     0.014 A 
ATOM     34  C   UNL A   1      39.761  25.724  28.712  1.00  0.00     0.010 A 
ATOM     35  C   UNL A   1      40.520  26.302  26.484  1.00  0.00     0.010 A 
ATOM     36  C   UNL A   1      40.338  26.652  27.829  1.00  0.00    -0.014 A 
BRANCH  36  37
ATOM     37  C   UNL A   1      40.766  27.993  28.295  1.00  0.00     0.031 A 
ATOM     38  C   UNL A   1      42.226  28.351  28.329  1.00  0.00     0.074 A 
ATOM     39  C   UNL A   1      39.841  28.860  28.754  1.00  0.00     0.049 A 
ATOM     40  N   UNL A   1      42.794  29.448  28.754  1.00  0.00    -0.248 NA
ATOM     41  C   UNL A   1      43.176  27.336  27.839  1.00  0.00     0.031 C 
ATOM     42  C   UNL A   1      38.402  28.599  28.823  1.00  0.00     0.029 A 
ATOM     43  N   UNL A   1      39.974  30.126  29.266  1.00  0.00    -0.354 N 
ATOM     44  C   UNL A   1      44.161  29.251  28.606  1.00  0.00     0.074 A 
ATOM     45  C   UNL A   1      44.343  27.914  28.087  1.00  0.00     0.031 C 
ATOM     46  C   UNL A   1      37.784  29.675  29.336  1.00  0.00     0.029 A 
ATOM     47  C   UNL A   1      38.783  30.687  29.665  1.00  0.00     0.049 A 
ATOM     48  H   UNL A   1      40.839  30.588  29.342  1.00  0.00     0.167 HD
ATOM     49  C   UNL A   1      45.171  30.119  28.849  1.00  0.00     0.034 A 
ATOM     50  C   UNL A   1      38.525  31.880  30.237  1.00  0.00     0.034 A 
ATOM     51  C   UNL A   1      44.977  31.460  29.333  1.00  0.00     0.049 A 
ATOM     52  C   UNL A   1      39.666  32.830  30.484  1.00  0.00     0.074 A 
ATOM     53  C   UNL A   1      45.932  32.434  29.557  1.00  0.00     0.029 A 
ATOM     54  N   UNL A   1      43.752  32.014  29.665  1.00  0.00    -0.354 N 
ATOM     55  N   UNL A   1      40.941  32.670  30.223  1.00  0.00    -0.248 NA
ATOM     56  C   UNL A   1      39.332  34.136  31.068  1.00  0.00     0.031 C 
ATOM     57  C   UNL A   1      45.287  33.570  30.053  1.00  0.00     0.029 A 
ATOM     58  C   UNL A   1      43.925  33.318  30.097  1.00  0.00     0.049 A 
ATOM     59  H   UNL A   1      42.885  31.550  29.602  1.00  0.00     0.167 HD
ATOM     60  C   UNL A   1      41.555  33.869  30.570  1.00  0.00     0.074 A 
ATOM     61  C   UNL A   1      40.508  34.751  31.044  1.00  0.00     0.031 C 
ATOM     62  C   UNL A   1      42.867  34.203  30.511  1.00  0.00     0.034 A 
BRANCH  49  63
ATOM     63  C   UNL A   1      46.578  29.679  28.538  1.00  0.00     0.023 A 
ATOM     64  C   UNL A   1      47.140  29.992  27.284  1.00  0.00     0.012 A 
ATOM     65  C   UNL A   1      47.379  29.058  29.518  1.00  0.00     0.148 A 
ATOM     66  C   UNL A   1      48.469  29.680  27.002  1.00  0.00     0.002 A 
ATOM     67  C   UNL A   1      48.717  28.796  29.247  1.00  0.00     0.091 A 
ATOM     68  F   UNL A   1      46.821  28.751  30.697  1.00  0.00    -0.205 F 
ATOM     69  C   UNL A   1      49.261  29.097  27.988  1.00  0.00     0.022 A 
BRANCH  67  70
ATOM     70  S   UNL A   1      49.846  28.132  30.477  1.00  0.00     0.127 S 
ATOM     71  O   UNL A   1      51.110  28.121  29.739  1.00  0.00    -0.237 OA
ATOM     72  O   UNL A   1      49.768  29.138  31.537  1.00  0.00    -0.237 OA
ATOM     73  O   UNL A   1      49.329  26.821  30.836  1.00  0.00    -0.744 OA
ENDBRANCH  67  70
ENDBRANCH  49  63
BRANCH  50  74
ATOM     74  C   UNL A   1      37.117  32.269  30.538  1.00  0.00     0.023 A 
ATOM     75  C   UNL A   1      36.618  32.097  31.845  1.00  0.00     0.012 A 
ATOM     76  C   UNL A   1      36.288  32.850  29.560  1.00  0.00     0.148 A 
ATOM     77  C   UNL A   1      35.313  32.470  32.163  1.00  0.00     0.002 A 
ATOM     78  C   UNL A   1      35.009  33.277  29.899  1.00  0.00     0.091 A 
ATOM     79  F   UNL A   1      36.776  32.997  28.320  1.00  0.00    -0.205 F 
ATOM     80  C   UNL A   1      34.512  33.070  31.196  1.00  0.00     0.022 A 
BRANCH  78  81
ATOM     81  S   UNL A   1      33.961  34.189  28.761  1.00  0.00     0.127 S 
ATOM     82  O   UNL A   1      34.849  35.266  28.333  1.00  0.00    -0.237 OA
ATOM     83  O   UNL A   1      33.678  33.179  27.739  1.00  0.00    -0.237 OA
ATOM     84  O   UNL A   1      32.798  34.599  29.537  1.00  0.00    -0.744 OA
ENDBRANCH  78  81
ENDBRANCH  50  74
BRANCH  62  85
ATOM     85  C   UNL A   1      43.263  35.596  30.929  1.00  0.00     0.023 A 
ATOM     86  C   UNL A   1      43.623  35.855  32.266  1.00  0.00     0.012 A 
ATOM     87  C   UNL A   1      43.383  36.623  29.968  1.00  0.00     0.148 A 
ATOM     88  C   UNL A   1      44.069  37.121  32.647  1.00  0.00     0.002 A 
ATOM     89  C   UNL A   1      43.883  37.863  30.344  1.00  0.00     0.091 A 
ATOM     90  F   UNL A   1      43.020  36.361  28.705  1.00  0.00    -0.205 F 
ATOM     91  C   UNL A   1      44.214  38.118  31.685  1.00  0.00     0.022 A 
BRANCH  89  92
ATOM     92  S   UNL A   1      44.210  39.171  29.157  1.00  0.00     0.127 S 
ATOM     93  O   UNL A   1      45.144  38.515  28.243  1.00  0.00    -0.237 OA
ATOM     94  O   UNL A   1      42.881  39.420  28.597  1.00  0.00    -0.237 OA
ATOM     95  O   UNL A   1      44.762  40.281  29.923  1.00  0.00    -0.744 OA
ENDBRANCH  89  92
ENDBRANCH  62  85
ENDBRANCH  36  37
ENDBRANCH  28  31
ENDBRANCH  26  27
ENDBRANCH  25  26
ENDBRANCH   1  25
TORSDOF 17
ENDMDL
