MODEL 1
REMARK VINA RESULT:     -12.0      0.000      0.000
REMARK SMILES Cc1ccc(C(=O)Nc2cccc(F)c2C(=O)NCCCCCCNC(=O)c2ccc(-c3c4nc(c(-c5cccc(S(=O)(=O)[O-])c5F)c5ccc([nH]5)c(-c5cccc(S(=O)(=O)[O-])c5F)c5nc(c(-c6cccc(S(=O)(=O)[O-])c6F)c6ccc3[nH]6)C=C5)C=C4)cc2)c(F)c1
REMARK SMILES IDX 22 1 21 2 20 3 19 4 18 5 16 6 17 7 15 9 9 10 10 11 11 12
REMARK SMILES IDX 13 13 12 14 14 15 8 16 6 17 7 18 5 20 1 21 2 22 3 23 93 24
REMARK SMILES IDX 4 25 91 26 92 27 23 28 24 29 25 30 26 31 27 33 28 34 29 35
REMARK SMILES IDX 90 36 30 37 89 38 31 39 32 40 33 41 83 42 34 43 88 44 82 45
REMARK SMILES IDX 84 46 35 47 87 48 81 49 80 50 36 52 68 53 48 54 67 55 49 56
REMARK SMILES IDX 52 57 66 58 85 59 50 60 51 61 65 63 86 64 53 65 37 66 38 67
REMARK SMILES IDX 46 68 39 69 41 70 47 71 40 72 42 73 43 74 44 75 45 76 69 77
REMARK SMILES IDX 70 78 78 79 71 80 73 81 79 82 72 83 74 84 75 85 76 86 77 87
REMARK SMILES IDX 54 88 55 89 63 90 56 91 58 92 64 93 57 94 59 95 60 96 61 97
REMARK SMILES IDX 62 98
REMARK H PARENT 18 8 8 19 25 32 84 51 52 62
REMARK Flexibility Score: inf
ROOT
ATOM      1  C   UNL A   1      31.649  29.315  25.177  1.00  0.00     0.002 C 
ENDROOT
BRANCH   1   2
ATOM      2  C   UNL A   1      30.767  29.267  23.926  1.00  0.00     0.002 C 
BRANCH   2   3
ATOM      3  C   UNL A   1      31.471  28.950  22.608  1.00  0.00     0.021 C 
BRANCH   3   4
ATOM      4  C   UNL A   1      32.988  28.825  22.656  1.00  0.00     0.116 C 
BRANCH   4   5
ATOM      5  N   UNL A   1      33.487  27.567  22.138  1.00  0.00    -0.352 N 
ATOM      6  C   UNL A   1      33.306  26.268  22.546  1.00  0.00     0.256 C 
ATOM      7  O   UNL A   1      33.908  25.407  21.901  1.00  0.00    -0.269 OA
ATOM      8  H   UNL A   1      34.064  27.660  21.346  1.00  0.00     0.163 HD
BRANCH   6   9
ATOM      9  C   UNL A   1      32.523  25.865  23.756  1.00  0.00     0.099 A 
ATOM     10  C   UNL A   1      33.185  25.631  24.984  1.00  0.00     0.057 A 
ATOM     11  C   UNL A   1      32.453  25.463  26.173  1.00  0.00     0.027 A 
ATOM     12  C   UNL A   1      31.066  25.363  26.132  1.00  0.00     0.005 A 
ATOM     13  C   UNL A   1      31.160  25.567  23.729  1.00  0.00     0.138 A 
ATOM     14  C   UNL A   1      30.428  25.350  24.899  1.00  0.00     0.040 A 
ATOM     15  F   UNL A   1      30.517  25.353  22.573  1.00  0.00    -0.206 F 
BRANCH  10  16
ATOM     16  N   UNL A   1      34.576  25.401  24.999  1.00  0.00    -0.321 N 
ATOM     17  C   UNL A   1      35.259  24.212  25.225  1.00  0.00     0.258 C 
ATOM     18  O   UNL A   1      36.489  24.236  25.255  1.00  0.00    -0.269 OA
ATOM     19  H   UNL A   1      35.140  26.189  24.826  1.00  0.00     0.170 HD
BRANCH  17  20
ATOM     20  C   UNL A   1      34.556  22.895  25.317  1.00  0.00     0.075 A 
ATOM     21  C   UNL A   1      32.770  18.954  25.477  1.00  0.00     0.044 C 
ATOM     22  C   UNL A   1      33.351  20.333  25.420  1.00  0.00    -0.048 A 
ATOM     23  C   UNL A   1      33.574  21.057  26.591  1.00  0.00     0.004 A 
ATOM     24  C   UNL A   1      33.629  20.945  24.192  1.00  0.00     0.043 A 
ATOM     25  C   UNL A   1      34.126  22.341  26.532  1.00  0.00     0.017 A 
ATOM     26  C   UNL A   1      34.239  22.202  24.146  1.00  0.00     0.136 A 
ATOM     27  F   UNL A   1      34.517  22.710  22.936  1.00  0.00    -0.206 F 
ENDBRANCH  17  20
ENDBRANCH  10  16
ENDBRANCH   6   9
ENDBRANCH   4   5
ENDBRANCH   3   4
ENDBRANCH   2   3
ENDBRANCH   1   2
BRANCH   1  28
ATOM     28  C   UNL A   1      31.484  30.541  26.077  1.00  0.00     0.021 C 
BRANCH  28  29
ATOM     29  C   UNL A   1      32.702  30.922  26.911  1.00  0.00     0.116 C 
BRANCH  29  30
ATOM     30  N   UNL A   1      32.825  32.357  27.100  1.00  0.00    -0.352 N 
ATOM     31  C   UNL A   1      33.781  33.066  27.788  1.00  0.00     0.251 C 
ATOM     32  H   UNL A   1      32.122  32.900  26.676  1.00  0.00     0.163 HD
ATOM     33  O   UNL A   1      33.631  34.267  27.977  1.00  0.00    -0.269 OA
BRANCH  31  34
ATOM     34  C   UNL A   1      34.979  32.375  28.318  1.00  0.00     0.039 A 
ATOM     35  C   UNL A   1      36.210  33.034  28.276  1.00  0.00     0.014 A 
ATOM     36  C   UNL A   1      34.895  31.083  28.845  1.00  0.00     0.014 A 
ATOM     37  C   UNL A   1      37.345  32.421  28.815  1.00  0.00     0.010 A 
ATOM     38  C   UNL A   1      36.010  30.505  29.448  1.00  0.00     0.010 A 
ATOM     39  C   UNL A   1      37.248  31.166  29.437  1.00  0.00    -0.014 A 
BRANCH  39  40
ATOM     40  C   UNL A   1      38.426  30.535  30.089  1.00  0.00     0.031 A 
ATOM     41  C   UNL A   1      38.858  30.969  31.466  1.00  0.00     0.074 A 
ATOM     42  C   UNL A   1      39.146  29.612  29.416  1.00  0.00     0.049 A 
ATOM     43  N   UNL A   1      39.892  30.577  32.164  1.00  0.00    -0.248 NA
ATOM     44  C   UNL A   1      38.034  31.988  32.140  1.00  0.00     0.031 C 
ATOM     45  C   UNL A   1      38.862  29.145  28.057  1.00  0.00     0.029 A 
ATOM     46  N   UNL A   1      40.273  28.913  29.775  1.00  0.00    -0.354 N 
ATOM     47  C   UNL A   1      39.855  31.312  33.344  1.00  0.00     0.074 A 
ATOM     48  C   UNL A   1      38.720  32.201  33.255  1.00  0.00     0.031 C 
ATOM     49  C   UNL A   1      39.777  28.228  27.705  1.00  0.00     0.029 A 
ATOM     50  C   UNL A   1      40.738  28.068  28.792  1.00  0.00     0.049 A 
ATOM     51  H   UNL A   1      40.708  29.007  30.653  1.00  0.00     0.167 HD
ATOM     52  C   UNL A   1      40.674  31.228  34.418  1.00  0.00     0.034 A 
ATOM     53  C   UNL A   1      41.817  27.261  28.766  1.00  0.00     0.034 A 
ATOM     54  C   UNL A   1      41.775  30.310  34.524  1.00  0.00     0.049 A 
ATOM     55  C   UNL A   1      42.706  27.191  29.980  1.00  0.00     0.074 A 
ATOM     56  C   UNL A   1      42.625  30.115  35.599  1.00  0.00     0.029 A 
ATOM     57  N   UNL A   1      42.177  29.433  33.530  1.00  0.00    -0.354 N 
ATOM     58  N   UNL A   1      42.582  27.807  31.129  1.00  0.00    -0.248 NA
ATOM     59  C   UNL A   1      43.868  26.290  29.906  1.00  0.00     0.031 C 
ATOM     60  C   UNL A   1      43.556  29.135  35.247  1.00  0.00     0.029 A 
ATOM     61  C   UNL A   1      43.264  28.696  33.966  1.00  0.00     0.049 A 
ATOM     62  H   UNL A   1      41.752  29.346  32.646  1.00  0.00     0.167 HD
ATOM     63  C   UNL A   1      43.619  27.337  31.929  1.00  0.00     0.074 A 
ATOM     64  C   UNL A   1      44.352  26.370  31.138  1.00  0.00     0.031 C 
ATOM     65  C   UNL A   1      43.942  27.686  33.197  1.00  0.00     0.034 A 
BRANCH  52  66
ATOM     66  C   UNL A   1      40.381  32.093  35.616  1.00  0.00     0.023 A 
ATOM     67  C   UNL A   1      41.074  33.309  35.770  1.00  0.00     0.012 A 
ATOM     68  C   UNL A   1      39.326  31.779  36.496  1.00  0.00     0.148 A 
ATOM     69  C   UNL A   1      40.726  34.201  36.784  1.00  0.00     0.002 A 
ATOM     70  C   UNL A   1      38.955  32.692  37.475  1.00  0.00     0.091 A 
ATOM     71  F   UNL A   1      38.689  30.610  36.336  1.00  0.00    -0.205 F 
ATOM     72  C   UNL A   1      39.658  33.900  37.626  1.00  0.00     0.022 A 
BRANCH  70  73
ATOM     73  S   UNL A   1      37.540  32.444  38.553  1.00  0.00     0.127 S 
ATOM     74  O   UNL A   1      37.884  33.294  39.694  1.00  0.00    -0.237 OA
ATOM     75  O   UNL A   1      36.439  32.944  37.731  1.00  0.00    -0.237 OA
ATOM     76  O   UNL A   1      37.494  31.017  38.842  1.00  0.00    -0.744 OA
ENDBRANCH  70  73
ENDBRANCH  52  66
BRANCH  53  77
ATOM     77  C   UNL A   1      42.089  26.402  27.576  1.00  0.00     0.023 A 
ATOM     78  C   UNL A   1      42.702  26.970  26.440  1.00  0.00     0.012 A 
ATOM     79  C   UNL A   1      41.752  25.036  27.560  1.00  0.00     0.148 A 
ATOM     80  C   UNL A   1      42.938  26.203  25.299  1.00  0.00     0.002 A 
ATOM     81  C   UNL A   1      42.047  24.262  26.442  1.00  0.00     0.091 A 
ATOM     82  F   UNL A   1      41.156  24.514  28.640  1.00  0.00    -0.205 F 
ATOM     83  C   UNL A   1      42.621  24.848  25.303  1.00  0.00     0.022 A 
BRANCH  81  84
ATOM     84  S   UNL A   1      41.796  22.483  26.410  1.00  0.00     0.127 S 
ATOM     85  O   UNL A   1      40.353  22.387  26.205  1.00  0.00    -0.237 OA
ATOM     86  O   UNL A   1      42.610  22.083  25.262  1.00  0.00    -0.237 OA
ATOM     87  O   UNL A   1      42.289  21.995  27.691  1.00  0.00    -0.744 OA
ENDBRANCH  81  84
ENDBRANCH  53  77
BRANCH  65  88
ATOM     88  C   UNL A   1      45.109  26.996  33.851  1.00  0.00     0.023 A 
ATOM     89  C   UNL A   1      46.393  27.569  33.781  1.00  0.00     0.012 A 
ATOM     90  C   UNL A   1      44.907  25.845  34.640  1.00  0.00     0.148 A 
ATOM     91  C   UNL A   1      47.462  26.998  34.469  1.00  0.00     0.002 A 
ATOM     92  C   UNL A   1      45.964  25.313  35.366  1.00  0.00     0.091 A 
ATOM     93  F   UNL A   1      43.679  25.307  34.683  1.00  0.00    -0.205 F 
ATOM     94  C   UNL A   1      47.245  25.881  35.272  1.00  0.00     0.022 A 
BRANCH  92  95
ATOM     95  S   UNL A   1      45.759  23.945  36.512  1.00  0.00     0.127 S 
ATOM     96  O   UNL A   1      47.127  23.755  36.995  1.00  0.00    -0.237 OA
ATOM     97  O   UNL A   1      44.836  24.506  37.500  1.00  0.00    -0.237 OA
ATOM     98  O   UNL A   1      45.217  22.840  35.733  1.00  0.00    -0.744 OA
ENDBRANCH  92  95
ENDBRANCH  65  88
ENDBRANCH  39  40
ENDBRANCH  31  34
ENDBRANCH  29  30
ENDBRANCH  28  29
ENDBRANCH   1  28
TORSDOF 18
ENDMDL
MODEL 2
REMARK VINA RESULT:     -12.0      5.057     10.213
REMARK SMILES Cc1ccc(C(=O)Nc2cccc(F)c2C(=O)NCCCCCCNC(=O)c2ccc(-c3c4nc(c(-c5cccc(S(=O)(=O)[O-])c5F)c5ccc([nH]5)c(-c5cccc(S(=O)(=O)[O-])c5F)c5nc(c(-c6cccc(S(=O)(=O)[O-])c6F)c6ccc3[nH]6)C=C5)C=C4)cc2)c(F)c1
REMARK SMILES IDX 22 1 21 2 20 3 19 4 18 5 16 6 17 7 15 9 9 10 10 11 11 12
REMARK SMILES IDX 13 13 12 14 14 15 8 16 6 17 7 18 5 20 1 21 2 22 3 23 93 24
REMARK SMILES IDX 4 25 91 26 92 27 23 28 24 29 25 30 26 31 27 33 28 34 29 35
REMARK SMILES IDX 90 36 30 37 89 38 31 39 32 40 33 41 83 42 34 43 88 44 82 45
REMARK SMILES IDX 84 46 35 47 87 48 81 49 80 50 36 52 68 53 48 54 67 55 49 56
REMARK SMILES IDX 52 57 66 58 85 59 50 60 51 61 65 63 86 64 53 65 37 66 38 67
REMARK SMILES IDX 46 68 39 69 41 70 47 71 40 72 42 73 43 74 44 75 45 76 69 77
REMARK SMILES IDX 70 78 78 79 71 80 73 81 79 82 72 83 74 84 75 85 76 86 77 87
REMARK SMILES IDX 54 88 55 89 63 90 56 91 58 92 64 93 57 94 59 95 60 96 61 97
REMARK SMILES IDX 62 98
REMARK H PARENT 18 8 8 19 25 32 84 51 52 62
REMARK Flexibility Score: inf
ROOT
ATOM      1  C   UNL A   1      34.529  21.437  24.597  1.00  0.00     0.002 C 
ENDROOT
BRANCH   1   2
ATOM      2  C   UNL A   1      33.471  20.330  24.600  1.00  0.00     0.002 C 
BRANCH   2   3
ATOM      3  C   UNL A   1      32.407  20.402  23.506  1.00  0.00     0.021 C 
BRANCH   3   4
ATOM      4  C   UNL A   1      32.538  21.538  22.499  1.00  0.00     0.116 C 
BRANCH   4   5
ATOM      5  N   UNL A   1      31.409  22.446  22.493  1.00  0.00    -0.352 N 
ATOM      6  C   UNL A   1      31.013  23.426  23.369  1.00  0.00     0.256 C 
ATOM      7  O   UNL A   1      29.963  24.011  23.091  1.00  0.00    -0.269 OA
ATOM      8  H   UNL A   1      30.814  22.340  21.716  1.00  0.00     0.163 HD
BRANCH   6   9
ATOM      9  C   UNL A   1      31.712  23.743  24.653  1.00  0.00     0.099 A 
ATOM     10  C   UNL A   1      32.786  24.663  24.669  1.00  0.00     0.057 A 
ATOM     11  C   UNL A   1      33.311  25.133  25.886  1.00  0.00     0.027 A 
ATOM     12  C   UNL A   1      32.890  24.577  27.090  1.00  0.00     0.005 A 
ATOM     13  C   UNL A   1      31.458  23.078  25.854  1.00  0.00     0.138 A 
ATOM     14  C   UNL A   1      32.010  23.504  27.065  1.00  0.00     0.040 A 
ATOM     15  F   UNL A   1      30.773  21.928  25.880  1.00  0.00    -0.206 F 
BRANCH  10  16
ATOM     16  N   UNL A   1      33.447  24.991  23.466  1.00  0.00    -0.321 N 
ATOM     17  C   UNL A   1      33.176  26.026  22.580  1.00  0.00     0.258 C 
ATOM     18  O   UNL A   1      33.840  26.105  21.546  1.00  0.00    -0.269 OA
ATOM     19  H   UNL A   1      34.200  24.407  23.222  1.00  0.00     0.170 HD
BRANCH  17  20
ATOM     20  C   UNL A   1      32.192  27.109  22.895  1.00  0.00     0.075 A 
ATOM     21  C   UNL A   1      29.526  30.432  23.664  1.00  0.00     0.044 C 
ATOM     22  C   UNL A   1      30.433  29.263  23.430  1.00  0.00    -0.048 A 
ATOM     23  C   UNL A   1      30.030  28.208  22.611  1.00  0.00     0.004 A 
ATOM     24  C   UNL A   1      31.675  29.178  24.068  1.00  0.00     0.043 A 
ATOM     25  C   UNL A   1      30.885  27.123  22.387  1.00  0.00     0.017 A 
ATOM     26  C   UNL A   1      32.548  28.121  23.789  1.00  0.00     0.136 A 
ATOM     27  F   UNL A   1      33.739  28.126  24.403  1.00  0.00    -0.206 F 
ENDBRANCH  17  20
ENDBRANCH  10  16
ENDBRANCH   6   9
ENDBRANCH   4   5
ENDBRANCH   3   4
ENDBRANCH   2   3
ENDBRANCH   1   2
BRANCH   1  28
ATOM     28  C   UNL A   1      35.539  21.412  25.746  1.00  0.00     0.021 C 
BRANCH  28  29
ATOM     29  C   UNL A   1      36.954  21.861  25.397  1.00  0.00     0.116 C 
BRANCH  29  30
ATOM     30  N   UNL A   1      37.949  20.840  25.674  1.00  0.00    -0.352 N 
ATOM     31  C   UNL A   1      39.240  20.982  26.127  1.00  0.00     0.251 C 
ATOM     32  H   UNL A   1      37.659  19.913  25.514  1.00  0.00     0.163 HD
ATOM     33  O   UNL A   1      39.989  20.013  26.148  1.00  0.00    -0.269 OA
BRANCH  31  34
ATOM     34  C   UNL A   1      39.729  22.308  26.569  1.00  0.00     0.039 A 
ATOM     35  C   UNL A   1      40.751  22.367  27.519  1.00  0.00     0.014 A 
ATOM     36  C   UNL A   1      39.181  23.488  26.057  1.00  0.00     0.014 A 
ATOM     37  C   UNL A   1      41.263  23.606  27.913  1.00  0.00     0.010 A 
ATOM     38  C   UNL A   1      39.741  24.718  26.396  1.00  0.00     0.010 A 
ATOM     39  C   UNL A   1      40.787  24.791  27.329  1.00  0.00    -0.014 A 
BRANCH  39  40
ATOM     40  C   UNL A   1      41.375  26.113  27.676  1.00  0.00     0.031 A 
ATOM     41  C   UNL A   1      42.799  26.434  27.300  1.00  0.00     0.074 A 
ATOM     42  C   UNL A   1      40.646  27.002  28.383  1.00  0.00     0.049 A 
ATOM     43  N   UNL A   1      43.497  27.505  27.571  1.00  0.00    -0.248 NA
ATOM     44  C   UNL A   1      43.540  25.414  26.539  1.00  0.00     0.031 C 
ATOM     45  C   UNL A   1      39.275  26.790  28.851  1.00  0.00     0.029 A 
ATOM     46  N   UNL A   1      40.961  28.257  28.846  1.00  0.00    -0.354 N 
ATOM     47  C   UNL A   1      44.760  27.282  27.034  1.00  0.00     0.074 A 
ATOM     48  C   UNL A   1      44.746  25.959  26.454  1.00  0.00     0.031 C 
ATOM     49  C   UNL A   1      38.862  27.879  29.518  1.00  0.00     0.029 A 
ATOM     50  C   UNL A   1      39.948  28.853  29.563  1.00  0.00     0.049 A 
ATOM     51  H   UNL A   1      41.830  28.690  28.680  1.00  0.00     0.167 HD
ATOM     52  C   UNL A   1      45.824  28.119  26.998  1.00  0.00     0.034 A 
ATOM     53  C   UNL A   1      39.900  30.045  30.191  1.00  0.00     0.034 A 
ATOM     54  C   UNL A   1      45.820  29.452  27.535  1.00  0.00     0.049 A 
ATOM     55  C   UNL A   1      41.101  30.952  30.129  1.00  0.00     0.074 A 
ATOM     56  C   UNL A   1      46.834  30.393  27.493  1.00  0.00     0.029 A 
ATOM     57  N   UNL A   1      44.757  30.038  28.202  1.00  0.00    -0.354 N 
ATOM     58  N   UNL A   1      42.242  30.767  29.512  1.00  0.00    -0.248 NA
ATOM     59  C   UNL A   1      40.999  32.246  30.822  1.00  0.00     0.031 C 
ATOM     60  C   UNL A   1      46.393  31.540  28.156  1.00  0.00     0.029 A 
ATOM     61  C   UNL A   1      45.092  31.326  28.580  1.00  0.00     0.049 A 
ATOM     62  H   UNL A   1      43.892  29.602  28.381  1.00  0.00     0.167 HD
ATOM     63  C   UNL A   1      42.974  31.935  29.705  1.00  0.00     0.074 A 
ATOM     64  C   UNL A   1      42.140  32.829  30.481  1.00  0.00     0.031 C 
ATOM     65  C   UNL A   1      44.228  32.232  29.289  1.00  0.00     0.034 A 
BRANCH  52  66
ATOM     66  C   UNL A   1      47.072  27.665  26.289  1.00  0.00     0.023 A 
ATOM     67  C   UNL A   1      47.975  26.819  26.963  1.00  0.00     0.012 A 
ATOM     68  C   UNL A   1      47.274  27.948  24.924  1.00  0.00     0.148 A 
ATOM     69  C   UNL A   1      49.063  26.263  26.291  1.00  0.00     0.002 A 
ATOM     70  C   UNL A   1      48.335  27.355  24.250  1.00  0.00     0.091 A 
ATOM     71  F   UNL A   1      46.408  28.764  24.307  1.00  0.00    -0.205 F 
ATOM     72  C   UNL A   1      49.234  26.518  24.933  1.00  0.00     0.022 A 
BRANCH  70  73
ATOM     73  S   UNL A   1      48.595  27.544  22.482  1.00  0.00     0.127 S 
ATOM     74  O   UNL A   1      47.389  28.270  22.083  1.00  0.00    -0.237 OA
ATOM     75  O   UNL A   1      49.824  28.334  22.438  1.00  0.00    -0.237 OA
ATOM     76  O   UNL A   1      48.708  26.197  21.941  1.00  0.00    -0.744 OA
ENDBRANCH  70  73
ENDBRANCH  52  66
BRANCH  53  77
ATOM     77  C   UNL A   1      38.652  30.486  30.880  1.00  0.00     0.023 A 
ATOM     78  C   UNL A   1      38.497  30.231  32.258  1.00  0.00     0.012 A 
ATOM     79  C   UNL A   1      37.624  31.156  30.190  1.00  0.00     0.148 A 
ATOM     80  C   UNL A   1      37.328  30.598  32.925  1.00  0.00     0.002 A 
ATOM     81  C   UNL A   1      36.488  31.575  30.874  1.00  0.00     0.091 A 
ATOM     82  F   UNL A   1      37.780  31.378  28.878  1.00  0.00    -0.205 F 
ATOM     83  C   UNL A   1      36.329  31.279  32.236  1.00  0.00     0.022 A 
BRANCH  81  84
ATOM     84  S   UNL A   1      35.213  32.575  30.098  1.00  0.00     0.127 S 
ATOM     85  O   UNL A   1      34.278  32.780  31.202  1.00  0.00    -0.237 OA
ATOM     86  O   UNL A   1      35.964  33.766  29.696  1.00  0.00    -0.237 OA
ATOM     87  O   UNL A   1      34.714  31.780  28.984  1.00  0.00    -0.744 OA
ENDBRANCH  81  84
ENDBRANCH  53  77
BRANCH  65  88
ATOM     88  C   UNL A   1      44.781  33.595  29.610  1.00  0.00     0.023 A 
ATOM     89  C   UNL A   1      45.489  33.801  30.809  1.00  0.00     0.012 A 
ATOM     90  C   UNL A   1      44.705  34.637  28.663  1.00  0.00     0.148 A 
ATOM     91  C   UNL A   1      46.096  35.028  31.071  1.00  0.00     0.002 A 
ATOM     92  C   UNL A   1      45.358  35.838  28.906  1.00  0.00     0.091 A 
ATOM     93  F   UNL A   1      44.015  34.425  27.533  1.00  0.00    -0.205 F 
ATOM     94  C   UNL A   1      46.044  36.040  30.115  1.00  0.00     0.022 A 
BRANCH  92  95
ATOM     95  S   UNL A   1      45.440  37.159  27.690  1.00  0.00     0.127 S 
ATOM     96  O   UNL A   1      46.146  38.202  28.433  1.00  0.00    -0.237 OA
ATOM     97  O   UNL A   1      46.220  36.541  26.617  1.00  0.00    -0.237 OA
ATOM     98  O   UNL A   1      44.062  37.471  27.337  1.00  0.00    -0.744 OA
ENDBRANCH  92  95
ENDBRANCH  65  88
ENDBRANCH  39  40
ENDBRANCH  31  34
ENDBRANCH  29  30
ENDBRANCH  28  29
ENDBRANCH   1  28
TORSDOF 18
ENDMDL
MODEL 3
REMARK VINA RESULT:     -11.8      5.463      8.996
REMARK SMILES Cc1ccc(C(=O)Nc2cccc(F)c2C(=O)NCCCCCCNC(=O)c2ccc(-c3c4nc(c(-c5cccc(S(=O)(=O)[O-])c5F)c5ccc([nH]5)c(-c5cccc(S(=O)(=O)[O-])c5F)c5nc(c(-c6cccc(S(=O)(=O)[O-])c6F)c6ccc3[nH]6)C=C5)C=C4)cc2)c(F)c1
REMARK SMILES IDX 22 1 21 2 20 3 19 4 18 5 16 6 17 7 15 9 9 10 10 11 11 12
REMARK SMILES IDX 13 13 12 14 14 15 8 16 6 17 7 18 5 20 1 21 2 22 3 23 93 24
REMARK SMILES IDX 4 25 91 26 92 27 23 28 24 29 25 30 26 31 27 33 28 34 29 35
REMARK SMILES IDX 90 36 30 37 89 38 31 39 32 40 33 41 83 42 34 43 88 44 82 45
REMARK SMILES IDX 84 46 35 47 87 48 81 49 80 50 36 52 68 53 48 54 67 55 49 56
REMARK SMILES IDX 52 57 66 58 85 59 50 60 51 61 65 63 86 64 53 65 37 66 38 67
REMARK SMILES IDX 46 68 39 69 41 70 47 71 40 72 42 73 43 74 44 75 45 76 69 77
REMARK SMILES IDX 70 78 78 79 71 80 73 81 79 82 72 83 74 84 75 85 76 86 77 87
REMARK SMILES IDX 54 88 55 89 63 90 56 91 58 92 64 93 57 94 59 95 60 96 61 97
REMARK SMILES IDX 62 98
REMARK H PARENT 18 8 8 19 25 32 84 51 52 62
REMARK Flexibility Score: inf
ROOT
ATOM      1  C   UNL A   1      36.386  20.392  24.966  1.00  0.00     0.002 C 
ENDROOT
BRANCH   1   2
ATOM      2  C   UNL A   1      36.280  21.710  25.737  1.00  0.00     0.002 C 
BRANCH   2   3
ATOM      3  C   UNL A   1      34.873  22.154  26.138  1.00  0.00     0.021 C 
BRANCH   3   4
ATOM      4  C   UNL A   1      33.768  21.112  26.017  1.00  0.00     0.116 C 
BRANCH   4   5
ATOM      5  N   UNL A   1      32.437  21.647  26.225  1.00  0.00    -0.352 N 
ATOM      6  C   UNL A   1      31.764  22.690  25.639  1.00  0.00     0.256 C 
ATOM      7  O   UNL A   1      30.631  22.917  26.073  1.00  0.00    -0.269 OA
ATOM      8  H   UNL A   1      31.920  21.175  26.916  1.00  0.00     0.163 HD
BRANCH   6   9
ATOM      9  C   UNL A   1      32.350  23.599  24.606  1.00  0.00     0.099 A 
ATOM     10  C   UNL A   1      32.797  24.891  24.969  1.00  0.00     0.057 A 
ATOM     11  C   UNL A   1      33.540  25.673  24.067  1.00  0.00     0.027 A 
ATOM     12  C   UNL A   1      33.708  25.254  22.751  1.00  0.00     0.005 A 
ATOM     13  C   UNL A   1      32.370  23.306  23.242  1.00  0.00     0.138 A 
ATOM     14  C   UNL A   1      33.064  24.099  22.325  1.00  0.00     0.040 A 
ATOM     15  F   UNL A   1      31.621  22.320  22.731  1.00  0.00    -0.206 F 
BRANCH  10  16
ATOM     16  N   UNL A   1      32.361  25.470  26.179  1.00  0.00    -0.321 N 
ATOM     17  C   UNL A   1      31.602  26.619  26.368  1.00  0.00     0.258 C 
ATOM     18  O   UNL A   1      31.376  26.992  27.519  1.00  0.00    -0.269 OA
ATOM     19  H   UNL A   1      32.630  24.998  26.999  1.00  0.00     0.170 HD
BRANCH  17  20
ATOM     20  C   UNL A   1      30.957  27.345  25.230  1.00  0.00     0.075 A 
ATOM     21  C   UNL A   1      28.839  29.456  22.099  1.00  0.00     0.044 C 
ATOM     22  C   UNL A   1      29.597  28.712  23.155  1.00  0.00    -0.048 A 
ATOM     23  C   UNL A   1      30.674  29.310  23.808  1.00  0.00     0.004 A 
ATOM     24  C   UNL A   1      29.278  27.386  23.468  1.00  0.00     0.043 A 
ATOM     25  C   UNL A   1      31.373  28.614  24.800  1.00  0.00     0.017 A 
ATOM     26  C   UNL A   1      29.941  26.720  24.504  1.00  0.00     0.136 A 
ATOM     27  F   UNL A   1      29.554  25.466  24.780  1.00  0.00    -0.206 F 
ENDBRANCH  17  20
ENDBRANCH  10  16
ENDBRANCH   6   9
ENDBRANCH   4   5
ENDBRANCH   3   4
ENDBRANCH   2   3
ENDBRANCH   1   2
BRANCH   1  28
ATOM     28  C   UNL A   1      37.801  19.866  24.713  1.00  0.00     0.021 C 
BRANCH  28  29
ATOM     29  C   UNL A   1      38.850  20.254  25.749  1.00  0.00     0.116 C 
BRANCH  29  30
ATOM     30  N   UNL A   1      39.879  19.242  25.911  1.00  0.00    -0.352 N 
ATOM     31  C   UNL A   1      41.224  19.398  26.152  1.00  0.00     0.251 C 
ATOM     32  H   UNL A   1      39.570  18.311  25.836  1.00  0.00     0.163 HD
ATOM     33  O   UNL A   1      41.970  18.428  26.097  1.00  0.00    -0.269 OA
BRANCH  31  34
ATOM     34  C   UNL A   1      41.772  20.740  26.457  1.00  0.00     0.039 A 
ATOM     35  C   UNL A   1      42.009  21.626  25.403  1.00  0.00     0.014 A 
ATOM     36  C   UNL A   1      42.058  21.122  27.770  1.00  0.00     0.014 A 
ATOM     37  C   UNL A   1      42.478  22.915  25.672  1.00  0.00     0.010 A 
ATOM     38  C   UNL A   1      42.456  22.430  28.042  1.00  0.00     0.010 A 
ATOM     39  C   UNL A   1      42.673  23.340  26.996  1.00  0.00    -0.014 A 
BRANCH  39  40
ATOM     40  C   UNL A   1      43.093  24.732  27.306  1.00  0.00     0.031 A 
ATOM     41  C   UNL A   1      42.112  25.709  27.901  1.00  0.00     0.074 A 
ATOM     42  C   UNL A   1      44.342  25.136  26.994  1.00  0.00     0.049 A 
ATOM     43  N   UNL A   1      42.281  26.975  28.180  1.00  0.00    -0.248 NA
ATOM     44  C   UNL A   1      40.762  25.205  28.207  1.00  0.00     0.031 C 
ATOM     45  C   UNL A   1      45.370  24.301  26.367  1.00  0.00     0.029 A 
ATOM     46  N   UNL A   1      44.959  26.355  27.147  1.00  0.00    -0.354 N 
ATOM     47  C   UNL A   1      41.060  27.423  28.671  1.00  0.00     0.074 A 
ATOM     48  C   UNL A   1      40.146  26.304  28.619  1.00  0.00     0.031 C 
ATOM     49  C   UNL A   1      46.489  25.024  26.204  1.00  0.00     0.029 A 
ATOM     50  C   UNL A   1      46.252  26.385  26.676  1.00  0.00     0.049 A 
ATOM     51  H   UNL A   1      44.517  27.134  27.556  1.00  0.00     0.167 HD
ATOM     52  C   UNL A   1      40.739  28.646  29.154  1.00  0.00     0.034 A 
ATOM     53  C   UNL A   1      47.144  27.395  26.623  1.00  0.00     0.034 A 
ATOM     54  C   UNL A   1      41.663  29.744  29.249  1.00  0.00     0.049 A 
ATOM     55  C   UNL A   1      46.755  28.742  27.172  1.00  0.00     0.074 A 
ATOM     56  C   UNL A   1      41.442  31.003  29.777  1.00  0.00     0.029 A 
ATOM     57  N   UNL A   1      42.978  29.716  28.813  1.00  0.00    -0.354 N 
ATOM     58  N   UNL A   1      45.633  29.108  27.741  1.00  0.00    -0.248 NA
ATOM     59  C   UNL A   1      47.765  29.810  27.100  1.00  0.00     0.031 C 
ATOM     60  C   UNL A   1      42.617  31.746  29.642  1.00  0.00     0.029 A 
ATOM     61  C   UNL A   1      43.580  30.937  29.059  1.00  0.00     0.049 A 
ATOM     62  H   UNL A   1      43.418  28.942  28.392  1.00  0.00     0.167 HD
ATOM     63  C   UNL A   1      45.817  30.430  28.134  1.00  0.00     0.074 A 
ATOM     64  C   UNL A   1      47.166  30.796  27.754  1.00  0.00     0.031 C 
ATOM     65  C   UNL A   1      44.943  31.268  28.741  1.00  0.00     0.034 A 
BRANCH  52  66
ATOM     66  C   UNL A   1      39.352  28.864  29.700  1.00  0.00     0.023 A 
ATOM     67  C   UNL A   1      39.056  28.440  31.010  1.00  0.00     0.012 A 
ATOM     68  C   UNL A   1      38.401  29.613  28.981  1.00  0.00     0.148 A 
ATOM     69  C   UNL A   1      37.831  28.754  31.597  1.00  0.00     0.002 A 
ATOM     70  C   UNL A   1      37.200  29.961  29.589  1.00  0.00     0.091 A 
ATOM     71  F   UNL A   1      38.701  29.995  27.732  1.00  0.00    -0.205 F 
ATOM     72  C   UNL A   1      36.911  29.527  30.894  1.00  0.00     0.022 A 
BRANCH  70  73
ATOM     73  S   UNL A   1      35.984  31.027  28.807  1.00  0.00     0.127 S 
ATOM     74  O   UNL A   1      35.082  31.315  29.922  1.00  0.00    -0.237 OA
ATOM     75  O   UNL A   1      36.803  32.160  28.378  1.00  0.00    -0.237 OA
ATOM     76  O   UNL A   1      35.396  30.248  27.726  1.00  0.00    -0.744 OA
ENDBRANCH  70  73
ENDBRANCH  52  66
BRANCH  53  77
ATOM     77  C   UNL A   1      48.518  27.160  26.090  1.00  0.00     0.023 A 
ATOM     78  C   UNL A   1      49.509  26.634  26.943  1.00  0.00     0.012 A 
ATOM     79  C   UNL A   1      48.850  27.446  24.752  1.00  0.00     0.148 A 
ATOM     80  C   UNL A   1      50.812  26.435  26.486  1.00  0.00     0.002 A 
ATOM     81  C   UNL A   1      50.134  27.187  24.286  1.00  0.00     0.091 A 
ATOM     82  F   UNL A   1      47.901  27.960  23.957  1.00  0.00    -0.205 F 
ATOM     83  C   UNL A   1      51.122  26.701  25.156  1.00  0.00     0.022 A 
BRANCH  81  84
ATOM     84  S   UNL A   1      50.585  27.374  22.556  1.00  0.00     0.127 S 
ATOM     85  O   UNL A   1      51.930  26.803  22.533  1.00  0.00    -0.237 OA
ATOM     86  O   UNL A   1      49.562  26.569  21.888  1.00  0.00    -0.237 OA
ATOM     87  O   UNL A   1      50.497  28.801  22.280  1.00  0.00    -0.744 OA
ENDBRANCH  81  84
ENDBRANCH  53  77
BRANCH  65  88
ATOM     88  C   UNL A   1      45.410  32.656  29.089  1.00  0.00     0.023 A 
ATOM     89  C   UNL A   1      46.162  32.872  30.259  1.00  0.00     0.012 A 
ATOM     90  C   UNL A   1      45.208  33.722  28.188  1.00  0.00     0.148 A 
ATOM     91  C   UNL A   1      46.690  34.132  30.539  1.00  0.00     0.002 A 
ATOM     92  C   UNL A   1      45.782  34.960  28.447  1.00  0.00     0.091 A 
ATOM     93  F   UNL A   1      44.477  33.499  27.086  1.00  0.00    -0.205 F 
ATOM     94  C   UNL A   1      46.513  35.170  29.627  1.00  0.00     0.022 A 
BRANCH  92  95
ATOM     95  S   UNL A   1      45.703  36.326  27.281  1.00  0.00     0.127 S 
ATOM     96  O   UNL A   1      46.472  37.355  27.978  1.00  0.00    -0.237 OA
ATOM     97  O   UNL A   1      46.364  35.763  26.103  1.00  0.00    -0.237 OA
ATOM     98  O   UNL A   1      44.289  36.623  27.100  1.00  0.00    -0.744 OA
ENDBRANCH  92  95
ENDBRANCH  65  88
ENDBRANCH  39  40
ENDBRANCH  31  34
ENDBRANCH  29  30
ENDBRANCH  28  29
ENDBRANCH   1  28
TORSDOF 18
ENDMDL
