MODEL 1
REMARK VINA RESULT:      -8.9      0.000      0.000
REMARK SMILES CS(=O)(=O)c1ccc(/C=C(/C(=O)NCCCCCCNC(=O)c2ccc(-c3c4nc(c(-c5cccc(S(=O)(=O)[O-])c5F)c5ccc([nH]5)c(-c5cccc(S(=O)(=O)[O-])c5F)c5nc(c(-c6cccc(S(=O)(=O)[O-])c6F)c6ccc3[nH]6)C=C5)C=C4)cc2)c2cccc(-c3ccc(S(C)(=O)=O)cc3)c2)cc1
REMARK SMILES IDX 16 1 15 2 14 3 13 4 11 5 12 6 10 8 9 9 8 10 5 11 6 12 103 13
REMARK SMILES IDX 7 14 102 15 2 16 1 17 3 18 4 19 86 20 87 21 101 22 88 23
REMARK SMILES IDX 90 24 89 25 91 26 92 27 100 28 93 29 99 30 94 31 95 32 96 33
REMARK SMILES IDX 97 34 98 35 17 36 18 37 19 38 20 39 21 40 22 42 23 43 24 44
REMARK SMILES IDX 85 45 25 46 84 47 26 48 27 49 28 50 78 51 29 52 83 53 77 54
REMARK SMILES IDX 79 55 30 56 82 57 76 58 75 59 31 61 63 62 43 63 62 64 44 65
REMARK SMILES IDX 47 66 61 67 80 68 45 69 46 70 60 72 81 73 48 74 32 75 33 76
REMARK SMILES IDX 41 77 34 78 36 79 42 80 35 81 37 82 38 83 39 84 40 85 64 86
REMARK SMILES IDX 65 87 73 88 66 89 68 90 74 91 67 92 69 93 70 94 71 95 72 96
REMARK SMILES IDX 49 97 50 98 58 99 51 100 53 101 59 102 52 103 54 104 55 105
REMARK SMILES IDX 56 106 57 107
REMARK H PARENT 13 7 20 41 79 60 47 71
REMARK Flexibility Score: inf
ROOT
ATOM      1  C   UNL A   1      36.239  33.624  34.761  1.00  0.00     0.002 C 
ENDROOT
BRANCH   1   2
ATOM      2  C   UNL A   1      35.015  34.113  33.969  1.00  0.00     0.021 C 
BRANCH   2   3
ATOM      3  C   UNL A   1      34.393  33.035  33.076  1.00  0.00     0.116 C 
BRANCH   3   4
ATOM      4  N   UNL A   1      34.124  33.589  31.763  1.00  0.00    -0.352 N 
ATOM      5  C   UNL A   1      34.751  33.531  30.561  1.00  0.00     0.251 C 
ATOM      6  O   UNL A   1      34.264  34.230  29.669  1.00  0.00    -0.269 OA
ATOM      7  H   UNL A   1      33.300  34.128  31.738  1.00  0.00     0.163 HD
BRANCH   5   8
ATOM      8  C   UNL A   1      35.913  32.607  30.260  1.00  0.00     0.047 C 
ATOM      9  C   UNL A   1      35.761  31.274  30.081  1.00  0.00     0.022 C 
BRANCH   9  10
ATOM     10  C   UNL A   1      36.764  30.266  29.659  1.00  0.00    -0.025 A 
ATOM     11  C   UNL A   1      38.765  28.504  28.767  1.00  0.00     0.067 A 
ATOM     12  C   UNL A   1      38.220  28.351  30.043  1.00  0.00     0.021 A 
ATOM     13  C   UNL A   1      38.292  29.499  27.914  1.00  0.00     0.021 A 
ATOM     14  C   UNL A   1      37.210  29.219  30.476  1.00  0.00     0.009 A 
ATOM     15  C   UNL A   1      37.296  30.375  28.362  1.00  0.00     0.009 A 
BRANCH  11  16
ATOM     16  S   UNL A   1      40.043  27.395  28.220  1.00  0.00     0.175 S 
ATOM     17  C   UNL A   1      41.434  27.751  29.260  1.00  0.00     0.163 C 
ATOM     18  O   UNL A   1      40.413  27.771  26.870  1.00  0.00    -0.224 OA
ATOM     19  O   UNL A   1      39.589  26.052  28.529  1.00  0.00    -0.224 OA
ENDBRANCH  11  16
ENDBRANCH   9  10
BRANCH   8  20
ATOM     20  C   UNL A   1      37.273  33.206  30.332  1.00  0.00    -0.012 A 
ATOM     21  C   UNL A   1      37.784  33.868  29.203  1.00  0.00     0.009 A 
ATOM     22  C   UNL A   1      38.006  33.242  31.525  1.00  0.00     0.017 A 
ATOM     23  C   UNL A   1      38.986  34.567  29.267  1.00  0.00     0.001 A 
ATOM     24  C   UNL A   1      39.182  34.006  31.627  1.00  0.00    -0.018 A 
ATOM     25  C   UNL A   1      39.672  34.647  30.476  1.00  0.00     0.009 A 
BRANCH  24  26
ATOM     26  C   UNL A   1      39.800  34.242  32.938  1.00  0.00    -0.018 A 
ATOM     27  C   UNL A   1      41.131  33.843  33.159  1.00  0.00     0.010 A 
ATOM     28  C   UNL A   1      39.125  34.929  33.960  1.00  0.00     0.010 A 
ATOM     29  C   UNL A   1      41.778  34.131  34.359  1.00  0.00     0.021 A 
ATOM     30  C   UNL A   1      39.764  35.218  35.169  1.00  0.00     0.021 A 
ATOM     31  C   UNL A   1      41.087  34.815  35.359  1.00  0.00     0.067 A 
BRANCH  31  32
ATOM     32  S   UNL A   1      41.942  35.214  36.861  1.00  0.00     0.175 S 
ATOM     33  C   UNL A   1      41.070  36.631  37.474  1.00  0.00     0.163 C 
ATOM     34  O   UNL A   1      41.718  34.115  37.776  1.00  0.00    -0.224 OA
ATOM     35  O   UNL A   1      43.283  35.649  36.511  1.00  0.00    -0.224 OA
ENDBRANCH  31  32
ENDBRANCH  24  26
ENDBRANCH   8  20
ENDBRANCH   5   8
ENDBRANCH   3   4
ENDBRANCH   2   3
ENDBRANCH   1   2
BRANCH   1  36
ATOM     36  C   UNL A   1      36.819  32.282  34.300  1.00  0.00     0.002 C 
BRANCH  36  37
ATOM     37  C   UNL A   1      37.783  31.622  35.288  1.00  0.00     0.021 C 
BRANCH  37  38
ATOM     38  C   UNL A   1      39.147  31.273  34.700  1.00  0.00     0.116 C 
BRANCH  38  39
ATOM     39  N   UNL A   1      39.243  29.862  34.353  1.00  0.00    -0.352 N 
ATOM     40  C   UNL A   1      39.973  29.269  33.351  1.00  0.00     0.251 C 
ATOM     41  H   UNL A   1      38.713  29.249  34.913  1.00  0.00     0.163 HD
ATOM     42  O   UNL A   1      39.784  28.093  33.059  1.00  0.00    -0.269 OA
BRANCH  40  43
ATOM     43  C   UNL A   1      40.977  30.067  32.617  1.00  0.00     0.039 A 
ATOM     44  C   UNL A   1      42.230  30.286  33.195  1.00  0.00     0.014 A 
ATOM     45  C   UNL A   1      40.682  30.581  31.352  1.00  0.00     0.014 A 
ATOM     46  C   UNL A   1      43.214  30.965  32.473  1.00  0.00     0.010 A 
ATOM     47  C   UNL A   1      41.682  31.202  30.610  1.00  0.00     0.010 A 
ATOM     48  C   UNL A   1      42.958  31.397  31.160  1.00  0.00    -0.014 A 
BRANCH  48  49
ATOM     49  C   UNL A   1      44.014  32.027  30.329  1.00  0.00     0.031 A 
ATOM     50  C   UNL A   1      45.252  31.254  29.965  1.00  0.00     0.074 A 
ATOM     51  C   UNL A   1      43.911  33.330  30.002  1.00  0.00     0.049 A 
ATOM     52  N   UNL A   1      46.327  31.664  29.344  1.00  0.00    -0.248 NA
ATOM     53  C   UNL A   1      45.300  29.843  30.380  1.00  0.00     0.031 C 
ATOM     54  C   UNL A   1      42.793  34.206  30.361  1.00  0.00     0.029 A 
ATOM     55  N   UNL A   1      44.775  34.157  29.328  1.00  0.00    -0.354 N 
ATOM     56  C   UNL A   1      47.191  30.578  29.324  1.00  0.00     0.074 A 
ATOM     57  C   UNL A   1      46.528  29.496  30.020  1.00  0.00     0.031 C 
ATOM     58  C   UNL A   1      43.043  35.446  29.912  1.00  0.00     0.029 A 
ATOM     59  C   UNL A   1      44.350  35.463  29.262  1.00  0.00     0.049 A 
ATOM     60  H   UNL A   1      45.620  33.844  28.930  1.00  0.00     0.167 HD
ATOM     61  C   UNL A   1      48.416  30.479  28.754  1.00  0.00     0.034 A 
ATOM     62  C   UNL A   1      44.950  36.556  28.749  1.00  0.00     0.034 A 
ATOM     63  C   UNL A   1      49.051  31.541  28.022  1.00  0.00     0.049 A 
ATOM     64  C   UNL A   1      46.298  36.411  28.095  1.00  0.00     0.074 A 
ATOM     65  C   UNL A   1      50.246  31.509  27.323  1.00  0.00     0.029 A 
ATOM     66  N   UNL A   1      48.549  32.827  27.897  1.00  0.00    -0.354 N 
ATOM     67  N   UNL A   1      47.028  35.333  27.941  1.00  0.00    -0.248 NA
ATOM     68  C   UNL A   1      46.892  37.626  27.517  1.00  0.00     0.031 C 
ATOM     69  C   UNL A   1      50.475  32.782  26.791  1.00  0.00     0.029 A 
ATOM     70  C   UNL A   1      49.414  33.601  27.145  1.00  0.00     0.049 A 
ATOM     71  H   UNL A   1      47.703  33.143  28.288  1.00  0.00     0.167 HD
ATOM     72  C   UNL A   1      48.149  35.730  27.223  1.00  0.00     0.074 A 
ATOM     73  C   UNL A   1      47.992  37.146  26.953  1.00  0.00     0.031 C 
ATOM     74  C   UNL A   1      49.220  34.995  26.836  1.00  0.00     0.034 A 
BRANCH  61  75
ATOM     75  C   UNL A   1      49.127  29.155  28.848  1.00  0.00     0.023 A 
ATOM     76  C   UNL A   1      50.082  28.954  29.866  1.00  0.00     0.012 A 
ATOM     77  C   UNL A   1      48.813  28.095  27.976  1.00  0.00     0.148 A 
ATOM     78  C   UNL A   1      50.735  27.730  29.997  1.00  0.00     0.002 A 
ATOM     79  C   UNL A   1      49.440  26.864  28.137  1.00  0.00     0.091 A 
ATOM     80  F   UNL A   1      47.921  28.311  27.000  1.00  0.00    -0.205 F 
ATOM     81  C   UNL A   1      50.408  26.683  29.140  1.00  0.00     0.022 A 
BRANCH  79  82
ATOM     82  S   UNL A   1      49.033  25.432  27.131  1.00  0.00     0.127 S 
ATOM     83  O   UNL A   1      49.383  25.904  25.792  1.00  0.00    -0.237 OA
ATOM     84  O   UNL A   1      49.931  24.410  27.671  1.00  0.00    -0.237 OA
ATOM     85  O   UNL A   1      47.619  25.175  27.357  1.00  0.00    -0.744 OA
ENDBRANCH  79  82
ENDBRANCH  61  75
BRANCH  62  86
ATOM     86  C   UNL A   1      44.249  37.870  28.778  1.00  0.00     0.023 A 
ATOM     87  C   UNL A   1      43.468  38.258  27.672  1.00  0.00     0.012 A 
ATOM     88  C   UNL A   1      44.314  38.716  29.902  1.00  0.00     0.148 A 
ATOM     89  C   UNL A   1      42.788  39.475  27.673  1.00  0.00     0.002 A 
ATOM     90  C   UNL A   1      43.587  39.902  29.919  1.00  0.00     0.091 A 
ATOM     91  F   UNL A   1      45.073  38.337  30.941  1.00  0.00    -0.205 F 
ATOM     92  C   UNL A   1      42.838  40.291  28.799  1.00  0.00     0.022 A 
BRANCH  90  93
ATOM     93  S   UNL A   1      43.483  40.942  31.380  1.00  0.00     0.127 S 
ATOM     94  O   UNL A   1      42.955  40.012  32.373  1.00  0.00    -0.237 OA
ATOM     95  O   UNL A   1      44.882  41.329  31.578  1.00  0.00    -0.237 OA
ATOM     96  O   UNL A   1      42.608  42.047  31.011  1.00  0.00    -0.744 OA
ENDBRANCH  90  93
ENDBRANCH  62  86
BRANCH  74  97
ATOM     97  C   UNL A   1      50.304  35.691  26.056  1.00  0.00     0.023 A 
ATOM     98  C   UNL A   1      50.347  35.559  24.655  1.00  0.00     0.012 A 
ATOM     99  C   UNL A   1      51.221  36.545  26.701  1.00  0.00     0.148 A 
ATOM    100  C   UNL A   1      51.300  36.249  23.908  1.00  0.00     0.002 A 
ATOM    101  C   UNL A   1      52.140  37.264  25.946  1.00  0.00     0.091 A 
ATOM    102  F   UNL A   1      51.174  36.641  28.038  1.00  0.00    -0.205 F 
ATOM    103  C   UNL A   1      52.187  37.109  24.550  1.00  0.00     0.022 A 
BRANCH 101 104
ATOM    104  S   UNL A   1      53.259  38.465  26.676  1.00  0.00     0.127 S 
ATOM    105  O   UNL A   1      53.851  39.079  25.489  1.00  0.00    -0.237 OA
ATOM    106  O   UNL A   1      52.343  39.331  27.419  1.00  0.00    -0.237 OA
ATOM    107  O   UNL A   1      54.178  37.702  27.509  1.00  0.00    -0.744 OA
ENDBRANCH 101 104
ENDBRANCH  74  97
ENDBRANCH  48  49
ENDBRANCH  40  43
ENDBRANCH  38  39
ENDBRANCH  37  38
ENDBRANCH  36  37
ENDBRANCH   1  36
TORSDOF 21
ENDMDL
MODEL 2
REMARK VINA RESULT:      -8.6      2.943      9.050
REMARK SMILES CS(=O)(=O)c1ccc(/C=C(/C(=O)NCCCCCCNC(=O)c2ccc(-c3c4nc(c(-c5cccc(S(=O)(=O)[O-])c5F)c5ccc([nH]5)c(-c5cccc(S(=O)(=O)[O-])c5F)c5nc(c(-c6cccc(S(=O)(=O)[O-])c6F)c6ccc3[nH]6)C=C5)C=C4)cc2)c2cccc(-c3ccc(S(C)(=O)=O)cc3)c2)cc1
REMARK SMILES IDX 16 1 15 2 14 3 13 4 11 5 12 6 10 8 9 9 8 10 5 11 6 12 103 13
REMARK SMILES IDX 7 14 102 15 2 16 1 17 3 18 4 19 86 20 87 21 101 22 88 23
REMARK SMILES IDX 90 24 89 25 91 26 92 27 100 28 93 29 99 30 94 31 95 32 96 33
REMARK SMILES IDX 97 34 98 35 17 36 18 37 19 38 20 39 21 40 22 42 23 43 24 44
REMARK SMILES IDX 85 45 25 46 84 47 26 48 27 49 28 50 78 51 29 52 83 53 77 54
REMARK SMILES IDX 79 55 30 56 82 57 76 58 75 59 31 61 63 62 43 63 62 64 44 65
REMARK SMILES IDX 47 66 61 67 80 68 45 69 46 70 60 72 81 73 48 74 32 75 33 76
REMARK SMILES IDX 41 77 34 78 36 79 42 80 35 81 37 82 38 83 39 84 40 85 64 86
REMARK SMILES IDX 65 87 73 88 66 89 68 90 74 91 67 92 69 93 70 94 71 95 72 96
REMARK SMILES IDX 49 97 50 98 58 99 51 100 53 101 59 102 52 103 54 104 55 105
REMARK SMILES IDX 56 106 57 107
REMARK H PARENT 13 7 20 41 79 60 47 71
REMARK Flexibility Score: inf
ROOT
ATOM      1  C   UNL A   1      41.998  27.978  31.357  1.00  0.00     0.002 C 
ENDROOT
BRANCH   1   2
ATOM      2  C   UNL A   1      41.700  29.434  31.753  1.00  0.00     0.021 C 
BRANCH   2   3
ATOM      3  C   UNL A   1      40.885  29.562  33.044  1.00  0.00     0.116 C 
BRANCH   3   4
ATOM      4  N   UNL A   1      39.932  28.472  33.125  1.00  0.00    -0.352 N 
ATOM      5  C   UNL A   1      38.691  28.256  32.619  1.00  0.00     0.251 C 
ATOM      6  O   UNL A   1      38.134  27.220  32.993  1.00  0.00    -0.269 OA
ATOM      7  H   UNL A   1      40.259  27.718  33.666  1.00  0.00     0.163 HD
BRANCH   5   8
ATOM      8  C   UNL A   1      38.035  29.146  31.585  1.00  0.00     0.047 C 
ATOM      9  C   UNL A   1      36.897  29.838  31.830  1.00  0.00     0.022 C 
BRANCH   9  10
ATOM     10  C   UNL A   1      36.208  30.838  30.980  1.00  0.00    -0.025 A 
ATOM     11  C   UNL A   1      34.795  32.584  29.288  1.00  0.00     0.067 A 
ATOM     12  C   UNL A   1      35.100  32.974  30.593  1.00  0.00     0.021 A 
ATOM     13  C   UNL A   1      35.225  31.350  28.803  1.00  0.00     0.021 A 
ATOM     14  C   UNL A   1      35.821  32.109  31.425  1.00  0.00     0.009 A 
ATOM     15  C   UNL A   1      35.928  30.484  29.648  1.00  0.00     0.009 A 
BRANCH  11  16
ATOM     16  S   UNL A   1      33.885  33.688  28.232  1.00  0.00     0.175 S 
ATOM     17  C   UNL A   1      33.181  34.893  29.327  1.00  0.00     0.163 C 
ATOM     18  O   UNL A   1      32.784  32.946  27.652  1.00  0.00    -0.224 OA
ATOM     19  O   UNL A   1      34.861  34.363  27.396  1.00  0.00    -0.224 OA
ENDBRANCH  11  16
ENDBRANCH   9  10
BRANCH   8  20
ATOM     20  C   UNL A   1      38.606  29.102  30.212  1.00  0.00    -0.012 A 
ATOM     21  C   UNL A   1      38.986  30.306  29.596  1.00  0.00     0.009 A 
ATOM     22  C   UNL A   1      38.895  27.892  29.567  1.00  0.00     0.017 A 
ATOM     23  C   UNL A   1      39.656  30.304  28.375  1.00  0.00     0.001 A 
ATOM     24  C   UNL A   1      39.639  27.871  28.373  1.00  0.00    -0.018 A 
ATOM     25  C   UNL A   1      39.992  29.093  27.777  1.00  0.00     0.009 A 
BRANCH  24  26
ATOM     26  C   UNL A   1      40.152  26.601  27.844  1.00  0.00    -0.018 A 
ATOM     27  C   UNL A   1      41.263  26.607  26.981  1.00  0.00     0.010 A 
ATOM     28  C   UNL A   1      39.612  25.365  28.237  1.00  0.00     0.010 A 
ATOM     29  C   UNL A   1      41.831  25.417  26.532  1.00  0.00     0.021 A 
ATOM     30  C   UNL A   1      40.172  24.166  27.787  1.00  0.00     0.021 A 
ATOM     31  C   UNL A   1      41.278  24.202  26.936  1.00  0.00     0.067 A 
BRANCH  31  32
ATOM     32  S   UNL A   1      42.045  22.698  26.392  1.00  0.00     0.175 S 
ATOM     33  C   UNL A   1      43.043  23.210  25.019  1.00  0.00     0.163 C 
ATOM     34  O   UNL A   1      42.926  22.268  27.456  1.00  0.00    -0.224 OA
ATOM     35  O   UNL A   1      41.005  21.827  25.870  1.00  0.00    -0.224 OA
ENDBRANCH  31  32
ENDBRANCH  24  26
ENDBRANCH   8  20
ENDBRANCH   5   8
ENDBRANCH   3   4
ENDBRANCH   2   3
ENDBRANCH   1   2
BRANCH   1  36
ATOM     36  C   UNL A   1      43.070  27.804  30.276  1.00  0.00     0.002 C 
BRANCH  36  37
ATOM     37  C   UNL A   1      43.518  26.360  30.037  1.00  0.00     0.021 C 
BRANCH  37  38
ATOM     38  C   UNL A   1      44.747  25.941  30.836  1.00  0.00     0.116 C 
BRANCH  38  39
ATOM     39  N   UNL A   1      45.733  25.266  30.002  1.00  0.00    -0.352 N 
ATOM     40  C   UNL A   1      46.521  25.791  29.006  1.00  0.00     0.251 C 
ATOM     41  H   UNL A   1      45.850  24.304  30.175  1.00  0.00     0.163 HD
ATOM     42  O   UNL A   1      47.150  25.049  28.258  1.00  0.00    -0.269 OA
BRANCH  40  43
ATOM     43  C   UNL A   1      46.593  27.256  28.836  1.00  0.00     0.039 A 
ATOM     44  C   UNL A   1      46.028  27.840  27.699  1.00  0.00     0.014 A 
ATOM     45  C   UNL A   1      47.202  28.051  29.810  1.00  0.00     0.014 A 
ATOM     46  C   UNL A   1      46.014  29.231  27.571  1.00  0.00     0.010 A 
ATOM     47  C   UNL A   1      47.133  29.437  29.711  1.00  0.00     0.010 A 
ATOM     48  C   UNL A   1      46.535  30.042  28.594  1.00  0.00    -0.014 A 
BRANCH  48  49
ATOM     49  C   UNL A   1      46.442  31.522  28.538  1.00  0.00     0.031 A 
ATOM     50  C   UNL A   1      45.172  32.216  28.948  1.00  0.00     0.074 A 
ATOM     51  C   UNL A   1      47.459  32.230  28.007  1.00  0.00     0.049 A 
ATOM     52  N   UNL A   1      44.863  33.483  28.866  1.00  0.00    -0.248 NA
ATOM     53  C   UNL A   1      44.100  31.369  29.495  1.00  0.00     0.031 C 
ATOM     54  C   UNL A   1      48.712  31.663  27.505  1.00  0.00     0.029 A 
ATOM     55  N   UNL A   1      47.583  33.576  27.765  1.00  0.00    -0.354 N 
ATOM     56  C   UNL A   1      43.552  33.583  29.315  1.00  0.00     0.074 A 
ATOM     57  C   UNL A   1      43.114  32.243  29.643  1.00  0.00     0.031 C 
ATOM     58  C   UNL A   1      49.474  32.651  27.007  1.00  0.00     0.029 A 
ATOM     59  C   UNL A   1      48.752  33.915  27.125  1.00  0.00     0.049 A 
ATOM     60  H   UNL A   1      46.899  34.235  28.024  1.00  0.00     0.167 HD
ATOM     61  C   UNL A   1      42.790  34.693  29.467  1.00  0.00     0.034 A 
ATOM     62  C   UNL A   1      49.190  35.107  26.672  1.00  0.00     0.034 A 
ATOM     63  C   UNL A   1      43.246  36.027  29.186  1.00  0.00     0.049 A 
ATOM     64  C   UNL A   1      48.336  36.328  26.881  1.00  0.00     0.074 A 
ATOM     65  C   UNL A   1      42.586  37.224  29.401  1.00  0.00     0.029 A 
ATOM     66  N   UNL A   1      44.473  36.342  28.623  1.00  0.00    -0.354 N 
ATOM     67  N   UNL A   1      47.164  36.424  27.461  1.00  0.00    -0.248 NA
ATOM     68  C   UNL A   1      48.876  37.609  26.403  1.00  0.00     0.031 C 
ATOM     69  C   UNL A   1      43.407  38.263  28.951  1.00  0.00     0.029 A 
ATOM     70  C   UNL A   1      44.586  37.713  28.471  1.00  0.00     0.049 A 
ATOM     71  H   UNL A   1      45.162  35.688  28.368  1.00  0.00     0.167 HD
ATOM     72  C   UNL A   1      46.841  37.775  27.446  1.00  0.00     0.074 A 
ATOM     73  C   UNL A   1      47.951  38.464  26.819  1.00  0.00     0.031 C 
ATOM     74  C   UNL A   1      45.719  38.390  27.896  1.00  0.00     0.034 A 
BRANCH  61  75
ATOM     75  C   UNL A   1      41.401  34.517  30.020  1.00  0.00     0.023 A 
ATOM     76  C   UNL A   1      40.315  34.387  29.130  1.00  0.00     0.012 A 
ATOM     77  C   UNL A   1      41.173  34.419  31.406  1.00  0.00     0.148 A 
ATOM     78  C   UNL A   1      39.021  34.195  29.610  1.00  0.00     0.002 A 
ATOM     79  C   UNL A   1      39.885  34.187  31.877  1.00  0.00     0.091 A 
ATOM     80  F   UNL A   1      42.214  34.569  32.238  1.00  0.00    -0.205 F 
ATOM     81  C   UNL A   1      38.808  34.085  30.981  1.00  0.00     0.022 A 
BRANCH  79  82
ATOM     82  S   UNL A   1      39.519  33.956  33.620  1.00  0.00     0.127 S 
ATOM     83  O   UNL A   1      38.103  33.594  33.578  1.00  0.00    -0.237 OA
ATOM     84  O   UNL A   1      40.418  32.860  33.983  1.00  0.00    -0.237 OA
ATOM     85  O   UNL A   1      39.824  35.226  34.263  1.00  0.00    -0.744 OA
ENDBRANCH  79  82
ENDBRANCH  61  75
BRANCH  62  86
ATOM     86  C   UNL A   1      50.532  35.210  26.032  1.00  0.00     0.023 A 
ATOM     87  C   UNL A   1      50.626  35.209  24.628  1.00  0.00     0.012 A 
ATOM     88  C   UNL A   1      51.705  35.350  26.799  1.00  0.00     0.148 A 
ATOM     89  C   UNL A   1      51.866  35.317  23.997  1.00  0.00     0.002 A 
ATOM     90  C   UNL A   1      52.932  35.514  26.163  1.00  0.00     0.091 A 
ATOM     91  F   UNL A   1      51.598  35.334  28.135  1.00  0.00    -0.205 F 
ATOM     92  C   UNL A   1      53.015  35.481  24.763  1.00  0.00     0.022 A 
BRANCH  90  93
ATOM     93  S   UNL A   1      54.441  35.871  27.070  1.00  0.00     0.127 S 
ATOM     94  O   UNL A   1      55.458  35.702  26.037  1.00  0.00    -0.237 OA
ATOM     95  O   UNL A   1      54.218  37.254  27.498  1.00  0.00    -0.237 OA
ATOM     96  O   UNL A   1      54.475  34.909  28.164  1.00  0.00    -0.744 OA
ENDBRANCH  90  93
ENDBRANCH  62  86
BRANCH  74  97
ATOM     97  C   UNL A   1      45.635  39.887  27.753  1.00  0.00     0.023 A 
ATOM     98  C   UNL A   1      46.297  40.712  28.682  1.00  0.00     0.012 A 
ATOM     99  C   UNL A   1      44.977  40.470  26.652  1.00  0.00     0.148 A 
ATOM    100  C   UNL A   1      46.288  42.098  28.530  1.00  0.00     0.002 A 
ATOM    101  C   UNL A   1      45.010  41.849  26.482  1.00  0.00     0.091 A 
ATOM    102  F   UNL A   1      44.337  39.666  25.791  1.00  0.00    -0.205 F 
ATOM    103  C   UNL A   1      45.656  42.665  27.425  1.00  0.00     0.022 A 
BRANCH 101 104
ATOM    104  S   UNL A   1      44.304  42.661  25.043  1.00  0.00     0.127 S 
ATOM    105  O   UNL A   1      44.549  44.069  25.346  1.00  0.00    -0.237 OA
ATOM    106  O   UNL A   1      45.117  42.120  23.953  1.00  0.00    -0.237 OA
ATOM    107  O   UNL A   1      42.903  42.265  25.005  1.00  0.00    -0.744 OA
ENDBRANCH 101 104
ENDBRANCH  74  97
ENDBRANCH  48  49
ENDBRANCH  40  43
ENDBRANCH  38  39
ENDBRANCH  37  38
ENDBRANCH  36  37
ENDBRANCH   1  36
TORSDOF 21
ENDMDL
MODEL 3
REMARK VINA RESULT:      -8.2      5.783     12.347
REMARK SMILES CS(=O)(=O)c1ccc(/C=C(/C(=O)NCCCCCCNC(=O)c2ccc(-c3c4nc(c(-c5cccc(S(=O)(=O)[O-])c5F)c5ccc([nH]5)c(-c5cccc(S(=O)(=O)[O-])c5F)c5nc(c(-c6cccc(S(=O)(=O)[O-])c6F)c6ccc3[nH]6)C=C5)C=C4)cc2)c2cccc(-c3ccc(S(C)(=O)=O)cc3)c2)cc1
REMARK SMILES IDX 16 1 15 2 14 3 13 4 11 5 12 6 10 8 9 9 8 10 5 11 6 12 103 13
REMARK SMILES IDX 7 14 102 15 2 16 1 17 3 18 4 19 86 20 87 21 101 22 88 23
REMARK SMILES IDX 90 24 89 25 91 26 92 27 100 28 93 29 99 30 94 31 95 32 96 33
REMARK SMILES IDX 97 34 98 35 17 36 18 37 19 38 20 39 21 40 22 42 23 43 24 44
REMARK SMILES IDX 85 45 25 46 84 47 26 48 27 49 28 50 78 51 29 52 83 53 77 54
REMARK SMILES IDX 79 55 30 56 82 57 76 58 75 59 31 61 63 62 43 63 62 64 44 65
REMARK SMILES IDX 47 66 61 67 80 68 45 69 46 70 60 72 81 73 48 74 32 75 33 76
REMARK SMILES IDX 41 77 34 78 36 79 42 80 35 81 37 82 38 83 39 84 40 85 64 86
REMARK SMILES IDX 65 87 73 88 66 89 68 90 74 91 67 92 69 93 70 94 71 95 72 96
REMARK SMILES IDX 49 97 50 98 58 99 51 100 53 101 59 102 52 103 54 104 55 105
REMARK SMILES IDX 56 106 57 107
REMARK H PARENT 13 7 20 41 79 60 47 71
REMARK Flexibility Score: inf
ROOT
ATOM      1  C   UNL A   1      41.475  28.379  29.327  1.00  0.00     0.002 C 
ENDROOT
BRANCH   1   2
ATOM      2  C   UNL A   1      40.251  28.138  28.427  1.00  0.00     0.021 C 
BRANCH   2   3
ATOM      3  C   UNL A   1      40.450  27.007  27.413  1.00  0.00     0.116 C 
BRANCH   3   4
ATOM      4  N   UNL A   1      41.107  27.529  26.230  1.00  0.00    -0.352 N 
ATOM      5  C   UNL A   1      42.181  27.146  25.494  1.00  0.00     0.251 C 
ATOM      6  O   UNL A   1      42.509  27.915  24.586  1.00  0.00    -0.269 OA
ATOM      7  H   UNL A   1      40.675  28.341  25.880  1.00  0.00     0.163 HD
BRANCH   5   8
ATOM      8  C   UNL A   1      42.900  25.825  25.674  1.00  0.00     0.047 C 
ATOM      9  C   UNL A   1      42.473  24.676  25.100  1.00  0.00     0.022 C 
BRANCH   9  10
ATOM     10  C   UNL A   1      43.126  23.345  25.074  1.00  0.00    -0.025 A 
ATOM     11  C   UNL A   1      44.181  20.739  25.004  1.00  0.00     0.067 A 
ATOM     12  C   UNL A   1      44.848  21.778  24.354  1.00  0.00     0.021 A 
ATOM     13  C   UNL A   1      43.015  20.993  25.726  1.00  0.00     0.021 A 
ATOM     14  C   UNL A   1      44.329  23.078  24.407  1.00  0.00     0.009 A 
ATOM     15  C   UNL A   1      42.494  22.291  25.758  1.00  0.00     0.009 A 
BRANCH  11  16
ATOM     16  S   UNL A   1      44.846  19.091  24.939  1.00  0.00     0.175 S 
ATOM     17  C   UNL A   1      46.529  19.256  25.475  1.00  0.00     0.163 C 
ATOM     18  O   UNL A   1      44.880  18.677  23.551  1.00  0.00    -0.224 OA
ATOM     19  O   UNL A   1      44.135  18.316  25.938  1.00  0.00    -0.224 OA
ENDBRANCH  11  16
ENDBRANCH   9  10
BRANCH   8  20
ATOM     20  C   UNL A   1      44.019  25.806  26.654  1.00  0.00    -0.012 A 
ATOM     21  C   UNL A   1      45.275  26.295  26.260  1.00  0.00     0.009 A 
ATOM     22  C   UNL A   1      43.827  25.436  27.992  1.00  0.00     0.017 A 
ATOM     23  C   UNL A   1      46.311  26.431  27.181  1.00  0.00     0.001 A 
ATOM     24  C   UNL A   1      44.837  25.640  28.948  1.00  0.00    -0.018 A 
ATOM     25  C   UNL A   1      46.087  26.119  28.519  1.00  0.00     0.009 A 
BRANCH  24  26
ATOM     26  C   UNL A   1      44.543  25.489  30.379  1.00  0.00    -0.018 A 
ATOM     27  C   UNL A   1      44.596  24.211  30.967  1.00  0.00     0.010 A 
ATOM     28  C   UNL A   1      44.285  26.598  31.201  1.00  0.00     0.010 A 
ATOM     29  C   UNL A   1      44.411  24.043  32.338  1.00  0.00     0.021 A 
ATOM     30  C   UNL A   1      44.092  26.438  32.576  1.00  0.00     0.021 A 
ATOM     31  C   UNL A   1      44.156  25.160  33.134  1.00  0.00     0.067 A 
BRANCH  31  32
ATOM     32  S   UNL A   1      43.970  24.931  34.883  1.00  0.00     0.175 S 
ATOM     33  C   UNL A   1      42.629  23.778  35.013  1.00  0.00     0.163 C 
ATOM     34  O   UNL A   1      45.175  24.278  35.351  1.00  0.00    -0.224 OA
ATOM     35  O   UNL A   1      43.518  26.187  35.455  1.00  0.00    -0.224 OA
ENDBRANCH  31  32
ENDBRANCH  24  26
ENDBRANCH   8  20
ENDBRANCH   5   8
ENDBRANCH   3   4
ENDBRANCH   2   3
ENDBRANCH   1   2
BRANCH   1  36
ATOM     36  C   UNL A   1      42.393  29.523  28.884  1.00  0.00     0.002 C 
BRANCH  36  37
ATOM     37  C   UNL A   1      43.664  29.085  28.151  1.00  0.00     0.021 C 
BRANCH  37  38
ATOM     38  C   UNL A   1      44.384  30.208  27.411  1.00  0.00     0.116 C 
BRANCH  38  39
ATOM     39  N   UNL A   1      45.829  30.131  27.583  1.00  0.00    -0.352 N 
ATOM     40  C   UNL A   1      46.594  30.559  28.640  1.00  0.00     0.251 C 
ATOM     41  H   UNL A   1      46.324  29.715  26.840  1.00  0.00     0.163 HD
ATOM     42  O   UNL A   1      47.816  30.609  28.541  1.00  0.00    -0.269 OA
BRANCH  40  43
ATOM     43  C   UNL A   1      45.931  30.972  29.894  1.00  0.00     0.039 A 
ATOM     44  C   UNL A   1      45.613  32.319  30.087  1.00  0.00     0.014 A 
ATOM     45  C   UNL A   1      45.607  30.023  30.868  1.00  0.00     0.014 A 
ATOM     46  C   UNL A   1      44.908  32.705  31.229  1.00  0.00     0.010 A 
ATOM     47  C   UNL A   1      44.853  30.399  31.974  1.00  0.00     0.010 A 
ATOM     48  C   UNL A   1      44.492  31.742  32.165  1.00  0.00    -0.014 A 
BRANCH  48  49
ATOM     49  C   UNL A   1      43.652  32.105  33.334  1.00  0.00     0.031 A 
ATOM     50  C   UNL A   1      44.272  32.232  34.699  1.00  0.00     0.074 A 
ATOM     51  C   UNL A   1      42.316  32.202  33.186  1.00  0.00     0.049 A 
ATOM     52  N   UNL A   1      43.690  32.432  35.852  1.00  0.00    -0.248 NA
ATOM     53  C   UNL A   1      45.734  32.088  34.780  1.00  0.00     0.031 C 
ATOM     54  C   UNL A   1      41.590  32.025  31.927  1.00  0.00     0.029 A 
ATOM     55  N   UNL A   1      41.327  32.435  34.109  1.00  0.00    -0.354 N 
ATOM     56  C   UNL A   1      44.705  32.402  36.799  1.00  0.00     0.074 A 
ATOM     57  C   UNL A   1      45.938  32.137  36.090  1.00  0.00     0.031 C 
ATOM     58  C   UNL A   1      40.273  32.147  32.157  1.00  0.00     0.029 A 
ATOM     59  C   UNL A   1      40.058  32.379  33.582  1.00  0.00     0.049 A 
ATOM     60  H   UNL A   1      41.509  32.624  35.058  1.00  0.00     0.167 HD
ATOM     61  C   UNL A   1      44.623  32.604  38.136  1.00  0.00     0.034 A 
ATOM     62  C   UNL A   1      38.854  32.489  34.180  1.00  0.00     0.034 A 
ATOM     63  C   UNL A   1      43.403  32.914  38.830  1.00  0.00     0.049 A 
ATOM     64  C   UNL A   1      38.794  32.742  35.662  1.00  0.00     0.074 A 
ATOM     65  C   UNL A   1      43.232  33.234  40.166  1.00  0.00     0.029 A 
ATOM     66  N   UNL A   1      42.146  32.940  38.248  1.00  0.00    -0.354 N 
ATOM     67  N   UNL A   1      39.780  32.876  36.516  1.00  0.00    -0.248 NA
ATOM     68  C   UNL A   1      37.459  32.892  36.259  1.00  0.00     0.031 C 
ATOM     69  C   UNL A   1      41.867  33.434  40.396  1.00  0.00     0.029 A 
ATOM     70  C   UNL A   1      41.191  33.256  39.199  1.00  0.00     0.049 A 
ATOM     71  H   UNL A   1      41.959  32.758  37.300  1.00  0.00     0.167 HD
ATOM     72  C   UNL A   1      39.189  33.155  37.742  1.00  0.00     0.074 A 
ATOM     73  C   UNL A   1      37.757  33.194  37.516  1.00  0.00     0.031 C 
ATOM     74  C   UNL A   1      39.775  33.346  38.949  1.00  0.00     0.034 A 
BRANCH  61  75
ATOM     75  C   UNL A   1      45.902  32.555  38.931  1.00  0.00     0.023 A 
ATOM     76  C   UNL A   1      46.741  33.688  38.958  1.00  0.00     0.012 A 
ATOM     77  C   UNL A   1      46.244  31.423  39.694  1.00  0.00     0.148 A 
ATOM     78  C   UNL A   1      47.917  33.684  39.707  1.00  0.00     0.002 A 
ATOM     79  C   UNL A   1      47.398  31.440  40.471  1.00  0.00     0.091 A 
ATOM     80  F   UNL A   1      45.446  30.347  39.638  1.00  0.00    -0.205 F 
ATOM     81  C   UNL A   1      48.239  32.566  40.470  1.00  0.00     0.022 A 
BRANCH  79  82
ATOM     82  S   UNL A   1      47.861  30.078  41.546  1.00  0.00     0.127 S 
ATOM     83  O   UNL A   1      48.107  29.010  40.578  1.00  0.00    -0.237 OA
ATOM     84  O   UNL A   1      49.063  30.596  42.201  1.00  0.00    -0.237 OA
ATOM     85  O   UNL A   1      46.729  29.870  42.437  1.00  0.00    -0.744 OA
ENDBRANCH  79  82
ENDBRANCH  61  75
BRANCH  62  86
ATOM     86  C   UNL A   1      37.611  32.422  33.363  1.00  0.00     0.023 A 
ATOM     87  C   UNL A   1      37.158  31.172  32.900  1.00  0.00     0.012 A 
ATOM     88  C   UNL A   1      36.854  33.575  33.075  1.00  0.00     0.148 A 
ATOM     89  C   UNL A   1      35.990  31.072  32.144  1.00  0.00     0.002 A 
ATOM     90  C   UNL A   1      35.661  33.462  32.369  1.00  0.00     0.091 A 
ATOM     91  F   UNL A   1      37.308  34.759  33.512  1.00  0.00    -0.205 F 
ATOM     92  C   UNL A   1      35.237  32.214  31.888  1.00  0.00     0.022 A 
BRANCH  90  93
ATOM     93  S   UNL A   1      34.560  34.859  32.118  1.00  0.00     0.127 S 
ATOM     94  O   UNL A   1      34.552  34.976  30.663  1.00  0.00    -0.237 OA
ATOM     95  O   UNL A   1      33.311  34.371  32.706  1.00  0.00    -0.237 OA
ATOM     96  O   UNL A   1      35.166  35.968  32.844  1.00  0.00    -0.744 OA
ENDBRANCH  90  93
ENDBRANCH  62  86
BRANCH  74  97
ATOM     97  C   UNL A   1      38.880  33.640  40.124  1.00  0.00     0.023 A 
ATOM     98  C   UNL A   1      38.766  34.961  40.598  1.00  0.00     0.012 A 
ATOM     99  C   UNL A   1      38.089  32.626  40.699  1.00  0.00     0.148 A 
ATOM    100  C   UNL A   1      37.892  35.266  41.641  1.00  0.00     0.002 A 
ATOM    101  C   UNL A   1      37.187  32.944  41.708  1.00  0.00     0.091 A 
ATOM    102  F   UNL A   1      38.228  31.372  40.245  1.00  0.00    -0.205 F 
ATOM    103  C   UNL A   1      37.095  34.262  42.187  1.00  0.00     0.022 A 
BRANCH 101 104
ATOM    104  S   UNL A   1      36.054  31.737  42.406  1.00  0.00     0.127 S 
ATOM    105  O   UNL A   1      35.303  32.552  43.360  1.00  0.00    -0.237 OA
ATOM    106  O   UNL A   1      35.291  31.313  41.233  1.00  0.00    -0.237 OA
ATOM    107  O   UNL A   1      36.888  30.698  42.993  1.00  0.00    -0.744 OA
ENDBRANCH 101 104
ENDBRANCH  74  97
ENDBRANCH  48  49
ENDBRANCH  40  43
ENDBRANCH  38  39
ENDBRANCH  37  38
ENDBRANCH  36  37
ENDBRANCH   1  36
TORSDOF 21
ENDMDL
