MODEL 1
REMARK VINA RESULT:     -12.8      0.000      0.000
REMARK SMILES Cc1ccnc(C(=O)c2[nH]c3cc(Cl)c(F)cc3c2CC(=O)NCCCCCCNC(=O)c2ccc(-c3c4nc(c(-c5cccc(S(=O)(=O)[O-])c5F)c5ccc([nH]5)c(-c5cccc(S(=O)(=O)[O-])c5F)c5nc(c(-c6cccc(S(=O)(=O)[O-])c6F)c6ccc3[nH]6)C=C5)C=C4)cc2)c1
REMARK SMILES IDX 26 1 25 2 24 3 23 4 21 5 22 6 20 8 19 9 9 10 10 11 11 12
REMARK SMILES IDX 18 14 12 15 17 16 13 17 15 18 14 19 16 20 7 21 8 22 6 23
REMARK SMILES IDX 1 24 2 25 3 26 96 27 4 28 5 29 27 30 28 31 29 32 30 33 31 34
REMARK SMILES IDX 32 36 33 37 34 38 95 39 35 40 94 41 36 42 37 43 38 44 88 45
REMARK SMILES IDX 39 46 93 47 87 48 89 49 40 50 92 51 86 52 85 53 41 55 73 56
REMARK SMILES IDX 53 57 72 58 54 59 57 60 71 61 90 62 55 63 56 64 70 66 91 67
REMARK SMILES IDX 58 68 42 69 43 70 51 71 44 72 46 73 52 74 45 75 47 76 48 77
REMARK SMILES IDX 49 78 50 79 74 80 75 81 83 82 76 83 78 84 84 85 77 86 79 87
REMARK SMILES IDX 80 88 81 89 82 90 59 91 60 92 68 93 61 94 63 95 69 96 62 97
REMARK SMILES IDX 64 98 65 99 66 100 67 101
REMARK H PARENT 23 7 10 13 30 35 89 54 57 65
REMARK Flexibility Score: inf
ROOT
ATOM      1  C   UNL A   1      35.394  22.958  23.264  1.00  0.00     0.002 C 
ENDROOT
BRANCH   1   2
ATOM      2  C   UNL A   1      34.459  24.144  23.515  1.00  0.00     0.021 C 
BRANCH   2   3
ATOM      3  C   UNL A   1      34.313  24.605  24.972  1.00  0.00     0.116 C 
BRANCH   3   4
ATOM      4  N   UNL A   1      34.407  26.038  25.174  1.00  0.00    -0.356 N 
ATOM      5  C   UNL A   1      33.683  26.891  25.954  1.00  0.00     0.224 C 
ATOM      6  O   UNL A   1      34.081  28.058  26.035  1.00  0.00    -0.275 OA
ATOM      7  H   UNL A   1      35.120  26.475  24.653  1.00  0.00     0.163 HD
BRANCH   5   8
ATOM      8  C   UNL A   1      32.471  26.450  26.750  1.00  0.00     0.138 C 
BRANCH   8   9
ATOM      9  C   UNL A   1      31.222  26.158  25.969  1.00  0.00    -0.002 A 
ATOM     10  C   UNL A   1      30.427  25.008  25.955  1.00  0.00     0.093 A 
ATOM     11  N   UNL A   1      29.479  25.203  24.966  1.00  0.00    -0.351 N 
ATOM     12  C   UNL A   1      29.549  26.464  24.433  1.00  0.00     0.048 A 
ATOM     13  H   UNL A   1      28.831  24.519  24.680  1.00  0.00     0.167 HD
ATOM     14  C   UNL A   1      30.676  27.064  24.983  1.00  0.00     0.007 A 
ATOM     15  C   UNL A   1      28.721  27.105  23.499  1.00  0.00     0.050 A 
ATOM     16  C   UNL A   1      31.028  28.358  24.535  1.00  0.00     0.051 A 
ATOM     17  C   UNL A   1      29.054  28.412  23.128  1.00  0.00     0.078 A 
ATOM     18  C   UNL A   1      30.196  29.022  23.633  1.00  0.00     0.142 A 
ATOM     19  Cl  UNL A   1      28.026  29.259  22.034  1.00  0.00    -0.081 Cl
ATOM     20  F   UNL A   1      30.515  30.276  23.281  1.00  0.00    -0.205 F 
BRANCH  10  21
ATOM     21  C   UNL A   1      30.474  23.710  26.631  1.00  0.00     0.227 C 
ATOM     22  O   UNL A   1      29.610  23.446  27.469  1.00  0.00    -0.285 OA
BRANCH  21  23
ATOM     23  C   UNL A   1      31.610  22.732  26.449  1.00  0.00     0.113 A 
ATOM     24  C   UNL A   1      32.999  20.127  24.040  1.00  0.00     0.044 C 
ATOM     25  C   UNL A   1      32.834  21.066  25.199  1.00  0.00    -0.047 A 
ATOM     26  C   UNL A   1      33.760  21.028  26.237  1.00  0.00     0.023 A 
ATOM     27  C   UNL A   1      31.779  21.986  25.287  1.00  0.00     0.036 A 
ATOM     28  C   UNL A   1      33.564  21.855  27.327  1.00  0.00     0.112 A 
ATOM     29  N   UNL A   1      32.513  22.692  27.464  1.00  0.00    -0.253 NA
ENDBRANCH  21  23
ENDBRANCH  10  21
ENDBRANCH   8   9
ENDBRANCH   5   8
ENDBRANCH   3   4
ENDBRANCH   2   3
ENDBRANCH   1   2
BRANCH   1  30
ATOM     30  C   UNL A   1      36.768  23.056  23.924  1.00  0.00     0.002 C 
BRANCH  30  31
ATOM     31  C   UNL A   1      37.240  21.742  24.555  1.00  0.00     0.021 C 
BRANCH  31  32
ATOM     32  C   UNL A   1      37.963  21.945  25.890  1.00  0.00     0.116 C 
BRANCH  32  33
ATOM     33  N   UNL A   1      39.403  21.859  25.763  1.00  0.00    -0.352 N 
ATOM     34  C   UNL A   1      40.454  22.579  26.258  1.00  0.00     0.251 C 
ATOM     35  H   UNL A   1      39.690  21.113  25.189  1.00  0.00     0.163 HD
ATOM     36  O   UNL A   1      41.576  22.151  25.976  1.00  0.00    -0.269 OA
BRANCH  34  37
ATOM     37  C   UNL A   1      40.334  23.847  27.026  1.00  0.00     0.039 A 
ATOM     38  C   UNL A   1      39.325  24.797  26.866  1.00  0.00     0.014 A 
ATOM     39  C   UNL A   1      41.376  24.121  27.934  1.00  0.00     0.014 A 
ATOM     40  C   UNL A   1      39.421  26.031  27.486  1.00  0.00     0.010 A 
ATOM     41  C   UNL A   1      41.461  25.346  28.581  1.00  0.00     0.010 A 
ATOM     42  C   UNL A   1      40.514  26.322  28.303  1.00  0.00    -0.014 A 
BRANCH  42  43
ATOM     43  C   UNL A   1      40.555  27.647  28.908  1.00  0.00     0.031 A 
ATOM     44  C   UNL A   1      41.568  28.554  28.300  1.00  0.00     0.074 A 
ATOM     45  C   UNL A   1      39.733  28.032  29.905  1.00  0.00     0.049 A 
ATOM     46  N   UNL A   1      42.654  29.002  28.840  1.00  0.00    -0.248 NA
ATOM     47  C   UNL A   1      41.444  28.852  26.866  1.00  0.00     0.031 C 
ATOM     48  C   UNL A   1      38.542  27.342  30.409  1.00  0.00     0.029 A 
ATOM     49  N   UNL A   1      39.727  29.200  30.606  1.00  0.00    -0.354 N 
ATOM     50  C   UNL A   1      43.237  29.827  27.880  1.00  0.00     0.074 A 
ATOM     51  C   UNL A   1      42.554  29.557  26.643  1.00  0.00     0.031 C 
ATOM     52  C   UNL A   1      37.795  28.211  31.128  1.00  0.00     0.029 A 
ATOM     53  C   UNL A   1      38.529  29.456  31.266  1.00  0.00     0.049 A 
ATOM     54  H   UNL A   1      40.501  29.808  30.642  1.00  0.00     0.167 HD
ATOM     55  C   UNL A   1      44.077  30.840  28.230  1.00  0.00     0.034 A 
ATOM     56  C   UNL A   1      38.150  30.638  31.813  1.00  0.00     0.034 A 
ATOM     57  C   UNL A   1      44.565  30.678  29.574  1.00  0.00     0.049 A 
ATOM     58  C   UNL A   1      39.383  31.415  32.059  1.00  0.00     0.074 A 
ATOM     59  C   UNL A   1      45.363  29.771  30.238  1.00  0.00     0.029 A 
ATOM     60  N   UNL A   1      43.907  31.393  30.540  1.00  0.00    -0.354 N 
ATOM     61  N   UNL A   1      40.295  31.072  32.922  1.00  0.00    -0.248 NA
ATOM     62  C   UNL A   1      39.795  32.382  31.057  1.00  0.00     0.031 C 
ATOM     63  C   UNL A   1      44.822  29.698  31.556  1.00  0.00     0.029 A 
ATOM     64  C   UNL A   1      43.757  30.598  31.642  1.00  0.00     0.049 A 
ATOM     65  H   UNL A   1      43.595  32.323  30.454  1.00  0.00     0.167 HD
ATOM     66  C   UNL A   1      41.492  31.407  32.305  1.00  0.00     0.074 A 
ATOM     67  C   UNL A   1      41.116  32.323  31.229  1.00  0.00     0.031 C 
ATOM     68  C   UNL A   1      42.628  30.689  32.545  1.00  0.00     0.034 A 
BRANCH  55  69
ATOM     69  C   UNL A   1      44.158  32.178  27.524  1.00  0.00     0.023 A 
ATOM     70  C   UNL A   1      45.163  32.334  26.542  1.00  0.00     0.012 A 
ATOM     71  C   UNL A   1      43.508  33.356  27.961  1.00  0.00     0.148 A 
ATOM     72  C   UNL A   1      45.537  33.595  26.062  1.00  0.00     0.002 A 
ATOM     73  C   UNL A   1      43.828  34.599  27.425  1.00  0.00     0.091 A 
ATOM     74  F   UNL A   1      42.663  33.310  28.994  1.00  0.00    -0.205 F 
ATOM     75  C   UNL A   1      44.864  34.729  26.500  1.00  0.00     0.022 A 
BRANCH  73  76
ATOM     76  S   UNL A   1      42.960  36.096  27.913  1.00  0.00     0.127 S 
ATOM     77  O   UNL A   1      43.471  37.059  26.947  1.00  0.00    -0.237 OA
ATOM     78  O   UNL A   1      41.565  35.704  27.726  1.00  0.00    -0.237 OA
ATOM     79  O   UNL A   1      43.332  36.327  29.307  1.00  0.00    -0.744 OA
ENDBRANCH  73  76
ENDBRANCH  55  69
BRANCH  56  80
ATOM     80  C   UNL A   1      36.822  31.300  31.791  1.00  0.00     0.023 A 
ATOM     81  C   UNL A   1      36.321  31.879  32.976  1.00  0.00     0.012 A 
ATOM     82  C   UNL A   1      36.217  31.662  30.567  1.00  0.00     0.148 A 
ATOM     83  C   UNL A   1      35.291  32.827  32.939  1.00  0.00     0.002 A 
ATOM     84  C   UNL A   1      35.196  32.608  30.534  1.00  0.00     0.091 A 
ATOM     85  F   UNL A   1      36.709  31.155  29.429  1.00  0.00    -0.205 F 
ATOM     86  C   UNL A   1      34.741  33.203  31.718  1.00  0.00     0.022 A 
BRANCH  84  87
ATOM     87  S   UNL A   1      34.472  33.187  28.994  1.00  0.00     0.127 S 
ATOM     88  O   UNL A   1      33.456  34.124  29.474  1.00  0.00    -0.237 OA
ATOM     89  O   UNL A   1      35.619  33.809  28.339  1.00  0.00    -0.237 OA
ATOM     90  O   UNL A   1      33.934  32.003  28.336  1.00  0.00    -0.744 OA
ENDBRANCH  84  87
ENDBRANCH  56  80
BRANCH  68  91
ATOM     91  C   UNL A   1      42.625  29.731  33.713  1.00  0.00     0.023 A 
ATOM     92  C   UNL A   1      42.131  28.412  33.620  1.00  0.00     0.012 A 
ATOM     93  C   UNL A   1      43.281  30.127  34.890  1.00  0.00     0.148 A 
ATOM     94  C   UNL A   1      42.271  27.518  34.687  1.00  0.00     0.002 A 
ATOM     95  C   UNL A   1      43.465  29.221  35.927  1.00  0.00     0.091 A 
ATOM     96  F   UNL A   1      43.743  31.384  34.965  1.00  0.00    -0.205 F 
ATOM     97  C   UNL A   1      42.951  27.918  35.834  1.00  0.00     0.022 A 
BRANCH  95  98
ATOM     98  S   UNL A   1      44.452  29.633  37.367  1.00  0.00     0.127 S 
ATOM     99  O   UNL A   1      44.503  28.357  38.077  1.00  0.00    -0.237 OA
ATOM    100  O   UNL A   1      45.721  30.052  36.769  1.00  0.00    -0.237 OA
ATOM    101  O   UNL A   1      43.736  30.703  38.051  1.00  0.00    -0.744 OA
ENDBRANCH  95  98
ENDBRANCH  68  91
ENDBRANCH  42  43
ENDBRANCH  34  37
ENDBRANCH  32  33
ENDBRANCH  31  32
ENDBRANCH  30  31
ENDBRANCH   1  30
TORSDOF 19
ENDMDL
MODEL 2
REMARK VINA RESULT:     -12.7      3.385      8.300
REMARK SMILES Cc1ccnc(C(=O)c2[nH]c3cc(Cl)c(F)cc3c2CC(=O)NCCCCCCNC(=O)c2ccc(-c3c4nc(c(-c5cccc(S(=O)(=O)[O-])c5F)c5ccc([nH]5)c(-c5cccc(S(=O)(=O)[O-])c5F)c5nc(c(-c6cccc(S(=O)(=O)[O-])c6F)c6ccc3[nH]6)C=C5)C=C4)cc2)c1
REMARK SMILES IDX 26 1 25 2 24 3 23 4 21 5 22 6 20 8 19 9 9 10 10 11 11 12
REMARK SMILES IDX 18 14 12 15 17 16 13 17 15 18 14 19 16 20 7 21 8 22 6 23
REMARK SMILES IDX 1 24 2 25 3 26 96 27 4 28 5 29 27 30 28 31 29 32 30 33 31 34
REMARK SMILES IDX 32 36 33 37 34 38 95 39 35 40 94 41 36 42 37 43 38 44 88 45
REMARK SMILES IDX 39 46 93 47 87 48 89 49 40 50 92 51 86 52 85 53 41 55 73 56
REMARK SMILES IDX 53 57 72 58 54 59 57 60 71 61 90 62 55 63 56 64 70 66 91 67
REMARK SMILES IDX 58 68 42 69 43 70 51 71 44 72 46 73 52 74 45 75 47 76 48 77
REMARK SMILES IDX 49 78 50 79 74 80 75 81 83 82 76 83 78 84 84 85 77 86 79 87
REMARK SMILES IDX 80 88 81 89 82 90 59 91 60 92 68 93 61 94 63 95 69 96 62 97
REMARK SMILES IDX 64 98 65 99 66 100 67 101
REMARK H PARENT 23 7 10 13 30 35 89 54 57 65
REMARK Flexibility Score: inf
ROOT
ATOM      1  C   UNL A   1      31.817  28.567  27.095  1.00  0.00     0.002 C 
ENDROOT
BRANCH   1   2
ATOM      2  C   UNL A   1      31.788  27.405  26.098  1.00  0.00     0.021 C 
BRANCH   2   3
ATOM      3  C   UNL A   1      30.676  26.364  26.292  1.00  0.00     0.116 C 
BRANCH   3   4
ATOM      4  N   UNL A   1      31.027  25.012  25.901  1.00  0.00    -0.356 N 
ATOM      5  C   UNL A   1      30.859  24.337  24.729  1.00  0.00     0.224 C 
ATOM      6  O   UNL A   1      31.389  23.225  24.636  1.00  0.00    -0.275 OA
ATOM      7  H   UNL A   1      31.465  24.486  26.610  1.00  0.00     0.163 HD
BRANCH   5   8
ATOM      8  C   UNL A   1      30.111  24.918  23.545  1.00  0.00     0.138 C 
BRANCH   8   9
ATOM      9  C   UNL A   1      30.691  26.155  22.923  1.00  0.00    -0.002 A 
ATOM     10  C   UNL A   1      31.951  26.362  22.355  1.00  0.00     0.093 A 
ATOM     11  N   UNL A   1      32.027  27.711  22.056  1.00  0.00    -0.351 N 
ATOM     12  C   UNL A   1      30.839  28.352  22.289  1.00  0.00     0.048 A 
ATOM     13  H   UNL A   1      32.837  28.156  21.715  1.00  0.00     0.167 HD
ATOM     14  C   UNL A   1      30.003  27.427  22.903  1.00  0.00     0.007 A 
ATOM     15  C   UNL A   1      30.451  29.675  22.025  1.00  0.00     0.050 A 
ATOM     16  C   UNL A   1      28.726  27.860  23.327  1.00  0.00     0.051 A 
ATOM     17  C   UNL A   1      29.156  30.056  22.392  1.00  0.00     0.078 A 
ATOM     18  C   UNL A   1      28.313  29.162  23.041  1.00  0.00     0.142 A 
ATOM     19  Cl  UNL A   1      28.618  31.651  22.026  1.00  0.00    -0.081 Cl
ATOM     20  F   UNL A   1      27.069  29.524  23.391  1.00  0.00    -0.205 F 
BRANCH  10  21
ATOM     21  C   UNL A   1      33.141  25.533  22.149  1.00  0.00     0.227 C 
ATOM     22  O   UNL A   1      33.438  25.198  21.001  1.00  0.00    -0.285 OA
BRANCH  21  23
ATOM     23  C   UNL A   1      33.946  24.956  23.288  1.00  0.00     0.113 A 
ATOM     24  C   UNL A   1      35.977  21.899  24.311  1.00  0.00     0.044 C 
ATOM     25  C   UNL A   1      35.331  23.254  24.298  1.00  0.00    -0.047 A 
ATOM     26  C   UNL A   1      35.420  24.056  25.430  1.00  0.00     0.023 A 
ATOM     27  C   UNL A   1      34.634  23.752  23.187  1.00  0.00     0.036 A 
ATOM     28  C   UNL A   1      34.771  25.277  25.428  1.00  0.00     0.112 A 
ATOM     29  N   UNL A   1      34.032  25.739  24.396  1.00  0.00    -0.253 NA
ENDBRANCH  21  23
ENDBRANCH  10  21
ENDBRANCH   8   9
ENDBRANCH   5   8
ENDBRANCH   3   4
ENDBRANCH   2   3
ENDBRANCH   1   2
BRANCH   1  30
ATOM     30  C   UNL A   1      33.172  29.252  27.263  1.00  0.00     0.002 C 
BRANCH  30  31
ATOM     31  C   UNL A   1      33.106  30.778  27.138  1.00  0.00     0.021 C 
BRANCH  31  32
ATOM     32  C   UNL A   1      34.379  31.474  27.628  1.00  0.00     0.116 C 
BRANCH  32  33
ATOM     33  N   UNL A   1      34.242  32.009  28.967  1.00  0.00    -0.352 N 
ATOM     34  C   UNL A   1      35.039  32.031  30.077  1.00  0.00     0.251 C 
ATOM     35  H   UNL A   1      33.379  32.460  29.110  1.00  0.00     0.163 HD
ATOM     36  O   UNL A   1      34.595  32.659  31.043  1.00  0.00    -0.269 OA
BRANCH  34  37
ATOM     37  C   UNL A   1      36.330  31.306  30.216  1.00  0.00     0.039 A 
ATOM     38  C   UNL A   1      37.590  31.900  30.259  1.00  0.00     0.014 A 
ATOM     39  C   UNL A   1      36.250  29.899  30.232  1.00  0.00     0.014 A 
ATOM     40  C   UNL A   1      38.734  31.123  30.186  1.00  0.00     0.010 A 
ATOM     41  C   UNL A   1      37.394  29.114  30.187  1.00  0.00     0.010 A 
ATOM     42  C   UNL A   1      38.633  29.734  30.099  1.00  0.00    -0.014 A 
BRANCH  42  43
ATOM     43  C   UNL A   1      39.878  28.984  30.008  1.00  0.00     0.031 A 
ATOM     44  C   UNL A   1      40.508  28.702  31.329  1.00  0.00     0.074 A 
ATOM     45  C   UNL A   1      40.402  28.555  28.842  1.00  0.00     0.049 A 
ATOM     46  N   UNL A   1      41.609  29.187  31.800  1.00  0.00    -0.248 NA
ATOM     47  C   UNL A   1      39.728  27.926  32.305  1.00  0.00     0.031 C 
ATOM     48  C   UNL A   1      39.767  28.538  27.522  1.00  0.00     0.029 A 
ATOM     49  N   UNL A   1      41.589  27.925  28.617  1.00  0.00    -0.354 N 
ATOM     50  C   UNL A   1      41.775  28.595  33.051  1.00  0.00     0.074 A 
ATOM     51  C   UNL A   1      40.517  27.980  33.378  1.00  0.00     0.031 C 
ATOM     52  C   UNL A   1      40.453  27.702  26.709  1.00  0.00     0.029 A 
ATOM     53  C   UNL A   1      41.651  27.258  27.397  1.00  0.00     0.049 A 
ATOM     54  H   UNL A   1      42.334  27.940  29.260  1.00  0.00     0.167 HD
ATOM     55  C   UNL A   1      43.007  28.456  33.614  1.00  0.00     0.034 A 
ATOM     56  C   UNL A   1      42.586  26.348  27.027  1.00  0.00     0.034 A 
ATOM     57  C   UNL A   1      43.974  29.313  32.980  1.00  0.00     0.049 A 
ATOM     58  C   UNL A   1      43.773  26.577  27.877  1.00  0.00     0.074 A 
ATOM     59  C   UNL A   1      44.169  30.673  32.862  1.00  0.00     0.029 A 
ATOM     60  N   UNL A   1      44.758  28.726  32.022  1.00  0.00    -0.354 N 
ATOM     61  N   UNL A   1      44.503  27.655  27.827  1.00  0.00    -0.248 NA
ATOM     62  C   UNL A   1      43.927  25.767  29.071  1.00  0.00     0.031 C 
ATOM     63  C   UNL A   1      44.728  30.855  31.562  1.00  0.00     0.029 A 
ATOM     64  C   UNL A   1      44.891  29.596  30.977  1.00  0.00     0.049 A 
ATOM     65  H   UNL A   1      45.159  27.828  32.079  1.00  0.00     0.167 HD
ATOM     66  C   UNL A   1      44.843  27.899  29.149  1.00  0.00     0.074 A 
ATOM     67  C   UNL A   1      44.575  26.641  29.844  1.00  0.00     0.031 C 
ATOM     68  C   UNL A   1      45.033  29.174  29.599  1.00  0.00     0.034 A 
BRANCH  55  69
ATOM     69  C   UNL A   1      43.441  27.278  34.460  1.00  0.00     0.023 A 
ATOM     70  C   UNL A   1      43.786  27.538  35.807  1.00  0.00     0.012 A 
ATOM     71  C   UNL A   1      43.801  26.010  33.947  1.00  0.00     0.148 A 
ATOM     72  C   UNL A   1      44.493  26.610  36.581  1.00  0.00     0.002 A 
ATOM     73  C   UNL A   1      44.435  25.061  34.742  1.00  0.00     0.091 A 
ATOM     74  F   UNL A   1      43.653  25.749  32.646  1.00  0.00    -0.205 F 
ATOM     75  C   UNL A   1      44.813  25.367  36.050  1.00  0.00     0.022 A 
BRANCH  73  76
ATOM     76  S   UNL A   1      44.831  23.418  34.128  1.00  0.00     0.127 S 
ATOM     77  O   UNL A   1      46.245  23.557  33.809  1.00  0.00    -0.237 OA
ATOM     78  O   UNL A   1      44.533  22.588  35.294  1.00  0.00    -0.237 OA
ATOM     79  O   UNL A   1      43.936  23.197  32.995  1.00  0.00    -0.744 OA
ENDBRANCH  73  76
ENDBRANCH  55  69
BRANCH  56  80
ATOM     80  C   UNL A   1      42.415  25.076  26.282  1.00  0.00     0.023 A 
ATOM     81  C   UNL A   1      43.395  24.690  25.342  1.00  0.00     0.012 A 
ATOM     82  C   UNL A   1      41.500  24.097  26.728  1.00  0.00     0.148 A 
ATOM     83  C   UNL A   1      43.495  23.364  24.905  1.00  0.00     0.002 A 
ATOM     84  C   UNL A   1      41.605  22.779  26.294  1.00  0.00     0.091 A 
ATOM     85  F   UNL A   1      40.591  24.436  27.652  1.00  0.00    -0.205 F 
ATOM     86  C   UNL A   1      42.612  22.405  25.393  1.00  0.00     0.022 A 
BRANCH  84  87
ATOM     87  S   UNL A   1      40.539  21.473  26.918  1.00  0.00     0.127 S 
ATOM     88  O   UNL A   1      40.796  21.538  28.357  1.00  0.00    -0.237 OA
ATOM     89  O   UNL A   1      39.218  21.944  26.509  1.00  0.00    -0.237 OA
ATOM     90  O   UNL A   1      40.996  20.245  26.280  1.00  0.00    -0.744 OA
ENDBRANCH  84  87
ENDBRANCH  56  80
BRANCH  68  91
ATOM     91  C   UNL A   1      45.169  30.272  28.571  1.00  0.00     0.023 A 
ATOM     92  C   UNL A   1      44.070  31.024  28.104  1.00  0.00     0.012 A 
ATOM     93  C   UNL A   1      46.464  30.655  28.185  1.00  0.00     0.148 A 
ATOM     94  C   UNL A   1      44.260  32.119  27.255  1.00  0.00     0.002 A 
ATOM     95  C   UNL A   1      46.653  31.776  27.385  1.00  0.00     0.091 A 
ATOM     96  F   UNL A   1      47.499  29.931  28.634  1.00  0.00    -0.205 F 
ATOM     97  C   UNL A   1      45.552  32.504  26.907  1.00  0.00     0.022 A 
BRANCH  95  98
ATOM     98  S   UNL A   1      48.294  32.401  27.019  1.00  0.00     0.127 S 
ATOM     99  O   UNL A   1      48.994  31.191  26.595  1.00  0.00    -0.237 OA
ATOM    100  O   UNL A   1      48.030  33.364  25.947  1.00  0.00    -0.237 OA
ATOM    101  O   UNL A   1      48.777  33.005  28.254  1.00  0.00    -0.744 OA
ENDBRANCH  95  98
ENDBRANCH  68  91
ENDBRANCH  42  43
ENDBRANCH  34  37
ENDBRANCH  32  33
ENDBRANCH  31  32
ENDBRANCH  30  31
ENDBRANCH   1  30
TORSDOF 19
ENDMDL
MODEL 3
REMARK VINA RESULT:     -12.3      1.538      1.868
REMARK SMILES Cc1ccnc(C(=O)c2[nH]c3cc(Cl)c(F)cc3c2CC(=O)NCCCCCCNC(=O)c2ccc(-c3c4nc(c(-c5cccc(S(=O)(=O)[O-])c5F)c5ccc([nH]5)c(-c5cccc(S(=O)(=O)[O-])c5F)c5nc(c(-c6cccc(S(=O)(=O)[O-])c6F)c6ccc3[nH]6)C=C5)C=C4)cc2)c1
REMARK SMILES IDX 26 1 25 2 24 3 23 4 21 5 22 6 20 8 19 9 9 10 10 11 11 12
REMARK SMILES IDX 18 14 12 15 17 16 13 17 15 18 14 19 16 20 7 21 8 22 6 23
REMARK SMILES IDX 1 24 2 25 3 26 96 27 4 28 5 29 27 30 28 31 29 32 30 33 31 34
REMARK SMILES IDX 32 36 33 37 34 38 95 39 35 40 94 41 36 42 37 43 38 44 88 45
REMARK SMILES IDX 39 46 93 47 87 48 89 49 40 50 92 51 86 52 85 53 41 55 73 56
REMARK SMILES IDX 53 57 72 58 54 59 57 60 71 61 90 62 55 63 56 64 70 66 91 67
REMARK SMILES IDX 58 68 42 69 43 70 51 71 44 72 46 73 52 74 45 75 47 76 48 77
REMARK SMILES IDX 49 78 50 79 74 80 75 81 83 82 76 83 78 84 84 85 77 86 79 87
REMARK SMILES IDX 80 88 81 89 82 90 59 91 60 92 68 93 61 94 63 95 69 96 62 97
REMARK SMILES IDX 64 98 65 99 66 100 67 101
REMARK H PARENT 23 7 10 13 30 35 89 54 57 65
REMARK Flexibility Score: inf
ROOT
ATOM      1  C   UNL A   1      36.888  21.618  24.751  1.00  0.00     0.002 C 
ENDROOT
BRANCH   1   2
ATOM      2  C   UNL A   1      36.150  22.699  25.546  1.00  0.00     0.021 C 
BRANCH   2   3
ATOM      3  C   UNL A   1      35.426  23.778  24.727  1.00  0.00     0.116 C 
BRANCH   3   4
ATOM      4  N   UNL A   1      35.062  24.970  25.470  1.00  0.00    -0.356 N 
ATOM      5  C   UNL A   1      34.098  25.909  25.255  1.00  0.00     0.224 C 
ATOM      6  O   UNL A   1      33.923  26.752  26.140  1.00  0.00    -0.275 OA
ATOM      7  H   UNL A   1      35.610  25.130  26.272  1.00  0.00     0.163 HD
BRANCH   5   8
ATOM      8  C   UNL A   1      33.216  25.916  24.022  1.00  0.00     0.138 C 
BRANCH   8   9
ATOM      9  C   UNL A   1      31.736  26.021  24.253  1.00  0.00    -0.002 A 
ATOM     10  C   UNL A   1      30.894  25.216  25.025  1.00  0.00     0.093 A 
ATOM     11  N   UNL A   1      29.605  25.660  24.788  1.00  0.00    -0.351 N 
ATOM     12  C   UNL A   1      29.590  26.784  24.003  1.00  0.00     0.048 A 
ATOM     13  H   UNL A   1      28.797  25.223  25.142  1.00  0.00     0.167 HD
ATOM     14  C   UNL A   1      30.899  26.995  23.587  1.00  0.00     0.007 A 
ATOM     15  C   UNL A   1      28.523  27.610  23.617  1.00  0.00     0.050 A 
ATOM     16  C   UNL A   1      31.151  28.059  22.691  1.00  0.00     0.051 A 
ATOM     17  C   UNL A   1      28.813  28.697  22.786  1.00  0.00     0.078 A 
ATOM     18  C   UNL A   1      30.107  28.909  22.324  1.00  0.00     0.142 A 
ATOM     19  Cl  UNL A   1      27.543  29.773  22.341  1.00  0.00    -0.081 Cl
ATOM     20  F   UNL A   1      30.388  29.952  21.530  1.00  0.00    -0.205 F 
BRANCH  10  21
ATOM     21  C   UNL A   1      31.080  24.026  25.858  1.00  0.00     0.227 C 
ATOM     22  O   UNL A   1      30.796  24.090  27.056  1.00  0.00    -0.285 OA
BRANCH  21  23
ATOM     23  C   UNL A   1      31.731  22.762  25.350  1.00  0.00     0.113 A 
ATOM     24  C   UNL A   1      32.110  20.600  22.236  1.00  0.00     0.044 C 
ATOM     25  C   UNL A   1      32.259  21.161  23.620  1.00  0.00    -0.047 A 
ATOM     26  C   UNL A   1      33.014  20.461  24.555  1.00  0.00     0.023 A 
ATOM     27  C   UNL A   1      31.665  22.368  24.017  1.00  0.00     0.036 A 
ATOM     28  C   UNL A   1      33.095  20.957  25.842  1.00  0.00     0.112 A 
ATOM     29  N   UNL A   1      32.467  22.076  26.264  1.00  0.00    -0.253 NA
ENDBRANCH  21  23
ENDBRANCH  10  21
ENDBRANCH   8   9
ENDBRANCH   5   8
ENDBRANCH   3   4
ENDBRANCH   2   3
ENDBRANCH   1   2
BRANCH   1  30
ATOM     30  C   UNL A   1      38.203  21.139  25.362  1.00  0.00     0.002 C 
BRANCH  30  31
ATOM     31  C   UNL A   1      38.992  22.249  26.065  1.00  0.00     0.021 C 
BRANCH  31  32
ATOM     32  C   UNL A   1      40.050  21.711  27.033  1.00  0.00     0.116 C 
BRANCH  32  33
ATOM     33  N   UNL A   1      41.400  22.033  26.619  1.00  0.00    -0.352 N 
ATOM     34  C   UNL A   1      42.239  23.092  26.823  1.00  0.00     0.251 C 
ATOM     35  H   UNL A   1      41.805  21.328  26.064  1.00  0.00     0.163 HD
ATOM     36  O   UNL A   1      43.374  22.975  26.353  1.00  0.00    -0.269 OA
BRANCH  34  37
ATOM     37  C   UNL A   1      41.858  24.367  27.489  1.00  0.00     0.039 A 
ATOM     38  C   UNL A   1      40.820  25.208  27.091  1.00  0.00     0.014 A 
ATOM     39  C   UNL A   1      42.675  24.771  28.563  1.00  0.00     0.014 A 
ATOM     40  C   UNL A   1      40.682  26.465  27.654  1.00  0.00     0.010 A 
ATOM     41  C   UNL A   1      42.523  26.020  29.151  1.00  0.00     0.010 A 
ATOM     42  C   UNL A   1      41.564  26.889  28.648  1.00  0.00    -0.014 A 
BRANCH  42  43
ATOM     43  C   UNL A   1      41.368  28.230  29.181  1.00  0.00     0.031 A 
ATOM     44  C   UNL A   1      42.324  29.236  28.643  1.00  0.00     0.074 A 
ATOM     45  C   UNL A   1      40.393  28.543  30.058  1.00  0.00     0.049 A 
ATOM     46  N   UNL A   1      43.275  29.843  29.276  1.00  0.00    -0.248 NA
ATOM     47  C   UNL A   1      42.334  29.459  27.189  1.00  0.00     0.031 C 
ATOM     48  C   UNL A   1      39.247  27.725  30.462  1.00  0.00     0.029 A 
ATOM     49  N   UNL A   1      40.158  29.728  30.690  1.00  0.00    -0.354 N 
ATOM     50  C   UNL A   1      43.859  30.699  28.344  1.00  0.00     0.074 A 
ATOM     51  C   UNL A   1      43.366  30.293  27.055  1.00  0.00     0.031 C 
ATOM     52  C   UNL A   1      38.317  28.517  31.045  1.00  0.00     0.029 A 
ATOM     53  C   UNL A   1      38.868  29.851  31.197  1.00  0.00     0.049 A 
ATOM     54  H   UNL A   1      40.840  30.432  30.779  1.00  0.00     0.167 HD
ATOM     55  C   UNL A   1      44.519  31.825  28.730  1.00  0.00     0.034 A 
ATOM     56  C   UNL A   1      38.283  30.994  31.633  1.00  0.00     0.034 A 
ATOM     57  C   UNL A   1      44.861  31.781  30.127  1.00  0.00     0.049 A 
ATOM     58  C   UNL A   1      39.371  31.934  31.973  1.00  0.00     0.074 A 
ATOM     59  C   UNL A   1      45.683  31.014  30.925  1.00  0.00     0.029 A 
ATOM     60  N   UNL A   1      44.009  32.442  30.974  1.00  0.00    -0.354 N 
ATOM     61  N   UNL A   1      40.211  31.747  32.950  1.00  0.00    -0.248 NA
ATOM     62  C   UNL A   1      39.774  32.906  30.973  1.00  0.00     0.031 C 
ATOM     63  C   UNL A   1      45.004  30.922  32.175  1.00  0.00     0.029 A 
ATOM     64  C   UNL A   1      43.831  31.678  32.093  1.00  0.00     0.049 A 
ATOM     65  H   UNL A   1      43.596  33.319  30.803  1.00  0.00     0.167 HD
ATOM     66  C   UNL A   1      41.421  32.210  32.454  1.00  0.00     0.074 A 
ATOM     67  C   UNL A   1      41.063  33.027  31.295  1.00  0.00     0.031 C 
ATOM     68  C   UNL A   1      42.602  31.656  32.857  1.00  0.00     0.034 A 
BRANCH  55  69
ATOM     69  C   UNL A   1      44.514  33.134  27.966  1.00  0.00     0.023 A 
ATOM     70  C   UNL A   1      45.706  33.499  27.298  1.00  0.00     0.012 A 
ATOM     71  C   UNL A   1      43.528  34.139  28.102  1.00  0.00     0.148 A 
ATOM     72  C   UNL A   1      45.924  34.804  26.839  1.00  0.00     0.002 A 
ATOM     73  C   UNL A   1      43.717  35.412  27.577  1.00  0.00     0.091 A 
ATOM     74  F   UNL A   1      42.448  33.918  28.855  1.00  0.00    -0.205 F 
ATOM     75  C   UNL A   1      44.927  35.761  26.973  1.00  0.00     0.022 A 
BRANCH  73  76
ATOM     76  S   UNL A   1      42.445  36.679  27.674  1.00  0.00     0.127 S 
ATOM     77  O   UNL A   1      42.727  37.280  28.970  1.00  0.00    -0.237 OA
ATOM     78  O   UNL A   1      42.768  37.512  26.517  1.00  0.00    -0.237 OA
ATOM     79  O   UNL A   1      41.174  35.967  27.559  1.00  0.00    -0.744 OA
ENDBRANCH  73  76
ENDBRANCH  55  69
BRANCH  56  80
ATOM     80  C   UNL A   1      36.894  31.476  31.427  1.00  0.00     0.023 A 
ATOM     81  C   UNL A   1      36.220  32.111  32.492  1.00  0.00     0.012 A 
ATOM     82  C   UNL A   1      36.368  31.624  30.125  1.00  0.00     0.148 A 
ATOM     83  C   UNL A   1      35.095  32.911  32.261  1.00  0.00     0.002 A 
ATOM     84  C   UNL A   1      35.252  32.423  29.899  1.00  0.00     0.091 A 
ATOM     85  F   UNL A   1      37.021  31.063  29.098  1.00  0.00    -0.205 F 
ATOM     86  C   UNL A   1      34.621  33.081  30.963  1.00  0.00     0.022 A 
BRANCH  84  87
ATOM     87  S   UNL A   1      34.612  32.735  28.248  1.00  0.00     0.127 S 
ATOM     88  O   UNL A   1      33.535  33.688  28.519  1.00  0.00    -0.237 OA
ATOM     89  O   UNL A   1      35.778  33.304  27.577  1.00  0.00    -0.237 OA
ATOM     90  O   UNL A   1      34.160  31.445  27.744  1.00  0.00    -0.744 OA
ENDBRANCH  84  87
ENDBRANCH  56  80
BRANCH  68  91
ATOM     91  C   UNL A   1      42.580  30.753  34.068  1.00  0.00     0.023 A 
ATOM     92  C   UNL A   1      42.660  31.243  35.390  1.00  0.00     0.012 A 
ATOM     93  C   UNL A   1      42.317  29.389  33.866  1.00  0.00     0.148 A 
ATOM     94  C   UNL A   1      42.500  30.384  36.482  1.00  0.00     0.002 A 
ATOM     95  C   UNL A   1      42.107  28.549  34.953  1.00  0.00     0.091 A 
ATOM     96  F   UNL A   1      42.247  28.937  32.606  1.00  0.00    -0.205 F 
ATOM     97  C   UNL A   1      42.210  29.040  36.264  1.00  0.00     0.022 A 
BRANCH  95  98
ATOM     98  S   UNL A   1      41.593  26.844  34.735  1.00  0.00     0.127 S 
ATOM     99  O   UNL A   1      40.446  26.983  33.841  1.00  0.00    -0.237 OA
ATOM    100  O   UNL A   1      42.776  26.236  34.122  1.00  0.00    -0.237 OA
ATOM    101  O   UNL A   1      41.292  26.342  36.070  1.00  0.00    -0.744 OA
ENDBRANCH  95  98
ENDBRANCH  68  91
ENDBRANCH  42  43
ENDBRANCH  34  37
ENDBRANCH  32  33
ENDBRANCH  31  32
ENDBRANCH  30  31
ENDBRANCH   1  30
TORSDOF 19
ENDMDL
