MODEL 1
REMARK VINA RESULT:     -11.0      0.000      0.000
REMARK SMILES CC1(C)CCC[C@@](C)(CCC(=O)NCCCCCCNC(=O)c2ccc(-c3c4nc(c(-c5cccc(S(=O)(=O)[O-])c5F)c5ccc([nH]5)c(-c5cccc(S(=O)(=O)[O-])c5F)c5nc(c(-c6cccc(S(=O)(=O)[O-])c6F)c6ccc3[nH]6)C=C5)C=C4)cc2)C1=O
REMARK SMILES IDX 17 1 16 2 15 3 14 4 13 5 11 6 12 7 10 9 9 10 7 11 1 12 2 13
REMARK SMILES IDX 3 14 4 15 86 16 5 17 87 18 6 19 8 20 18 21 19 22 20 23 21 24
REMARK SMILES IDX 22 26 23 27 24 28 85 29 25 30 84 31 26 32 27 33 28 34 78 35
REMARK SMILES IDX 29 36 83 37 77 38 79 39 30 40 82 41 76 42 75 43 31 45 63 46
REMARK SMILES IDX 43 47 62 48 44 49 47 50 61 51 80 52 45 53 46 54 60 56 81 57
REMARK SMILES IDX 48 58 32 59 33 60 41 61 34 62 36 63 42 64 35 65 37 66 38 67
REMARK SMILES IDX 39 68 40 69 64 70 65 71 73 72 66 73 68 74 74 75 67 76 69 77
REMARK SMILES IDX 70 78 71 79 72 80 49 81 50 82 58 83 51 84 53 85 59 86 52 87
REMARK SMILES IDX 54 88 55 89 56 90 57 91
REMARK H PARENT 13 8 20 25 79 44 47 55
REMARK Flexibility Score: inf
ROOT
ATOM      1  C   UNL A   1      34.585  22.667  24.495  1.00  0.00     0.002 C 
ENDROOT
BRANCH   1   2
ATOM      2  C   UNL A   1      33.472  22.653  23.445  1.00  0.00     0.002 C 
BRANCH   2   3
ATOM      3  C   UNL A   1      32.142  22.079  23.921  1.00  0.00     0.021 C 
BRANCH   3   4
ATOM      4  C   UNL A   1      32.169  21.477  25.333  1.00  0.00     0.116 C 
BRANCH   4   5
ATOM      5  N   UNL A   1      31.003  21.913  26.096  1.00  0.00    -0.356 N 
ATOM      6  C   UNL A   1      30.738  23.080  26.748  1.00  0.00     0.220 C 
ATOM      7  O   UNL A   1      29.738  23.130  27.468  1.00  0.00    -0.275 OA
ATOM      8  H   UNL A   1      30.280  21.246  26.147  1.00  0.00     0.163 HD
BRANCH   6   9
ATOM      9  C   UNL A   1      31.608  24.310  26.554  1.00  0.00     0.101 C 
BRANCH   9  10
ATOM     10  C   UNL A   1      30.886  25.571  26.021  1.00  0.00     0.024 C 
BRANCH  10  11
ATOM     11  C   UNL A   1      31.623  26.357  24.900  1.00  0.00     0.027 C 
ATOM     12  C   UNL A   1      31.781  28.268  27.554  1.00  0.00     0.019 C 
ATOM     13  C   UNL A   1      32.110  28.674  26.109  1.00  0.00     0.024 C 
ATOM     14  C   UNL A   1      31.715  30.160  25.985  1.00  0.00     0.019 C 
ATOM     15  C   UNL A   1      33.602  28.481  25.812  1.00  0.00     0.014 C 
ATOM     16  C   UNL A   1      31.387  27.877  25.003  1.00  0.00     0.144 C 
ATOM     17  C   UNL A   1      33.998  27.001  25.823  1.00  0.00     0.002 C 
ATOM     18  O   UNL A   1      30.695  28.460  24.166  1.00  0.00    -0.298 OA
ATOM     19  C   UNL A   1      33.162  26.149  24.865  1.00  0.00     0.014 C 
ATOM     20  C   UNL A   1      31.114  25.782  23.556  1.00  0.00     0.020 C 
ENDBRANCH  10  11
ENDBRANCH   9  10
ENDBRANCH   6   9
ENDBRANCH   4   5
ENDBRANCH   3   4
ENDBRANCH   2   3
ENDBRANCH   1   2
BRANCH   1  21
ATOM     21  C   UNL A   1      35.962  23.155  24.025  1.00  0.00     0.021 C 
BRANCH  21  22
ATOM     22  C   UNL A   1      36.897  23.682  25.113  1.00  0.00     0.116 C 
BRANCH  22  23
ATOM     23  N   UNL A   1      37.855  22.680  25.552  1.00  0.00    -0.352 N 
ATOM     24  C   UNL A   1      39.057  22.826  26.197  1.00  0.00     0.251 C 
ATOM     25  H   UNL A   1      37.602  21.749  25.356  1.00  0.00     0.163 HD
ATOM     26  O   UNL A   1      39.814  21.864  26.299  1.00  0.00    -0.269 OA
BRANCH  24  27
ATOM     27  C   UNL A   1      39.452  24.134  26.763  1.00  0.00     0.039 A 
ATOM     28  C   UNL A   1      39.189  24.393  28.111  1.00  0.00     0.014 A 
ATOM     29  C   UNL A   1      40.034  25.120  25.961  1.00  0.00     0.014 A 
ATOM     30  C   UNL A   1      39.557  25.620  28.668  1.00  0.00     0.010 A 
ATOM     31  C   UNL A   1      40.451  26.322  26.533  1.00  0.00     0.010 A 
ATOM     32  C   UNL A   1      40.212  26.587  27.890  1.00  0.00    -0.014 A 
BRANCH  32  33
ATOM     33  C   UNL A   1      40.659  27.876  28.479  1.00  0.00     0.031 A 
ATOM     34  C   UNL A   1      42.125  28.150  28.686  1.00  0.00     0.074 A 
ATOM     35  C   UNL A   1      39.741  28.769  28.901  1.00  0.00     0.049 A 
ATOM     36  N   UNL A   1      42.701  29.187  29.237  1.00  0.00    -0.248 NA
ATOM     37  C   UNL A   1      43.068  27.114  28.233  1.00  0.00     0.031 C 
ATOM     38  C   UNL A   1      38.290  28.588  28.824  1.00  0.00     0.029 A 
ATOM     39  N   UNL A   1      39.891  29.993  29.504  1.00  0.00    -0.354 N 
ATOM     40  C   UNL A   1      44.064  28.918  29.227  1.00  0.00     0.074 A 
ATOM     41  C   UNL A   1      44.230  27.605  28.641  1.00  0.00     0.031 C 
ATOM     42  C   UNL A   1      37.684  29.658  29.365  1.00  0.00     0.029 A 
ATOM     43  C   UNL A   1      38.699  30.589  29.848  1.00  0.00     0.049 A 
ATOM     44  H   UNL A   1      40.768  30.405  29.677  1.00  0.00     0.167 HD
ATOM     45  C   UNL A   1      45.089  29.703  29.638  1.00  0.00     0.034 A 
ATOM     46  C   UNL A   1      38.453  31.750  30.486  1.00  0.00     0.034 A 
ATOM     47  C   UNL A   1      44.924  31.026  30.178  1.00  0.00     0.049 A 
ATOM     48  C   UNL A   1      39.612  32.621  30.893  1.00  0.00     0.074 A 
ATOM     49  C   UNL A   1      45.903  31.929  30.554  1.00  0.00     0.029 A 
ATOM     50  N   UNL A   1      43.704  31.637  30.417  1.00  0.00    -0.354 N 
ATOM     51  N   UNL A   1      40.896  32.413  30.732  1.00  0.00    -0.248 NA
ATOM     52  C   UNL A   1      39.287  33.904  31.534  1.00  0.00     0.031 C 
ATOM     53  C   UNL A   1      45.274  33.084  31.033  1.00  0.00     0.029 A 
ATOM     54  C   UNL A   1      43.903  32.905  30.937  1.00  0.00     0.049 A 
ATOM     55  H   UNL A   1      42.824  31.230  30.243  1.00  0.00     0.167 HD
ATOM     56  C   UNL A   1      41.529  33.553  31.216  1.00  0.00     0.074 A 
ATOM     57  C   UNL A   1      40.486  34.457  31.653  1.00  0.00     0.031 C 
ATOM     58  C   UNL A   1      42.855  33.820  31.306  1.00  0.00     0.034 A 
BRANCH  45  59
ATOM     59  C   UNL A   1      46.492  29.184  29.458  1.00  0.00     0.023 A 
ATOM     60  C   UNL A   1      47.070  28.396  30.475  1.00  0.00     0.012 A 
ATOM     61  C   UNL A   1      47.204  29.400  28.263  1.00  0.00     0.148 A 
ATOM     62  C   UNL A   1      48.344  27.855  30.317  1.00  0.00     0.002 A 
ATOM     63  C   UNL A   1      48.457  28.822  28.095  1.00  0.00     0.091 A 
ATOM     64  F   UNL A   1      46.643  30.164  27.314  1.00  0.00    -0.205 F 
ATOM     65  C   UNL A   1      49.032  28.058  29.124  1.00  0.00     0.022 A 
BRANCH  63  66
ATOM     66  S   UNL A   1      49.395  28.958  26.569  1.00  0.00     0.127 S 
ATOM     67  O   UNL A   1      50.499  28.031  26.817  1.00  0.00    -0.237 OA
ATOM     68  O   UNL A   1      48.427  28.499  25.572  1.00  0.00    -0.237 OA
ATOM     69  O   UNL A   1      49.774  30.359  26.451  1.00  0.00    -0.744 OA
ENDBRANCH  63  66
ENDBRANCH  45  59
BRANCH  46  70
ATOM     70  C   UNL A   1      37.049  32.192  30.722  1.00  0.00     0.023 A 
ATOM     71  C   UNL A   1      36.474  32.017  31.997  1.00  0.00     0.012 A 
ATOM     72  C   UNL A   1      36.283  32.789  29.702  1.00  0.00     0.148 A 
ATOM     73  C   UNL A   1      35.153  32.391  32.241  1.00  0.00     0.002 A 
ATOM     74  C   UNL A   1      34.984  33.211  29.968  1.00  0.00     0.091 A 
ATOM     75  F   UNL A   1      36.837  32.933  28.491  1.00  0.00    -0.205 F 
ATOM     76  C   UNL A   1      34.412  32.996  31.230  1.00  0.00     0.022 A 
BRANCH  74  77
ATOM     77  S   UNL A   1      34.011  34.115  28.758  1.00  0.00     0.127 S 
ATOM     78  O   UNL A   1      32.872  34.558  29.561  1.00  0.00    -0.237 OA
ATOM     79  O   UNL A   1      34.933  35.183  28.360  1.00  0.00    -0.237 OA
ATOM     80  O   UNL A   1      33.717  33.160  27.704  1.00  0.00    -0.744 OA
ENDBRANCH  74  77
ENDBRANCH  46  70
BRANCH  58  81
ATOM     81  C   UNL A   1      43.262  35.158  31.865  1.00  0.00     0.023 A 
ATOM     82  C   UNL A   1      43.573  36.217  30.988  1.00  0.00     0.012 A 
ATOM     83  C   UNL A   1      43.261  35.388  33.255  1.00  0.00     0.148 A 
ATOM     84  C   UNL A   1      43.908  37.475  31.487  1.00  0.00     0.002 A 
ATOM     85  C   UNL A   1      43.549  36.657  33.744  1.00  0.00     0.091 A 
ATOM     86  F   UNL A   1      42.980  34.363  34.074  1.00  0.00    -0.205 F 
ATOM     87  C   UNL A   1      43.884  37.697  32.862  1.00  0.00     0.022 A 
BRANCH  85  88
ATOM     88  S   UNL A   1      43.452  37.059  35.491  1.00  0.00     0.127 S 
ATOM     89  O   UNL A   1      44.463  36.170  36.060  1.00  0.00    -0.237 OA
ATOM     90  O   UNL A   1      43.811  38.479  35.505  1.00  0.00    -0.237 OA
ATOM     91  O   UNL A   1      42.078  36.782  35.890  1.00  0.00    -0.744 OA
ENDBRANCH  85  88
ENDBRANCH  58  81
ENDBRANCH  32  33
ENDBRANCH  24  27
ENDBRANCH  22  23
ENDBRANCH  21  22
ENDBRANCH   1  21
TORSDOF 18
ENDMDL
MODEL 2
REMARK VINA RESULT:     -11.0      3.557      9.396
REMARK SMILES CC1(C)CCC[C@@](C)(CCC(=O)NCCCCCCNC(=O)c2ccc(-c3c4nc(c(-c5cccc(S(=O)(=O)[O-])c5F)c5ccc([nH]5)c(-c5cccc(S(=O)(=O)[O-])c5F)c5nc(c(-c6cccc(S(=O)(=O)[O-])c6F)c6ccc3[nH]6)C=C5)C=C4)cc2)C1=O
REMARK SMILES IDX 17 1 16 2 15 3 14 4 13 5 11 6 12 7 10 9 9 10 7 11 1 12 2 13
REMARK SMILES IDX 3 14 4 15 86 16 5 17 87 18 6 19 8 20 18 21 19 22 20 23 21 24
REMARK SMILES IDX 22 26 23 27 24 28 85 29 25 30 84 31 26 32 27 33 28 34 78 35
REMARK SMILES IDX 29 36 83 37 77 38 79 39 30 40 82 41 76 42 75 43 31 45 63 46
REMARK SMILES IDX 43 47 62 48 44 49 47 50 61 51 80 52 45 53 46 54 60 56 81 57
REMARK SMILES IDX 48 58 32 59 33 60 41 61 34 62 36 63 42 64 35 65 37 66 38 67
REMARK SMILES IDX 39 68 40 69 64 70 65 71 73 72 66 73 68 74 74 75 67 76 69 77
REMARK SMILES IDX 70 78 71 79 72 80 49 81 50 82 58 83 51 84 53 85 59 86 52 87
REMARK SMILES IDX 54 88 55 89 56 90 57 91
REMARK H PARENT 13 8 20 25 79 44 47 55
REMARK Flexibility Score: inf
ROOT
ATOM      1  C   UNL A   1      31.665  27.561  25.509  1.00  0.00     0.002 C 
ENDROOT
BRANCH   1   2
ATOM      2  C   UNL A   1      31.240  28.664  24.538  1.00  0.00     0.002 C 
BRANCH   2   3
ATOM      3  C   UNL A   1      32.042  28.729  23.242  1.00  0.00     0.021 C 
BRANCH   3   4
ATOM      4  C   UNL A   1      33.086  27.616  23.075  1.00  0.00     0.116 C 
BRANCH   4   5
ATOM      5  N   UNL A   1      33.038  27.072  21.721  1.00  0.00    -0.356 N 
ATOM      6  C   UNL A   1      32.825  25.805  21.267  1.00  0.00     0.220 C 
ATOM      7  O   UNL A   1      33.009  25.577  20.068  1.00  0.00    -0.275 OA
ATOM      8  H   UNL A   1      33.186  27.738  21.011  1.00  0.00     0.163 HD
BRANCH   6   9
ATOM      9  C   UNL A   1      32.316  24.709  22.187  1.00  0.00     0.101 C 
BRANCH   9  10
ATOM     10  C   UNL A   1      33.356  23.646  22.613  1.00  0.00     0.024 C 
BRANCH  10  11
ATOM     11  C   UNL A   1      33.329  23.225  24.110  1.00  0.00     0.027 C 
ATOM     12  C   UNL A   1      36.474  23.056  23.212  1.00  0.00     0.019 C 
ATOM     13  C   UNL A   1      35.854  22.490  24.499  1.00  0.00     0.024 C 
ATOM     14  C   UNL A   1      36.661  21.218  24.835  1.00  0.00     0.019 C 
ATOM     15  C   UNL A   1      35.944  23.508  25.643  1.00  0.00     0.014 C 
ATOM     16  C   UNL A   1      34.358  22.121  24.423  1.00  0.00     0.144 C 
ATOM     17  C   UNL A   1      35.064  24.736  25.382  1.00  0.00     0.002 C 
ATOM     18  O   UNL A   1      33.985  20.976  24.687  1.00  0.00    -0.298 OA
ATOM     19  C   UNL A   1      33.600  24.380  25.114  1.00  0.00     0.014 C 
ATOM     20  C   UNL A   1      31.881  22.770  24.411  1.00  0.00     0.020 C 
ENDBRANCH  10  11
ENDBRANCH   9  10
ENDBRANCH   6   9
ENDBRANCH   4   5
ENDBRANCH   3   4
ENDBRANCH   2   3
ENDBRANCH   1   2
BRANCH   1  21
ATOM     21  C   UNL A   1      32.334  28.017  26.811  1.00  0.00     0.021 C 
BRANCH  21  22
ATOM     22  C   UNL A   1      33.704  28.680  26.669  1.00  0.00     0.116 C 
BRANCH  22  23
ATOM     23  N   UNL A   1      33.668  30.099  26.991  1.00  0.00    -0.352 N 
ATOM     24  C   UNL A   1      34.519  30.854  27.757  1.00  0.00     0.251 C 
ATOM     25  H   UNL A   1      32.915  30.595  26.597  1.00  0.00     0.163 HD
ATOM     26  O   UNL A   1      34.200  31.997  28.073  1.00  0.00    -0.269 OA
BRANCH  24  27
ATOM     27  C   UNL A   1      35.812  30.301  28.211  1.00  0.00     0.039 A 
ATOM     28  C   UNL A   1      36.923  30.400  27.368  1.00  0.00     0.014 A 
ATOM     29  C   UNL A   1      35.924  29.644  29.441  1.00  0.00     0.014 A 
ATOM     30  C   UNL A   1      38.156  29.888  27.778  1.00  0.00     0.010 A 
ATOM     31  C   UNL A   1      37.168  29.184  29.872  1.00  0.00     0.010 A 
ATOM     32  C   UNL A   1      38.296  29.295  29.044  1.00  0.00    -0.014 A 
BRANCH  32  33
ATOM     33  C   UNL A   1      39.611  28.794  29.518  1.00  0.00     0.031 A 
ATOM     34  C   UNL A   1      40.350  29.516  30.614  1.00  0.00     0.074 A 
ATOM     35  C   UNL A   1      40.179  27.734  28.909  1.00  0.00     0.049 A 
ATOM     36  N   UNL A   1      41.530  29.264  31.118  1.00  0.00    -0.248 NA
ATOM     37  C   UNL A   1      39.684  30.687  31.208  1.00  0.00     0.031 C 
ATOM     38  C   UNL A   1      39.598  26.995  27.786  1.00  0.00     0.029 A 
ATOM     39  N   UNL A   1      41.383  27.112  29.127  1.00  0.00    -0.354 N 
ATOM     40  C   UNL A   1      41.763  30.258  32.062  1.00  0.00     0.074 A 
ATOM     41  C   UNL A   1      40.613  31.135  32.041  1.00  0.00     0.031 C 
ATOM     42  C   UNL A   1      40.448  26.025  27.411  1.00  0.00     0.029 A 
ATOM     43  C   UNL A   1      41.643  26.087  28.247  1.00  0.00     0.049 A 
ATOM     44  H   UNL A   1      42.004  27.376  29.844  1.00  0.00     0.167 HD
ATOM     45  C   UNL A   1      42.822  30.409  32.893  1.00  0.00     0.034 A 
ATOM     46  C   UNL A   1      42.724  25.291  28.124  1.00  0.00     0.034 A 
ATOM     47  C   UNL A   1      43.943  29.509  32.943  1.00  0.00     0.049 A 
ATOM     48  C   UNL A   1      43.867  25.456  29.089  1.00  0.00     0.074 A 
ATOM     49  C   UNL A   1      45.029  29.534  33.800  1.00  0.00     0.029 A 
ATOM     50  N   UNL A   1      44.122  28.421  32.104  1.00  0.00    -0.354 N 
ATOM     51  N   UNL A   1      43.996  26.307  30.077  1.00  0.00    -0.248 NA
ATOM     52  C   UNL A   1      44.997  24.525  28.949  1.00  0.00     0.031 C 
ATOM     53  C   UNL A   1      45.872  28.468  33.472  1.00  0.00     0.029 A 
ATOM     54  C   UNL A   1      45.301  27.767  32.421  1.00  0.00     0.049 A 
ATOM     55  H   UNL A   1      43.503  28.151  31.387  1.00  0.00     0.167 HD
ATOM     56  C   UNL A   1      45.200  25.991  30.699  1.00  0.00     0.074 A 
ATOM     57  C   UNL A   1      45.749  24.855  29.989  1.00  0.00     0.031 C 
ATOM     58  C   UNL A   1      45.803  26.598  31.749  1.00  0.00     0.034 A 
BRANCH  45  59
ATOM     59  C   UNL A   1      42.793  31.555  33.871  1.00  0.00     0.023 A 
ATOM     60  C   UNL A   1      43.303  32.809  33.476  1.00  0.00     0.012 A 
ATOM     61  C   UNL A   1      42.194  31.420  35.138  1.00  0.00     0.148 A 
ATOM     62  C   UNL A   1      43.241  33.904  34.337  1.00  0.00     0.002 A 
ATOM     63  C   UNL A   1      42.098  32.527  35.974  1.00  0.00     0.091 A 
ATOM     64  F   UNL A   1      41.729  30.216  35.500  1.00  0.00    -0.205 F 
ATOM     65  C   UNL A   1      42.630  33.766  35.580  1.00  0.00     0.022 A 
BRANCH  63  66
ATOM     66  S   UNL A   1      41.263  32.475  37.564  1.00  0.00     0.127 S 
ATOM     67  O   UNL A   1      41.256  33.889  37.939  1.00  0.00    -0.237 OA
ATOM     68  O   UNL A   1      39.951  31.935  37.204  1.00  0.00    -0.237 OA
ATOM     69  O   UNL A   1      42.066  31.609  38.415  1.00  0.00    -0.744 OA
ENDBRANCH  63  66
ENDBRANCH  45  59
BRANCH  46  70
ATOM     70  C   UNL A   1      42.752  24.220  27.087  1.00  0.00     0.023 A 
ATOM     71  C   UNL A   1      43.450  24.442  25.883  1.00  0.00     0.012 A 
ATOM     72  C   UNL A   1      42.103  22.986  27.284  1.00  0.00     0.148 A 
ATOM     73  C   UNL A   1      43.469  23.472  24.881  1.00  0.00     0.002 A 
ATOM     74  C   UNL A   1      42.171  22.002  26.304  1.00  0.00     0.091 A 
ATOM     75  F   UNL A   1      41.429  22.797  28.427  1.00  0.00    -0.205 F 
ATOM     76  C   UNL A   1      42.838  22.250  25.095  1.00  0.00     0.022 A 
BRANCH  74  77
ATOM     77  S   UNL A   1      41.496  20.357  26.558  1.00  0.00     0.127 S 
ATOM     78  O   UNL A   1      42.052  19.627  25.419  1.00  0.00    -0.237 OA
ATOM     79  O   UNL A   1      42.066  19.989  27.858  1.00  0.00    -0.237 OA
ATOM     80  O   UNL A   1      40.054  20.525  26.567  1.00  0.00    -0.744 OA
ENDBRANCH  74  77
ENDBRANCH  46  70
BRANCH  58  81
ATOM     81  C   UNL A   1      47.112  26.027  32.228  1.00  0.00     0.023 A 
ATOM     82  C   UNL A   1      47.136  25.177  33.352  1.00  0.00     0.012 A 
ATOM     83  C   UNL A   1      48.306  26.269  31.519  1.00  0.00     0.148 A 
ATOM     84  C   UNL A   1      48.331  24.603  33.782  1.00  0.00     0.002 A 
ATOM     85  C   UNL A   1      49.485  25.656  31.925  1.00  0.00     0.091 A 
ATOM     86  F   UNL A   1      48.267  27.096  30.463  1.00  0.00    -0.205 F 
ATOM     87  C   UNL A   1      49.501  24.833  33.062  1.00  0.00     0.022 A 
BRANCH  85  88
ATOM     88  S   UNL A   1      51.019  25.820  31.006  1.00  0.00     0.127 S 
ATOM     89  O   UNL A   1      51.912  24.937  31.755  1.00  0.00    -0.237 OA
ATOM     90  O   UNL A   1      50.643  25.324  29.681  1.00  0.00    -0.237 OA
ATOM     91  O   UNL A   1      51.360  27.236  31.044  1.00  0.00    -0.744 OA
ENDBRANCH  85  88
ENDBRANCH  58  81
ENDBRANCH  32  33
ENDBRANCH  24  27
ENDBRANCH  22  23
ENDBRANCH  21  22
ENDBRANCH   1  21
TORSDOF 18
ENDMDL
MODEL 3
REMARK VINA RESULT:     -11.0      1.992      2.402
REMARK SMILES CC1(C)CCC[C@@](C)(CCC(=O)NCCCCCCNC(=O)c2ccc(-c3c4nc(c(-c5cccc(S(=O)(=O)[O-])c5F)c5ccc([nH]5)c(-c5cccc(S(=O)(=O)[O-])c5F)c5nc(c(-c6cccc(S(=O)(=O)[O-])c6F)c6ccc3[nH]6)C=C5)C=C4)cc2)C1=O
REMARK SMILES IDX 17 1 16 2 15 3 14 4 13 5 11 6 12 7 10 9 9 10 7 11 1 12 2 13
REMARK SMILES IDX 3 14 4 15 86 16 5 17 87 18 6 19 8 20 18 21 19 22 20 23 21 24
REMARK SMILES IDX 22 26 23 27 24 28 85 29 25 30 84 31 26 32 27 33 28 34 78 35
REMARK SMILES IDX 29 36 83 37 77 38 79 39 30 40 82 41 76 42 75 43 31 45 63 46
REMARK SMILES IDX 43 47 62 48 44 49 47 50 61 51 80 52 45 53 46 54 60 56 81 57
REMARK SMILES IDX 48 58 32 59 33 60 41 61 34 62 36 63 42 64 35 65 37 66 38 67
REMARK SMILES IDX 39 68 40 69 64 70 65 71 73 72 66 73 68 74 74 75 67 76 69 77
REMARK SMILES IDX 70 78 71 79 72 80 49 81 50 82 58 83 51 84 53 85 59 86 52 87
REMARK SMILES IDX 54 88 55 89 56 90 57 91
REMARK H PARENT 13 8 20 25 79 44 47 55
REMARK Flexibility Score: inf
ROOT
ATOM      1  C   UNL A   1      34.666  23.157  25.574  1.00  0.00     0.002 C 
ENDROOT
BRANCH   1   2
ATOM      2  C   UNL A   1      34.318  22.283  26.780  1.00  0.00     0.002 C 
BRANCH   2   3
ATOM      3  C   UNL A   1      33.216  21.256  26.537  1.00  0.00     0.021 C 
BRANCH   3   4
ATOM      4  C   UNL A   1      32.154  21.681  25.514  1.00  0.00     0.116 C 
BRANCH   4   5
ATOM      5  N   UNL A   1      30.955  22.161  26.194  1.00  0.00    -0.356 N 
ATOM      6  C   UNL A   1      30.626  23.391  26.680  1.00  0.00     0.220 C 
ATOM      7  O   UNL A   1      29.611  23.491  27.373  1.00  0.00    -0.275 OA
ATOM      8  H   UNL A   1      30.260  21.475  26.324  1.00  0.00     0.163 HD
BRANCH   6   9
ATOM      9  C   UNL A   1      31.446  24.622  26.335  1.00  0.00     0.101 C 
BRANCH   9  10
ATOM     10  C   UNL A   1      30.671  25.787  25.675  1.00  0.00     0.024 C 
BRANCH  10  11
ATOM     11  C   UNL A   1      31.496  26.710  24.734  1.00  0.00     0.027 C 
ATOM     12  C   UNL A   1      31.582  28.157  27.670  1.00  0.00     0.019 C 
ATOM     13  C   UNL A   1      32.003  28.776  26.329  1.00  0.00     0.024 C 
ATOM     14  C   UNL A   1      31.671  30.279  26.432  1.00  0.00     0.019 C 
ATOM     15  C   UNL A   1      33.501  28.566  26.075  1.00  0.00     0.014 C 
ATOM     16  C   UNL A   1      31.312  28.203  25.074  1.00  0.00     0.144 C 
ATOM     17  C   UNL A   1      33.840  27.087  25.861  1.00  0.00     0.002 C 
ATOM     18  O   UNL A   1      30.688  28.944  24.312  1.00  0.00    -0.298 OA
ATOM     19  C   UNL A   1      33.025  26.440  24.738  1.00  0.00     0.014 C 
ATOM     20  C   UNL A   1      31.039  26.385  23.291  1.00  0.00     0.020 C 
ENDBRANCH  10  11
ENDBRANCH   9  10
ENDBRANCH   6   9
ENDBRANCH   4   5
ENDBRANCH   3   4
ENDBRANCH   2   3
ENDBRANCH   1   2
BRANCH   1  21
ATOM     21  C   UNL A   1      35.900  24.057  25.716  1.00  0.00     0.021 C 
BRANCH  21  22
ATOM     22  C   UNL A   1      37.121  23.664  24.884  1.00  0.00     0.116 C 
BRANCH  22  23
ATOM     23  N   UNL A   1      37.911  22.621  25.521  1.00  0.00    -0.352 N 
ATOM     24  C   UNL A   1      39.042  22.712  26.289  1.00  0.00     0.251 C 
ATOM     25  H   UNL A   1      37.581  21.705  25.377  1.00  0.00     0.163 HD
ATOM     26  O   UNL A   1      39.675  21.696  26.565  1.00  0.00    -0.269 OA
BRANCH  24  27
ATOM     27  C   UNL A   1      39.511  24.025  26.783  1.00  0.00     0.039 A 
ATOM     28  C   UNL A   1      40.212  24.863  25.911  1.00  0.00     0.014 A 
ATOM     29  C   UNL A   1      39.306  24.411  28.111  1.00  0.00     0.014 A 
ATOM     30  C   UNL A   1      40.662  26.109  26.355  1.00  0.00     0.010 A 
ATOM     31  C   UNL A   1      39.706  25.678  28.536  1.00  0.00     0.010 A 
ATOM     32  C   UNL A   1      40.393  26.538  27.665  1.00  0.00    -0.014 A 
BRANCH  32  33
ATOM     33  C   UNL A   1      40.816  27.881  28.137  1.00  0.00     0.031 A 
ATOM     34  C   UNL A   1      42.276  28.240  28.203  1.00  0.00     0.074 A 
ATOM     35  C   UNL A   1      39.888  28.753  28.581  1.00  0.00     0.049 A 
ATOM     36  N   UNL A   1      42.838  29.337  28.641  1.00  0.00    -0.248 NA
ATOM     37  C   UNL A   1      43.235  27.225  27.735  1.00  0.00     0.031 C 
ATOM     38  C   UNL A   1      38.447  28.497  28.637  1.00  0.00     0.029 A 
ATOM     39  N   UNL A   1      40.019  30.019  29.096  1.00  0.00    -0.354 N 
ATOM     40  C   UNL A   1      44.209  29.136  28.532  1.00  0.00     0.074 A 
ATOM     41  C   UNL A   1      44.397  27.798  28.013  1.00  0.00     0.031 C 
ATOM     42  C   UNL A   1      37.829  29.568  29.163  1.00  0.00     0.029 A 
ATOM     43  C   UNL A   1      38.829  30.576  29.503  1.00  0.00     0.049 A 
ATOM     44  H   UNL A   1      40.884  30.483  29.169  1.00  0.00     0.167 HD
ATOM     45  C   UNL A   1      45.218  29.995  28.808  1.00  0.00     0.034 A 
ATOM     46  C   UNL A   1      38.571  31.762  30.090  1.00  0.00     0.034 A 
ATOM     47  C   UNL A   1      45.027  31.340  29.281  1.00  0.00     0.049 A 
ATOM     48  C   UNL A   1      39.711  32.713  30.345  1.00  0.00     0.074 A 
ATOM     49  C   UNL A   1      45.982  32.312  29.518  1.00  0.00     0.029 A 
ATOM     50  N   UNL A   1      43.798  31.904  29.584  1.00  0.00    -0.354 N 
ATOM     51  N   UNL A   1      40.987  32.559  30.089  1.00  0.00    -0.248 NA
ATOM     52  C   UNL A   1      39.369  34.017  30.933  1.00  0.00     0.031 C 
ATOM     53  C   UNL A   1      45.332  33.463  29.979  1.00  0.00     0.029 A 
ATOM     54  C   UNL A   1      43.970  33.211  30.009  1.00  0.00     0.049 A 
ATOM     55  H   UNL A   1      42.931  31.444  29.510  1.00  0.00     0.167 HD
ATOM     56  C   UNL A   1      41.594  33.758  30.449  1.00  0.00     0.074 A 
ATOM     57  C   UNL A   1      40.542  34.635  30.918  1.00  0.00     0.031 C 
ATOM     58  C   UNL A   1      42.906  34.094  30.411  1.00  0.00     0.034 A 
BRANCH  45  59
ATOM     59  C   UNL A   1      46.628  29.535  28.542  1.00  0.00     0.023 A 
ATOM     60  C   UNL A   1      47.239  29.864  27.314  1.00  0.00     0.012 A 
ATOM     61  C   UNL A   1      47.375  28.856  29.524  1.00  0.00     0.148 A 
ATOM     62  C   UNL A   1      48.560  29.502  27.057  1.00  0.00     0.002 A 
ATOM     63  C   UNL A   1      48.705  28.535  29.277  1.00  0.00     0.091 A 
ATOM     64  F   UNL A   1      46.771  28.539  30.679  1.00  0.00    -0.205 F 
ATOM     65  C   UNL A   1      49.296  28.848  28.042  1.00  0.00     0.022 A 
BRANCH  63  66
ATOM     66  S   UNL A   1      49.763  27.761  30.506  1.00  0.00     0.127 S 
ATOM     67  O   UNL A   1      49.434  28.530  31.705  1.00  0.00    -0.237 OA
ATOM     68  O   UNL A   1      49.267  26.383  30.512  1.00  0.00    -0.237 OA
ATOM     69  O   UNL A   1      51.126  27.916  30.021  1.00  0.00    -0.744 OA
ENDBRANCH  63  66
ENDBRANCH  45  59
BRANCH  46  70
ATOM     70  C   UNL A   1      37.170  32.148  30.416  1.00  0.00     0.023 A 
ATOM     71  C   UNL A   1      36.665  31.889  31.706  1.00  0.00     0.012 A 
ATOM     72  C   UNL A   1      36.337  32.774  29.468  1.00  0.00     0.148 A 
ATOM     73  C   UNL A   1      35.347  32.210  32.034  1.00  0.00     0.002 A 
ATOM     74  C   UNL A   1      35.042  33.142  29.818  1.00  0.00     0.091 A 
ATOM     75  F   UNL A   1      36.827  32.998  28.241  1.00  0.00    -0.205 F 
ATOM     76  C   UNL A   1      34.540  32.845  31.093  1.00  0.00     0.022 A 
BRANCH  74  77
ATOM     77  S   UNL A   1      33.986  34.078  28.707  1.00  0.00     0.127 S 
ATOM     78  O   UNL A   1      33.614  33.062  27.722  1.00  0.00    -0.237 OA
ATOM     79  O   UNL A   1      32.898  34.496  29.597  1.00  0.00    -0.237 OA
ATOM     80  O   UNL A   1      34.807  35.171  28.218  1.00  0.00    -0.744 OA
ENDBRANCH  74  77
ENDBRANCH  46  70
BRANCH  58  81
ATOM     81  C   UNL A   1      43.284  35.484  30.853  1.00  0.00     0.023 A 
ATOM     82  C   UNL A   1      43.617  35.723  32.201  1.00  0.00     0.012 A 
ATOM     83  C   UNL A   1      43.385  36.534  29.918  1.00  0.00     0.148 A 
ATOM     84  C   UNL A   1      44.014  36.993  32.619  1.00  0.00     0.002 A 
ATOM     85  C   UNL A   1      43.826  37.785  30.333  1.00  0.00     0.091 A 
ATOM     86  F   UNL A   1      43.046  36.291  28.643  1.00  0.00    -0.205 F 
ATOM     87  C   UNL A   1      44.129  38.019  31.683  1.00  0.00     0.022 A 
BRANCH  85  88
ATOM     88  S   UNL A   1      44.094  39.139  29.183  1.00  0.00     0.127 S 
ATOM     89  O   UNL A   1      42.725  39.501  28.823  1.00  0.00    -0.237 OA
ATOM     90  O   UNL A   1      44.786  40.123  30.018  1.00  0.00    -0.237 OA
ATOM     91  O   UNL A   1      44.904  38.592  28.102  1.00  0.00    -0.744 OA
ENDBRANCH  85  88
ENDBRANCH  58  81
ENDBRANCH  32  33
ENDBRANCH  24  27
ENDBRANCH  22  23
ENDBRANCH  21  22
ENDBRANCH   1  21
TORSDOF 18
ENDMDL
