MODEL 1
REMARK VINA RESULT:     -11.4      0.000      0.000
REMARK SMILES CC(C)C[C@@H]([NH2+][C@H]1CCOC2(CCOCC2)C1)C(=O)NCCCCCCNC(=O)c1ccc(-c2c3nc(c(-c4cccc(S(=O)(=O)[O-])c4F)c4ccc([nH]4)c(-c4cccc(S(=O)(=O)[O-])c4F)c4nc(c(-c5cccc(S(=O)(=O)[O-])c5F)c5ccc2[nH]5)C=C4)C=C3)cc1
REMARK SMILES IDX 24 1 23 2 22 3 21 4 20 5 18 6 19 7 5 9 4 10 2 11 1 12 3 13
REMARK SMILES IDX 6 14 7 17 8 18 17 19 9 20 11 21 10 22 12 23 16 24 13 25
REMARK SMILES IDX 15 26 14 27 25 28 26 29 27 30 28 31 29 33 30 34 31 35 92 36
REMARK SMILES IDX 32 37 91 38 33 39 34 40 35 41 85 42 36 43 90 44 84 45 86 46
REMARK SMILES IDX 37 47 89 48 83 49 82 50 38 52 70 53 50 54 69 55 51 56 54 57
REMARK SMILES IDX 68 58 87 59 52 60 53 61 67 63 88 64 55 65 39 66 40 67 48 68
REMARK SMILES IDX 41 69 43 70 49 71 42 72 44 73 45 74 46 75 47 76 71 77 72 78
REMARK SMILES IDX 80 79 73 80 75 81 81 82 74 83 76 84 77 85 78 86 79 87 56 88
REMARK SMILES IDX 57 89 65 90 58 91 60 92 66 93 59 94 61 95 62 96 63 97 64 98
REMARK H PARENT 20 8 6 15 6 16 27 32 86 51 54 62
REMARK Flexibility Score: inf
ROOT
ATOM      1  C   UNL A   1      31.634  30.433  26.057  1.00  0.00     0.002 C 
ENDROOT
BRANCH   1   2
ATOM      2  C   UNL A   1      33.081  29.974  25.855  1.00  0.00     0.002 C 
BRANCH   2   3
ATOM      3  C   UNL A   1      33.457  28.687  26.602  1.00  0.00     0.021 C 
BRANCH   3   4
ATOM      4  C   UNL A   1      33.598  27.469  25.689  1.00  0.00     0.116 C 
BRANCH   4   5
ATOM      5  N   UNL A   1      33.856  27.898  24.327  1.00  0.00    -0.351 N 
ATOM      6  C   UNL A   1      33.208  27.573  23.174  1.00  0.00     0.278 C 
ATOM      7  O   UNL A   1      33.655  28.026  22.113  1.00  0.00    -0.268 OA
ATOM      8  H   UNL A   1      34.615  28.517  24.220  1.00  0.00     0.163 HD
BRANCH   6   9
ATOM      9  C   UNL A   1      31.917  26.721  23.184  1.00  0.00     0.273 C 
BRANCH   9  10
ATOM     10  C   UNL A   1      30.737  27.480  22.539  1.00  0.00     0.078 C 
BRANCH  10  11
ATOM     11  C   UNL A   1      29.578  27.850  23.488  1.00  0.00    -0.011 C 
ATOM     12  C   UNL A   1      28.667  28.928  22.904  1.00  0.00     0.007 C 
ATOM     13  C   UNL A   1      28.759  26.597  23.817  1.00  0.00     0.007 C 
ENDBRANCH  10  11
ENDBRANCH   9  10
BRANCH   9  14
ATOM     14  N   UNL A   1      32.166  25.379  22.597  1.00  0.00    -0.333 N 
ATOM     15  H   UNL A   1      32.938  25.457  21.935  1.00  0.00     0.347 HD
ATOM     16  H   UNL A   1      31.296  25.084  22.154  1.00  0.00     0.347 HD
BRANCH  14  17
ATOM     17  C   UNL A   1      32.512  24.344  23.593  1.00  0.00     0.188 C 
ATOM     18  C   UNL A   1      31.629  24.390  24.845  1.00  0.00     0.093 C 
ATOM     19  C   UNL A   1      32.393  22.955  22.942  1.00  0.00     0.100 C 
ATOM     20  C   UNL A   1      31.957  23.234  25.774  1.00  0.00     0.167 C 
ATOM     21  C   UNL A   1      32.687  21.822  23.949  1.00  0.00     0.078 C 
ATOM     22  O   UNL A   1      31.844  21.983  25.106  1.00  0.00    -0.374 OA
ATOM     23  C   UNL A   1      34.178  21.753  24.340  1.00  0.00     0.064 C 
ATOM     24  C   UNL A   1      32.301  20.463  23.334  1.00  0.00     0.064 C 
ATOM     25  C   UNL A   1      34.445  20.550  25.236  1.00  0.00     0.163 C 
ATOM     26  C   UNL A   1      32.670  19.319  24.274  1.00  0.00     0.163 C 
ATOM     27  O   UNL A   1      34.064  19.342  24.582  1.00  0.00    -0.381 OA
ENDBRANCH  14  17
ENDBRANCH   9  14
ENDBRANCH   6   9
ENDBRANCH   4   5
ENDBRANCH   3   4
ENDBRANCH   2   3
ENDBRANCH   1   2
BRANCH   1  28
ATOM     28  C   UNL A   1      31.479  31.858  26.596  1.00  0.00     0.021 C 
BRANCH  28  29
ATOM     29  C   UNL A   1      32.748  32.453  27.197  1.00  0.00     0.116 C 
BRANCH  29  30
ATOM     30  N   UNL A   1      32.583  33.859  27.537  1.00  0.00    -0.352 N 
ATOM     31  C   UNL A   1      33.188  34.590  28.525  1.00  0.00     0.251 C 
ATOM     32  H   UNL A   1      31.945  34.355  26.976  1.00  0.00     0.163 HD
ATOM     33  O   UNL A   1      32.772  35.721  28.786  1.00  0.00    -0.269 OA
BRANCH  31  34
ATOM     34  C   UNL A   1      34.322  34.025  29.284  1.00  0.00     0.039 A 
ATOM     35  C   UNL A   1      34.054  33.239  30.408  1.00  0.00     0.014 A 
ATOM     36  C   UNL A   1      35.643  34.281  28.905  1.00  0.00     0.014 A 
ATOM     37  C   UNL A   1      35.111  32.670  31.120  1.00  0.00     0.010 A 
ATOM     38  C   UNL A   1      36.692  33.654  29.575  1.00  0.00     0.010 A 
ATOM     39  C   UNL A   1      36.438  32.849  30.693  1.00  0.00    -0.014 A 
BRANCH  39  40
ATOM     40  C   UNL A   1      37.556  32.169  31.397  1.00  0.00     0.031 A 
ATOM     41  C   UNL A   1      38.324  31.057  30.734  1.00  0.00     0.074 A 
ATOM     42  C   UNL A   1      37.838  32.515  32.668  1.00  0.00     0.049 A 
ATOM     43  N   UNL A   1      39.350  30.383  31.187  1.00  0.00    -0.248 NA
ATOM     44  C   UNL A   1      37.867  30.627  29.403  1.00  0.00     0.031 C 
ATOM     45  C   UNL A   1      37.106  33.510  33.455  1.00  0.00     0.029 A 
ATOM     46  N   UNL A   1      38.808  32.061  33.527  1.00  0.00    -0.354 N 
ATOM     47  C   UNL A   1      39.640  29.432  30.218  1.00  0.00     0.074 A 
ATOM     48  C   UNL A   1      38.660  29.593  29.165  1.00  0.00     0.031 C 
ATOM     49  C   UNL A   1      37.667  33.609  34.669  1.00  0.00     0.029 A 
ATOM     50  C   UNL A   1      38.782  32.672  34.758  1.00  0.00     0.049 A 
ATOM     51  H   UNL A   1      39.459  31.363  33.284  1.00  0.00     0.167 HD
ATOM     52  C   UNL A   1      40.647  28.525  30.190  1.00  0.00     0.034 A 
ATOM     53  C   UNL A   1      39.576  32.506  35.835  1.00  0.00     0.034 A 
ATOM     54  C   UNL A   1      41.644  28.397  31.220  1.00  0.00     0.049 A 
ATOM     55  C   UNL A   1      40.721  31.536  35.755  1.00  0.00     0.074 A 
ATOM     56  C   UNL A   1      42.770  27.592  31.234  1.00  0.00     0.029 A 
ATOM     57  N   UNL A   1      41.630  29.082  32.425  1.00  0.00    -0.354 N 
ATOM     58  N   UNL A   1      41.097  30.782  34.751  1.00  0.00    -0.248 NA
ATOM     59  C   UNL A   1      41.576  31.423  36.945  1.00  0.00     0.031 C 
ATOM     60  C   UNL A   1      43.421  27.769  32.460  1.00  0.00     0.029 A 
ATOM     61  C   UNL A   1      42.714  28.705  33.201  1.00  0.00     0.049 A 
ATOM     62  H   UNL A   1      40.949  29.741  32.692  1.00  0.00     0.167 HD
ATOM     63  C   UNL A   1      42.247  30.126  35.176  1.00  0.00     0.074 A 
ATOM     64  C   UNL A   1      42.521  30.598  36.518  1.00  0.00     0.031 C 
ATOM     65  C   UNL A   1      42.998  29.206  34.522  1.00  0.00     0.034 A 
BRANCH  52  66
ATOM     66  C   UNL A   1      40.748  27.629  28.982  1.00  0.00     0.023 A 
ATOM     67  C   UNL A   1      39.858  26.544  28.842  1.00  0.00     0.012 A 
ATOM     68  C   UNL A   1      41.687  27.886  27.964  1.00  0.00     0.148 A 
ATOM     69  C   UNL A   1      39.926  25.706  27.730  1.00  0.00     0.002 A 
ATOM     70  C   UNL A   1      41.718  27.073  26.835  1.00  0.00     0.091 A 
ATOM     71  F   UNL A   1      42.541  28.907  28.122  1.00  0.00    -0.205 F 
ATOM     72  C   UNL A   1      40.848  25.976  26.723  1.00  0.00     0.022 A 
BRANCH  70  73
ATOM     73  S   UNL A   1      42.818  27.387  25.450  1.00  0.00     0.127 S 
ATOM     74  O   UNL A   1      42.806  26.095  24.764  1.00  0.00    -0.237 OA
ATOM     75  O   UNL A   1      42.120  28.461  24.739  1.00  0.00    -0.237 OA
ATOM     76  O   UNL A   1      44.093  27.778  26.032  1.00  0.00    -0.744 OA
ENDBRANCH  70  73
ENDBRANCH  52  66
BRANCH  53  77
ATOM     77  C   UNL A   1      39.368  33.351  37.044  1.00  0.00     0.023 A 
ATOM     78  C   UNL A   1      39.887  34.660  37.066  1.00  0.00     0.012 A 
ATOM     79  C   UNL A   1      38.631  32.884  38.150  1.00  0.00     0.148 A 
ATOM     80  C   UNL A   1      39.702  35.480  38.178  1.00  0.00     0.002 A 
ATOM     81  C   UNL A   1      38.403  33.727  39.232  1.00  0.00     0.091 A 
ATOM     82  F   UNL A   1      38.155  31.632  38.113  1.00  0.00    -0.205 F 
ATOM     83  C   UNL A   1      38.951  35.019  39.255  1.00  0.00     0.022 A 
BRANCH  81  84
ATOM     84  S   UNL A   1      37.339  33.266  40.605  1.00  0.00     0.127 S 
ATOM     85  O   UNL A   1      36.070  33.011  39.928  1.00  0.00    -0.237 OA
ATOM     86  O   UNL A   1      38.015  32.073  41.120  1.00  0.00    -0.237 OA
ATOM     87  O   UNL A   1      37.355  34.403  41.513  1.00  0.00    -0.744 OA
ENDBRANCH  81  84
ENDBRANCH  53  77
BRANCH  65  88
ATOM     88  C   UNL A   1      44.200  28.653  35.246  1.00  0.00     0.023 A 
ATOM     89  C   UNL A   1      45.466  29.242  35.048  1.00  0.00     0.012 A 
ATOM     90  C   UNL A   1      44.071  27.583  36.152  1.00  0.00     0.148 A 
ATOM     91  C   UNL A   1      46.590  28.745  35.705  1.00  0.00     0.002 A 
ATOM     92  C   UNL A   1      45.188  27.126  36.842  1.00  0.00     0.091 A 
ATOM     93  F   UNL A   1      42.865  27.020  36.314  1.00  0.00    -0.205 F 
ATOM     94  C   UNL A   1      46.451  27.695  36.609  1.00  0.00     0.022 A 
BRANCH  92  95
ATOM     95  S   UNL A   1      45.079  25.842  38.094  1.00  0.00     0.127 S 
ATOM     96  O   UNL A   1      44.126  26.423  39.037  1.00  0.00    -0.237 OA
ATOM     97  O   UNL A   1      44.564  24.703  37.331  1.00  0.00    -0.237 OA
ATOM     98  O   UNL A   1      46.435  25.662  38.598  1.00  0.00    -0.744 OA
ENDBRANCH  92  95
ENDBRANCH  65  88
ENDBRANCH  39  40
ENDBRANCH  31  34
ENDBRANCH  29  30
ENDBRANCH  28  29
ENDBRANCH   1  28
TORSDOF 20
ENDMDL
MODEL 2
REMARK VINA RESULT:     -11.3      2.405      7.981
REMARK SMILES CC(C)C[C@@H]([NH2+][C@H]1CCOC2(CCOCC2)C1)C(=O)NCCCCCCNC(=O)c1ccc(-c2c3nc(c(-c4cccc(S(=O)(=O)[O-])c4F)c4ccc([nH]4)c(-c4cccc(S(=O)(=O)[O-])c4F)c4nc(c(-c5cccc(S(=O)(=O)[O-])c5F)c5ccc2[nH]5)C=C4)C=C3)cc1
REMARK SMILES IDX 24 1 23 2 22 3 21 4 20 5 18 6 19 7 5 9 4 10 2 11 1 12 3 13
REMARK SMILES IDX 6 14 7 17 8 18 17 19 9 20 11 21 10 22 12 23 16 24 13 25
REMARK SMILES IDX 15 26 14 27 25 28 26 29 27 30 28 31 29 33 30 34 31 35 92 36
REMARK SMILES IDX 32 37 91 38 33 39 34 40 35 41 85 42 36 43 90 44 84 45 86 46
REMARK SMILES IDX 37 47 89 48 83 49 82 50 38 52 70 53 50 54 69 55 51 56 54 57
REMARK SMILES IDX 68 58 87 59 52 60 53 61 67 63 88 64 55 65 39 66 40 67 48 68
REMARK SMILES IDX 41 69 43 70 49 71 42 72 44 73 45 74 46 75 47 76 71 77 72 78
REMARK SMILES IDX 80 79 73 80 75 81 81 82 74 83 76 84 77 85 78 86 79 87 56 88
REMARK SMILES IDX 57 89 65 90 58 91 60 92 66 93 59 94 61 95 62 96 63 97 64 98
REMARK H PARENT 20 8 6 15 6 16 27 32 86 51 54 62
REMARK Flexibility Score: inf
ROOT
ATOM      1  C   UNL A   1      31.046  29.054  24.638  1.00  0.00     0.002 C 
ENDROOT
BRANCH   1   2
ATOM      2  C   UNL A   1      31.202  28.391  23.266  1.00  0.00     0.002 C 
BRANCH   2   3
ATOM      3  C   UNL A   1      30.079  27.415  22.892  1.00  0.00     0.021 C 
BRANCH   3   4
ATOM      4  C   UNL A   1      30.340  25.979  23.350  1.00  0.00     0.116 C 
BRANCH   4   5
ATOM      5  N   UNL A   1      29.808  25.780  24.686  1.00  0.00    -0.351 N 
ATOM      6  C   UNL A   1      30.347  25.121  25.748  1.00  0.00     0.278 C 
ATOM      7  O   UNL A   1      29.669  25.036  26.779  1.00  0.00    -0.268 OA
ATOM      8  H   UNL A   1      28.924  26.184  24.847  1.00  0.00     0.163 HD
BRANCH   6   9
ATOM      9  C   UNL A   1      31.783  24.548  25.702  1.00  0.00     0.273 C 
BRANCH   9  10
ATOM     10  C   UNL A   1      32.819  25.588  26.179  1.00  0.00     0.078 C 
BRANCH  10  11
ATOM     11  C   UNL A   1      34.123  25.662  25.358  1.00  0.00    -0.011 C 
ATOM     12  C   UNL A   1      35.038  24.464  25.607  1.00  0.00     0.007 C 
ATOM     13  C   UNL A   1      33.790  25.763  23.867  1.00  0.00     0.007 C 
ENDBRANCH  10  11
ENDBRANCH   9  10
BRANCH   9  14
ATOM     14  N   UNL A   1      31.855  23.249  26.419  1.00  0.00    -0.333 N 
ATOM     15  H   UNL A   1      31.020  23.153  26.995  1.00  0.00     0.347 HD
ATOM     16  H   UNL A   1      32.714  23.263  26.970  1.00  0.00     0.347 HD
BRANCH  14  17
ATOM     17  C   UNL A   1      31.941  22.075  25.526  1.00  0.00     0.188 C 
ATOM     18  C   UNL A   1      31.951  22.445  24.038  1.00  0.00     0.093 C 
ATOM     19  C   UNL A   1      33.214  21.278  25.856  1.00  0.00     0.100 C 
ATOM     20  C   UNL A   1      32.156  21.209  23.181  1.00  0.00     0.167 C 
ATOM     21  C   UNL A   1      33.393  20.065  24.917  1.00  0.00     0.078 C 
ATOM     22  O   UNL A   1      33.339  20.512  23.548  1.00  0.00    -0.374 OA
ATOM     23  C   UNL A   1      32.361  18.951  25.191  1.00  0.00     0.064 C 
ATOM     24  C   UNL A   1      34.797  19.460  25.107  1.00  0.00     0.064 C 
ATOM     25  C   UNL A   1      32.648  17.728  24.329  1.00  0.00     0.163 C 
ATOM     26  C   UNL A   1      34.964  18.203  24.258  1.00  0.00     0.163 C 
ATOM     27  O   UNL A   1      33.963  17.236  24.577  1.00  0.00    -0.381 OA
ENDBRANCH  14  17
ENDBRANCH   9  14
ENDBRANCH   6   9
ENDBRANCH   4   5
ENDBRANCH   3   4
ENDBRANCH   2   3
ENDBRANCH   1   2
BRANCH   1  28
ATOM     28  C   UNL A   1      32.336  29.156  25.456  1.00  0.00     0.021 C 
BRANCH  28  29
ATOM     29  C   UNL A   1      32.172  29.803  26.827  1.00  0.00     0.116 C 
BRANCH  29  30
ATOM     30  N   UNL A   1      32.206  31.256  26.752  1.00  0.00    -0.352 N 
ATOM     31  C   UNL A   1      33.108  32.133  27.293  1.00  0.00     0.251 C 
ATOM     32  H   UNL A   1      31.474  31.668  26.238  1.00  0.00     0.163 HD
ATOM     33  O   UNL A   1      32.859  33.341  27.289  1.00  0.00    -0.269 OA
BRANCH  31  34
ATOM     34  C   UNL A   1      34.365  31.638  27.890  1.00  0.00     0.039 A 
ATOM     35  C   UNL A   1      35.409  32.541  28.105  1.00  0.00     0.014 A 
ATOM     36  C   UNL A   1      34.524  30.289  28.221  1.00  0.00     0.014 A 
ATOM     37  C   UNL A   1      36.593  32.100  28.698  1.00  0.00     0.010 A 
ATOM     38  C   UNL A   1      35.679  29.866  28.877  1.00  0.00     0.010 A 
ATOM     39  C   UNL A   1      36.728  30.764  29.115  1.00  0.00    -0.014 A 
BRANCH  39  40
ATOM     40  C   UNL A   1      37.951  30.315  29.828  1.00  0.00     0.031 A 
ATOM     41  C   UNL A   1      38.237  30.769  31.233  1.00  0.00     0.074 A 
ATOM     42  C   UNL A   1      38.844  29.543  29.177  1.00  0.00     0.049 A 
ATOM     43  N   UNL A   1      39.235  30.444  32.015  1.00  0.00    -0.248 NA
ATOM     44  C   UNL A   1      37.299  31.731  31.831  1.00  0.00     0.031 C 
ATOM     45  C   UNL A   1      38.730  29.114  27.781  1.00  0.00     0.029 A 
ATOM     46  N   UNL A   1      40.028  28.991  29.597  1.00  0.00    -0.354 N 
ATOM     47  C   UNL A   1      39.065  31.182  33.179  1.00  0.00     0.074 A 
ATOM     48  C   UNL A   1      37.886  31.999  32.989  1.00  0.00     0.031 C 
ATOM     49  C   UNL A   1      39.785  28.348  27.469  1.00  0.00     0.029 A 
ATOM     50  C   UNL A   1      40.662  28.247  28.632  1.00  0.00     0.049 A 
ATOM     51  H   UNL A   1      40.389  29.118  30.505  1.00  0.00     0.167 HD
ATOM     52  C   UNL A   1      39.804  31.163  34.315  1.00  0.00     0.034 A 
ATOM     53  C   UNL A   1      41.814  27.550  28.679  1.00  0.00     0.034 A 
ATOM     54  C   UNL A   1      40.952  30.318  34.515  1.00  0.00     0.049 A 
ATOM     55  C   UNL A   1      42.583  27.498  29.970  1.00  0.00     0.074 A 
ATOM     56  C   UNL A   1      41.700  30.139  35.665  1.00  0.00     0.029 A 
ATOM     57  N   UNL A   1      41.528  29.521  33.537  1.00  0.00    -0.354 N 
ATOM     58  N   UNL A   1      42.300  28.051  31.124  1.00  0.00    -0.248 NA
ATOM     59  C   UNL A   1      43.813  26.693  29.975  1.00  0.00     0.031 C 
ATOM     60  C   UNL A   1      42.745  29.254  35.375  1.00  0.00     0.029 A 
ATOM     61  C   UNL A   1      42.634  28.863  34.050  1.00  0.00     0.049 A 
ATOM     62  H   UNL A   1      41.200  29.435  32.613  1.00  0.00     0.167 HD
ATOM     63  C   UNL A   1      43.297  27.639  32.000  1.00  0.00     0.074 A 
ATOM     64  C   UNL A   1      44.175  26.765  31.248  1.00  0.00     0.031 C 
ATOM     65  C   UNL A   1      43.480  27.967  33.303  1.00  0.00     0.034 A 
BRANCH  52  66
ATOM     66  C   UNL A   1      39.365  32.052  35.450  1.00  0.00     0.023 A 
ATOM     67  C   UNL A   1      38.500  31.541  36.441  1.00  0.00     0.012 A 
ATOM     68  C   UNL A   1      39.841  33.372  35.566  1.00  0.00     0.148 A 
ATOM     69  C   UNL A   1      38.085  32.341  37.505  1.00  0.00     0.002 A 
ATOM     70  C   UNL A   1      39.459  34.149  36.655  1.00  0.00     0.091 A 
ATOM     71  F   UNL A   1      40.643  33.851  34.605  1.00  0.00    -0.205 F 
ATOM     72  C   UNL A   1      38.572  33.640  37.618  1.00  0.00     0.022 A 
BRANCH  70  73
ATOM     73  S   UNL A   1      40.095  35.807  36.928  1.00  0.00     0.127 S 
ATOM     74  O   UNL A   1      39.438  36.173  38.183  1.00  0.00    -0.237 OA
ATOM     75  O   UNL A   1      41.536  35.570  37.043  1.00  0.00    -0.237 OA
ATOM     76  O   UNL A   1      39.702  36.583  35.762  1.00  0.00    -0.744 OA
ENDBRANCH  70  73
ENDBRANCH  52  66
BRANCH  53  77
ATOM     77  C   UNL A   1      42.256  26.767  27.491  1.00  0.00     0.023 A 
ATOM     78  C   UNL A   1      42.982  27.415  26.473  1.00  0.00     0.012 A 
ATOM     79  C   UNL A   1      41.997  25.387  27.380  1.00  0.00     0.148 A 
ATOM     80  C   UNL A   1      43.420  26.709  25.352  1.00  0.00     0.002 A 
ATOM     81  C   UNL A   1      42.484  24.679  26.288  1.00  0.00     0.091 A 
ATOM     82  F   UNL A   1      41.296  24.793  28.356  1.00  0.00    -0.205 F 
ATOM     83  C   UNL A   1      43.181  25.341  25.265  1.00  0.00     0.022 A 
BRANCH  81  84
ATOM     84  S   UNL A   1      42.339  22.894  26.155  1.00  0.00     0.127 S 
ATOM     85  O   UNL A   1      43.057  22.445  27.344  1.00  0.00    -0.237 OA
ATOM     86  O   UNL A   1      40.887  22.707  26.202  1.00  0.00    -0.237 OA
ATOM     87  O   UNL A   1      42.947  22.544  24.879  1.00  0.00    -0.744 OA
ENDBRANCH  81  84
ENDBRANCH  53  77
BRANCH  65  88
ATOM     88  C   UNL A   1      44.672  27.368  34.006  1.00  0.00     0.023 A 
ATOM     89  C   UNL A   1      45.896  28.069  34.026  1.00  0.00     0.012 A 
ATOM     90  C   UNL A   1      44.573  26.136  34.680  1.00  0.00     0.148 A 
ATOM     91  C   UNL A   1      47.011  27.532  34.668  1.00  0.00     0.002 A 
ATOM     92  C   UNL A   1      45.676  25.630  35.360  1.00  0.00     0.091 A 
ATOM     93  F   UNL A   1      43.409  25.470  34.633  1.00  0.00    -0.205 F 
ATOM     94  C   UNL A   1      46.899  26.320  35.343  1.00  0.00     0.022 A 
BRANCH  92  95
ATOM     95  S   UNL A   1      45.590  24.123  36.334  1.00  0.00     0.127 S 
ATOM     96  O   UNL A   1      45.285  23.124  35.312  1.00  0.00    -0.237 OA
ATOM     97  O   UNL A   1      46.941  24.033  36.891  1.00  0.00    -0.237 OA
ATOM     98  O   UNL A   1      44.547  24.350  37.326  1.00  0.00    -0.744 OA
ENDBRANCH  92  95
ENDBRANCH  65  88
ENDBRANCH  39  40
ENDBRANCH  31  34
ENDBRANCH  29  30
ENDBRANCH  28  29
ENDBRANCH   1  28
TORSDOF 20
ENDMDL
MODEL 3
REMARK VINA RESULT:     -11.2      1.512      3.897
REMARK SMILES CC(C)C[C@@H]([NH2+][C@H]1CCOC2(CCOCC2)C1)C(=O)NCCCCCCNC(=O)c1ccc(-c2c3nc(c(-c4cccc(S(=O)(=O)[O-])c4F)c4ccc([nH]4)c(-c4cccc(S(=O)(=O)[O-])c4F)c4nc(c(-c5cccc(S(=O)(=O)[O-])c5F)c5ccc2[nH]5)C=C4)C=C3)cc1
REMARK SMILES IDX 24 1 23 2 22 3 21 4 20 5 18 6 19 7 5 9 4 10 2 11 1 12 3 13
REMARK SMILES IDX 6 14 7 17 8 18 17 19 9 20 11 21 10 22 12 23 16 24 13 25
REMARK SMILES IDX 15 26 14 27 25 28 26 29 27 30 28 31 29 33 30 34 31 35 92 36
REMARK SMILES IDX 32 37 91 38 33 39 34 40 35 41 85 42 36 43 90 44 84 45 86 46
REMARK SMILES IDX 37 47 89 48 83 49 82 50 38 52 70 53 50 54 69 55 51 56 54 57
REMARK SMILES IDX 68 58 87 59 52 60 53 61 67 63 88 64 55 65 39 66 40 67 48 68
REMARK SMILES IDX 41 69 43 70 49 71 42 72 44 73 45 74 46 75 47 76 71 77 72 78
REMARK SMILES IDX 80 79 73 80 75 81 81 82 74 83 76 84 77 85 78 86 79 87 56 88
REMARK SMILES IDX 57 89 65 90 58 91 60 92 66 93 59 94 61 95 62 96 63 97 64 98
REMARK H PARENT 20 8 6 15 6 16 27 32 86 51 54 62
REMARK Flexibility Score: inf
ROOT
ATOM      1  C   UNL A   1      32.830  30.943  27.378  1.00  0.00     0.002 C 
ENDROOT
BRANCH   1   2
ATOM      2  C   UNL A   1      31.959  29.805  26.835  1.00  0.00     0.002 C 
BRANCH   2   3
ATOM      3  C   UNL A   1      32.279  28.420  27.414  1.00  0.00     0.021 C 
BRANCH   3   4
ATOM      4  C   UNL A   1      32.212  27.295  26.380  1.00  0.00     0.116 C 
BRANCH   4   5
ATOM      5  N   UNL A   1      31.219  26.314  26.777  1.00  0.00    -0.351 N 
ATOM      6  C   UNL A   1      30.399  25.544  26.009  1.00  0.00     0.278 C 
ATOM      7  O   UNL A   1      29.585  24.814  26.586  1.00  0.00    -0.268 OA
ATOM      8  H   UNL A   1      31.124  26.186  27.749  1.00  0.00     0.163 HD
BRANCH   6   9
ATOM      9  C   UNL A   1      30.517  25.526  24.466  1.00  0.00     0.273 C 
BRANCH   9  10
ATOM     10  C   UNL A   1      30.660  24.086  23.930  1.00  0.00     0.078 C 
BRANCH  10  11
ATOM     11  C   UNL A   1      31.899  23.817  23.050  1.00  0.00    -0.011 C 
ATOM     12  C   UNL A   1      33.102  24.664  23.462  1.00  0.00     0.007 C 
ATOM     13  C   UNL A   1      32.262  22.330  23.109  1.00  0.00     0.007 C 
ENDBRANCH  10  11
ENDBRANCH   9  10
BRANCH   9  14
ATOM     14  N   UNL A   1      29.409  26.296  23.844  1.00  0.00    -0.333 N 
ATOM     15  H   UNL A   1      28.609  26.275  24.477  1.00  0.00     0.347 HD
ATOM     16  H   UNL A   1      29.211  25.855  22.946  1.00  0.00     0.347 HD
BRANCH  14  17
ATOM     17  C   UNL A   1      29.743  27.707  23.564  1.00  0.00     0.188 C 
ATOM     18  C   UNL A   1      31.051  27.876  22.782  1.00  0.00     0.093 C 
ATOM     19  C   UNL A   1      28.594  28.352  22.769  1.00  0.00     0.100 C 
ATOM     20  C   UNL A   1      31.277  29.335  22.427  1.00  0.00     0.167 C 
ATOM     21  C   UNL A   1      28.906  29.816  22.393  1.00  0.00     0.078 C 
ATOM     22  O   UNL A   1      30.173  29.872  21.710  1.00  0.00    -0.374 OA
ATOM     23  C   UNL A   1      28.880  30.757  23.616  1.00  0.00     0.064 C 
ATOM     24  C   UNL A   1      27.861  30.331  21.385  1.00  0.00     0.064 C 
ATOM     25  C   UNL A   1      29.072  32.206  23.185  1.00  0.00     0.163 C 
ATOM     26  C   UNL A   1      28.094  31.806  21.070  1.00  0.00     0.163 C 
ATOM     27  O   UNL A   1      28.058  32.593  22.261  1.00  0.00    -0.381 OA
ENDBRANCH  14  17
ENDBRANCH   9  14
ENDBRANCH   6   9
ENDBRANCH   4   5
ENDBRANCH   3   4
ENDBRANCH   2   3
ENDBRANCH   1   2
BRANCH   1  28
ATOM     28  C   UNL A   1      32.243  32.346  27.198  1.00  0.00     0.021 C 
BRANCH  28  29
ATOM     29  C   UNL A   1      33.268  33.475  27.240  1.00  0.00     0.116 C 
BRANCH  29  30
ATOM     30  N   UNL A   1      32.764  34.642  27.948  1.00  0.00    -0.352 N 
ATOM     31  C   UNL A   1      33.080  35.102  29.200  1.00  0.00     0.251 C 
ATOM     32  H   UNL A   1      32.100  35.178  27.458  1.00  0.00     0.163 HD
ATOM     33  O   UNL A   1      32.401  35.997  29.708  1.00  0.00    -0.269 OA
BRANCH  31  34
ATOM     34  C   UNL A   1      34.217  34.522  29.943  1.00  0.00     0.039 A 
ATOM     35  C   UNL A   1      33.954  33.684  31.029  1.00  0.00     0.014 A 
ATOM     36  C   UNL A   1      35.537  34.815  29.586  1.00  0.00     0.014 A 
ATOM     37  C   UNL A   1      35.014  33.100  31.724  1.00  0.00     0.010 A 
ATOM     38  C   UNL A   1      36.591  34.176  30.236  1.00  0.00     0.010 A 
ATOM     39  C   UNL A   1      36.342  33.319  31.316  1.00  0.00    -0.014 A 
BRANCH  39  40
ATOM     40  C   UNL A   1      37.465  32.627  31.998  1.00  0.00     0.031 A 
ATOM     41  C   UNL A   1      38.181  31.480  31.338  1.00  0.00     0.074 A 
ATOM     42  C   UNL A   1      37.799  32.995  33.251  1.00  0.00     0.049 A 
ATOM     43  N   UNL A   1      39.205  30.790  31.773  1.00  0.00    -0.248 NA
ATOM     44  C   UNL A   1      37.669  31.031  30.034  1.00  0.00     0.031 C 
ATOM     45  C   UNL A   1      37.120  34.027  34.037  1.00  0.00     0.029 A 
ATOM     46  N   UNL A   1      38.785  32.536  34.088  1.00  0.00    -0.354 N 
ATOM     47  C   UNL A   1      39.438  29.809  30.818  1.00  0.00     0.074 A 
ATOM     48  C   UNL A   1      38.427  29.970  29.795  1.00  0.00     0.031 C 
ATOM     49  C   UNL A   1      37.723  34.140  35.229  1.00  0.00     0.029 A 
ATOM     50  C   UNL A   1      38.817  33.176  35.303  1.00  0.00     0.049 A 
ATOM     51  H   UNL A   1      39.410  31.816  33.841  1.00  0.00     0.167 HD
ATOM     52  C   UNL A   1      40.420  28.875  30.779  1.00  0.00     0.034 A 
ATOM     53  C   UNL A   1      39.642  33.015  36.357  1.00  0.00     0.034 A 
ATOM     54  C   UNL A   1      41.448  28.746  31.778  1.00  0.00     0.049 A 
ATOM     55  C   UNL A   1      40.759  32.014  36.263  1.00  0.00     0.074 A 
ATOM     56  C   UNL A   1      42.552  27.911  31.774  1.00  0.00     0.029 A 
ATOM     57  N   UNL A   1      41.492  29.459  32.966  1.00  0.00    -0.354 N 
ATOM     58  N   UNL A   1      41.081  31.226  35.266  1.00  0.00    -0.248 NA
ATOM     59  C   UNL A   1      41.651  31.906  37.426  1.00  0.00     0.031 C 
ATOM     60  C   UNL A   1      43.249  28.101  32.973  1.00  0.00     0.029 A 
ATOM     61  C   UNL A   1      42.592  29.071  33.714  1.00  0.00     0.049 A 
ATOM     62  H   UNL A   1      40.838  30.142  33.239  1.00  0.00     0.167 HD
ATOM     63  C   UNL A   1      42.229  30.551  35.668  1.00  0.00     0.074 A 
ATOM     64  C   UNL A   1      42.560  31.046  36.988  1.00  0.00     0.031 C 
ATOM     65  C   UNL A   1      42.933  29.596  35.012  1.00  0.00     0.034 A 
BRANCH  52  66
ATOM     66  C   UNL A   1      40.457  27.949  29.590  1.00  0.00     0.023 A 
ATOM     67  C   UNL A   1      39.604  26.825  29.555  1.00  0.00     0.012 A 
ATOM     68  C   UNL A   1      41.295  28.212  28.490  1.00  0.00     0.148 A 
ATOM     69  C   UNL A   1      39.614  25.958  28.463  1.00  0.00     0.002 A 
ATOM     70  C   UNL A   1      41.266  27.368  27.384  1.00  0.00     0.091 A 
ATOM     71  F   UNL A   1      42.115  29.271  28.548  1.00  0.00    -0.205 F 
ATOM     72  C   UNL A   1      40.436  26.235  27.375  1.00  0.00     0.022 A 
BRANCH  70  73
ATOM     73  S   UNL A   1      42.231  27.686  25.903  1.00  0.00     0.127 S 
ATOM     74  O   UNL A   1      43.598  27.599  26.417  1.00  0.00    -0.237 OA
ATOM     75  O   UNL A   1      41.836  26.576  25.033  1.00  0.00    -0.237 OA
ATOM     76  O   UNL A   1      41.819  28.999  25.431  1.00  0.00    -0.744 OA
ENDBRANCH  70  73
ENDBRANCH  52  66
BRANCH  53  77
ATOM     77  C   UNL A   1      39.497  33.893  37.552  1.00  0.00     0.023 A 
ATOM     78  C   UNL A   1      40.013  35.203  37.508  1.00  0.00     0.012 A 
ATOM     79  C   UNL A   1      38.823  33.457  38.709  1.00  0.00     0.148 A 
ATOM     80  C   UNL A   1      39.885  36.054  38.606  1.00  0.00     0.002 A 
ATOM     81  C   UNL A   1      38.650  34.329  39.777  1.00  0.00     0.091 A 
ATOM     82  F   UNL A   1      38.349  32.203  38.732  1.00  0.00    -0.205 F 
ATOM     83  C   UNL A   1      39.195  35.622  39.734  1.00  0.00     0.022 A 
BRANCH  81  84
ATOM     84  S   UNL A   1      37.664  33.905  41.217  1.00  0.00     0.127 S 
ATOM     85  O   UNL A   1      38.530  32.949  41.903  1.00  0.00    -0.237 OA
ATOM     86  O   UNL A   1      37.529  35.203  41.881  1.00  0.00    -0.237 OA
ATOM     87  O   UNL A   1      36.416  33.367  40.695  1.00  0.00    -0.744 OA
ENDBRANCH  81  84
ENDBRANCH  53  77
BRANCH  65  88
ATOM     88  C   UNL A   1      44.144  29.029  35.709  1.00  0.00     0.023 A 
ATOM     89  C   UNL A   1      45.407  29.625  35.510  1.00  0.00     0.012 A 
ATOM     90  C   UNL A   1      44.028  27.938  36.591  1.00  0.00     0.148 A 
ATOM     91  C   UNL A   1      46.540  29.115  36.142  1.00  0.00     0.002 A 
ATOM     92  C   UNL A   1      45.154  27.467  37.257  1.00  0.00     0.091 A 
ATOM     93  F   UNL A   1      42.825  27.368  36.753  1.00  0.00    -0.205 F 
ATOM     94  C   UNL A   1      46.413  28.044  37.023  1.00  0.00     0.022 A 
BRANCH  92  95
ATOM     95  S   UNL A   1      45.062  26.154  38.479  1.00  0.00     0.127 S 
ATOM     96  O   UNL A   1      46.453  25.712  38.549  1.00  0.00    -0.237 OA
ATOM     97  O   UNL A   1      44.589  26.865  39.668  1.00  0.00    -0.237 OA
ATOM     98  O   UNL A   1      44.117  25.181  37.947  1.00  0.00    -0.744 OA
ENDBRANCH  92  95
ENDBRANCH  65  88
ENDBRANCH  39  40
ENDBRANCH  31  34
ENDBRANCH  29  30
ENDBRANCH  28  29
ENDBRANCH   1  28
TORSDOF 20
ENDMDL
