MODEL 1
REMARK VINA RESULT:     -10.6      0.000      0.000
REMARK SMILES COc1ncccc1COc1cc(C)sc1C(=O)NCCCCCCNC(=O)c1ccc(-c2c3nc(c(-c4cccc(S(=O)(=O)[O-])c4F)c4ccc([nH]4)c(-c4cccc(S(=O)(=O)[O-])c4F)c4nc(c(-c5cccc(S(=O)(=O)[O-])c5F)c5ccc2[nH]5)C=C4)C=C3)cc1
REMARK SMILES IDX 22 1 21 2 20 3 19 4 17 5 18 6 16 8 11 9 12 10 13 11 15 12
REMARK SMILES IDX 14 13 10 14 9 15 8 16 3 17 4 18 5 19 7 20 6 21 2 22 1 23
REMARK SMILES IDX 23 24 24 25 25 26 26 27 27 28 28 30 29 31 30 32 91 33 31 34
REMARK SMILES IDX 90 35 32 36 33 37 34 38 84 39 35 40 89 41 83 42 85 43 36 44
REMARK SMILES IDX 88 45 82 46 81 47 37 49 69 50 49 51 68 52 50 53 53 54 67 55
REMARK SMILES IDX 86 56 51 57 52 58 66 60 87 61 54 62 38 63 39 64 47 65 40 66
REMARK SMILES IDX 42 67 48 68 41 69 43 70 44 71 45 72 46 73 70 74 71 75 79 76
REMARK SMILES IDX 72 77 74 78 80 79 73 80 75 81 76 82 77 83 78 84 55 85 56 86
REMARK SMILES IDX 64 87 57 88 59 89 65 90 58 91 60 92 61 93 62 94 63 95
REMARK H PARENT 19 7 26 29 85 48 53 59
REMARK Flexibility Score: inf
ROOT
ATOM      1  C   UNL A   1      32.951  25.855  26.077  1.00  0.00     0.002 C 
ENDROOT
BRANCH   1   2
ATOM      2  C   UNL A   1      34.091  24.841  25.919  1.00  0.00     0.021 C 
BRANCH   2   3
ATOM      3  C   UNL A   1      33.886  23.579  26.761  1.00  0.00     0.116 C 
BRANCH   3   4
ATOM      4  N   UNL A   1      34.916  22.609  26.491  1.00  0.00    -0.351 N 
ATOM      5  C   UNL A   1      35.019  21.538  25.643  1.00  0.00     0.265 C 
ATOM      6  O   UNL A   1      36.130  20.992  25.720  1.00  0.00    -0.268 OA
ATOM      7  H   UNL A   1      35.725  22.746  27.035  1.00  0.00     0.163 HD
BRANCH   5   8
ATOM      8  C   UNL A   1      33.980  21.074  24.720  1.00  0.00     0.134 A 
ATOM      9  C   UNL A   1      33.015  21.644  23.893  1.00  0.00     0.143 A 
ATOM     10  C   UNL A   1      32.323  20.661  23.113  1.00  0.00     0.062 A 
ATOM     11  C   UNL A   1      32.669  19.370  23.426  1.00  0.00     0.006 A 
ATOM     12  S   UNL A   1      33.860  19.333  24.627  1.00  0.00    -0.132 S 
ATOM     13  C   UNL A   1      32.154  18.102  22.835  1.00  0.00     0.056 C 
BRANCH   9  14
ATOM     14  O   UNL A   1      32.874  22.987  23.745  1.00  0.00    -0.487 OA
BRANCH  14  15
ATOM     15  C   UNL A   1      31.923  23.450  22.773  1.00  0.00     0.271 C 
BRANCH  15  16
ATOM     16  C   UNL A   1      31.232  24.744  23.106  1.00  0.00     0.052 A 
ATOM     17  C   UNL A   1      31.480  25.932  22.423  1.00  0.00     0.219 A 
ATOM     18  N   UNL A   1      30.795  27.076  22.635  1.00  0.00    -0.222 NA
ATOM     19  C   UNL A   1      29.857  27.061  23.607  1.00  0.00     0.115 A 
ATOM     20  C   UNL A   1      30.280  24.782  24.136  1.00  0.00     0.014 A 
ATOM     21  C   UNL A   1      29.582  25.956  24.392  1.00  0.00     0.021 A 
BRANCH  17  22
ATOM     22  O   UNL A   1      32.615  26.059  21.666  1.00  0.00    -0.481 OA
ATOM     23  C   UNL A   1      33.657  26.729  22.357  1.00  0.00     0.280 C 
ENDBRANCH  17  22
ENDBRANCH  15  16
ENDBRANCH  14  15
ENDBRANCH   9  14
ENDBRANCH   5   8
ENDBRANCH   3   4
ENDBRANCH   2   3
ENDBRANCH   1   2
BRANCH   1  24
ATOM     24  C   UNL A   1      33.413  27.290  26.360  1.00  0.00     0.002 C 
BRANCH  24  25
ATOM     25  C   UNL A   1      32.503  28.390  25.804  1.00  0.00     0.021 C 
BRANCH  25  26
ATOM     26  C   UNL A   1      33.243  29.584  25.207  1.00  0.00     0.116 C 
BRANCH  26  27
ATOM     27  N   UNL A   1      32.802  30.838  25.799  1.00  0.00    -0.352 N 
ATOM     28  C   UNL A   1      33.214  31.456  26.949  1.00  0.00     0.251 C 
ATOM     29  H   UNL A   1      32.101  31.313  25.297  1.00  0.00     0.163 HD
ATOM     30  O   UNL A   1      32.550  32.380  27.412  1.00  0.00    -0.269 OA
BRANCH  28  31
ATOM     31  C   UNL A   1      34.456  31.025  27.628  1.00  0.00     0.039 A 
ATOM     32  C   UNL A   1      34.500  29.757  28.214  1.00  0.00     0.014 A 
ATOM     33  C   UNL A   1      35.550  31.887  27.743  1.00  0.00     0.014 A 
ATOM     34  C   UNL A   1      35.647  29.348  28.898  1.00  0.00     0.010 A 
ATOM     35  C   UNL A   1      36.719  31.451  28.358  1.00  0.00     0.010 A 
ATOM     36  C   UNL A   1      36.769  30.190  28.969  1.00  0.00    -0.014 A 
BRANCH  36  37
ATOM     37  C   UNL A   1      37.985  29.781  29.715  1.00  0.00     0.031 A 
ATOM     38  C   UNL A   1      38.236  30.319  31.100  1.00  0.00     0.074 A 
ATOM     39  C   UNL A   1      38.893  28.980  29.125  1.00  0.00     0.049 A 
ATOM     40  N   UNL A   1      39.248  30.097  31.900  1.00  0.00    -0.248 NA
ATOM     41  C   UNL A   1      37.235  31.249  31.648  1.00  0.00     0.031 C 
ATOM     42  C   UNL A   1      38.804  28.463  27.758  1.00  0.00     0.029 A 
ATOM     43  N   UNL A   1      40.079  28.476  29.595  1.00  0.00    -0.354 N 
ATOM     44  C   UNL A   1      39.025  30.886  33.023  1.00  0.00     0.074 A 
ATOM     45  C   UNL A   1      37.803  31.623  32.786  1.00  0.00     0.031 C 
ATOM     46  C   UNL A   1      39.886  27.710  27.503  1.00  0.00     0.029 A 
ATOM     47  C   UNL A   1      40.752  27.705  28.677  1.00  0.00     0.049 A 
ATOM     48  H   UNL A   1      40.417  28.650  30.503  1.00  0.00     0.167 HD
ATOM     49  C   UNL A   1      39.750  30.966  34.164  1.00  0.00     0.034 A 
ATOM     50  C   UNL A   1      41.933  27.064  28.774  1.00  0.00     0.034 A 
ATOM     51  C   UNL A   1      40.935  30.190  34.418  1.00  0.00     0.049 A 
ATOM     52  C   UNL A   1      42.684  27.115  30.077  1.00  0.00     0.074 A 
ATOM     53  C   UNL A   1      41.692  30.128  35.574  1.00  0.00     0.029 A 
ATOM     54  N   UNL A   1      41.533  29.342  33.500  1.00  0.00    -0.354 N 
ATOM     55  N   UNL A   1      42.371  27.737  31.189  1.00  0.00    -0.248 NA
ATOM     56  C   UNL A   1      43.930  26.339  30.155  1.00  0.00     0.031 C 
ATOM     57  C   UNL A   1      42.759  29.251  35.349  1.00  0.00     0.029 A 
ATOM     58  C   UNL A   1      42.653  28.752  34.061  1.00  0.00     0.049 A 
ATOM     59  H   UNL A   1      41.210  29.181  32.584  1.00  0.00     0.167 HD
ATOM     60  C   UNL A   1      43.360  27.400  32.105  1.00  0.00     0.074 A 
ATOM     61  C   UNL A   1      44.267  26.497  31.427  1.00  0.00     0.031 C 
ATOM     62  C   UNL A   1      43.515  27.814  33.388  1.00  0.00     0.034 A 
BRANCH  49  63
ATOM     63  C   UNL A   1      39.246  31.882  35.249  1.00  0.00     0.023 A 
ATOM     64  C   UNL A   1      38.222  31.438  36.113  1.00  0.00     0.012 A 
ATOM     65  C   UNL A   1      39.810  33.157  35.450  1.00  0.00     0.148 A 
ATOM     66  C   UNL A   1      37.741  32.260  37.130  1.00  0.00     0.002 A 
ATOM     67  C   UNL A   1      39.357  33.955  36.495  1.00  0.00     0.091 A 
ATOM     68  F   UNL A   1      40.767  33.572  34.608  1.00  0.00    -0.205 F 
ATOM     69  C   UNL A   1      38.314  33.513  37.327  1.00  0.00     0.022 A 
BRANCH  67  70
ATOM     70  S   UNL A   1      40.081  35.552  36.881  1.00  0.00     0.127 S 
ATOM     71  O   UNL A   1      39.514  35.821  38.201  1.00  0.00    -0.237 OA
ATOM     72  O   UNL A   1      41.513  35.250  36.883  1.00  0.00    -0.237 OA
ATOM     73  O   UNL A   1      39.653  36.453  35.821  1.00  0.00    -0.744 OA
ENDBRANCH  67  70
ENDBRANCH  49  63
BRANCH  50  74
ATOM     74  C   UNL A   1      42.433  26.247  27.633  1.00  0.00     0.023 A 
ATOM     75  C   UNL A   1      43.323  26.828  26.708  1.00  0.00     0.012 A 
ATOM     76  C   UNL A   1      42.057  24.900  27.472  1.00  0.00     0.148 A 
ATOM     77  C   UNL A   1      43.801  26.092  25.622  1.00  0.00     0.002 A 
ATOM     78  C   UNL A   1      42.579  24.158  26.418  1.00  0.00     0.091 A 
ATOM     79  F   UNL A   1      41.201  24.369  28.357  1.00  0.00    -0.205 F 
ATOM     80  C   UNL A   1      43.437  24.756  25.483  1.00  0.00     0.022 A 
BRANCH  78  81
ATOM     81  S   UNL A   1      42.268  22.398  26.231  1.00  0.00     0.127 S 
ATOM     82  O   UNL A   1      42.807  21.865  27.478  1.00  0.00    -0.237 OA
ATOM     83  O   UNL A   1      40.809  22.359  26.123  1.00  0.00    -0.237 OA
ATOM     84  O   UNL A   1      42.969  22.005  25.016  1.00  0.00    -0.744 OA
ENDBRANCH  78  81
ENDBRANCH  50  74
BRANCH  62  85
ATOM     85  C   UNL A   1      44.694  27.272  34.154  1.00  0.00     0.023 A 
ATOM     86  C   UNL A   1      45.913  27.979  34.158  1.00  0.00     0.012 A 
ATOM     87  C   UNL A   1      44.578  26.091  34.914  1.00  0.00     0.148 A 
ATOM     88  C   UNL A   1      47.010  27.499  34.873  1.00  0.00     0.002 A 
ATOM     89  C   UNL A   1      45.661  25.645  35.663  1.00  0.00     0.091 A 
ATOM     90  F   UNL A   1      43.418  25.419  34.883  1.00  0.00    -0.205 F 
ATOM     91  C   UNL A   1      46.880  26.339  35.632  1.00  0.00     0.022 A 
BRANCH  89  92
ATOM     92  S   UNL A   1      45.548  24.216  36.747  1.00  0.00     0.127 S 
ATOM     93  O   UNL A   1      44.888  23.239  35.884  1.00  0.00    -0.237 OA
ATOM     94  O   UNL A   1      46.954  23.927  37.032  1.00  0.00    -0.237 OA
ATOM     95  O   UNL A   1      44.779  24.657  37.904  1.00  0.00    -0.744 OA
ENDBRANCH  89  92
ENDBRANCH  62  85
ENDBRANCH  36  37
ENDBRANCH  28  31
ENDBRANCH  26  27
ENDBRANCH  25  26
ENDBRANCH  24  25
ENDBRANCH   1  24
TORSDOF 20
ENDMDL
MODEL 2
REMARK VINA RESULT:     -10.5      2.278      8.209
REMARK SMILES COc1ncccc1COc1cc(C)sc1C(=O)NCCCCCCNC(=O)c1ccc(-c2c3nc(c(-c4cccc(S(=O)(=O)[O-])c4F)c4ccc([nH]4)c(-c4cccc(S(=O)(=O)[O-])c4F)c4nc(c(-c5cccc(S(=O)(=O)[O-])c5F)c5ccc2[nH]5)C=C4)C=C3)cc1
REMARK SMILES IDX 22 1 21 2 20 3 19 4 17 5 18 6 16 8 11 9 12 10 13 11 15 12
REMARK SMILES IDX 14 13 10 14 9 15 8 16 3 17 4 18 5 19 7 20 6 21 2 22 1 23
REMARK SMILES IDX 23 24 24 25 25 26 26 27 27 28 28 30 29 31 30 32 91 33 31 34
REMARK SMILES IDX 90 35 32 36 33 37 34 38 84 39 35 40 89 41 83 42 85 43 36 44
REMARK SMILES IDX 88 45 82 46 81 47 37 49 69 50 49 51 68 52 50 53 53 54 67 55
REMARK SMILES IDX 86 56 51 57 52 58 66 60 87 61 54 62 38 63 39 64 47 65 40 66
REMARK SMILES IDX 42 67 48 68 41 69 43 70 44 71 45 72 46 73 70 74 71 75 79 76
REMARK SMILES IDX 72 77 74 78 80 79 73 80 75 81 76 82 77 83 78 84 55 85 56 86
REMARK SMILES IDX 64 87 57 88 59 89 65 90 58 91 60 92 61 93 62 94 63 95
REMARK H PARENT 19 7 26 29 85 48 53 59
REMARK Flexibility Score: inf
ROOT
ATOM      1  C   UNL A   1      33.552  25.057  25.361  1.00  0.00     0.002 C 
ENDROOT
BRANCH   1   2
ATOM      2  C   UNL A   1      34.350  24.567  24.146  1.00  0.00     0.021 C 
BRANCH   2   3
ATOM      3  C   UNL A   1      33.633  23.459  23.371  1.00  0.00     0.116 C 
BRANCH   3   4
ATOM      4  N   UNL A   1      32.606  22.850  24.178  1.00  0.00    -0.351 N 
ATOM      5  C   UNL A   1      32.448  21.615  24.750  1.00  0.00     0.265 C 
ATOM      6  O   UNL A   1      31.399  21.541  25.406  1.00  0.00    -0.268 OA
ATOM      7  H   UNL A   1      31.851  23.455  24.360  1.00  0.00     0.163 HD
BRANCH   5   8
ATOM      8  C   UNL A   1      33.391  20.498  24.648  1.00  0.00     0.134 A 
ATOM      9  C   UNL A   1      34.738  20.267  24.916  1.00  0.00     0.143 A 
ATOM     10  C   UNL A   1      35.102  18.897  24.710  1.00  0.00     0.062 A 
ATOM     11  C   UNL A   1      34.088  18.133  24.186  1.00  0.00     0.006 A 
ATOM     12  S   UNL A   1      32.680  19.048  23.980  1.00  0.00    -0.132 S 
ATOM     13  C   UNL A   1      34.105  16.685  23.834  1.00  0.00     0.056 C 
BRANCH   9  14
ATOM     14  O   UNL A   1      35.552  21.209  25.458  1.00  0.00    -0.487 OA
BRANCH  14  15
ATOM     15  C   UNL A   1      36.792  21.480  24.784  1.00  0.00     0.271 C 
BRANCH  15  16
ATOM     16  C   UNL A   1      37.809  22.250  25.580  1.00  0.00     0.052 A 
ATOM     17  C   UNL A   1      39.045  21.721  25.941  1.00  0.00     0.219 A 
ATOM     18  N   UNL A   1      40.012  22.430  26.562  1.00  0.00    -0.222 NA
ATOM     19  C   UNL A   1      39.724  23.707  26.892  1.00  0.00     0.115 A 
ATOM     20  C   UNL A   1      37.534  23.567  25.978  1.00  0.00     0.014 A 
ATOM     21  C   UNL A   1      38.502  24.308  26.643  1.00  0.00     0.021 A 
BRANCH  17  22
ATOM     22  O   UNL A   1      39.245  20.366  25.901  1.00  0.00    -0.481 OA
ATOM     23  C   UNL A   1      40.583  20.005  26.209  1.00  0.00     0.280 C 
ENDBRANCH  17  22
ENDBRANCH  15  16
ENDBRANCH  14  15
ENDBRANCH   9  14
ENDBRANCH   5   8
ENDBRANCH   3   4
ENDBRANCH   2   3
ENDBRANCH   1   2
BRANCH   1  24
ATOM     24  C   UNL A   1      33.920  26.469  25.834  1.00  0.00     0.002 C 
BRANCH  24  25
ATOM     25  C   UNL A   1      33.030  27.591  25.290  1.00  0.00     0.021 C 
BRANCH  25  26
ATOM     26  C   UNL A   1      33.755  28.909  25.036  1.00  0.00     0.116 C 
BRANCH  26  27
ATOM     27  N   UNL A   1      33.031  30.037  25.602  1.00  0.00    -0.352 N 
ATOM     28  C   UNL A   1      33.271  30.746  26.749  1.00  0.00     0.251 C 
ATOM     29  H   UNL A   1      32.249  30.335  25.083  1.00  0.00     0.163 HD
ATOM     30  O   UNL A   1      32.406  31.500  27.187  1.00  0.00    -0.269 OA
BRANCH  28  31
ATOM     31  C   UNL A   1      34.566  30.615  27.453  1.00  0.00     0.039 A 
ATOM     32  C   UNL A   1      34.912  29.379  28.006  1.00  0.00     0.014 A 
ATOM     33  C   UNL A   1      35.406  31.719  27.624  1.00  0.00     0.014 A 
ATOM     34  C   UNL A   1      36.109  29.246  28.713  1.00  0.00     0.010 A 
ATOM     35  C   UNL A   1      36.634  31.567  28.262  1.00  0.00     0.010 A 
ATOM     36  C   UNL A   1      36.983  30.338  28.840  1.00  0.00    -0.014 A 
BRANCH  36  37
ATOM     37  C   UNL A   1      38.246  30.221  29.611  1.00  0.00     0.031 A 
ATOM     38  C   UNL A   1      39.407  29.448  29.043  1.00  0.00     0.074 A 
ATOM     39  C   UNL A   1      38.327  30.755  30.845  1.00  0.00     0.049 A 
ATOM     40  N   UNL A   1      40.582  29.216  29.571  1.00  0.00    -0.248 NA
ATOM     41  C   UNL A   1      39.216  28.830  27.720  1.00  0.00     0.031 C 
ATOM     42  C   UNL A   1      37.243  31.453  31.538  1.00  0.00     0.029 A 
ATOM     43  N   UNL A   1      39.363  30.774  31.744  1.00  0.00    -0.354 N 
ATOM     44  C   UNL A   1      41.251  28.397  28.668  1.00  0.00     0.074 A 
ATOM     45  C   UNL A   1      40.338  28.140  27.575  1.00  0.00     0.031 C 
ATOM     46  C   UNL A   1      37.674  31.839  32.750  1.00  0.00     0.029 A 
ATOM     47  C   UNL A   1      39.055  31.400  32.928  1.00  0.00     0.049 A 
ATOM     48  H   UNL A   1      40.245  30.378  31.558  1.00  0.00     0.167 HD
ATOM     49  C   UNL A   1      42.521  27.931  28.722  1.00  0.00     0.034 A 
ATOM     50  C   UNL A   1      39.802  31.601  34.031  1.00  0.00     0.034 A 
ATOM     51  C   UNL A   1      43.443  28.235  29.784  1.00  0.00     0.049 A 
ATOM     52  C   UNL A   1      41.231  31.130  34.036  1.00  0.00     0.074 A 
ATOM     53  C   UNL A   1      44.778  27.888  29.891  1.00  0.00     0.029 A 
ATOM     54  N   UNL A   1      43.124  28.958  30.923  1.00  0.00    -0.354 N 
ATOM     55  N   UNL A   1      41.899  30.500  33.099  1.00  0.00    -0.248 NA
ATOM     56  C   UNL A   1      42.025  31.439  35.234  1.00  0.00     0.031 C 
ATOM     57  C   UNL A   1      45.262  28.390  31.104  1.00  0.00     0.029 A 
ATOM     58  C   UNL A   1      44.235  29.067  31.741  1.00  0.00     0.049 A 
ATOM     59  H   UNL A   1      42.237  29.338  31.121  1.00  0.00     0.167 HD
ATOM     60  C   UNL A   1      43.196  30.366  33.580  1.00  0.00     0.074 A 
ATOM     61  C   UNL A   1      43.227  31.008  34.879  1.00  0.00     0.031 C 
ATOM     62  C   UNL A   1      44.262  29.754  33.007  1.00  0.00     0.034 A 
BRANCH  49  63
ATOM     63  C   UNL A   1      43.006  27.091  27.569  1.00  0.00     0.023 A 
ATOM     64  C   UNL A   1      43.243  27.699  26.318  1.00  0.00     0.012 A 
ATOM     65  C   UNL A   1      43.274  25.717  27.727  1.00  0.00     0.148 A 
ATOM     66  C   UNL A   1      43.699  26.949  25.235  1.00  0.00     0.002 A 
ATOM     67  C   UNL A   1      43.772  24.984  26.656  1.00  0.00     0.091 A 
ATOM     68  F   UNL A   1      43.024  25.150  28.916  1.00  0.00    -0.205 F 
ATOM     69  C   UNL A   1      43.973  25.595  25.406  1.00  0.00     0.022 A 
BRANCH  67  70
ATOM     70  S   UNL A   1      44.229  23.253  26.793  1.00  0.00     0.127 S 
ATOM     71  O   UNL A   1      45.493  23.338  27.522  1.00  0.00    -0.237 OA
ATOM     72  O   UNL A   1      43.117  22.699  27.565  1.00  0.00    -0.237 OA
ATOM     73  O   UNL A   1      44.327  22.755  25.429  1.00  0.00    -0.744 OA
ENDBRANCH  67  70
ENDBRANCH  49  63
BRANCH  50  74
ATOM     74  C   UNL A   1      39.240  32.357  35.184  1.00  0.00     0.023 A 
ATOM     75  C   UNL A   1      39.272  33.766  35.167  1.00  0.00     0.012 A 
ATOM     76  C   UNL A   1      38.654  31.697  36.282  1.00  0.00     0.148 A 
ATOM     77  C   UNL A   1      38.764  34.503  36.237  1.00  0.00     0.002 A 
ATOM     78  C   UNL A   1      38.101  32.439  37.320  1.00  0.00     0.091 A 
ATOM     79  F   UNL A   1      38.643  30.356  36.284  1.00  0.00    -0.205 F 
ATOM     80  C   UNL A   1      38.171  33.840  37.308  1.00  0.00     0.022 A 
BRANCH  78  81
ATOM     81  S   UNL A   1      37.205  31.677  38.677  1.00  0.00     0.127 S 
ATOM     82  O   UNL A   1      37.019  30.315  38.186  1.00  0.00    -0.237 OA
ATOM     83  O   UNL A   1      38.156  31.811  39.781  1.00  0.00    -0.237 OA
ATOM     84  O   UNL A   1      35.990  32.467  38.835  1.00  0.00    -0.744 OA
ENDBRANCH  78  81
ENDBRANCH  50  74
BRANCH  62  85
ATOM     85  C   UNL A   1      45.563  29.772  33.767  1.00  0.00     0.023 A 
ATOM     86  C   UNL A   1      46.473  30.829  33.573  1.00  0.00     0.012 A 
ATOM     87  C   UNL A   1      45.858  28.770  34.713  1.00  0.00     0.148 A 
ATOM     88  C   UNL A   1      47.676  30.869  34.279  1.00  0.00     0.002 A 
ATOM     89  C   UNL A   1      47.036  28.843  35.449  1.00  0.00     0.091 A 
ATOM     90  F   UNL A   1      44.990  27.759  34.870  1.00  0.00    -0.205 F 
ATOM     91  C   UNL A   1      47.951  29.883  35.223  1.00  0.00     0.022 A 
BRANCH  89  92
ATOM     92  S   UNL A   1      47.421  27.670  36.753  1.00  0.00     0.127 S 
ATOM     93  O   UNL A   1      47.559  26.423  36.003  1.00  0.00    -0.237 OA
ATOM     94  O   UNL A   1      48.675  28.199  37.292  1.00  0.00    -0.237 OA
ATOM     95  O   UNL A   1      46.298  27.726  37.680  1.00  0.00    -0.744 OA
ENDBRANCH  89  92
ENDBRANCH  62  85
ENDBRANCH  36  37
ENDBRANCH  28  31
ENDBRANCH  26  27
ENDBRANCH  25  26
ENDBRANCH  24  25
ENDBRANCH   1  24
TORSDOF 20
ENDMDL
MODEL 3
REMARK VINA RESULT:     -10.1      4.716      9.660
REMARK SMILES COc1ncccc1COc1cc(C)sc1C(=O)NCCCCCCNC(=O)c1ccc(-c2c3nc(c(-c4cccc(S(=O)(=O)[O-])c4F)c4ccc([nH]4)c(-c4cccc(S(=O)(=O)[O-])c4F)c4nc(c(-c5cccc(S(=O)(=O)[O-])c5F)c5ccc2[nH]5)C=C4)C=C3)cc1
REMARK SMILES IDX 22 1 21 2 20 3 19 4 17 5 18 6 16 8 11 9 12 10 13 11 15 12
REMARK SMILES IDX 14 13 10 14 9 15 8 16 3 17 4 18 5 19 7 20 6 21 2 22 1 23
REMARK SMILES IDX 23 24 24 25 25 26 26 27 27 28 28 30 29 31 30 32 91 33 31 34
REMARK SMILES IDX 90 35 32 36 33 37 34 38 84 39 35 40 89 41 83 42 85 43 36 44
REMARK SMILES IDX 88 45 82 46 81 47 37 49 69 50 49 51 68 52 50 53 53 54 67 55
REMARK SMILES IDX 86 56 51 57 52 58 66 60 87 61 54 62 38 63 39 64 47 65 40 66
REMARK SMILES IDX 42 67 48 68 41 69 43 70 44 71 45 72 46 73 70 74 71 75 79 76
REMARK SMILES IDX 72 77 74 78 80 79 73 80 75 81 76 82 77 83 78 84 55 85 56 86
REMARK SMILES IDX 64 87 57 88 59 89 65 90 58 91 60 92 61 93 62 94 63 95
REMARK H PARENT 19 7 26 29 85 48 53 59
REMARK Flexibility Score: inf
ROOT
ATOM      1  C   UNL A   1      34.815  24.067  23.799  1.00  0.00     0.002 C 
ENDROOT
BRANCH   1   2
ATOM      2  C   UNL A   1      33.908  24.233  22.573  1.00  0.00     0.021 C 
BRANCH   2   3
ATOM      3  C   UNL A   1      33.444  25.678  22.367  1.00  0.00     0.116 C 
BRANCH   3   4
ATOM      4  N   UNL A   1      33.508  26.418  23.602  1.00  0.00    -0.351 N 
ATOM      5  C   UNL A   1      32.568  26.904  24.472  1.00  0.00     0.265 C 
ATOM      6  O   UNL A   1      33.089  27.462  25.449  1.00  0.00    -0.268 OA
ATOM      7  H   UNL A   1      34.430  26.617  23.883  1.00  0.00     0.163 HD
BRANCH   5   8
ATOM      8  C   UNL A   1      31.116  26.779  24.322  1.00  0.00     0.134 A 
ATOM      9  C   UNL A   1      30.116  25.902  24.733  1.00  0.00     0.143 A 
ATOM     10  C   UNL A   1      28.810  26.359  24.359  1.00  0.00     0.062 A 
ATOM     11  C   UNL A   1      28.827  27.490  23.581  1.00  0.00     0.006 A 
ATOM     12  S   UNL A   1      30.410  28.035  23.333  1.00  0.00    -0.132 S 
ATOM     13  C   UNL A   1      27.673  28.236  23.003  1.00  0.00     0.056 C 
BRANCH   9  14
ATOM     14  O   UNL A   1      30.359  24.829  25.529  1.00  0.00    -0.487 OA
BRANCH  14  15
ATOM     15  C   UNL A   1      30.927  23.662  24.912  1.00  0.00     0.271 C 
BRANCH  15  16
ATOM     16  C   UNL A   1      31.974  22.945  25.719  1.00  0.00     0.052 A 
ATOM     17  C   UNL A   1      32.416  21.660  25.414  1.00  0.00     0.219 A 
ATOM     18  N   UNL A   1      33.428  21.042  26.060  1.00  0.00    -0.222 NA
ATOM     19  C   UNL A   1      33.995  21.703  27.093  1.00  0.00     0.115 A 
ATOM     20  C   UNL A   1      32.560  23.579  26.825  1.00  0.00     0.014 A 
ATOM     21  C   UNL A   1      33.584  22.952  27.523  1.00  0.00     0.021 A 
BRANCH  17  22
ATOM     22  O   UNL A   1      31.668  20.858  24.593  1.00  0.00    -0.481 OA
ATOM     23  C   UNL A   1      32.395  19.734  24.122  1.00  0.00     0.280 C 
ENDBRANCH  17  22
ENDBRANCH  15  16
ENDBRANCH  14  15
ENDBRANCH   9  14
ENDBRANCH   5   8
ENDBRANCH   3   4
ENDBRANCH   2   3
ENDBRANCH   1   2
BRANCH   1  24
ATOM     24  C   UNL A   1      35.633  22.769  23.812  1.00  0.00     0.002 C 
BRANCH  24  25
ATOM     25  C   UNL A   1      37.102  22.928  24.217  1.00  0.00     0.021 C 
BRANCH  25  26
ATOM     26  C   UNL A   1      37.341  22.991  25.722  1.00  0.00     0.116 C 
BRANCH  26  27
ATOM     27  N   UNL A   1      38.341  22.022  26.146  1.00  0.00    -0.352 N 
ATOM     28  C   UNL A   1      39.621  22.222  26.591  1.00  0.00     0.251 C 
ATOM     29  H   UNL A   1      38.055  21.081  26.106  1.00  0.00     0.163 HD
ATOM     30  O   UNL A   1      40.393  21.269  26.664  1.00  0.00    -0.269 OA
BRANCH  28  31
ATOM     31  C   UNL A   1      40.072  23.573  26.992  1.00  0.00     0.039 A 
ATOM     32  C   UNL A   1      40.717  23.731  28.223  1.00  0.00     0.014 A 
ATOM     33  C   UNL A   1      39.806  24.688  26.193  1.00  0.00     0.014 A 
ATOM     34  C   UNL A   1      41.111  25.004  28.640  1.00  0.00     0.010 A 
ATOM     35  C   UNL A   1      40.266  25.944  26.575  1.00  0.00     0.010 A 
ATOM     36  C   UNL A   1      40.895  26.120  27.816  1.00  0.00    -0.014 A 
BRANCH  36  37
ATOM     37  C   UNL A   1      41.283  27.483  28.257  1.00  0.00     0.031 A 
ATOM     38  C   UNL A   1      42.732  27.897  28.241  1.00  0.00     0.074 A 
ATOM     39  C   UNL A   1      40.344  28.325  28.729  1.00  0.00     0.049 A 
ATOM     40  N   UNL A   1      43.269  29.032  28.607  1.00  0.00    -0.248 NA
ATOM     41  C   UNL A   1      43.708  26.895  27.782  1.00  0.00     0.031 C 
ATOM     42  C   UNL A   1      38.921  28.011  28.873  1.00  0.00     0.029 A 
ATOM     43  N   UNL A   1      40.449  29.611  29.195  1.00  0.00    -0.354 N 
ATOM     44  C   UNL A   1      44.642  28.868  28.459  1.00  0.00     0.074 A 
ATOM     45  C   UNL A   1      44.860  27.511  28.009  1.00  0.00     0.031 C 
ATOM     46  C   UNL A   1      38.285  29.078  29.384  1.00  0.00     0.029 A 
ATOM     47  C   UNL A   1      39.256  30.143  29.622  1.00  0.00     0.049 A 
ATOM     48  H   UNL A   1      41.299  30.107  29.220  1.00  0.00     0.167 HD
ATOM     49  C   UNL A   1      45.632  29.774  28.647  1.00  0.00     0.034 A 
ATOM     50  C   UNL A   1      38.975  31.353  30.143  1.00  0.00     0.034 A 
ATOM     51  C   UNL A   1      45.406  31.138  29.042  1.00  0.00     0.049 A 
ATOM     52  C   UNL A   1      40.083  32.362  30.277  1.00  0.00     0.074 A 
ATOM     53  C   UNL A   1      46.329  32.161  29.172  1.00  0.00     0.029 A 
ATOM     54  N   UNL A   1      44.170  31.671  29.371  1.00  0.00    -0.354 N 
ATOM     55  N   UNL A   1      41.354  32.241  29.974  1.00  0.00    -0.248 NA
ATOM     56  C   UNL A   1      39.711  33.691  30.781  1.00  0.00     0.031 C 
ATOM     57  C   UNL A   1      45.651  33.309  29.594  1.00  0.00     0.029 A 
ATOM     58  C   UNL A   1      44.304  33.007  29.706  1.00  0.00     0.049 A 
ATOM     59  H   UNL A   1      43.320  31.172  29.366  1.00  0.00     0.167 HD
ATOM     60  C   UNL A   1      41.924  33.484  30.219  1.00  0.00     0.074 A 
ATOM     61  C   UNL A   1      40.855  34.352  30.668  1.00  0.00     0.031 C 
ATOM     62  C   UNL A   1      43.220  33.870  30.101  1.00  0.00     0.034 A 
BRANCH  49  63
ATOM     63  C   UNL A   1      47.045  29.332  28.366  1.00  0.00     0.023 A 
ATOM     64  C   UNL A   1      47.592  29.529  27.081  1.00  0.00     0.012 A 
ATOM     65  C   UNL A   1      47.848  28.767  29.377  1.00  0.00     0.148 A 
ATOM     66  C   UNL A   1      48.899  29.137  26.794  1.00  0.00     0.002 A 
ATOM     67  C   UNL A   1      49.165  28.420  29.096  1.00  0.00     0.091 A 
ATOM     68  F   UNL A   1      47.306  28.567  30.587  1.00  0.00    -0.205 F 
ATOM     69  C   UNL A   1      49.688  28.593  27.803  1.00  0.00     0.022 A 
BRANCH  67  70
ATOM     70  S   UNL A   1      50.287  27.783  30.345  1.00  0.00     0.127 S 
ATOM     71  O   UNL A   1      50.124  26.340  30.180  1.00  0.00    -0.237 OA
ATOM     72  O   UNL A   1      51.578  28.306  29.897  1.00  0.00    -0.237 OA
ATOM     73  O   UNL A   1      49.823  28.323  31.615  1.00  0.00    -0.744 OA
ENDBRANCH  67  70
ENDBRANCH  49  63
BRANCH  50  74
ATOM     74  C   UNL A   1      37.571  31.706  30.494  1.00  0.00     0.023 A 
ATOM     75  C   UNL A   1      37.072  31.364  31.766  1.00  0.00     0.012 A 
ATOM     76  C   UNL A   1      36.738  32.395  29.591  1.00  0.00     0.148 A 
ATOM     77  C   UNL A   1      35.758  31.671  32.121  1.00  0.00     0.002 A 
ATOM     78  C   UNL A   1      35.447  32.745  29.972  1.00  0.00     0.091 A 
ATOM     79  F   UNL A   1      37.229  32.702  28.382  1.00  0.00    -0.205 F 
ATOM     80  C   UNL A   1      34.950  32.369  31.228  1.00  0.00     0.022 A 
BRANCH  78  81
ATOM     81  S   UNL A   1      34.378  33.754  28.938  1.00  0.00     0.127 S 
ATOM     82  O   UNL A   1      34.075  32.841  27.841  1.00  0.00    -0.237 OA
ATOM     83  O   UNL A   1      33.259  34.029  29.840  1.00  0.00    -0.237 OA
ATOM     84  O   UNL A   1      35.168  34.928  28.589  1.00  0.00    -0.744 OA
ENDBRANCH  78  81
ENDBRANCH  50  74
BRANCH  62  85
ATOM     85  C   UNL A   1      43.550  35.302  30.434  1.00  0.00     0.023 A 
ATOM     86  C   UNL A   1      43.883  35.655  31.756  1.00  0.00     0.012 A 
ATOM     87  C   UNL A   1      43.583  36.287  29.426  1.00  0.00     0.148 A 
ATOM     88  C   UNL A   1      44.204  36.973  32.079  1.00  0.00     0.002 A 
ATOM     89  C   UNL A   1      43.953  37.588  29.747  1.00  0.00     0.091 A 
ATOM     90  F   UNL A   1      43.243  35.938  28.176  1.00  0.00    -0.205 F 
ATOM     91  C   UNL A   1      44.250  37.935  31.074  1.00  0.00     0.022 A 
BRANCH  89  92
ATOM     92  S   UNL A   1      44.133  38.865  28.496  1.00  0.00     0.127 S 
ATOM     93  O   UNL A   1      42.761  39.002  28.010  1.00  0.00    -0.237 OA
ATOM     94  O   UNL A   1      44.620  40.003  29.277  1.00  0.00    -0.237 OA
ATOM     95  O   UNL A   1      45.094  38.343  27.533  1.00  0.00    -0.744 OA
ENDBRANCH  89  92
ENDBRANCH  62  85
ENDBRANCH  36  37
ENDBRANCH  28  31
ENDBRANCH  26  27
ENDBRANCH  25  26
ENDBRANCH  24  25
ENDBRANCH   1  24
TORSDOF 20
ENDMDL
