MODEL 1
REMARK VINA RESULT:     -11.0      0.000      0.000
REMARK SMILES Cc1cc(C)c2c(OCCCC(=O)NCCCCCCNC(=O)c3ccc(-c4c5nc(c(-c6cccc(S(=O)(=O)[O-])c6F)c6ccc([nH]6)c(-c6cccc(S(=O)(=O)[O-])c6F)c6nc(c(-c7cccc(S(=O)(=O)[O-])c7F)c7ccc4[nH]7)C=C6)C=C5)cc3)nsc2n1
REMARK SMILES IDX 17 1 16 2 15 3 14 4 12 5 13 6 11 8 10 9 9 10 8 11 7 12 1 13
REMARK SMILES IDX 2 14 3 15 90 16 4 17 89 18 5 19 6 20 88 21 87 22 18 23 19 24
REMARK SMILES IDX 20 25 21 26 22 27 23 29 24 30 25 31 86 32 26 33 85 34 27 35
REMARK SMILES IDX 28 36 29 37 79 38 30 39 84 40 78 41 80 42 31 43 83 44 77 45
REMARK SMILES IDX 76 46 32 48 64 49 44 50 63 51 45 52 48 53 62 54 81 55 46 56
REMARK SMILES IDX 47 57 61 59 82 60 49 61 33 62 34 63 42 64 35 65 37 66 43 67
REMARK SMILES IDX 36 68 38 69 39 70 40 71 41 72 65 73 66 74 74 75 67 76 69 77
REMARK SMILES IDX 75 78 68 79 70 80 71 81 72 82 73 83 50 84 51 85 59 86 52 87
REMARK SMILES IDX 54 88 60 89 53 90 55 91 56 92 57 93 58 94
REMARK H PARENT 14 7 21 28 80 47 48 58
REMARK Flexibility Score: inf
ROOT
ATOM      1  C   UNL A   1      31.412  29.284  25.166  1.00  0.00     0.002 C 
ENDROOT
BRANCH   1   2
ATOM      2  C   UNL A   1      32.176  28.926  23.880  1.00  0.00     0.021 C 
BRANCH   2   3
ATOM      3  C   UNL A   1      31.392  28.057  22.837  1.00  0.00     0.116 C 
BRANCH   3   4
ATOM      4  N   UNL A   1      32.243  27.058  22.009  1.00  0.00    -0.356 N 
ATOM      5  C   UNL A   1      32.707  25.794  21.734  1.00  0.00     0.220 C 
ATOM      6  O   UNL A   1      33.301  25.835  20.630  1.00  0.00    -0.275 OA
ATOM      7  H   UNL A   1      32.673  27.621  21.327  1.00  0.00     0.163 HD
BRANCH   5   8
ATOM      8  C   UNL A   1      32.512  24.264  22.315  1.00  0.00     0.103 C 
BRANCH   8   9
ATOM      9  C   UNL A   1      33.427  23.017  22.797  1.00  0.00     0.051 C 
BRANCH   9  10
ATOM     10  C   UNL A   1      34.898  22.890  23.411  1.00  0.00     0.232 C 
BRANCH  10  11
ATOM     11  O   UNL A   1      35.338  23.569  24.600  1.00  0.00    -0.477 OA
BRANCH  11  12
ATOM     12  C   UNL A   1      34.658  23.528  25.777  1.00  0.00     0.235 A 
ATOM     13  C   UNL A   1      29.408  24.859  26.300  1.00  0.00     0.067 C 
ATOM     14  C   UNL A   1      30.901  24.771  26.493  1.00  0.00     0.039 A 
ATOM     15  C   UNL A   1      31.728  25.735  25.921  1.00  0.00     0.027 A 
ATOM     16  N   UNL A   1      31.383  23.709  27.171  1.00  0.00    -0.240 NA
ATOM     17  C   UNL A   1      33.130  25.579  25.902  1.00  0.00    -0.034 A 
ATOM     18  C   UNL A   1      32.702  23.511  26.957  1.00  0.00     0.147 A 
ATOM     19  C   UNL A   1      34.199  26.547  25.556  1.00  0.00     0.045 C 
ATOM     20  C   UNL A   1      33.549  24.300  26.200  1.00  0.00     0.078 A 
ATOM     21  S   UNL A   1      33.646  22.247  27.592  1.00  0.00    -0.012 S 
ATOM     22  N   UNL A   1      34.929  22.465  26.536  1.00  0.00    -0.153 NA
ENDBRANCH  11  12
ENDBRANCH  10  11
ENDBRANCH   9  10
ENDBRANCH   8   9
ENDBRANCH   5   8
ENDBRANCH   3   4
ENDBRANCH   2   3
ENDBRANCH   1   2
BRANCH   1  23
ATOM     23  C   UNL A   1      32.221  29.473  26.468  1.00  0.00     0.002 C 
BRANCH  23  24
ATOM     24  C   UNL A   1      32.560  30.900  26.946  1.00  0.00     0.021 C 
BRANCH  24  25
ATOM     25  C   UNL A   1      33.967  31.107  27.493  1.00  0.00     0.116 C 
BRANCH  25  26
ATOM     26  N   UNL A   1      34.027  32.014  28.641  1.00  0.00    -0.352 N 
ATOM     27  C   UNL A   1      34.931  32.048  29.694  1.00  0.00     0.251 C 
ATOM     28  H   UNL A   1      33.322  32.702  28.670  1.00  0.00     0.163 HD
ATOM     29  O   UNL A   1      34.669  32.650  30.714  1.00  0.00    -0.269 OA
BRANCH  27  30
ATOM     30  C   UNL A   1      36.224  31.345  29.546  1.00  0.00     0.039 A 
ATOM     31  C   UNL A   1      37.400  32.030  29.229  1.00  0.00     0.014 A 
ATOM     32  C   UNL A   1      36.241  29.967  29.728  1.00  0.00     0.014 A 
ATOM     33  C   UNL A   1      38.591  31.312  29.159  1.00  0.00     0.010 A 
ATOM     34  C   UNL A   1      37.426  29.305  29.873  1.00  0.00     0.010 A 
ATOM     35  C   UNL A   1      38.591  29.948  29.499  1.00  0.00    -0.014 A 
BRANCH  35  36
ATOM     36  C   UNL A   1      39.821  29.177  29.551  1.00  0.00     0.031 A 
ATOM     37  C   UNL A   1      40.274  28.878  30.928  1.00  0.00     0.074 A 
ATOM     38  C   UNL A   1      40.400  28.634  28.458  1.00  0.00     0.049 A 
ATOM     39  N   UNL A   1      41.238  29.456  31.560  1.00  0.00    -0.248 NA
ATOM     40  C   UNL A   1      39.454  27.991  31.765  1.00  0.00     0.031 C 
ATOM     41  C   UNL A   1      39.895  28.579  27.078  1.00  0.00     0.029 A 
ATOM     42  N   UNL A   1      41.538  27.899  28.381  1.00  0.00    -0.354 N 
ATOM     43  C   UNL A   1      41.314  28.813  32.790  1.00  0.00     0.074 A 
ATOM     44  C   UNL A   1      40.070  28.106  32.945  1.00  0.00     0.031 C 
ATOM     45  C   UNL A   1      40.590  27.655  26.377  1.00  0.00     0.029 A 
ATOM     46  C   UNL A   1      41.697  27.196  27.191  1.00  0.00     0.049 A 
ATOM     47  H   UNL A   1      42.199  27.865  29.110  1.00  0.00     0.167 HD
ATOM     48  C   UNL A   1      42.505  28.704  33.440  1.00  0.00     0.034 A 
ATOM     49  C   UNL A   1      42.664  26.284  26.921  1.00  0.00     0.034 A 
ATOM     50  C   UNL A   1      43.493  29.578  32.849  1.00  0.00     0.049 A 
ATOM     51  C   UNL A   1      43.780  26.570  27.851  1.00  0.00     0.074 A 
ATOM     52  C   UNL A   1      43.601  30.941  32.651  1.00  0.00     0.029 A 
ATOM     53  N   UNL A   1      44.382  28.995  31.979  1.00  0.00    -0.354 N 
ATOM     54  N   UNL A   1      44.481  27.669  27.814  1.00  0.00    -0.248 NA
ATOM     55  C   UNL A   1      43.825  25.836  29.104  1.00  0.00     0.031 C 
ATOM     56  C   UNL A   1      44.198  31.077  31.363  1.00  0.00     0.029 A 
ATOM     57  C   UNL A   1      44.491  29.801  30.877  1.00  0.00     0.049 A 
ATOM     58  H   UNL A   1      44.858  28.145  32.122  1.00  0.00     0.167 HD
ATOM     59  C   UNL A   1      44.658  28.006  29.149  1.00  0.00     0.074 A 
ATOM     60  C   UNL A   1      44.334  26.787  29.891  1.00  0.00     0.031 C 
ATOM     61  C   UNL A   1      44.760  29.311  29.540  1.00  0.00     0.034 A 
BRANCH  48  62
ATOM     62  C   UNL A   1      42.916  27.558  34.337  1.00  0.00     0.023 A 
ATOM     63  C   UNL A   1      43.003  27.832  35.721  1.00  0.00     0.012 A 
ATOM     64  C   UNL A   1      43.467  26.334  33.895  1.00  0.00     0.148 A 
ATOM     65  C   UNL A   1      43.661  26.971  36.604  1.00  0.00     0.002 A 
ATOM     66  C   UNL A   1      44.050  25.442  34.788  1.00  0.00     0.091 A 
ATOM     67  F   UNL A   1      43.555  26.068  32.591  1.00  0.00    -0.205 F 
ATOM     68  C   UNL A   1      44.180  25.771  36.139  1.00  0.00     0.022 A 
BRANCH  66  69
ATOM     69  S   UNL A   1      44.694  23.851  34.254  1.00  0.00     0.127 S 
ATOM     70  O   UNL A   1      45.729  24.257  33.308  1.00  0.00    -0.237 OA
ATOM     71  O   UNL A   1      45.187  23.294  35.514  1.00  0.00    -0.237 OA
ATOM     72  O   UNL A   1      43.558  23.135  33.689  1.00  0.00    -0.744 OA
ENDBRANCH  66  69
ENDBRANCH  48  62
BRANCH  49  73
ATOM     73  C   UNL A   1      42.597  25.016  26.157  1.00  0.00     0.023 A 
ATOM     74  C   UNL A   1      43.590  24.741  25.194  1.00  0.00     0.012 A 
ATOM     75  C   UNL A   1      41.783  23.950  26.598  1.00  0.00     0.148 A 
ATOM     76  C   UNL A   1      43.806  23.436  24.730  1.00  0.00     0.002 A 
ATOM     77  C   UNL A   1      42.006  22.654  26.141  1.00  0.00     0.091 A 
ATOM     78  F   UNL A   1      40.858  24.193  27.537  1.00  0.00    -0.205 F 
ATOM     79  C   UNL A   1      43.026  22.391  25.217  1.00  0.00     0.022 A 
BRANCH  77  80
ATOM     80  S   UNL A   1      41.083  21.241  26.766  1.00  0.00     0.127 S 
ATOM     81  O   UNL A   1      41.401  21.282  28.193  1.00  0.00    -0.237 OA
ATOM     82  O   UNL A   1      39.710  21.608  26.433  1.00  0.00    -0.237 OA
ATOM     83  O   UNL A   1      41.611  20.077  26.065  1.00  0.00    -0.744 OA
ENDBRANCH  77  80
ENDBRANCH  49  73
BRANCH  61  84
ATOM     84  C   UNL A   1      44.928  30.365  28.469  1.00  0.00     0.023 A 
ATOM     85  C   UNL A   1      43.844  31.099  27.941  1.00  0.00     0.012 A 
ATOM     86  C   UNL A   1      46.235  30.756  28.129  1.00  0.00     0.148 A 
ATOM     87  C   UNL A   1      44.059  32.189  27.091  1.00  0.00     0.002 A 
ATOM     88  C   UNL A   1      46.446  31.871  27.328  1.00  0.00     0.091 A 
ATOM     89  F   UNL A   1      47.256  30.047  28.635  1.00  0.00    -0.205 F 
ATOM     90  C   UNL A   1      45.362  32.585  26.798  1.00  0.00     0.022 A 
BRANCH  88  91
ATOM     91  S   UNL A   1      48.095  32.515  27.032  1.00  0.00     0.127 S 
ATOM     92  O   UNL A   1      48.768  31.366  26.429  1.00  0.00    -0.237 OA
ATOM     93  O   UNL A   1      47.837  33.625  26.113  1.00  0.00    -0.237 OA
ATOM     94  O   UNL A   1      48.606  32.927  28.335  1.00  0.00    -0.744 OA
ENDBRANCH  88  91
ENDBRANCH  61  84
ENDBRANCH  35  36
ENDBRANCH  27  30
ENDBRANCH  25  26
ENDBRANCH  24  25
ENDBRANCH  23  24
ENDBRANCH   1  23
TORSDOF 20
ENDMDL
MODEL 2
REMARK VINA RESULT:     -10.9      1.475      2.260
REMARK SMILES Cc1cc(C)c2c(OCCCC(=O)NCCCCCCNC(=O)c3ccc(-c4c5nc(c(-c6cccc(S(=O)(=O)[O-])c6F)c6ccc([nH]6)c(-c6cccc(S(=O)(=O)[O-])c6F)c6nc(c(-c7cccc(S(=O)(=O)[O-])c7F)c7ccc4[nH]7)C=C6)C=C5)cc3)nsc2n1
REMARK SMILES IDX 17 1 16 2 15 3 14 4 12 5 13 6 11 8 10 9 9 10 8 11 7 12 1 13
REMARK SMILES IDX 2 14 3 15 90 16 4 17 89 18 5 19 6 20 88 21 87 22 18 23 19 24
REMARK SMILES IDX 20 25 21 26 22 27 23 29 24 30 25 31 86 32 26 33 85 34 27 35
REMARK SMILES IDX 28 36 29 37 79 38 30 39 84 40 78 41 80 42 31 43 83 44 77 45
REMARK SMILES IDX 76 46 32 48 64 49 44 50 63 51 45 52 48 53 62 54 81 55 46 56
REMARK SMILES IDX 47 57 61 59 82 60 49 61 33 62 34 63 42 64 35 65 37 66 43 67
REMARK SMILES IDX 36 68 38 69 39 70 40 71 41 72 65 73 66 74 74 75 67 76 69 77
REMARK SMILES IDX 75 78 68 79 70 80 71 81 72 82 73 83 50 84 51 85 59 86 52 87
REMARK SMILES IDX 54 88 60 89 53 90 55 91 56 92 57 93 58 94
REMARK H PARENT 14 7 21 28 80 47 48 58
REMARK Flexibility Score: inf
ROOT
ATOM      1  C   UNL A   1      32.752  28.821  27.054  1.00  0.00     0.002 C 
ENDROOT
BRANCH   1   2
ATOM      2  C   UNL A   1      31.789  28.549  25.886  1.00  0.00     0.021 C 
BRANCH   2   3
ATOM      3  C   UNL A   1      31.430  29.785  24.991  1.00  0.00     0.116 C 
BRANCH   3   4
ATOM      4  N   UNL A   1      30.885  29.463  23.575  1.00  0.00    -0.356 N 
ATOM      5  C   UNL A   1      30.631  28.598  22.539  1.00  0.00     0.220 C 
ATOM      6  O   UNL A   1      29.898  29.193  21.713  1.00  0.00    -0.275 OA
ATOM      7  H   UNL A   1      30.545  30.327  23.250  1.00  0.00     0.163 HD
BRANCH   5   8
ATOM      8  C   UNL A   1      30.825  26.994  22.206  1.00  0.00     0.103 C 
BRANCH   8   9
ATOM      9  C   UNL A   1      31.828  25.782  22.590  1.00  0.00     0.051 C 
BRANCH   9  10
ATOM     10  C   UNL A   1      33.221  25.263  22.000  1.00  0.00     0.232 C 
BRANCH  10  11
ATOM     11  O   UNL A   1      33.653  23.892  22.041  1.00  0.00    -0.477 OA
BRANCH  11  12
ATOM     12  C   UNL A   1      34.253  23.331  23.125  1.00  0.00     0.235 A 
ATOM     13  C   UNL A   1      33.589  18.141  24.615  1.00  0.00     0.067 C 
ATOM     14  C   UNL A   1      33.671  19.646  24.626  1.00  0.00     0.039 A 
ATOM     15  C   UNL A   1      32.508  20.400  24.481  1.00  0.00     0.027 A 
ATOM     16  N   UNL A   1      34.895  20.206  24.714  1.00  0.00    -0.240 NA
ATOM     17  C   UNL A   1      32.560  21.796  24.281  1.00  0.00    -0.034 A 
ATOM     18  C   UNL A   1      34.902  21.501  24.327  1.00  0.00     0.147 A 
ATOM     19  C   UNL A   1      31.482  22.813  24.320  1.00  0.00     0.045 C 
ATOM     20  C   UNL A   1      33.813  22.259  23.938  1.00  0.00     0.078 A 
ATOM     21  S   UNL A   1      36.262  22.519  24.249  1.00  0.00    -0.012 S 
ATOM     22  N   UNL A   1      35.525  23.690  23.303  1.00  0.00    -0.153 NA
ENDBRANCH  11  12
ENDBRANCH  10  11
ENDBRANCH   9  10
ENDBRANCH   8   9
ENDBRANCH   5   8
ENDBRANCH   3   4
ENDBRANCH   2   3
ENDBRANCH   1   2
BRANCH   1  23
ATOM     23  C   UNL A   1      33.231  30.271  27.285  1.00  0.00     0.002 C 
BRANCH  23  24
ATOM     24  C   UNL A   1      34.721  30.536  27.581  1.00  0.00     0.021 C 
BRANCH  24  25
ATOM     25  C   UNL A   1      35.124  31.998  27.736  1.00  0.00     0.116 C 
BRANCH  25  26
ATOM     26  N   UNL A   1      34.838  32.552  29.061  1.00  0.00    -0.352 N 
ATOM     27  C   UNL A   1      35.314  32.158  30.304  1.00  0.00     0.251 C 
ATOM     28  H   UNL A   1      34.217  33.316  29.072  1.00  0.00     0.163 HD
ATOM     29  O   UNL A   1      34.752  32.509  31.321  1.00  0.00    -0.269 OA
BRANCH  27  30
ATOM     30  C   UNL A   1      36.525  31.312  30.369  1.00  0.00     0.039 A 
ATOM     31  C   UNL A   1      36.449  29.938  30.615  1.00  0.00     0.014 A 
ATOM     32  C   UNL A   1      37.759  31.925  30.182  1.00  0.00     0.014 A 
ATOM     33  C   UNL A   1      37.627  29.194  30.608  1.00  0.00     0.010 A 
ATOM     34  C   UNL A   1      38.877  31.173  29.962  1.00  0.00     0.010 A 
ATOM     35  C   UNL A   1      38.835  29.825  30.265  1.00  0.00    -0.014 A 
BRANCH  35  36
ATOM     36  C   UNL A   1      40.073  29.076  30.135  1.00  0.00     0.031 A 
ATOM     37  C   UNL A   1      40.717  28.768  31.431  1.00  0.00     0.074 A 
ATOM     38  C   UNL A   1      40.503  28.558  28.964  1.00  0.00     0.049 A 
ATOM     39  N   UNL A   1      41.751  29.355  31.932  1.00  0.00    -0.248 NA
ATOM     40  C   UNL A   1      40.036  27.855  32.360  1.00  0.00     0.031 C 
ATOM     41  C   UNL A   1      39.812  28.511  27.667  1.00  0.00     0.029 A 
ATOM     42  N   UNL A   1      41.631  27.844  28.719  1.00  0.00    -0.354 N 
ATOM     43  C   UNL A   1      42.007  28.697  33.130  1.00  0.00     0.074 A 
ATOM     44  C   UNL A   1      40.808  27.966  33.444  1.00  0.00     0.031 C 
ATOM     45  C   UNL A   1      40.418  27.609  26.862  1.00  0.00     0.029 A 
ATOM     46  C   UNL A   1      41.634  27.160  27.507  1.00  0.00     0.049 A 
ATOM     47  H   UNL A   1      42.388  27.813  29.349  1.00  0.00     0.167 HD
ATOM     48  C   UNL A   1      43.278  28.601  33.606  1.00  0.00     0.034 A 
ATOM     49  C   UNL A   1      42.569  26.269  27.092  1.00  0.00     0.034 A 
ATOM     50  C   UNL A   1      44.161  29.501  32.898  1.00  0.00     0.049 A 
ATOM     51  C   UNL A   1      43.799  26.563  27.863  1.00  0.00     0.074 A 
ATOM     52  C   UNL A   1      44.218  30.868  32.708  1.00  0.00     0.029 A 
ATOM     53  N   UNL A   1      44.929  28.945  31.904  1.00  0.00    -0.354 N 
ATOM     54  N   UNL A   1      44.470  27.675  27.745  1.00  0.00    -0.248 NA
ATOM     55  C   UNL A   1      44.030  25.814  29.086  1.00  0.00     0.031 C 
ATOM     56  C   UNL A   1      44.628  31.031  31.351  1.00  0.00     0.029 A 
ATOM     57  C   UNL A   1      44.872  29.767  30.810  1.00  0.00     0.049 A 
ATOM     58  H   UNL A   1      45.434  28.102  31.967  1.00  0.00     0.167 HD
ATOM     59  C   UNL A   1      44.825  27.997  29.048  1.00  0.00     0.074 A 
ATOM     60  C   UNL A   1      44.627  26.763  29.810  1.00  0.00     0.031 C 
ATOM     61  C   UNL A   1      44.960  29.299  29.441  1.00  0.00     0.034 A 
BRANCH  48  62
ATOM     62  C   UNL A   1      43.828  27.451  34.421  1.00  0.00     0.023 A 
ATOM     63  C   UNL A   1      44.543  27.786  35.593  1.00  0.00     0.012 A 
ATOM     64  C   UNL A   1      43.918  26.111  33.981  1.00  0.00     0.148 A 
ATOM     65  C   UNL A   1      45.355  26.858  36.253  1.00  0.00     0.002 A 
ATOM     66  C   UNL A   1      44.663  25.171  34.684  1.00  0.00     0.091 A 
ATOM     67  F   UNL A   1      43.395  25.751  32.808  1.00  0.00    -0.205 F 
ATOM     68  C   UNL A   1      45.411  25.547  35.801  1.00  0.00     0.022 A 
BRANCH  66  69
ATOM     69  S   UNL A   1      44.733  23.447  34.178  1.00  0.00     0.127 S 
ATOM     70  O   UNL A   1      45.878  22.964  34.943  1.00  0.00    -0.237 OA
ATOM     71  O   UNL A   1      43.432  22.954  34.629  1.00  0.00    -0.237 OA
ATOM     72  O   UNL A   1      44.895  23.468  32.730  1.00  0.00    -0.744 OA
ENDBRANCH  66  69
ENDBRANCH  48  62
BRANCH  49  73
ATOM     73  C   UNL A   1      42.417  25.010  26.326  1.00  0.00     0.023 A 
ATOM     74  C   UNL A   1      43.414  24.646  25.396  1.00  0.00     0.012 A 
ATOM     75  C   UNL A   1      41.498  24.020  26.739  1.00  0.00     0.148 A 
ATOM     76  C   UNL A   1      43.530  23.327  24.940  1.00  0.00     0.002 A 
ATOM     77  C   UNL A   1      41.622  22.708  26.288  1.00  0.00     0.091 A 
ATOM     78  F   UNL A   1      40.567  24.345  27.646  1.00  0.00    -0.205 F 
ATOM     79  C   UNL A   1      42.646  22.355  25.400  1.00  0.00     0.022 A 
BRANCH  77  80
ATOM     80  S   UNL A   1      40.559  21.384  26.881  1.00  0.00     0.127 S 
ATOM     81  O   UNL A   1      40.782  21.441  28.326  1.00  0.00    -0.237 OA
ATOM     82  O   UNL A   1      39.242  21.838  26.446  1.00  0.00    -0.237 OA
ATOM     83  O   UNL A   1      41.045  20.165  26.246  1.00  0.00    -0.744 OA
ENDBRANCH  77  80
ENDBRANCH  49  73
BRANCH  61  84
ATOM     84  C   UNL A   1      44.961  30.370  28.373  1.00  0.00     0.023 A 
ATOM     85  C   UNL A   1      43.776  30.956  27.877  1.00  0.00     0.012 A 
ATOM     86  C   UNL A   1      46.195  30.930  28.005  1.00  0.00     0.148 A 
ATOM     87  C   UNL A   1      43.825  32.067  27.029  1.00  0.00     0.002 A 
ATOM     88  C   UNL A   1      46.238  32.066  27.206  1.00  0.00     0.091 A 
ATOM     89  F   UNL A   1      47.313  30.362  28.480  1.00  0.00    -0.205 F 
ATOM     90  C   UNL A   1      45.056  32.633  26.707  1.00  0.00     0.022 A 
BRANCH  88  91
ATOM     91  S   UNL A   1      47.780  32.923  26.874  1.00  0.00     0.127 S 
ATOM     92  O   UNL A   1      47.395  33.840  25.803  1.00  0.00    -0.237 OA
ATOM     93  O   UNL A   1      48.063  33.566  28.159  1.00  0.00    -0.237 OA
ATOM     94  O   UNL A   1      48.741  31.892  26.501  1.00  0.00    -0.744 OA
ENDBRANCH  88  91
ENDBRANCH  61  84
ENDBRANCH  35  36
ENDBRANCH  27  30
ENDBRANCH  25  26
ENDBRANCH  24  25
ENDBRANCH  23  24
ENDBRANCH   1  23
TORSDOF 20
ENDMDL
MODEL 3
REMARK VINA RESULT:     -10.7      1.600      2.054
REMARK SMILES Cc1cc(C)c2c(OCCCC(=O)NCCCCCCNC(=O)c3ccc(-c4c5nc(c(-c6cccc(S(=O)(=O)[O-])c6F)c6ccc([nH]6)c(-c6cccc(S(=O)(=O)[O-])c6F)c6nc(c(-c7cccc(S(=O)(=O)[O-])c7F)c7ccc4[nH]7)C=C6)C=C5)cc3)nsc2n1
REMARK SMILES IDX 17 1 16 2 15 3 14 4 12 5 13 6 11 8 10 9 9 10 8 11 7 12 1 13
REMARK SMILES IDX 2 14 3 15 90 16 4 17 89 18 5 19 6 20 88 21 87 22 18 23 19 24
REMARK SMILES IDX 20 25 21 26 22 27 23 29 24 30 25 31 86 32 26 33 85 34 27 35
REMARK SMILES IDX 28 36 29 37 79 38 30 39 84 40 78 41 80 42 31 43 83 44 77 45
REMARK SMILES IDX 76 46 32 48 64 49 44 50 63 51 45 52 48 53 62 54 81 55 46 56
REMARK SMILES IDX 47 57 61 59 82 60 49 61 33 62 34 63 42 64 35 65 37 66 43 67
REMARK SMILES IDX 36 68 38 69 39 70 40 71 41 72 65 73 66 74 74 75 67 76 69 77
REMARK SMILES IDX 75 78 68 79 70 80 71 81 72 82 73 83 50 84 51 85 59 86 52 87
REMARK SMILES IDX 54 88 60 89 53 90 55 91 56 92 57 93 58 94
REMARK H PARENT 14 7 21 28 80 47 48 58
REMARK Flexibility Score: inf
ROOT
ATOM      1  C   UNL A   1      32.642  27.823  26.018  1.00  0.00     0.002 C 
ENDROOT
BRANCH   1   2
ATOM      2  C   UNL A   1      31.761  28.493  24.950  1.00  0.00     0.021 C 
BRANCH   2   3
ATOM      3  C   UNL A   1      32.498  28.959  23.647  1.00  0.00     0.116 C 
BRANCH   3   4
ATOM      4  N   UNL A   1      33.003  27.830  22.711  1.00  0.00    -0.356 N 
ATOM      5  C   UNL A   1      33.560  26.594  22.490  1.00  0.00     0.220 C 
ATOM      6  O   UNL A   1      33.442  26.333  21.268  1.00  0.00    -0.275 OA
ATOM      7  H   UNL A   1      32.841  28.182  21.807  1.00  0.00     0.163 HD
BRANCH   5   8
ATOM      8  C   UNL A   1      34.110  25.320  23.381  1.00  0.00     0.103 C 
BRANCH   8   9
ATOM      9  C   UNL A   1      34.605  25.013  24.892  1.00  0.00     0.051 C 
BRANCH   9  10
ATOM     10  C   UNL A   1      35.123  23.702  25.647  1.00  0.00     0.232 C 
BRANCH  10  11
ATOM     11  O   UNL A   1      34.389  22.468  25.718  1.00  0.00    -0.477 OA
BRANCH  11  12
ATOM     12  C   UNL A   1      33.262  22.228  24.995  1.00  0.00     0.235 A 
ATOM     13  C   UNL A   1      29.644  26.061  23.649  1.00  0.00     0.067 C 
ATOM     14  C   UNL A   1      30.281  24.795  24.161  1.00  0.00     0.039 A 
ATOM     15  C   UNL A   1      30.570  24.668  25.518  1.00  0.00     0.027 A 
ATOM     16  N   UNL A   1      30.606  23.848  23.256  1.00  0.00    -0.240 NA
ATOM     17  C   UNL A   1      31.347  23.595  26.005  1.00  0.00    -0.034 A 
ATOM     18  C   UNL A   1      31.501  22.957  23.737  1.00  0.00     0.147 A 
ATOM     19  C   UNL A   1      31.594  23.141  27.394  1.00  0.00     0.045 C 
ATOM     20  C   UNL A   1      32.021  22.908  25.018  1.00  0.00     0.078 A 
ATOM     21  S   UNL A   1      32.188  21.659  22.879  1.00  0.00    -0.012 S 
ATOM     22  N   UNL A   1      33.429  21.389  23.972  1.00  0.00    -0.153 NA
ENDBRANCH  11  12
ENDBRANCH  10  11
ENDBRANCH   9  10
ENDBRANCH   8   9
ENDBRANCH   5   8
ENDBRANCH   3   4
ENDBRANCH   2   3
ENDBRANCH   1   2
BRANCH   1  23
ATOM     23  C   UNL A   1      34.009  28.463  26.344  1.00  0.00     0.002 C 
BRANCH  23  24
ATOM     24  C   UNL A   1      34.124  29.430  27.540  1.00  0.00     0.021 C 
BRANCH  24  25
ATOM     25  C   UNL A   1      34.714  30.803  27.238  1.00  0.00     0.116 C 
BRANCH  25  26
ATOM     26  N   UNL A   1      34.586  31.756  28.342  1.00  0.00    -0.352 N 
ATOM     27  C   UNL A   1      35.269  31.806  29.550  1.00  0.00     0.251 C 
ATOM     28  H   UNL A   1      33.918  32.467  28.208  1.00  0.00     0.163 HD
ATOM     29  O   UNL A   1      34.839  32.459  30.477  1.00  0.00    -0.269 OA
BRANCH  27  30
ATOM     30  C   UNL A   1      36.537  31.055  29.684  1.00  0.00     0.039 A 
ATOM     31  C   UNL A   1      36.562  29.728  30.121  1.00  0.00     0.014 A 
ATOM     32  C   UNL A   1      37.719  31.713  29.364  1.00  0.00     0.014 A 
ATOM     33  C   UNL A   1      37.787  29.067  30.171  1.00  0.00     0.010 A 
ATOM     34  C   UNL A   1      38.879  31.010  29.207  1.00  0.00     0.010 A 
ATOM     35  C   UNL A   1      38.938  29.719  29.696  1.00  0.00    -0.014 A 
BRANCH  35  36
ATOM     36  C   UNL A   1      40.220  29.039  29.622  1.00  0.00     0.031 A 
ATOM     37  C   UNL A   1      40.837  28.794  30.944  1.00  0.00     0.074 A 
ATOM     38  C   UNL A   1      40.717  28.522  28.477  1.00  0.00     0.049 A 
ATOM     39  N   UNL A   1      41.819  29.450  31.465  1.00  0.00    -0.248 NA
ATOM     40  C   UNL A   1      40.178  27.864  31.872  1.00  0.00     0.031 C 
ATOM     41  C   UNL A   1      40.073  28.409  27.160  1.00  0.00     0.029 A 
ATOM     42  N   UNL A   1      41.891  27.868  28.285  1.00  0.00    -0.354 N 
ATOM     43  C   UNL A   1      42.072  28.832  32.685  1.00  0.00     0.074 A 
ATOM     44  C   UNL A   1      40.907  28.041  32.977  1.00  0.00     0.031 C 
ATOM     45  C   UNL A   1      40.754  27.526  26.396  1.00  0.00     0.029 A 
ATOM     46  C   UNL A   1      41.972  27.160  27.089  1.00  0.00     0.049 A 
ATOM     47  H   UNL A   1      42.627  27.893  28.938  1.00  0.00     0.167 HD
ATOM     48  C   UNL A   1      43.330  28.819  33.204  1.00  0.00     0.034 A 
ATOM     49  C   UNL A   1      42.969  26.316  26.724  1.00  0.00     0.034 A 
ATOM     50  C   UNL A   1      44.184  29.752  32.504  1.00  0.00     0.049 A 
ATOM     51  C   UNL A   1      44.154  26.695  27.527  1.00  0.00     0.074 A 
ATOM     52  C   UNL A   1      44.170  31.116  32.284  1.00  0.00     0.029 A 
ATOM     53  N   UNL A   1      45.015  29.221  31.547  1.00  0.00    -0.354 N 
ATOM     54  N   UNL A   1      44.766  27.840  27.406  1.00  0.00    -0.248 NA
ATOM     55  C   UNL A   1      44.386  25.986  28.773  1.00  0.00     0.031 C 
ATOM     56  C   UNL A   1      44.616  31.274  30.938  1.00  0.00     0.029 A 
ATOM     57  C   UNL A   1      44.947  30.015  30.433  1.00  0.00     0.049 A 
ATOM     58  H   UNL A   1      45.564  28.409  31.645  1.00  0.00     0.167 HD
ATOM     59  C   UNL A   1      45.058  28.210  28.712  1.00  0.00     0.074 A 
ATOM     60  C   UNL A   1      44.905  26.982  29.494  1.00  0.00     0.031 C 
ATOM     61  C   UNL A   1      45.107  29.524  29.079  1.00  0.00     0.034 A 
BRANCH  48  62
ATOM     62  C   UNL A   1      43.917  27.719  34.061  1.00  0.00     0.023 A 
ATOM     63  C   UNL A   1      44.477  26.613  33.382  1.00  0.00     0.012 A 
ATOM     64  C   UNL A   1      43.720  27.578  35.453  1.00  0.00     0.148 A 
ATOM     65  C   UNL A   1      44.761  25.411  34.038  1.00  0.00     0.002 A 
ATOM     66  C   UNL A   1      44.078  26.410  36.117  1.00  0.00     0.091 A 
ATOM     67  F   UNL A   1      43.064  28.517  36.138  1.00  0.00    -0.205 F 
ATOM     68  C   UNL A   1      44.567  25.311  35.408  1.00  0.00     0.022 A 
BRANCH  66  69
ATOM     69  S   UNL A   1      43.898  26.239  37.897  1.00  0.00     0.127 S 
ATOM     70  O   UNL A   1      42.446  26.192  38.042  1.00  0.00    -0.237 OA
ATOM     71  O   UNL A   1      44.588  24.973  38.144  1.00  0.00    -0.237 OA
ATOM     72  O   UNL A   1      44.560  27.402  38.474  1.00  0.00    -0.744 OA
ENDBRANCH  66  69
ENDBRANCH  48  62
BRANCH  49  73
ATOM     73  C   UNL A   1      42.913  25.034  25.982  1.00  0.00     0.023 A 
ATOM     74  C   UNL A   1      43.907  24.752  25.021  1.00  0.00     0.012 A 
ATOM     75  C   UNL A   1      42.110  23.968  26.443  1.00  0.00     0.148 A 
ATOM     76  C   UNL A   1      44.136  23.443  24.580  1.00  0.00     0.002 A 
ATOM     77  C   UNL A   1      42.346  22.667  26.007  1.00  0.00     0.091 A 
ATOM     78  F   UNL A   1      41.184  24.217  27.379  1.00  0.00    -0.205 F 
ATOM     79  C   UNL A   1      43.367  22.398  25.086  1.00  0.00     0.022 A 
BRANCH  77  80
ATOM     80  S   UNL A   1      41.438  21.256  26.657  1.00  0.00     0.127 S 
ATOM     81  O   UNL A   1      41.812  21.283  28.071  1.00  0.00    -0.237 OA
ATOM     82  O   UNL A   1      40.056  21.634  26.381  1.00  0.00    -0.237 OA
ATOM     83  O   UNL A   1      41.930  20.093  25.928  1.00  0.00    -0.744 OA
ENDBRANCH  77  80
ENDBRANCH  49  73
BRANCH  61  84
ATOM     84  C   UNL A   1      45.083  30.571  27.988  1.00  0.00     0.023 A 
ATOM     85  C   UNL A   1      43.888  31.019  27.384  1.00  0.00     0.012 A 
ATOM     86  C   UNL A   1      46.278  31.255  27.706  1.00  0.00     0.148 A 
ATOM     87  C   UNL A   1      43.889  32.115  26.515  1.00  0.00     0.002 A 
ATOM     88  C   UNL A   1      46.266  32.375  26.884  1.00  0.00     0.091 A 
ATOM     89  F   UNL A   1      47.407  30.817  28.284  1.00  0.00    -0.205 F 
ATOM     90  C   UNL A   1      45.076  32.804  26.278  1.00  0.00     0.022 A 
BRANCH  88  91
ATOM     91  S   UNL A   1      47.731  33.387  26.656  1.00  0.00     0.127 S 
ATOM     92  O   UNL A   1      47.324  34.272  25.566  1.00  0.00    -0.237 OA
ATOM     93  O   UNL A   1      47.866  34.041  27.958  1.00  0.00    -0.237 OA
ATOM     94  O   UNL A   1      48.813  32.462  26.340  1.00  0.00    -0.744 OA
ENDBRANCH  88  91
ENDBRANCH  61  84
ENDBRANCH  35  36
ENDBRANCH  27  30
ENDBRANCH  25  26
ENDBRANCH  24  25
ENDBRANCH  23  24
ENDBRANCH   1  23
TORSDOF 20
ENDMDL
