MODEL 1
REMARK VINA RESULT:      -9.2      0.000      0.000
REMARK SMILES O=C(CCn1cc(/C=C2/[NH+]=C(S)N(c3ccccc3)C2=O)c(-c2ccc(Br)cc2)n1)NCCCCCCNC(=O)c1ccc(-c2c3nc(c(-c4cccc(S(=O)(=O)[O-])c4F)c4ccc([nH]4)c(-c4cccc(S(=O)(=O)[O-])c4F)c4nc(c(-c5cccc(S(=O)(=O)[O-])c5F)c5ccc2[nH]5)C=C4)C=C3)cc1
REMARK SMILES IDX 34 1 33 2 32 3 31 4 1 5 2 6 3 8 4 9 5 10 6 11 30 12 7 13
REMARK SMILES IDX 22 14 8 15 9 16 10 17 20 18 11 19 13 21 21 22 12 23 14 25
REMARK SMILES IDX 15 26 19 27 16 28 18 29 17 30 23 31 24 32 29 33 25 34 28 35
REMARK SMILES IDX 26 36 27 37 35 38 36 39 37 40 38 41 39 42 40 44 41 45 42 46
REMARK SMILES IDX 103 47 43 48 102 49 44 50 45 51 46 52 96 53 47 54 101 55
REMARK SMILES IDX 95 56 97 57 48 58 100 59 94 60 93 61 49 63 81 64 61 65 80 66
REMARK SMILES IDX 62 67 65 68 79 69 98 70 63 71 64 72 78 74 99 75 66 76 50 77
REMARK SMILES IDX 51 78 59 79 52 80 54 81 60 82 53 83 55 84 56 85 57 86 58 87
REMARK SMILES IDX 82 88 83 89 91 90 84 91 86 92 92 93 85 94 87 95 88 96 89 97
REMARK SMILES IDX 90 98 67 99 68 100 76 101 69 102 71 103 77 104 70 105 72 106
REMARK SMILES IDX 73 107 74 108 75 109
REMARK H PARENT 31 7 10 20 12 24 38 43 97 62 65 73
REMARK Flexibility Score: inf
ROOT
ATOM      1  C   UNL A   1      46.516  20.759  34.983  1.00  0.00     0.002 C 
ENDROOT
BRANCH   1   2
ATOM      2  C   UNL A   1      45.040  21.157  35.088  1.00  0.00     0.021 C 
BRANCH   2   3
ATOM      3  C   UNL A   1      44.616  22.345  34.220  1.00  0.00     0.116 C 
BRANCH   3   4
ATOM      4  N   UNL A   1      43.376  22.917  34.701  1.00  0.00    -0.356 N 
ATOM      5  O   UNL A   1      44.181  24.973  35.335  1.00  0.00    -0.275 OA
ATOM      6  C   UNL A   1      43.269  24.156  35.275  1.00  0.00     0.221 C 
ATOM      7  H   UNL A   1      42.555  22.380  34.608  1.00  0.00     0.163 HD
BRANCH   6   8
ATOM      8  C   UNL A   1      41.916  24.430  35.894  1.00  0.00     0.123 C 
BRANCH   8   9
ATOM      9  C   UNL A   1      41.835  25.791  36.569  1.00  0.00     0.154 C 
BRANCH   9  10
ATOM     10  N   UNL A   1      41.589  26.929  35.698  1.00  0.00    -0.271 N 
ATOM     11  C   UNL A   1      41.848  28.252  35.933  1.00  0.00     0.117 A 
ATOM     12  N   UNL A   1      41.113  26.699  34.462  1.00  0.00    -0.172 NA
ATOM     13  C   UNL A   1      41.423  28.936  34.812  1.00  0.00     0.025 A 
ATOM     14  C   UNL A   1      41.033  27.911  33.892  1.00  0.00     0.100 A 
BRANCH  13  15
ATOM     15  C   UNL A   1      41.519  30.356  34.642  1.00  0.00     0.072 C 
ATOM     16  C   UNL A   1      40.564  31.257  34.350  1.00  0.00     0.217 C 
ATOM     17  N   UNL A   1      40.845  32.555  33.985  1.00  0.00    -0.228 N 
ATOM     18  C   UNL A   1      39.085  31.063  34.271  1.00  0.00     0.386 C 
ATOM     19  C   UNL A   1      39.703  33.036  33.592  1.00  0.00     0.321 C 
ATOM     20  H   UNL A   1      41.715  33.015  34.015  1.00  0.00     0.313 HD
ATOM     21  N   UNL A   1      38.626  32.199  33.660  1.00  0.00    -0.149 N 
ATOM     22  O   UNL A   1      38.456  30.110  34.709  1.00  0.00    -0.236 OA
BRANCH  19  23
ATOM     23  S   UNL A   1      39.600  34.697  33.108  1.00  0.00    -0.055 SA
ATOM     24  H   UNL A   1      40.571  34.964  32.194  1.00  0.00     0.116 HD
ENDBRANCH  19  23
BRANCH  21  25
ATOM     25  C   UNL A   1      37.289  32.342  33.193  1.00  0.00     0.137 A 
ATOM     26  C   UNL A   1      36.278  32.894  33.992  1.00  0.00     0.052 A 
ATOM     27  C   UNL A   1      36.952  32.016  31.867  1.00  0.00     0.052 A 
ATOM     28  C   UNL A   1      34.982  33.085  33.494  1.00  0.00     0.004 A 
ATOM     29  C   UNL A   1      35.659  32.200  31.369  1.00  0.00     0.004 A 
ATOM     30  C   UNL A   1      34.672  32.733  32.185  1.00  0.00     0.000 A 
ENDBRANCH  21  25
ENDBRANCH  13  15
BRANCH  14  31
ATOM     31  C   UNL A   1      40.616  28.055  32.500  1.00  0.00     0.003 A 
ATOM     32  C   UNL A   1      41.552  28.402  31.516  1.00  0.00     0.011 A 
ATOM     33  C   UNL A   1      39.254  27.997  32.170  1.00  0.00     0.011 A 
ATOM     34  C   UNL A   1      41.124  28.767  30.238  1.00  0.00     0.016 A 
ATOM     35  C   UNL A   1      38.825  28.375  30.895  1.00  0.00     0.016 A 
ATOM     36  C   UNL A   1      39.761  28.772  29.942  1.00  0.00     0.018 A 
ATOM     37  Br  UNL A   1      39.179  29.357  28.242  1.00  0.00    -0.051 Br
ENDBRANCH  14  31
ENDBRANCH   9  10
ENDBRANCH   8   9
ENDBRANCH   6   8
ENDBRANCH   3   4
ENDBRANCH   2   3
ENDBRANCH   1   2
BRANCH   1  38
ATOM     38  C   UNL A   1      47.488  21.876  34.609  1.00  0.00     0.002 C 
BRANCH  38  39
ATOM     39  C   UNL A   1      48.153  22.653  35.749  1.00  0.00     0.021 C 
BRANCH  39  40
ATOM     40  C   UNL A   1      47.370  23.880  36.193  1.00  0.00     0.116 C 
BRANCH  40  41
ATOM     41  N   UNL A   1      48.227  24.916  36.786  1.00  0.00    -0.352 N 
ATOM     42  C   UNL A   1      48.915  25.926  36.144  1.00  0.00     0.251 C 
ATOM     43  H   UNL A   1      48.324  24.884  37.765  1.00  0.00     0.163 HD
ATOM     44  O   UNL A   1      49.846  26.506  36.693  1.00  0.00    -0.269 OA
BRANCH  42  45
ATOM     45  C   UNL A   1      48.486  26.296  34.784  1.00  0.00     0.039 A 
ATOM     46  C   UNL A   1      49.014  25.675  33.650  1.00  0.00     0.014 A 
ATOM     47  C   UNL A   1      47.463  27.233  34.679  1.00  0.00     0.014 A 
ATOM     48  C   UNL A   1      48.430  25.935  32.411  1.00  0.00     0.010 A 
ATOM     49  C   UNL A   1      46.791  27.363  33.491  1.00  0.00     0.010 A 
ATOM     50  C   UNL A   1      47.296  26.761  32.341  1.00  0.00    -0.014 A 
BRANCH  50  51
ATOM     51  C   UNL A   1      46.550  26.910  31.094  1.00  0.00     0.031 A 
ATOM     52  C   UNL A   1      45.690  25.746  30.734  1.00  0.00     0.074 A 
ATOM     53  C   UNL A   1      46.447  28.092  30.445  1.00  0.00     0.049 A 
ATOM     54  N   UNL A   1      45.832  24.933  29.739  1.00  0.00    -0.248 NA
ATOM     55  C   UNL A   1      44.625  25.355  31.671  1.00  0.00     0.031 C 
ATOM     56  C   UNL A   1      46.961  29.398  30.882  1.00  0.00     0.029 A 
ATOM     57  N   UNL A   1      45.719  28.413  29.339  1.00  0.00    -0.354 N 
ATOM     58  C   UNL A   1      44.722  24.088  29.784  1.00  0.00     0.074 A 
ATOM     59  C   UNL A   1      44.155  24.247  31.095  1.00  0.00     0.031 C 
ATOM     60  C   UNL A   1      46.308  30.381  30.227  1.00  0.00     0.029 A 
ATOM     61  C   UNL A   1      45.489  29.779  29.196  1.00  0.00     0.049 A 
ATOM     62  H   UNL A   1      45.388  27.742  28.700  1.00  0.00     0.167 HD
ATOM     63  C   UNL A   1      44.198  23.549  28.646  1.00  0.00     0.034 A 
ATOM     64  C   UNL A   1      44.655  30.376  28.315  1.00  0.00     0.034 A 
ATOM     65  C   UNL A   1      45.102  23.713  27.535  1.00  0.00     0.049 A 
ATOM     66  C   UNL A   1      44.422  29.412  27.222  1.00  0.00     0.074 A 
ATOM     67  C   UNL A   1      46.375  23.298  27.214  1.00  0.00     0.029 A 
ATOM     68  N   UNL A   1      44.799  24.751  26.690  1.00  0.00    -0.354 N 
ATOM     69  N   UNL A   1      45.352  29.012  26.401  1.00  0.00    -0.248 NA
ATOM     70  C   UNL A   1      43.218  28.599  27.250  1.00  0.00     0.031 C 
ATOM     71  C   UNL A   1      46.933  24.366  26.449  1.00  0.00     0.029 A 
ATOM     72  C   UNL A   1      45.958  25.356  26.295  1.00  0.00     0.049 A 
ATOM     73  H   UNL A   1      43.892  25.017  26.414  1.00  0.00     0.167 HD
ATOM     74  C   UNL A   1      45.051  27.678  26.172  1.00  0.00     0.074 A 
ATOM     75  C   UNL A   1      43.656  27.535  26.573  1.00  0.00     0.031 C 
ATOM     76  C   UNL A   1      46.046  26.764  25.973  1.00  0.00     0.034 A 
BRANCH  63  77
ATOM     77  C   UNL A   1      42.723  23.273  28.390  1.00  0.00     0.023 A 
ATOM     78  C   UNL A   1      42.371  21.944  28.047  1.00  0.00     0.012 A 
ATOM     79  C   UNL A   1      41.738  24.262  28.169  1.00  0.00     0.148 A 
ATOM     80  C   UNL A   1      41.146  21.631  27.448  1.00  0.00     0.002 A 
ATOM     81  C   UNL A   1      40.491  23.934  27.647  1.00  0.00     0.091 A 
ATOM     82  F   UNL A   1      42.033  25.553  28.328  1.00  0.00    -0.205 F 
ATOM     83  C   UNL A   1      40.200  22.628  27.251  1.00  0.00     0.022 A 
BRANCH  81  84
ATOM     84  S   UNL A   1      39.211  25.177  27.415  1.00  0.00     0.127 S 
ATOM     85  O   UNL A   1      38.956  25.591  28.791  1.00  0.00    -0.237 OA
ATOM     86  O   UNL A   1      39.901  26.165  26.586  1.00  0.00    -0.237 OA
ATOM     87  O   UNL A   1      38.118  24.489  26.737  1.00  0.00    -0.744 OA
ENDBRANCH  81  84
ENDBRANCH  63  77
BRANCH  64  88
ATOM     88  C   UNL A   1      43.878  31.629  28.429  1.00  0.00     0.023 A 
ATOM     89  C   UNL A   1      43.094  31.859  29.577  1.00  0.00     0.012 A 
ATOM     90  C   UNL A   1      44.134  32.716  27.564  1.00  0.00     0.148 A 
ATOM     91  C   UNL A   1      42.623  33.140  29.883  1.00  0.00     0.002 A 
ATOM     92  C   UNL A   1      43.661  33.988  27.872  1.00  0.00     0.091 A 
ATOM     93  F   UNL A   1      44.917  32.518  26.495  1.00  0.00    -0.205 F 
ATOM     94  C   UNL A   1      42.918  34.207  29.039  1.00  0.00     0.022 A 
BRANCH  92  95
ATOM     95  S   UNL A   1      44.023  35.422  26.849  1.00  0.00     0.127 S 
ATOM     96  O   UNL A   1      42.997  35.320  25.811  1.00  0.00    -0.237 OA
ATOM     97  O   UNL A   1      43.833  36.521  27.792  1.00  0.00    -0.237 OA
ATOM     98  O   UNL A   1      45.384  35.232  26.365  1.00  0.00    -0.744 OA
ENDBRANCH  92  95
ENDBRANCH  64  88
BRANCH  76  99
ATOM     99  C   UNL A   1      47.416  27.281  25.614  1.00  0.00     0.023 A 
ATOM    100  C   UNL A   1      48.401  27.574  26.579  1.00  0.00     0.012 A 
ATOM    101  C   UNL A   1      47.763  27.316  24.253  1.00  0.00     0.148 A 
ATOM    102  C   UNL A   1      49.700  27.914  26.190  1.00  0.00     0.002 A 
ATOM    103  C   UNL A   1      49.065  27.605  23.873  1.00  0.00     0.091 A 
ATOM    104  F   UNL A   1      46.809  27.037  23.351  1.00  0.00    -0.205 F 
ATOM    105  C   UNL A   1      50.037  27.915  24.838  1.00  0.00     0.022 A 
BRANCH 103 106
ATOM    106  S   UNL A   1      49.583  27.489  22.160  1.00  0.00     0.127 S 
ATOM    107  O   UNL A   1      49.265  28.822  21.654  1.00  0.00    -0.237 OA
ATOM    108  O   UNL A   1      51.014  27.205  22.283  1.00  0.00    -0.237 OA
ATOM    109  O   UNL A   1      48.812  26.395  21.582  1.00  0.00    -0.744 OA
ENDBRANCH 103 106
ENDBRANCH  76  99
ENDBRANCH  50  51
ENDBRANCH  42  45
ENDBRANCH  40  41
ENDBRANCH  39  40
ENDBRANCH  38  39
ENDBRANCH   1  38
TORSDOF 22
ENDMDL
MODEL 2
REMARK VINA RESULT:      -9.1      5.010     10.865
REMARK SMILES O=C(CCn1cc(/C=C2/[NH+]=C(S)N(c3ccccc3)C2=O)c(-c2ccc(Br)cc2)n1)NCCCCCCNC(=O)c1ccc(-c2c3nc(c(-c4cccc(S(=O)(=O)[O-])c4F)c4ccc([nH]4)c(-c4cccc(S(=O)(=O)[O-])c4F)c4nc(c(-c5cccc(S(=O)(=O)[O-])c5F)c5ccc2[nH]5)C=C4)C=C3)cc1
REMARK SMILES IDX 34 1 33 2 32 3 31 4 1 5 2 6 3 8 4 9 5 10 6 11 30 12 7 13
REMARK SMILES IDX 22 14 8 15 9 16 10 17 20 18 11 19 13 21 21 22 12 23 14 25
REMARK SMILES IDX 15 26 19 27 16 28 18 29 17 30 23 31 24 32 29 33 25 34 28 35
REMARK SMILES IDX 26 36 27 37 35 38 36 39 37 40 38 41 39 42 40 44 41 45 42 46
REMARK SMILES IDX 103 47 43 48 102 49 44 50 45 51 46 52 96 53 47 54 101 55
REMARK SMILES IDX 95 56 97 57 48 58 100 59 94 60 93 61 49 63 81 64 61 65 80 66
REMARK SMILES IDX 62 67 65 68 79 69 98 70 63 71 64 72 78 74 99 75 66 76 50 77
REMARK SMILES IDX 51 78 59 79 52 80 54 81 60 82 53 83 55 84 56 85 57 86 58 87
REMARK SMILES IDX 82 88 83 89 91 90 84 91 86 92 92 93 85 94 87 95 88 96 89 97
REMARK SMILES IDX 90 98 67 99 68 100 76 101 69 102 71 103 77 104 70 105 72 106
REMARK SMILES IDX 73 107 74 108 75 109
REMARK H PARENT 31 7 10 20 12 24 38 43 97 62 65 73
REMARK Flexibility Score: inf
ROOT
ATOM      1  C   UNL A   1      40.344  34.726  30.003  1.00  0.00     0.002 C 
ENDROOT
BRANCH   1   2
ATOM      2  C   UNL A   1      39.089  34.187  29.309  1.00  0.00     0.021 C 
BRANCH   2   3
ATOM      3  C   UNL A   1      38.584  32.836  29.822  1.00  0.00     0.116 C 
BRANCH   3   4
ATOM      4  N   UNL A   1      37.660  32.241  28.878  1.00  0.00    -0.356 N 
ATOM      5  O   UNL A   1      35.715  32.594  30.049  1.00  0.00    -0.275 OA
ATOM      6  C   UNL A   1      36.314  32.111  29.095  1.00  0.00     0.221 C 
ATOM      7  H   UNL A   1      38.023  31.908  28.026  1.00  0.00     0.163 HD
BRANCH   6   8
ATOM      8  C   UNL A   1      35.606  31.259  28.063  1.00  0.00     0.123 C 
BRANCH   8   9
ATOM      9  C   UNL A   1      34.231  31.793  27.693  1.00  0.00     0.154 C 
BRANCH   9  10
ATOM     10  N   UNL A   1      33.287  30.827  27.156  1.00  0.00    -0.271 N 
ATOM     11  C   UNL A   1      32.975  29.584  27.638  1.00  0.00     0.117 A 
ATOM     12  N   UNL A   1      32.546  31.178  26.090  1.00  0.00    -0.172 NA
ATOM     13  C   UNL A   1      32.039  29.056  26.772  1.00  0.00     0.025 A 
ATOM     14  C   UNL A   1      31.753  30.120  25.858  1.00  0.00     0.100 A 
BRANCH  13  15
ATOM     15  C   UNL A   1      31.437  27.763  26.917  1.00  0.00     0.072 C 
ATOM     16  C   UNL A   1      31.912  26.548  26.589  1.00  0.00     0.217 C 
ATOM     17  N   UNL A   1      31.126  25.416  26.569  1.00  0.00    -0.228 N 
ATOM     18  C   UNL A   1      33.278  26.171  26.116  1.00  0.00     0.386 C 
ATOM     19  C   UNL A   1      31.876  24.511  26.015  1.00  0.00     0.321 C 
ATOM     20  H   UNL A   1      30.204  25.317  26.900  1.00  0.00     0.313 HD
ATOM     21  N   UNL A   1      33.136  24.892  25.652  1.00  0.00    -0.149 N 
ATOM     22  O   UNL A   1      34.284  26.863  26.190  1.00  0.00    -0.236 OA
BRANCH  19  23
ATOM     23  S   UNL A   1      31.280  22.890  25.862  1.00  0.00    -0.055 SA
ATOM     24  H   UNL A   1      32.326  22.038  25.685  1.00  0.00     0.116 HD
ENDBRANCH  19  23
BRANCH  21  25
ATOM     25  C   UNL A   1      34.149  24.218  24.912  1.00  0.00     0.137 A 
ATOM     26  C   UNL A   1      33.980  23.877  23.563  1.00  0.00     0.052 A 
ATOM     27  C   UNL A   1      35.404  23.953  25.489  1.00  0.00     0.052 A 
ATOM     28  C   UNL A   1      35.012  23.270  22.834  1.00  0.00     0.004 A 
ATOM     29  C   UNL A   1      36.433  23.343  24.766  1.00  0.00     0.004 A 
ATOM     30  C   UNL A   1      36.235  22.999  23.437  1.00  0.00     0.000 A 
ENDBRANCH  21  25
ENDBRANCH  13  15
BRANCH  14  31
ATOM     31  C   UNL A   1      30.745  30.160  24.802  1.00  0.00     0.003 A 
ATOM     32  C   UNL A   1      30.748  29.192  23.788  1.00  0.00     0.011 A 
ATOM     33  C   UNL A   1      29.869  31.251  24.715  1.00  0.00     0.011 A 
ATOM     34  C   UNL A   1      29.944  29.356  22.659  1.00  0.00     0.016 A 
ATOM     35  C   UNL A   1      29.073  31.421  23.579  1.00  0.00     0.016 A 
ATOM     36  C   UNL A   1      29.127  30.481  22.552  1.00  0.00     0.018 A 
ATOM     37  Br  UNL A   1      28.110  30.748  20.981  1.00  0.00    -0.051 Br
ENDBRANCH  14  31
ENDBRANCH   9  10
ENDBRANCH   8   9
ENDBRANCH   6   8
ENDBRANCH   3   4
ENDBRANCH   2   3
ENDBRANCH   1   2
BRANCH   1  38
ATOM     38  C   UNL A   1      41.601  34.818  29.142  1.00  0.00     0.002 C 
BRANCH  38  39
ATOM     39  C   UNL A   1      41.790  36.076  28.288  1.00  0.00     0.021 C 
BRANCH  39  40
ATOM     40  C   UNL A   1      41.989  35.787  26.807  1.00  0.00     0.116 C 
BRANCH  40  41
ATOM     41  N   UNL A   1      43.329  36.157  26.332  1.00  0.00    -0.352 N 
ATOM     42  C   UNL A   1      44.531  35.530  26.595  1.00  0.00     0.251 C 
ATOM     43  H   UNL A   1      43.375  36.951  25.754  1.00  0.00     0.163 HD
ATOM     44  O   UNL A   1      45.597  36.113  26.428  1.00  0.00    -0.269 OA
BRANCH  42  45
ATOM     45  C   UNL A   1      44.494  34.137  27.069  1.00  0.00     0.039 A 
ATOM     46  C   UNL A   1      44.196  33.074  26.212  1.00  0.00     0.014 A 
ATOM     47  C   UNL A   1      44.857  33.910  28.393  1.00  0.00     0.014 A 
ATOM     48  C   UNL A   1      44.365  31.771  26.677  1.00  0.00     0.010 A 
ATOM     49  C   UNL A   1      45.174  32.639  28.794  1.00  0.00     0.010 A 
ATOM     50  C   UNL A   1      44.883  31.559  27.965  1.00  0.00    -0.014 A 
BRANCH  50  51
ATOM     51  C   UNL A   1      45.245  30.217  28.418  1.00  0.00     0.031 A 
ATOM     52  C   UNL A   1      46.492  29.666  27.815  1.00  0.00     0.074 A 
ATOM     53  C   UNL A   1      44.649  29.622  29.476  1.00  0.00     0.049 A 
ATOM     54  N   UNL A   1      46.605  28.665  27.003  1.00  0.00    -0.248 NA
ATOM     55  C   UNL A   1      47.750  30.399  28.029  1.00  0.00     0.031 C 
ATOM     56  C   UNL A   1      43.641  30.202  30.376  1.00  0.00     0.029 A 
ATOM     57  N   UNL A   1      44.934  28.432  30.075  1.00  0.00    -0.354 N 
ATOM     58  C   UNL A   1      47.976  28.490  26.814  1.00  0.00     0.074 A 
ATOM     59  C   UNL A   1      48.601  29.700  27.276  1.00  0.00     0.031 C 
ATOM     60  C   UNL A   1      43.612  29.503  31.530  1.00  0.00     0.029 A 
ATOM     61  C   UNL A   1      44.439  28.325  31.372  1.00  0.00     0.049 A 
ATOM     62  H   UNL A   1      45.441  27.715  29.632  1.00  0.00     0.167 HD
ATOM     63  C   UNL A   1      48.503  27.257  26.564  1.00  0.00     0.034 A 
ATOM     64  C   UNL A   1      44.717  27.354  32.272  1.00  0.00     0.034 A 
ATOM     65  C   UNL A   1      47.466  26.314  26.225  1.00  0.00     0.049 A 
ATOM     66  C   UNL A   1      45.209  26.190  31.509  1.00  0.00     0.074 A 
ATOM     67  C   UNL A   1      46.526  26.179  25.228  1.00  0.00     0.029 A 
ATOM     68  N   UNL A   1      47.079  25.486  27.248  1.00  0.00    -0.354 N 
ATOM     69  N   UNL A   1      44.472  25.508  30.677  1.00  0.00    -0.248 NA
ATOM     70  C   UNL A   1      46.642  25.984  31.394  1.00  0.00     0.031 C 
ATOM     71  C   UNL A   1      45.400  25.569  25.858  1.00  0.00     0.029 A 
ATOM     72  C   UNL A   1      45.725  25.313  27.193  1.00  0.00     0.049 A 
ATOM     73  H   UNL A   1      47.680  25.083  27.916  1.00  0.00     0.167 HD
ATOM     74  C   UNL A   1      45.346  25.166  29.655  1.00  0.00     0.074 A 
ATOM     75  C   UNL A   1      46.677  25.331  30.229  1.00  0.00     0.031 C 
ATOM     76  C   UNL A   1      44.908  25.081  28.365  1.00  0.00     0.034 A 
BRANCH  63  77
ATOM     77  C   UNL A   1      49.859  26.754  27.039  1.00  0.00     0.023 A 
ATOM     78  C   UNL A   1      50.244  27.101  28.357  1.00  0.00     0.012 A 
ATOM     79  C   UNL A   1      50.875  26.245  26.200  1.00  0.00     0.148 A 
ATOM     80  C   UNL A   1      51.572  27.020  28.789  1.00  0.00     0.002 A 
ATOM     81  C   UNL A   1      52.180  26.091  26.658  1.00  0.00     0.091 A 
ATOM     82  F   UNL A   1      50.634  26.028  24.906  1.00  0.00    -0.205 F 
ATOM     83  C   UNL A   1      52.544  26.510  27.939  1.00  0.00     0.022 A 
BRANCH  81  84
ATOM     84  S   UNL A   1      53.468  25.390  25.616  1.00  0.00     0.127 S 
ATOM     85  O   UNL A   1      54.624  25.448  26.504  1.00  0.00    -0.237 OA
ATOM     86  O   UNL A   1      52.947  24.048  25.360  1.00  0.00    -0.237 OA
ATOM     87  O   UNL A   1      53.520  26.244  24.435  1.00  0.00    -0.744 OA
ENDBRANCH  81  84
ENDBRANCH  63  77
BRANCH  64  88
ATOM     88  C   UNL A   1      44.787  27.407  33.748  1.00  0.00     0.023 A 
ATOM     89  C   UNL A   1      45.612  28.365  34.370  1.00  0.00     0.012 A 
ATOM     90  C   UNL A   1      43.835  26.727  34.539  1.00  0.00     0.148 A 
ATOM     91  C   UNL A   1      45.459  28.675  35.726  1.00  0.00     0.002 A 
ATOM     92  C   UNL A   1      43.688  27.038  35.888  1.00  0.00     0.091 A 
ATOM     93  F   UNL A   1      43.014  25.849  33.947  1.00  0.00    -0.205 F 
ATOM     94  C   UNL A   1      44.489  28.023  36.481  1.00  0.00     0.022 A 
BRANCH  92  95
ATOM     95  S   UNL A   1      42.439  26.263  36.923  1.00  0.00     0.127 S 
ATOM     96  O   UNL A   1      42.548  24.858  36.527  1.00  0.00    -0.237 OA
ATOM     97  O   UNL A   1      42.932  26.561  38.265  1.00  0.00    -0.237 OA
ATOM     98  O   UNL A   1      41.175  26.890  36.559  1.00  0.00    -0.744 OA
ENDBRANCH  92  95
ENDBRANCH  64  88
BRANCH  76  99
ATOM     99  C   UNL A   1      43.423  24.973  28.130  1.00  0.00     0.023 A 
ATOM    100  C   UNL A   1      42.718  23.756  28.233  1.00  0.00     0.012 A 
ATOM    101  C   UNL A   1      42.702  26.166  27.957  1.00  0.00     0.148 A 
ATOM    102  C   UNL A   1      41.323  23.732  28.146  1.00  0.00     0.002 A 
ATOM    103  C   UNL A   1      41.315  26.144  27.922  1.00  0.00     0.091 A 
ATOM    104  F   UNL A   1      43.392  27.313  27.858  1.00  0.00    -0.205 F 
ATOM    105  C   UNL A   1      40.620  24.927  28.006  1.00  0.00     0.022 A 
BRANCH 103 106
ATOM    106  S   UNL A   1      40.360  27.662  27.878  1.00  0.00     0.127 S 
ATOM    107  O   UNL A   1      40.957  28.429  28.968  1.00  0.00    -0.237 OA
ATOM    108  O   UNL A   1      40.649  28.175  26.537  1.00  0.00    -0.237 OA
ATOM    109  O   UNL A   1      38.971  27.266  28.073  1.00  0.00    -0.744 OA
ENDBRANCH 103 106
ENDBRANCH  76  99
ENDBRANCH  50  51
ENDBRANCH  42  45
ENDBRANCH  40  41
ENDBRANCH  39  40
ENDBRANCH  38  39
ENDBRANCH   1  38
TORSDOF 22
ENDMDL
MODEL 3
REMARK VINA RESULT:      -8.9      5.807     11.427
REMARK SMILES O=C(CCn1cc(/C=C2/[NH+]=C(S)N(c3ccccc3)C2=O)c(-c2ccc(Br)cc2)n1)NCCCCCCNC(=O)c1ccc(-c2c3nc(c(-c4cccc(S(=O)(=O)[O-])c4F)c4ccc([nH]4)c(-c4cccc(S(=O)(=O)[O-])c4F)c4nc(c(-c5cccc(S(=O)(=O)[O-])c5F)c5ccc2[nH]5)C=C4)C=C3)cc1
REMARK SMILES IDX 34 1 33 2 32 3 31 4 1 5 2 6 3 8 4 9 5 10 6 11 30 12 7 13
REMARK SMILES IDX 22 14 8 15 9 16 10 17 20 18 11 19 13 21 21 22 12 23 14 25
REMARK SMILES IDX 15 26 19 27 16 28 18 29 17 30 23 31 24 32 29 33 25 34 28 35
REMARK SMILES IDX 26 36 27 37 35 38 36 39 37 40 38 41 39 42 40 44 41 45 42 46
REMARK SMILES IDX 103 47 43 48 102 49 44 50 45 51 46 52 96 53 47 54 101 55
REMARK SMILES IDX 95 56 97 57 48 58 100 59 94 60 93 61 49 63 81 64 61 65 80 66
REMARK SMILES IDX 62 67 65 68 79 69 98 70 63 71 64 72 78 74 99 75 66 76 50 77
REMARK SMILES IDX 51 78 59 79 52 80 54 81 60 82 53 83 55 84 56 85 57 86 58 87
REMARK SMILES IDX 82 88 83 89 91 90 84 91 86 92 92 93 85 94 87 95 88 96 89 97
REMARK SMILES IDX 90 98 67 99 68 100 76 101 69 102 71 103 77 104 70 105 72 106
REMARK SMILES IDX 73 107 74 108 75 109
REMARK H PARENT 31 7 10 20 12 24 38 43 97 62 65 73
REMARK Flexibility Score: inf
ROOT
ATOM      1  C   UNL A   1      43.946  23.695  30.370  1.00  0.00     0.002 C 
ENDROOT
BRANCH   1   2
ATOM      2  C   UNL A   1      42.866  22.978  29.552  1.00  0.00     0.021 C 
BRANCH   2   3
ATOM      3  C   UNL A   1      43.206  22.743  28.078  1.00  0.00     0.116 C 
BRANCH   3   4
ATOM      4  N   UNL A   1      42.001  22.597  27.289  1.00  0.00    -0.356 N 
ATOM      5  O   UNL A   1      41.551  20.396  27.773  1.00  0.00    -0.275 OA
ATOM      6  C   UNL A   1      41.308  21.423  27.150  1.00  0.00     0.221 C 
ATOM      7  H   UNL A   1      41.657  23.393  26.823  1.00  0.00     0.163 HD
BRANCH   6   8
ATOM      8  C   UNL A   1      40.218  21.475  26.101  1.00  0.00     0.123 C 
BRANCH   8   9
ATOM      9  C   UNL A   1      39.090  22.430  26.462  1.00  0.00     0.154 C 
BRANCH   9  10
ATOM     10  N   UNL A   1      37.847  22.265  25.727  1.00  0.00    -0.271 N 
ATOM     11  C   UNL A   1      37.286  23.106  24.803  1.00  0.00     0.117 A 
ATOM     12  N   UNL A   1      37.156  21.123  25.884  1.00  0.00    -0.172 NA
ATOM     13  C   UNL A   1      36.105  22.514  24.406  1.00  0.00     0.025 A 
ATOM     14  C   UNL A   1      36.103  21.241  25.061  1.00  0.00     0.100 A 
BRANCH  13  15
ATOM     15  C   UNL A   1      35.206  23.067  23.437  1.00  0.00     0.072 C 
ATOM     16  C   UNL A   1      34.423  24.159  23.509  1.00  0.00     0.217 C 
ATOM     17  N   UNL A   1      33.435  24.435  22.590  1.00  0.00    -0.228 N 
ATOM     18  C   UNL A   1      34.377  25.211  24.568  1.00  0.00     0.386 C 
ATOM     19  C   UNL A   1      32.782  25.434  23.105  1.00  0.00     0.321 C 
ATOM     20  H   UNL A   1      33.263  23.978  21.734  1.00  0.00     0.313 HD
ATOM     21  N   UNL A   1      33.228  25.906  24.306  1.00  0.00    -0.149 N 
ATOM     22  O   UNL A   1      35.222  25.406  25.431  1.00  0.00    -0.236 OA
BRANCH  19  23
ATOM     23  S   UNL A   1      31.478  26.148  22.214  1.00  0.00    -0.055 SA
ATOM     24  H   UNL A   1      30.724  26.912  23.050  1.00  0.00     0.116 HD
ENDBRANCH  19  23
BRANCH  21  25
ATOM     25  C   UNL A   1      32.682  26.869  25.202  1.00  0.00     0.137 A 
ATOM     26  C   UNL A   1      31.874  26.500  26.286  1.00  0.00     0.052 A 
ATOM     27  C   UNL A   1      33.016  28.231  25.085  1.00  0.00     0.052 A 
ATOM     28  C   UNL A   1      31.397  27.455  27.194  1.00  0.00     0.004 A 
ATOM     29  C   UNL A   1      32.537  29.186  25.986  1.00  0.00     0.004 A 
ATOM     30  C   UNL A   1      31.725  28.797  27.041  1.00  0.00     0.000 A 
ENDBRANCH  21  25
ENDBRANCH  13  15
BRANCH  14  31
ATOM     31  C   UNL A   1      35.149  20.146  24.907  1.00  0.00     0.003 A 
ATOM     32  C   UNL A   1      33.825  20.298  25.342  1.00  0.00     0.011 A 
ATOM     33  C   UNL A   1      35.592  18.891  24.465  1.00  0.00     0.011 A 
ATOM     34  C   UNL A   1      32.977  19.190  25.413  1.00  0.00     0.016 A 
ATOM     35  C   UNL A   1      34.748  17.781  24.548  1.00  0.00     0.016 A 
ATOM     36  C   UNL A   1      33.452  17.935  25.035  1.00  0.00     0.018 A 
ATOM     37  Br  UNL A   1      32.333  16.423  25.221  1.00  0.00    -0.051 Br
ENDBRANCH  14  31
ENDBRANCH   9  10
ENDBRANCH   8   9
ENDBRANCH   6   8
ENDBRANCH   3   4
ENDBRANCH   2   3
ENDBRANCH   1   2
BRANCH   1  38
ATOM     38  C   UNL A   1      44.072  23.274  31.831  1.00  0.00     0.002 C 
BRANCH  38  39
ATOM     39  C   UNL A   1      44.453  24.350  32.853  1.00  0.00     0.021 C 
BRANCH  39  40
ATOM     40  C   UNL A   1      43.769  24.184  34.203  1.00  0.00     0.116 C 
BRANCH  40  41
ATOM     41  N   UNL A   1      44.653  24.507  35.330  1.00  0.00    -0.352 N 
ATOM     42  C   UNL A   1      44.944  25.749  35.859  1.00  0.00     0.251 C 
ATOM     43  H   UNL A   1      45.093  23.741  35.763  1.00  0.00     0.163 HD
ATOM     44  O   UNL A   1      45.934  25.921  36.561  1.00  0.00    -0.269 OA
BRANCH  42  45
ATOM     45  C   UNL A   1      44.021  26.857  35.565  1.00  0.00     0.039 A 
ATOM     46  C   UNL A   1      42.846  27.053  36.295  1.00  0.00     0.014 A 
ATOM     47  C   UNL A   1      44.413  27.761  34.581  1.00  0.00     0.014 A 
ATOM     48  C   UNL A   1      42.118  28.225  36.093  1.00  0.00     0.010 A 
ATOM     49  C   UNL A   1      43.788  28.978  34.500  1.00  0.00     0.010 A 
ATOM     50  C   UNL A   1      42.612  29.200  35.211  1.00  0.00    -0.014 A 
BRANCH  50  51
ATOM     51  C   UNL A   1      41.976  30.513  35.111  1.00  0.00     0.031 A 
ATOM     52  C   UNL A   1      41.044  30.674  33.959  1.00  0.00     0.074 A 
ATOM     53  C   UNL A   1      42.028  31.423  36.110  1.00  0.00     0.049 A 
ATOM     54  N   UNL A   1      41.186  31.437  32.925  1.00  0.00    -0.248 NA
ATOM     55  C   UNL A   1      39.882  29.775  33.876  1.00  0.00     0.031 C 
ATOM     56  C   UNL A   1      42.624  31.253  37.444  1.00  0.00     0.029 A 
ATOM     57  N   UNL A   1      41.416  32.636  36.211  1.00  0.00    -0.354 N 
ATOM     58  C   UNL A   1      40.004  31.302  32.195  1.00  0.00     0.074 A 
ATOM     59  C   UNL A   1      39.357  30.122  32.699  1.00  0.00     0.031 C 
ATOM     60  C   UNL A   1      42.113  32.174  38.287  1.00  0.00     0.029 A 
ATOM     61  C   UNL A   1      41.321  33.110  37.516  1.00  0.00     0.049 A 
ATOM     62  H   UNL A   1      41.074  33.131  35.432  1.00  0.00     0.167 HD
ATOM     63  C   UNL A   1      39.519  32.329  31.440  1.00  0.00     0.034 A 
ATOM     64  C   UNL A   1      40.612  34.179  37.944  1.00  0.00     0.034 A 
ATOM     65  C   UNL A   1      40.514  33.359  31.272  1.00  0.00     0.049 A 
ATOM     66  C   UNL A   1      40.375  35.038  36.767  1.00  0.00     0.074 A 
ATOM     67  C   UNL A   1      41.766  33.455  30.704  1.00  0.00     0.029 A 
ATOM     68  N   UNL A   1      40.370  34.445  32.098  1.00  0.00    -0.354 N 
ATOM     69  N   UNL A   1      41.324  35.655  36.120  1.00  0.00    -0.248 NA
ATOM     70  C   UNL A   1      39.104  34.935  36.071  1.00  0.00     0.031 C 
ATOM     71  C   UNL A   1      42.473  34.390  31.519  1.00  0.00     0.029 A 
ATOM     72  C   UNL A   1      41.605  34.858  32.510  1.00  0.00     0.049 A 
ATOM     73  H   UNL A   1      39.513  34.858  32.354  1.00  0.00     0.167 HD
ATOM     74  C   UNL A   1      40.922  35.597  34.794  1.00  0.00     0.074 A 
ATOM     75  C   UNL A   1      39.494  35.306  34.848  1.00  0.00     0.031 C 
ATOM     76  C   UNL A   1      41.843  35.487  33.792  1.00  0.00     0.034 A 
BRANCH  63  77
ATOM     77  C   UNL A   1      38.049  32.652  31.215  1.00  0.00     0.023 A 
ATOM     78  C   UNL A   1      37.620  32.778  29.870  1.00  0.00     0.012 A 
ATOM     79  C   UNL A   1      37.161  33.126  32.206  1.00  0.00     0.148 A 
ATOM     80  C   UNL A   1      36.419  33.409  29.530  1.00  0.00     0.002 A 
ATOM     81  C   UNL A   1      35.930  33.681  31.867  1.00  0.00     0.091 A 
ATOM     82  F   UNL A   1      37.542  33.177  33.483  1.00  0.00    -0.205 F 
ATOM     83  C   UNL A   1      35.568  33.858  30.531  1.00  0.00     0.022 A 
BRANCH  81  84
ATOM     84  S   UNL A   1      34.769  34.235  33.124  1.00  0.00     0.127 S 
ATOM     85  O   UNL A   1      34.812  33.125  34.069  1.00  0.00    -0.237 OA
ATOM     86  O   UNL A   1      35.399  35.471  33.587  1.00  0.00    -0.237 OA
ATOM     87  O   UNL A   1      33.505  34.436  32.424  1.00  0.00    -0.744 OA
ENDBRANCH  81  84
ENDBRANCH  63  77
BRANCH  64  88
ATOM     88  C   UNL A   1      39.945  34.430  39.240  1.00  0.00     0.023 A 
ATOM     89  C   UNL A   1      40.166  35.649  39.911  1.00  0.00     0.012 A 
ATOM     90  C   UNL A   1      38.877  33.612  39.670  1.00  0.00     0.148 A 
ATOM     91  C   UNL A   1      39.318  36.068  40.943  1.00  0.00     0.002 A 
ATOM     92  C   UNL A   1      38.038  34.032  40.699  1.00  0.00     0.091 A 
ATOM     93  F   UNL A   1      38.630  32.474  39.009  1.00  0.00    -0.205 F 
ATOM     94  C   UNL A   1      38.247  35.266  41.327  1.00  0.00     0.022 A 
BRANCH  92  95
ATOM     95  S   UNL A   1      36.616  33.070  41.233  1.00  0.00     0.127 S 
ATOM     96  O   UNL A   1      37.253  31.920  41.875  1.00  0.00    -0.237 OA
ATOM     97  O   UNL A   1      35.953  33.994  42.148  1.00  0.00    -0.237 OA
ATOM     98  O   UNL A   1      35.878  32.744  40.019  1.00  0.00    -0.744 OA
ENDBRANCH  92  95
ENDBRANCH  64  88
BRANCH  76  99
ATOM     99  C   UNL A   1      43.276  35.825  34.111  1.00  0.00     0.023 A 
ATOM    100  C   UNL A   1      43.746  37.151  34.212  1.00  0.00     0.012 A 
ATOM    101  C   UNL A   1      44.129  34.770  34.475  1.00  0.00     0.148 A 
ATOM    102  C   UNL A   1      45.048  37.413  34.650  1.00  0.00     0.002 A 
ATOM    103  C   UNL A   1      45.402  35.037  34.957  1.00  0.00     0.091 A 
ATOM    104  F   UNL A   1      43.663  33.516  34.370  1.00  0.00    -0.205 F 
ATOM    105  C   UNL A   1      45.871  36.358  35.037  1.00  0.00     0.022 A 
BRANCH 103 106
ATOM    106  S   UNL A   1      46.452  33.728  35.593  1.00  0.00     0.127 S 
ATOM    107  O   UNL A   1      45.709  33.287  36.771  1.00  0.00    -0.237 OA
ATOM    108  O   UNL A   1      46.467  32.772  34.484  1.00  0.00    -0.237 OA
ATOM    109  O   UNL A   1      47.745  34.346  35.859  1.00  0.00    -0.744 OA
ENDBRANCH 103 106
ENDBRANCH  76  99
ENDBRANCH  50  51
ENDBRANCH  42  45
ENDBRANCH  40  41
ENDBRANCH  39  40
ENDBRANCH  38  39
ENDBRANCH   1  38
TORSDOF 22
ENDMDL
