MODEL 1
REMARK VINA RESULT:     -10.7      0.000      0.000
REMARK SMILES CCOc1oc(C[C@H]2CCCCO2)nc1C(=O)NCCCCCCNC(=O)c1ccc(-c2c3nc(c(-c4cccc(S(=O)(=O)[O-])c4F)c4ccc([nH]4)c(-c4cccc(S(=O)(=O)[O-])c4F)c4nc(c(-c5cccc(S(=O)(=O)[O-])c5F)c5ccc2[nH]5)C=C4)C=C3)cc1
REMARK SMILES IDX 22 1 21 2 20 3 19 4 18 5 16 6 17 7 15 9 4 10 5 11 6 12 14 13
REMARK SMILES IDX 3 14 2 15 1 16 7 17 8 18 9 19 13 20 10 21 12 22 11 23 23 24
REMARK SMILES IDX 24 25 25 26 26 27 27 29 28 30 29 31 90 32 30 33 89 34 31 35
REMARK SMILES IDX 32 36 33 37 83 38 34 39 88 40 82 41 84 42 35 43 87 44 81 45
REMARK SMILES IDX 80 46 36 48 68 49 48 50 67 51 49 52 52 53 66 54 85 55 50 56
REMARK SMILES IDX 51 57 65 59 86 60 53 61 37 62 38 63 46 64 39 65 41 66 47 67
REMARK SMILES IDX 40 68 42 69 43 70 44 71 45 72 69 73 70 74 78 75 71 76 73 77
REMARK SMILES IDX 79 78 72 79 74 80 75 81 76 82 77 83 54 84 55 85 63 86 56 87
REMARK SMILES IDX 58 88 64 89 57 90 59 91 60 92 61 93 62 94
REMARK H PARENT 18 8 25 28 84 47 52 58
REMARK Flexibility Score: inf
ROOT
ATOM      1  C   UNL A   1      32.122  27.014  25.871  1.00  0.00     0.002 C 
ENDROOT
BRANCH   1   2
ATOM      2  C   UNL A   1      31.152  27.637  24.864  1.00  0.00     0.002 C 
BRANCH   2   3
ATOM      3  C   UNL A   1      30.973  26.878  23.547  1.00  0.00     0.021 C 
BRANCH   3   4
ATOM      4  C   UNL A   1      31.415  25.417  23.557  1.00  0.00     0.116 C 
BRANCH   4   5
ATOM      5  N   UNL A   1      32.087  25.027  22.330  1.00  0.00    -0.350 N 
ATOM      6  C   UNL A   1      32.854  23.924  22.038  1.00  0.00     0.277 C 
ATOM      7  O   UNL A   1      33.305  23.836  20.896  1.00  0.00    -0.267 OA
ATOM      8  H   UNL A   1      31.975  25.658  21.583  1.00  0.00     0.163 HD
BRANCH   6   9
ATOM      9  C   UNL A   1      33.132  22.934  23.067  1.00  0.00     0.212 A 
ATOM     10  C   UNL A   1      34.335  22.744  23.717  1.00  0.00     0.318 A 
ATOM     11  O   UNL A   1      34.195  21.715  24.607  1.00  0.00    -0.409 OA
ATOM     12  C   UNL A   1      32.899  21.311  24.437  1.00  0.00     0.202 A 
ATOM     13  N   UNL A   1      32.232  21.993  23.534  1.00  0.00    -0.204 NA
BRANCH  10  14
ATOM     14  O   UNL A   1      35.555  23.265  23.654  1.00  0.00    -0.464 OA
BRANCH  14  15
ATOM     15  C   UNL A   1      36.572  22.466  24.258  1.00  0.00     0.230 C 
ATOM     16  C   UNL A   1      37.424  23.280  25.216  1.00  0.00     0.049 C 
ENDBRANCH  14  15
ENDBRANCH  10  14
BRANCH  12  17
ATOM     17  C   UNL A   1      32.410  20.180  25.259  1.00  0.00     0.129 C 
BRANCH  17  18
ATOM     18  C   UNL A   1      32.841  18.826  24.688  1.00  0.00     0.127 C 
ATOM     19  C   UNL A   1      34.369  18.698  24.618  1.00  0.00     0.033 C 
ATOM     20  O   UNL A   1      32.317  17.806  25.554  1.00  0.00    -0.378 OA
ATOM     21  C   UNL A   1      34.786  17.293  24.195  1.00  0.00     0.005 C 
ATOM     22  C   UNL A   1      32.580  16.491  25.062  1.00  0.00     0.160 C 
ATOM     23  C   UNL A   1      34.080  16.238  25.038  1.00  0.00     0.029 C 
ENDBRANCH  17  18
ENDBRANCH  12  17
ENDBRANCH   6   9
ENDBRANCH   4   5
ENDBRANCH   3   4
ENDBRANCH   2   3
ENDBRANCH   1   2
BRANCH   1  24
ATOM     24  C   UNL A   1      32.772  27.979  26.864  1.00  0.00     0.021 C 
BRANCH  24  25
ATOM     25  C   UNL A   1      33.857  28.879  26.287  1.00  0.00     0.116 C 
BRANCH  25  26
ATOM     26  N   UNL A   1      33.758  30.245  26.771  1.00  0.00    -0.352 N 
ATOM     27  C   UNL A   1      34.578  30.915  27.646  1.00  0.00     0.251 C 
ATOM     28  H   UNL A   1      32.996  30.763  26.424  1.00  0.00     0.163 HD
ATOM     29  O   UNL A   1      34.247  32.017  28.073  1.00  0.00    -0.269 OA
BRANCH  27  30
ATOM     30  C   UNL A   1      35.849  30.299  28.089  1.00  0.00     0.039 A 
ATOM     31  C   UNL A   1      37.000  30.500  27.323  1.00  0.00     0.014 A 
ATOM     32  C   UNL A   1      35.908  29.523  29.251  1.00  0.00     0.014 A 
ATOM     33  C   UNL A   1      38.220  29.969  27.750  1.00  0.00     0.010 A 
ATOM     34  C   UNL A   1      37.136  29.054  29.711  1.00  0.00     0.010 A 
ATOM     35  C   UNL A   1      38.304  29.264  28.963  1.00  0.00    -0.014 A 
BRANCH  35  36
ATOM     36  C   UNL A   1      39.601  28.742  29.465  1.00  0.00     0.031 A 
ATOM     37  C   UNL A   1      40.326  29.453  30.576  1.00  0.00     0.074 A 
ATOM     38  C   UNL A   1      40.168  27.677  28.864  1.00  0.00     0.049 A 
ATOM     39  N   UNL A   1      41.490  29.185  31.106  1.00  0.00    -0.248 NA
ATOM     40  C   UNL A   1      39.666  30.637  31.151  1.00  0.00     0.031 C 
ATOM     41  C   UNL A   1      39.604  26.948  27.725  1.00  0.00     0.029 A 
ATOM     42  N   UNL A   1      41.360  27.039  29.108  1.00  0.00    -0.354 N 
ATOM     43  C   UNL A   1      41.719  30.178  32.050  1.00  0.00     0.074 A 
ATOM     44  C   UNL A   1      40.587  31.079  31.995  1.00  0.00     0.031 C 
ATOM     45  C   UNL A   1      40.446  25.963  27.372  1.00  0.00     0.029 A 
ATOM     46  C   UNL A   1      41.620  26.005  28.240  1.00  0.00     0.049 A 
ATOM     47  H   UNL A   1      41.969  27.299  29.836  1.00  0.00     0.167 HD
ATOM     48  C   UNL A   1      42.757  30.314  32.907  1.00  0.00     0.034 A 
ATOM     49  C   UNL A   1      42.685  25.184  28.150  1.00  0.00     0.034 A 
ATOM     50  C   UNL A   1      43.858  29.391  32.993  1.00  0.00     0.049 A 
ATOM     51  C   UNL A   1      43.806  25.330  29.145  1.00  0.00     0.074 A 
ATOM     52  C   UNL A   1      44.918  29.397  33.882  1.00  0.00     0.029 A 
ATOM     53  N   UNL A   1      44.039  28.299  32.160  1.00  0.00    -0.354 N 
ATOM     54  N   UNL A   1      43.926  26.183  30.132  1.00  0.00    -0.248 NA
ATOM     55  C   UNL A   1      44.919  24.375  29.036  1.00  0.00     0.031 C 
ATOM     56  C   UNL A   1      45.748  28.312  33.578  1.00  0.00     0.029 A 
ATOM     57  C   UNL A   1      45.195  27.623  32.510  1.00  0.00     0.049 A 
ATOM     58  H   UNL A   1      43.436  28.042  31.426  1.00  0.00     0.167 HD
ATOM     59  C   UNL A   1      45.107  25.846  30.785  1.00  0.00     0.074 A 
ATOM     60  C   UNL A   1      45.654  24.697  30.093  1.00  0.00     0.031 C 
ATOM     61  C   UNL A   1      45.695  26.444  31.851  1.00  0.00     0.034 A 
BRANCH  48  62
ATOM     62  C   UNL A   1      42.718  31.468  33.876  1.00  0.00     0.023 A 
ATOM     63  C   UNL A   1      43.305  32.696  33.508  1.00  0.00     0.012 A 
ATOM     64  C   UNL A   1      42.061  31.360  35.117  1.00  0.00     0.148 A 
ATOM     65  C   UNL A   1      43.268  33.789  34.373  1.00  0.00     0.002 A 
ATOM     66  C   UNL A   1      41.992  32.468  35.957  1.00  0.00     0.091 A 
ATOM     67  F   UNL A   1      41.529  30.179  35.460  1.00  0.00    -0.205 F 
ATOM     68  C   UNL A   1      42.603  33.678  35.591  1.00  0.00     0.022 A 
BRANCH  66  69
ATOM     69  S   UNL A   1      41.095  32.448  37.513  1.00  0.00     0.127 S 
ATOM     70  O   UNL A   1      41.079  33.868  37.862  1.00  0.00    -0.237 OA
ATOM     71  O   UNL A   1      39.796  31.905  37.114  1.00  0.00    -0.237 OA
ATOM     72  O   UNL A   1      41.862  31.592  38.406  1.00  0.00    -0.744 OA
ENDBRANCH  66  69
ENDBRANCH  48  62
BRANCH  49  73
ATOM     73  C   UNL A   1      42.708  24.100  27.128  1.00  0.00     0.023 A 
ATOM     74  C   UNL A   1      43.411  24.304  25.924  1.00  0.00     0.012 A 
ATOM     75  C   UNL A   1      42.063  22.867  27.345  1.00  0.00     0.148 A 
ATOM     76  C   UNL A   1      43.445  23.313  24.942  1.00  0.00     0.002 A 
ATOM     77  C   UNL A   1      42.146  21.864  26.386  1.00  0.00     0.091 A 
ATOM     78  F   UNL A   1      41.386  22.696  28.490  1.00  0.00    -0.205 F 
ATOM     79  C   UNL A   1      42.822  22.091  25.177  1.00  0.00     0.022 A 
BRANCH  77  80
ATOM     80  S   UNL A   1      41.484  20.217  26.661  1.00  0.00     0.127 S 
ATOM     81  O   UNL A   1      41.876  19.527  25.436  1.00  0.00    -0.237 OA
ATOM     82  O   UNL A   1      42.203  19.795  27.865  1.00  0.00    -0.237 OA
ATOM     83  O   UNL A   1      40.052  20.402  26.858  1.00  0.00    -0.744 OA
ENDBRANCH  77  80
ENDBRANCH  49  73
BRANCH  61  84
ATOM     84  C   UNL A   1      46.981  25.851  32.364  1.00  0.00     0.023 A 
ATOM     85  C   UNL A   1      48.211  26.298  31.843  1.00  0.00     0.012 A 
ATOM     86  C   UNL A   1      46.973  24.910  33.412  1.00  0.00     0.148 A 
ATOM     87  C   UNL A   1      49.414  25.794  32.337  1.00  0.00     0.002 A 
ATOM     88  C   UNL A   1      48.177  24.447  33.931  1.00  0.00     0.091 A 
ATOM     89  F   UNL A   1      45.791  24.482  33.880  1.00  0.00    -0.205 F 
ATOM     90  C   UNL A   1      49.397  24.880  33.388  1.00  0.00     0.022 A 
BRANCH  88  91
ATOM     91  S   UNL A   1      48.250  23.340  35.344  1.00  0.00     0.127 S 
ATOM     92  O   UNL A   1      47.485  22.191  34.863  1.00  0.00    -0.237 OA
ATOM     93  O   UNL A   1      49.688  23.102  35.479  1.00  0.00    -0.237 OA
ATOM     94  O   UNL A   1      47.654  24.070  36.454  1.00  0.00    -0.744 OA
ENDBRANCH  88  91
ENDBRANCH  61  84
ENDBRANCH  35  36
ENDBRANCH  27  30
ENDBRANCH  25  26
ENDBRANCH  24  25
ENDBRANCH   1  24
TORSDOF 20
ENDMDL
MODEL 2
REMARK VINA RESULT:     -10.6      4.795      9.449
REMARK SMILES CCOc1oc(C[C@H]2CCCCO2)nc1C(=O)NCCCCCCNC(=O)c1ccc(-c2c3nc(c(-c4cccc(S(=O)(=O)[O-])c4F)c4ccc([nH]4)c(-c4cccc(S(=O)(=O)[O-])c4F)c4nc(c(-c5cccc(S(=O)(=O)[O-])c5F)c5ccc2[nH]5)C=C4)C=C3)cc1
REMARK SMILES IDX 22 1 21 2 20 3 19 4 18 5 16 6 17 7 15 9 4 10 5 11 6 12 14 13
REMARK SMILES IDX 3 14 2 15 1 16 7 17 8 18 9 19 13 20 10 21 12 22 11 23 23 24
REMARK SMILES IDX 24 25 25 26 26 27 27 29 28 30 29 31 90 32 30 33 89 34 31 35
REMARK SMILES IDX 32 36 33 37 83 38 34 39 88 40 82 41 84 42 35 43 87 44 81 45
REMARK SMILES IDX 80 46 36 48 68 49 48 50 67 51 49 52 52 53 66 54 85 55 50 56
REMARK SMILES IDX 51 57 65 59 86 60 53 61 37 62 38 63 46 64 39 65 41 66 47 67
REMARK SMILES IDX 40 68 42 69 43 70 44 71 45 72 69 73 70 74 78 75 71 76 73 77
REMARK SMILES IDX 79 78 72 79 74 80 75 81 76 82 77 83 54 84 55 85 63 86 56 87
REMARK SMILES IDX 58 88 64 89 57 90 59 91 60 92 61 93 62 94
REMARK H PARENT 18 8 25 28 84 47 52 58
REMARK Flexibility Score: inf
ROOT
ATOM      1  C   UNL A   1      35.246  23.345  23.797  1.00  0.00     0.002 C 
ENDROOT
BRANCH   1   2
ATOM      2  C   UNL A   1      34.183  23.050  22.737  1.00  0.00     0.002 C 
BRANCH   2   3
ATOM      3  C   UNL A   1      33.120  24.133  22.532  1.00  0.00     0.021 C 
BRANCH   3   4
ATOM      4  C   UNL A   1      33.585  25.570  22.757  1.00  0.00     0.116 C 
BRANCH   4   5
ATOM      5  N   UNL A   1      32.644  26.549  22.243  1.00  0.00    -0.350 N 
ATOM      6  C   UNL A   1      31.525  27.105  22.815  1.00  0.00     0.277 C 
ATOM      7  O   UNL A   1      30.901  27.932  22.150  1.00  0.00    -0.267 OA
ATOM      8  H   UNL A   1      32.841  26.868  21.333  1.00  0.00     0.163 HD
BRANCH   6   9
ATOM      9  C   UNL A   1      31.099  26.688  24.142  1.00  0.00     0.212 A 
ATOM     10  C   UNL A   1      31.255  27.403  25.314  1.00  0.00     0.318 A 
ATOM     11  O   UNL A   1      30.733  26.672  26.345  1.00  0.00    -0.409 OA
ATOM     12  C   UNL A   1      30.298  25.522  25.744  1.00  0.00     0.202 A 
ATOM     13  N   UNL A   1      30.499  25.479  24.447  1.00  0.00    -0.204 NA
BRANCH  10  14
ATOM     14  O   UNL A   1      31.806  28.556  25.672  1.00  0.00    -0.464 OA
BRANCH  14  15
ATOM     15  C   UNL A   1      33.220  28.619  25.488  1.00  0.00     0.230 C 
ATOM     16  C   UNL A   1      33.941  28.880  26.799  1.00  0.00     0.049 C 
ENDBRANCH  14  15
ENDBRANCH  10  14
BRANCH  12  17
ATOM     17  C   UNL A   1      29.675  24.484  26.596  1.00  0.00     0.129 C 
BRANCH  17  18
ATOM     18  C   UNL A   1      30.575  23.255  26.754  1.00  0.00     0.127 C 
ATOM     19  C   UNL A   1      30.986  22.670  25.395  1.00  0.00     0.033 C 
ATOM     20  O   UNL A   1      31.751  23.670  27.469  1.00  0.00    -0.378 OA
ATOM     21  C   UNL A   1      32.003  21.546  25.563  1.00  0.00     0.005 C 
ATOM     22  C   UNL A   1      32.623  22.576  27.757  1.00  0.00     0.160 C 
ATOM     23  C   UNL A   1      33.154  21.982  26.461  1.00  0.00     0.029 C 
ENDBRANCH  17  18
ENDBRANCH  12  17
ENDBRANCH   6   9
ENDBRANCH   4   5
ENDBRANCH   3   4
ENDBRANCH   2   3
ENDBRANCH   1   2
BRANCH   1  24
ATOM     24  C   UNL A   1      36.231  22.212  24.095  1.00  0.00     0.021 C 
BRANCH  24  25
ATOM     25  C   UNL A   1      36.570  22.011  25.566  1.00  0.00     0.116 C 
BRANCH  25  26
ATOM     26  N   UNL A   1      37.555  20.963  25.769  1.00  0.00    -0.352 N 
ATOM     27  C   UNL A   1      38.880  21.075  26.113  1.00  0.00     0.251 C 
ATOM     28  H   UNL A   1      37.227  20.043  25.643  1.00  0.00     0.163 HD
ATOM     29  O   UNL A   1      39.607  20.086  26.078  1.00  0.00    -0.269 OA
BRANCH  27  30
ATOM     30  C   UNL A   1      39.435  22.390  26.505  1.00  0.00     0.039 A 
ATOM     31  C   UNL A   1      40.488  22.432  27.422  1.00  0.00     0.014 A 
ATOM     32  C   UNL A   1      38.920  23.577  25.975  1.00  0.00     0.014 A 
ATOM     33  C   UNL A   1      41.060  23.659  27.767  1.00  0.00     0.010 A 
ATOM     34  C   UNL A   1      39.535  24.792  26.266  1.00  0.00     0.010 A 
ATOM     35  C   UNL A   1      40.606  24.848  27.171  1.00  0.00    -0.014 A 
BRANCH  35  36
ATOM     36  C   UNL A   1      41.238  26.157  27.478  1.00  0.00     0.031 A 
ATOM     37  C   UNL A   1      42.664  26.423  27.077  1.00  0.00     0.074 A 
ATOM     38  C   UNL A   1      40.557  27.074  28.193  1.00  0.00     0.049 A 
ATOM     39  N   UNL A   1      43.404  27.477  27.309  1.00  0.00    -0.248 NA
ATOM     40  C   UNL A   1      43.360  25.355  26.340  1.00  0.00     0.031 C 
ATOM     41  C   UNL A   1      39.196  26.906  28.708  1.00  0.00     0.029 A 
ATOM     42  N   UNL A   1      40.926  28.321  28.635  1.00  0.00    -0.354 N 
ATOM     43  C   UNL A   1      44.655  27.189  26.778  1.00  0.00     0.074 A 
ATOM     44  C   UNL A   1      44.587  25.846  26.244  1.00  0.00     0.031 C 
ATOM     45  C   UNL A   1      38.845  28.007  29.392  1.00  0.00     0.029 A 
ATOM     46  C   UNL A   1      39.960  28.949  29.387  1.00  0.00     0.049 A 
ATOM     47  H   UNL A   1      41.799  28.727  28.431  1.00  0.00     0.167 HD
ATOM     48  C   UNL A   1      45.752  27.978  26.710  1.00  0.00     0.034 A 
ATOM     49  C   UNL A   1      39.974  30.146  30.006  1.00  0.00     0.034 A 
ATOM     50  C   UNL A   1      45.803  29.331  27.200  1.00  0.00     0.049 A 
ATOM     51  C   UNL A   1      41.191  31.022  29.878  1.00  0.00     0.074 A 
ATOM     52  C   UNL A   1      46.842  30.241  27.107  1.00  0.00     0.029 A 
ATOM     53  N   UNL A   1      44.772  29.967  27.873  1.00  0.00    -0.354 N 
ATOM     54  N   UNL A   1      42.309  30.791  29.235  1.00  0.00    -0.248 NA
ATOM     55  C   UNL A   1      41.133  32.340  30.527  1.00  0.00     0.031 C 
ATOM     56  C   UNL A   1      46.442  31.425  27.736  1.00  0.00     0.029 A 
ATOM     57  C   UNL A   1      45.148  31.257  28.204  1.00  0.00     0.049 A 
ATOM     58  H   UNL A   1      43.901  29.561  28.084  1.00  0.00     0.167 HD
ATOM     59  C   UNL A   1      43.073  31.945  29.371  1.00  0.00     0.074 A 
ATOM     60  C   UNL A   1      42.280  32.882  30.139  1.00  0.00     0.031 C 
ATOM     61  C   UNL A   1      44.325  32.200  28.916  1.00  0.00     0.034 A 
BRANCH  48  62
ATOM     62  C   UNL A   1      46.971  27.425  26.019  1.00  0.00     0.023 A 
ATOM     63  C   UNL A   1      47.112  27.599  24.626  1.00  0.00     0.012 A 
ATOM     64  C   UNL A   1      47.997  26.787  26.742  1.00  0.00     0.148 A 
ATOM     65  C   UNL A   1      48.238  27.118  23.960  1.00  0.00     0.002 A 
ATOM     66  C   UNL A   1      49.137  26.346  26.076  1.00  0.00     0.091 A 
ATOM     67  F   UNL A   1      47.837  26.610  28.061  1.00  0.00    -0.205 F 
ATOM     68  C   UNL A   1      49.254  26.502  24.684  1.00  0.00     0.022 A 
BRANCH  66  69
ATOM     69  S   UNL A   1      50.533  25.608  26.931  1.00  0.00     0.127 S 
ATOM     70  O   UNL A   1      50.929  26.687  27.836  1.00  0.00    -0.237 OA
ATOM     71  O   UNL A   1      49.919  24.455  27.590  1.00  0.00    -0.237 OA
ATOM     72  O   UNL A   1      51.502  25.271  25.898  1.00  0.00    -0.744 OA
ENDBRANCH  66  69
ENDBRANCH  48  62
BRANCH  49  73
ATOM     73  C   UNL A   1      38.765  30.620  30.738  1.00  0.00     0.023 A 
ATOM     74  C   UNL A   1      38.691  30.438  32.134  1.00  0.00     0.012 A 
ATOM     75  C   UNL A   1      37.707  31.268  30.074  1.00  0.00     0.148 A 
ATOM     76  C   UNL A   1      37.570  30.862  32.848  1.00  0.00     0.002 A 
ATOM     77  C   UNL A   1      36.617  31.736  30.799  1.00  0.00     0.091 A 
ATOM     78  F   UNL A   1      37.788  31.420  28.744  1.00  0.00    -0.205 F 
ATOM     79  C   UNL A   1      36.539  31.519  32.184  1.00  0.00     0.022 A 
BRANCH  77  80
ATOM     80  S   UNL A   1      35.308  32.707  30.044  1.00  0.00     0.127 S 
ATOM     81  O   UNL A   1      34.793  31.785  29.037  1.00  0.00    -0.237 OA
ATOM     82  O   UNL A   1      34.412  32.947  31.177  1.00  0.00    -0.237 OA
ATOM     83  O   UNL A   1      35.959  33.907  29.535  1.00  0.00    -0.744 OA
ENDBRANCH  77  80
ENDBRANCH  49  73
BRANCH  61  84
ATOM     84  C   UNL A   1      44.908  33.559  29.201  1.00  0.00     0.023 A 
ATOM     85  C   UNL A   1      45.691  33.752  30.356  1.00  0.00     0.012 A 
ATOM     86  C   UNL A   1      44.746  34.620  28.289  1.00  0.00     0.148 A 
ATOM     87  C   UNL A   1      46.279  34.991  30.614  1.00  0.00     0.002 A 
ATOM     88  C   UNL A   1      45.372  35.837  28.529  1.00  0.00     0.091 A 
ATOM     89  F   UNL A   1      43.980  34.421  27.206  1.00  0.00    -0.205 F 
ATOM     90  C   UNL A   1      46.130  36.028  29.696  1.00  0.00     0.022 A 
BRANCH  88  91
ATOM     91  S   UNL A   1      45.311  37.196  27.356  1.00  0.00     0.127 S 
ATOM     92  O   UNL A   1      45.857  38.298  28.147  1.00  0.00    -0.237 OA
ATOM     93  O   UNL A   1      46.188  36.723  26.284  1.00  0.00    -0.237 OA
ATOM     94  O   UNL A   1      43.912  37.331  26.974  1.00  0.00    -0.744 OA
ENDBRANCH  88  91
ENDBRANCH  61  84
ENDBRANCH  35  36
ENDBRANCH  27  30
ENDBRANCH  25  26
ENDBRANCH  24  25
ENDBRANCH   1  24
TORSDOF 20
ENDMDL
MODEL 3
REMARK VINA RESULT:     -10.6      3.531      8.859
REMARK SMILES CCOc1oc(C[C@H]2CCCCO2)nc1C(=O)NCCCCCCNC(=O)c1ccc(-c2c3nc(c(-c4cccc(S(=O)(=O)[O-])c4F)c4ccc([nH]4)c(-c4cccc(S(=O)(=O)[O-])c4F)c4nc(c(-c5cccc(S(=O)(=O)[O-])c5F)c5ccc2[nH]5)C=C4)C=C3)cc1
REMARK SMILES IDX 22 1 21 2 20 3 19 4 18 5 16 6 17 7 15 9 4 10 5 11 6 12 14 13
REMARK SMILES IDX 3 14 2 15 1 16 7 17 8 18 9 19 13 20 10 21 12 22 11 23 23 24
REMARK SMILES IDX 24 25 25 26 26 27 27 29 28 30 29 31 90 32 30 33 89 34 31 35
REMARK SMILES IDX 32 36 33 37 83 38 34 39 88 40 82 41 84 42 35 43 87 44 81 45
REMARK SMILES IDX 80 46 36 48 68 49 48 50 67 51 49 52 52 53 66 54 85 55 50 56
REMARK SMILES IDX 51 57 65 59 86 60 53 61 37 62 38 63 46 64 39 65 41 66 47 67
REMARK SMILES IDX 40 68 42 69 43 70 44 71 45 72 69 73 70 74 78 75 71 76 73 77
REMARK SMILES IDX 79 78 72 79 74 80 75 81 76 82 77 83 54 84 55 85 63 86 56 87
REMARK SMILES IDX 58 88 64 89 57 90 59 91 60 92 61 93 62 94
REMARK H PARENT 18 8 25 28 84 47 52 58
REMARK Flexibility Score: inf
ROOT
ATOM      1  C   UNL A   1      31.421  30.648  26.806  1.00  0.00     0.002 C 
ENDROOT
BRANCH   1   2
ATOM      2  C   UNL A   1      32.368  29.837  25.919  1.00  0.00     0.002 C 
BRANCH   2   3
ATOM      3  C   UNL A   1      33.008  28.607  26.569  1.00  0.00     0.021 C 
BRANCH   3   4
ATOM      4  C   UNL A   1      33.045  27.346  25.709  1.00  0.00     0.116 C 
BRANCH   4   5
ATOM      5  N   UNL A   1      33.405  27.620  24.328  1.00  0.00    -0.350 N 
ATOM      6  C   UNL A   1      33.156  26.911  23.178  1.00  0.00     0.277 C 
ATOM      7  O   UNL A   1      33.575  27.383  22.121  1.00  0.00    -0.267 OA
ATOM      8  H   UNL A   1      33.911  28.454  24.195  1.00  0.00     0.163 HD
BRANCH   6   9
ATOM      9  C   UNL A   1      32.453  25.639  23.242  1.00  0.00     0.212 A 
ATOM     10  C   UNL A   1      31.226  25.411  23.833  1.00  0.00     0.318 A 
ATOM     11  O   UNL A   1      30.909  24.088  23.689  1.00  0.00    -0.409 OA
ATOM     12  C   UNL A   1      31.986  23.565  23.026  1.00  0.00     0.202 A 
ATOM     13  N   UNL A   1      32.927  24.437  22.747  1.00  0.00    -0.204 NA
BRANCH  10  14
ATOM     14  O   UNL A   1      30.340  26.125  24.518  1.00  0.00    -0.464 OA
BRANCH  14  15
ATOM     15  C   UNL A   1      29.273  26.655  23.733  1.00  0.00     0.230 C 
ATOM     16  C   UNL A   1      29.571  28.071  23.271  1.00  0.00     0.049 C 
ENDBRANCH  14  15
ENDBRANCH  10  14
BRANCH  12  17
ATOM     17  C   UNL A   1      31.974  22.117  22.713  1.00  0.00     0.129 C 
BRANCH  17  18
ATOM     18  C   UNL A   1      32.583  21.281  23.842  1.00  0.00     0.127 C 
ATOM     19  C   UNL A   1      32.455  19.776  23.570  1.00  0.00     0.033 C 
ATOM     20  O   UNL A   1      33.975  21.631  23.935  1.00  0.00    -0.378 OA
ATOM     21  C   UNL A   1      33.200  18.960  24.622  1.00  0.00     0.005 C 
ATOM     22  C   UNL A   1      34.625  20.977  25.025  1.00  0.00     0.160 C 
ATOM     23  C   UNL A   1      34.624  19.472  24.801  1.00  0.00     0.029 C 
ENDBRANCH  17  18
ENDBRANCH  12  17
ENDBRANCH   6   9
ENDBRANCH   4   5
ENDBRANCH   3   4
ENDBRANCH   2   3
ENDBRANCH   1   2
BRANCH   1  24
ATOM     24  C   UNL A   1      31.507  32.170  26.666  1.00  0.00     0.021 C 
BRANCH  24  25
ATOM     25  C   UNL A   1      32.730  32.817  27.301  1.00  0.00     0.116 C 
BRANCH  25  26
ATOM     26  N   UNL A   1      32.500  34.207  27.657  1.00  0.00    -0.352 N 
ATOM     27  C   UNL A   1      33.092  34.958  28.643  1.00  0.00     0.251 C 
ATOM     28  H   UNL A   1      31.824  34.676  27.116  1.00  0.00     0.163 HD
ATOM     29  O   UNL A   1      32.652  36.073  28.910  1.00  0.00    -0.269 OA
BRANCH  27  30
ATOM     30  C   UNL A   1      34.245  34.415  29.396  1.00  0.00     0.039 A 
ATOM     31  C   UNL A   1      34.008  33.740  30.597  1.00  0.00     0.014 A 
ATOM     32  C   UNL A   1      35.552  34.573  28.928  1.00  0.00     0.014 A 
ATOM     33  C   UNL A   1      35.077  33.177  31.298  1.00  0.00     0.010 A 
ATOM     34  C   UNL A   1      36.607  33.952  29.591  1.00  0.00     0.010 A 
ATOM     35  C   UNL A   1      36.384  33.254  30.787  1.00  0.00    -0.014 A 
BRANCH  35  36
ATOM     36  C   UNL A   1      37.526  32.611  31.486  1.00  0.00     0.031 A 
ATOM     37  C   UNL A   1      38.250  31.453  30.852  1.00  0.00     0.074 A 
ATOM     38  C   UNL A   1      37.859  33.015  32.728  1.00  0.00     0.049 A 
ATOM     39  N   UNL A   1      39.227  30.729  31.331  1.00  0.00    -0.248 NA
ATOM     40  C   UNL A   1      37.798  31.039  29.513  1.00  0.00     0.031 C 
ATOM     41  C   UNL A   1      37.185  34.074  33.483  1.00  0.00     0.029 A 
ATOM     42  N   UNL A   1      38.831  32.563  33.587  1.00  0.00    -0.354 N 
ATOM     43  C   UNL A   1      39.486  29.757  30.373  1.00  0.00     0.074 A 
ATOM     44  C   UNL A   1      38.539  29.961  29.298  1.00  0.00     0.031 C 
ATOM     45  C   UNL A   1      37.764  34.191  34.689  1.00  0.00     0.029 A 
ATOM     46  C   UNL A   1      38.832  33.202  34.805  1.00  0.00     0.049 A 
ATOM     47  H   UNL A   1      39.466  31.849  33.352  1.00  0.00     0.167 HD
ATOM     48  C   UNL A   1      40.446  28.802  30.368  1.00  0.00     0.034 A 
ATOM     49  C   UNL A   1      39.604  33.011  35.893  1.00  0.00     0.034 A 
ATOM     50  C   UNL A   1      41.418  28.631  31.415  1.00  0.00     0.049 A 
ATOM     51  C   UNL A   1      40.692  31.971  35.845  1.00  0.00     0.074 A 
ATOM     52  C   UNL A   1      42.479  27.745  31.468  1.00  0.00     0.029 A 
ATOM     53  N   UNL A   1      41.447  29.362  32.593  1.00  0.00    -0.354 N 
ATOM     54  N   UNL A   1      41.020  31.167  34.864  1.00  0.00    -0.248 NA
ATOM     55  C   UNL A   1      41.539  31.840  37.039  1.00  0.00     0.031 C 
ATOM     56  C   UNL A   1      43.145  27.933  32.685  1.00  0.00     0.029 A 
ATOM     57  C   UNL A   1      42.507  28.946  33.381  1.00  0.00     0.049 A 
ATOM     58  H   UNL A   1      40.809  30.071  32.833  1.00  0.00     0.167 HD
ATOM     59  C   UNL A   1      42.133  30.460  35.307  1.00  0.00     0.074 A 
ATOM     60  C   UNL A   1      42.435  30.948  36.637  1.00  0.00     0.031 C 
ATOM     61  C   UNL A   1      42.832  29.484  34.677  1.00  0.00     0.034 A 
BRANCH  48  62
ATOM     62  C   UNL A   1      40.538  27.908  29.159  1.00  0.00     0.023 A 
ATOM     63  C   UNL A   1      39.677  26.797  29.055  1.00  0.00     0.012 A 
ATOM     64  C   UNL A   1      41.429  28.192  28.105  1.00  0.00     0.148 A 
ATOM     65  C   UNL A   1      39.723  25.963  27.938  1.00  0.00     0.002 A 
ATOM     66  C   UNL A   1      41.440  27.379  26.976  1.00  0.00     0.091 A 
ATOM     67  F   UNL A   1      42.256  29.240  28.230  1.00  0.00    -0.205 F 
ATOM     68  C   UNL A   1      40.595  26.260  26.896  1.00  0.00     0.022 A 
BRANCH  66  69
ATOM     69  S   UNL A   1      42.474  27.720  25.547  1.00  0.00     0.127 S 
ATOM     70  O   UNL A   1      41.862  28.942  25.025  1.00  0.00    -0.237 OA
ATOM     71  O   UNL A   1      43.791  27.912  26.157  1.00  0.00    -0.237 OA
ATOM     72  O   UNL A   1      42.369  26.551  24.688  1.00  0.00    -0.744 OA
ENDBRANCH  66  69
ENDBRANCH  48  62
BRANCH  49  73
ATOM     73  C   UNL A   1      39.427  33.876  37.094  1.00  0.00     0.023 A 
ATOM     74  C   UNL A   1      39.878  35.211  37.053  1.00  0.00     0.012 A 
ATOM     75  C   UNL A   1      38.800  33.400  38.261  1.00  0.00     0.148 A 
ATOM     76  C   UNL A   1      39.736  36.045  38.162  1.00  0.00     0.002 A 
ATOM     77  C   UNL A   1      38.613  34.252  39.343  1.00  0.00     0.091 A 
ATOM     78  F   UNL A   1      38.390  32.124  38.288  1.00  0.00    -0.205 F 
ATOM     79  C   UNL A   1      39.096  35.570  39.302  1.00  0.00     0.022 A 
BRANCH  77  80
ATOM     80  S   UNL A   1      37.684  33.763  40.800  1.00  0.00     0.127 S 
ATOM     81  O   UNL A   1      38.599  32.820  41.437  1.00  0.00    -0.237 OA
ATOM     82  O   UNL A   1      37.522  35.037  41.504  1.00  0.00    -0.237 OA
ATOM     83  O   UNL A   1      36.438  33.199  40.296  1.00  0.00    -0.744 OA
ENDBRANCH  77  80
ENDBRANCH  49  73
BRANCH  61  84
ATOM     84  C   UNL A   1      44.017  28.897  35.398  1.00  0.00     0.023 A 
ATOM     85  C   UNL A   1      45.294  29.464  35.216  1.00  0.00     0.012 A 
ATOM     86  C   UNL A   1      43.854  27.836  36.309  1.00  0.00     0.148 A 
ATOM     87  C   UNL A   1      46.396  28.965  35.910  1.00  0.00     0.002 A 
ATOM     88  C   UNL A   1      44.948  27.374  37.032  1.00  0.00     0.091 A 
ATOM     89  F   UNL A   1      42.634  27.296  36.452  1.00  0.00    -0.205 F 
ATOM     90  C   UNL A   1      46.221  27.930  36.826  1.00  0.00     0.022 A 
BRANCH  88  91
ATOM     91  S   UNL A   1      44.797  26.108  38.298  1.00  0.00     0.127 S 
ATOM     92  O   UNL A   1      46.185  25.954  38.732  1.00  0.00    -0.237 OA
ATOM     93  O   UNL A   1      43.919  26.750  39.277  1.00  0.00    -0.237 OA
ATOM     94  O   UNL A   1      44.215  24.949  37.636  1.00  0.00    -0.744 OA
ENDBRANCH  88  91
ENDBRANCH  61  84
ENDBRANCH  35  36
ENDBRANCH  27  30
ENDBRANCH  25  26
ENDBRANCH  24  25
ENDBRANCH   1  24
TORSDOF 20
ENDMDL
