MODEL 1
REMARK VINA RESULT:     -10.9      0.000      0.000
REMARK SMILES CC(C)n1c([C@H](O)CC(=O)NCCCCCCNC(=O)c2ccc(-c3c4nc(c(-c5cccc(S(=O)(=O)[O-])c5F)c5ccc([nH]5)c(-c5cccc(S(=O)(=O)[O-])c5F)c5nc(c(-c6cccc(S(=O)(=O)[O-])c6F)c6ccc3[nH]6)C=C5)C=C4)cc2)nc2cc(Cl)ccc21
REMARK SMILES IDX 14 1 13 2 12 3 11 4 9 5 10 6 8 8 6 9 5 10 4 11 91 12 84 13
REMARK SMILES IDX 85 14 90 15 86 16 89 17 87 18 88 19 2 20 1 21 3 22 7 23
REMARK SMILES IDX 15 25 16 26 17 27 18 28 19 29 20 31 21 32 22 33 83 34 23 35
REMARK SMILES IDX 82 36 24 37 25 38 26 39 76 40 27 41 81 42 75 43 77 44 28 45
REMARK SMILES IDX 80 46 74 47 73 48 29 50 61 51 41 52 60 53 42 54 45 55 59 56
REMARK SMILES IDX 78 57 43 58 44 59 58 61 79 62 46 63 30 64 31 65 39 66 32 67
REMARK SMILES IDX 34 68 40 69 33 70 35 71 36 72 37 73 38 74 62 75 63 76 71 77
REMARK SMILES IDX 64 78 66 79 72 80 65 81 67 82 68 83 69 84 70 85 47 86 48 87
REMARK SMILES IDX 56 88 49 89 51 90 57 91 50 92 52 93 53 94 54 95 55 96
REMARK H PARENT 11 7 7 24 18 30 77 49 45 60
REMARK Flexibility Score: inf
ROOT
ATOM      1  C   UNL A   1      36.582  21.807  24.456  1.00  0.00     0.002 C 
ENDROOT
BRANCH   1   2
ATOM      2  C   UNL A   1      35.471  22.414  25.313  1.00  0.00     0.021 C 
BRANCH   2   3
ATOM      3  C   UNL A   1      34.422  21.381  25.724  1.00  0.00     0.116 C 
BRANCH   3   4
ATOM      4  N   UNL A   1      33.661  21.843  26.871  1.00  0.00    -0.356 N 
ATOM      5  C   UNL A   1      32.506  22.577  26.893  1.00  0.00     0.223 C 
ATOM      6  O   UNL A   1      32.095  23.019  27.966  1.00  0.00    -0.275 OA
ATOM      7  H   UNL A   1      34.024  21.597  27.752  1.00  0.00     0.163 HD
BRANCH   5   8
ATOM      8  C   UNL A   1      31.728  22.773  25.612  1.00  0.00     0.140 C 
BRANCH   8   9
ATOM      9  C   UNL A   1      30.760  23.937  25.672  1.00  0.00     0.190 C 
BRANCH   9  10
ATOM     10  C   UNL A   1      31.403  25.311  25.666  1.00  0.00     0.139 A 
ATOM     11  N   UNL A   1      32.129  25.952  24.663  1.00  0.00    -0.323 N 
ATOM     12  C   UNL A   1      32.517  27.191  25.162  1.00  0.00     0.069 A 
ATOM     13  N   UNL A   1      31.401  26.050  26.765  1.00  0.00    -0.230 NA
ATOM     14  C   UNL A   1      32.075  27.200  26.476  1.00  0.00     0.090 A 
ATOM     15  C   UNL A   1      33.216  28.274  24.604  1.00  0.00     0.030 A 
ATOM     16  C   UNL A   1      32.345  28.300  27.301  1.00  0.00     0.051 A 
ATOM     17  C   UNL A   1      33.476  29.369  25.433  1.00  0.00     0.023 A 
ATOM     18  C   UNL A   1      33.051  29.376  26.759  1.00  0.00     0.043 A 
ATOM     19  Cl  UNL A   1      33.404  30.742  27.750  1.00  0.00    -0.084 Cl
BRANCH  11  20
ATOM     20  C   UNL A   1      32.505  25.530  23.312  1.00  0.00     0.083 C 
ATOM     21  C   UNL A   1      33.650  24.525  23.233  1.00  0.00     0.031 C 
ATOM     22  C   UNL A   1      31.304  25.248  22.406  1.00  0.00     0.031 C 
ENDBRANCH  11  20
ENDBRANCH   9  10
BRANCH   9  23
ATOM     23  O   UNL A   1      29.899  23.903  26.801  1.00  0.00    -0.385 OA
ATOM     24  H   UNL A   1      30.419  23.727  27.600  1.00  0.00     0.211 HD
ENDBRANCH   9  23
ENDBRANCH   8   9
ENDBRANCH   5   8
ENDBRANCH   3   4
ENDBRANCH   2   3
ENDBRANCH   1   2
BRANCH   1  25
ATOM     25  C   UNL A   1      37.046  20.423  24.925  1.00  0.00     0.002 C 
BRANCH  25  26
ATOM     26  C   UNL A   1      38.565  20.239  25.029  1.00  0.00     0.021 C 
BRANCH  26  27
ATOM     27  C   UNL A   1      39.001  18.948  25.725  1.00  0.00     0.116 C 
BRANCH  27  28
ATOM     28  N   UNL A   1      40.405  18.639  25.557  1.00  0.00    -0.352 N 
ATOM     29  C   UNL A   1      41.578  19.271  25.871  1.00  0.00     0.251 C 
ATOM     30  H   UNL A   1      40.551  17.772  25.114  1.00  0.00     0.163 HD
ATOM     31  O   UNL A   1      42.610  18.657  25.589  1.00  0.00    -0.269 OA
BRANCH  29  32
ATOM     32  C   UNL A   1      41.682  20.634  26.460  1.00  0.00     0.039 A 
ATOM     33  C   UNL A   1      42.348  21.714  25.882  1.00  0.00     0.014 A 
ATOM     34  C   UNL A   1      41.073  20.815  27.716  1.00  0.00     0.014 A 
ATOM     35  C   UNL A   1      42.500  22.906  26.580  1.00  0.00     0.010 A 
ATOM     36  C   UNL A   1      41.192  22.018  28.405  1.00  0.00     0.010 A 
ATOM     37  C   UNL A   1      41.950  23.045  27.854  1.00  0.00    -0.014 A 
BRANCH  37  38
ATOM     38  C   UNL A   1      42.145  24.322  28.531  1.00  0.00     0.031 A 
ATOM     39  C   UNL A   1      41.101  25.356  28.275  1.00  0.00     0.074 A 
ATOM     40  C   UNL A   1      43.146  24.549  29.404  1.00  0.00     0.049 A 
ATOM     41  N   UNL A   1      41.240  26.513  27.707  1.00  0.00    -0.248 NA
ATOM     42  C   UNL A   1      39.712  25.010  28.611  1.00  0.00     0.031 C 
ATOM     43  C   UNL A   1      44.081  23.577  29.973  1.00  0.00     0.029 A 
ATOM     44  N   UNL A   1      43.448  25.700  30.067  1.00  0.00    -0.354 N 
ATOM     45  C   UNL A   1      39.991  27.125  27.795  1.00  0.00     0.074 A 
ATOM     46  C   UNL A   1      39.063  26.113  28.237  1.00  0.00     0.031 C 
ATOM     47  C   UNL A   1      44.666  24.117  31.066  1.00  0.00     0.029 A 
ATOM     48  C   UNL A   1      44.253  25.503  31.184  1.00  0.00     0.049 A 
ATOM     49  H   UNL A   1      43.127  26.586  29.784  1.00  0.00     0.167 HD
ATOM     50  C   UNL A   1      39.816  28.470  27.695  1.00  0.00     0.034 A 
ATOM     51  C   UNL A   1      44.475  26.403  32.173  1.00  0.00     0.034 A 
ATOM     52  C   UNL A   1      40.952  29.146  27.143  1.00  0.00     0.049 A 
ATOM     53  C   UNL A   1      44.187  27.743  31.611  1.00  0.00     0.074 A 
ATOM     54  C   UNL A   1      41.624  29.120  25.938  1.00  0.00     0.029 A 
ATOM     55  N   UNL A   1      41.785  29.786  28.026  1.00  0.00    -0.354 N 
ATOM     56  N   UNL A   1      44.889  28.308  30.671  1.00  0.00    -0.248 NA
ATOM     57  C   UNL A   1      42.886  28.340  31.865  1.00  0.00     0.031 C 
ATOM     58  C   UNL A   1      42.995  29.327  26.274  1.00  0.00     0.029 A 
ATOM     59  C   UNL A   1      43.071  29.489  27.659  1.00  0.00     0.049 A 
ATOM     60  H   UNL A   1      41.509  30.353  28.781  1.00  0.00     0.167 HD
ATOM     61  C   UNL A   1      43.967  29.038  29.937  1.00  0.00     0.074 A 
ATOM     62  C   UNL A   1      42.791  29.131  30.795  1.00  0.00     0.031 C 
ATOM     63  C   UNL A   1      44.144  29.251  28.600  1.00  0.00     0.034 A 
BRANCH  50  64
ATOM     64  C   UNL A   1      38.712  29.214  28.394  1.00  0.00     0.023 A 
ATOM     65  C   UNL A   1      37.850  30.033  27.637  1.00  0.00     0.012 A 
ATOM     66  C   UNL A   1      38.640  29.322  29.802  1.00  0.00     0.148 A 
ATOM     67  C   UNL A   1      36.945  30.904  28.256  1.00  0.00     0.002 A 
ATOM     68  C   UNL A   1      37.687  30.126  30.412  1.00  0.00     0.091 A 
ATOM     69  F   UNL A   1      39.581  28.735  30.554  1.00  0.00    -0.205 F 
ATOM     70  C   UNL A   1      36.849  30.936  29.644  1.00  0.00     0.022 A 
BRANCH  68  71
ATOM     71  S   UNL A   1      37.489  30.146  32.196  1.00  0.00     0.127 S 
ATOM     72  O   UNL A   1      37.265  28.733  32.482  1.00  0.00    -0.237 OA
ATOM     73  O   UNL A   1      38.781  30.673  32.637  1.00  0.00    -0.237 OA
ATOM     74  O   UNL A   1      36.367  31.044  32.440  1.00  0.00    -0.744 OA
ENDBRANCH  68  71
ENDBRANCH  50  64
BRANCH  51  75
ATOM     75  C   UNL A   1      44.643  26.190  33.632  1.00  0.00     0.023 A 
ATOM     76  C   UNL A   1      45.923  26.367  34.199  1.00  0.00     0.012 A 
ATOM     77  C   UNL A   1      43.537  26.121  34.507  1.00  0.00     0.148 A 
ATOM     78  C   UNL A   1      46.087  26.544  35.577  1.00  0.00     0.002 A 
ATOM     79  C   UNL A   1      43.708  26.280  35.879  1.00  0.00     0.091 A 
ATOM     80  F   UNL A   1      42.304  26.005  33.997  1.00  0.00    -0.205 F 
ATOM     81  C   UNL A   1      44.979  26.513  36.417  1.00  0.00     0.022 A 
BRANCH  79  82
ATOM     82  S   UNL A   1      42.311  26.251  37.012  1.00  0.00     0.127 S 
ATOM     83  O   UNL A   1      41.758  24.914  36.788  1.00  0.00    -0.237 OA
ATOM     84  O   UNL A   1      42.964  26.434  38.304  1.00  0.00    -0.237 OA
ATOM     85  O   UNL A   1      41.436  27.333  36.577  1.00  0.00    -0.744 OA
ENDBRANCH  79  82
ENDBRANCH  51  75
BRANCH  63  86
ATOM     86  C   UNL A   1      45.491  28.913  28.011  1.00  0.00     0.023 A 
ATOM     87  C   UNL A   1      46.569  29.823  28.056  1.00  0.00     0.012 A 
ATOM     88  C   UNL A   1      45.723  27.606  27.553  1.00  0.00     0.148 A 
ATOM     89  C   UNL A   1      47.844  29.447  27.628  1.00  0.00     0.002 A 
ATOM     90  C   UNL A   1      47.003  27.223  27.164  1.00  0.00     0.091 A 
ATOM     91  F   UNL A   1      44.692  26.749  27.534  1.00  0.00    -0.205 F 
ATOM     92  C   UNL A   1      48.063  28.143  27.192  1.00  0.00     0.022 A 
BRANCH  90  93
ATOM     93  S   UNL A   1      47.384  25.531  26.700  1.00  0.00     0.127 S 
ATOM     94  O   UNL A   1      48.737  25.661  26.158  1.00  0.00    -0.237 OA
ATOM     95  O   UNL A   1      47.311  24.834  27.990  1.00  0.00    -0.237 OA
ATOM     96  O   UNL A   1      46.363  25.132  25.749  1.00  0.00    -0.744 OA
ENDBRANCH  90  93
ENDBRANCH  63  86
ENDBRANCH  37  38
ENDBRANCH  29  32
ENDBRANCH  27  28
ENDBRANCH  26  27
ENDBRANCH  25  26
ENDBRANCH   1  25
TORSDOF 20
ENDMDL
MODEL 2
REMARK VINA RESULT:     -10.8      3.445      7.111
REMARK SMILES CC(C)n1c([C@H](O)CC(=O)NCCCCCCNC(=O)c2ccc(-c3c4nc(c(-c5cccc(S(=O)(=O)[O-])c5F)c5ccc([nH]5)c(-c5cccc(S(=O)(=O)[O-])c5F)c5nc(c(-c6cccc(S(=O)(=O)[O-])c6F)c6ccc3[nH]6)C=C5)C=C4)cc2)nc2cc(Cl)ccc21
REMARK SMILES IDX 14 1 13 2 12 3 11 4 9 5 10 6 8 8 6 9 5 10 4 11 91 12 84 13
REMARK SMILES IDX 85 14 90 15 86 16 89 17 87 18 88 19 2 20 1 21 3 22 7 23
REMARK SMILES IDX 15 25 16 26 17 27 18 28 19 29 20 31 21 32 22 33 83 34 23 35
REMARK SMILES IDX 82 36 24 37 25 38 26 39 76 40 27 41 81 42 75 43 77 44 28 45
REMARK SMILES IDX 80 46 74 47 73 48 29 50 61 51 41 52 60 53 42 54 45 55 59 56
REMARK SMILES IDX 78 57 43 58 44 59 58 61 79 62 46 63 30 64 31 65 39 66 32 67
REMARK SMILES IDX 34 68 40 69 33 70 35 71 36 72 37 73 38 74 62 75 63 76 71 77
REMARK SMILES IDX 64 78 66 79 72 80 65 81 67 82 68 83 69 84 70 85 47 86 48 87
REMARK SMILES IDX 56 88 49 89 51 90 57 91 50 92 52 93 53 94 54 95 55 96
REMARK H PARENT 11 7 7 24 18 30 77 49 45 60
REMARK Flexibility Score: inf
ROOT
ATOM      1  C   UNL A   1      35.713  21.597  25.051  1.00  0.00     0.002 C 
ENDROOT
BRANCH   1   2
ATOM      2  C   UNL A   1      34.875  20.320  25.007  1.00  0.00     0.021 C 
BRANCH   2   3
ATOM      3  C   UNL A   1      33.376  20.603  25.099  1.00  0.00     0.116 C 
BRANCH   3   4
ATOM      4  N   UNL A   1      32.764  20.592  23.781  1.00  0.00    -0.356 N 
ATOM      5  C   UNL A   1      32.349  21.651  23.021  1.00  0.00     0.223 C 
ATOM      6  O   UNL A   1      31.698  21.439  21.998  1.00  0.00    -0.275 OA
ATOM      7  H   UNL A   1      32.630  19.703  23.381  1.00  0.00     0.163 HD
BRANCH   5   8
ATOM      8  C   UNL A   1      32.751  23.052  23.420  1.00  0.00     0.140 C 
BRANCH   8   9
ATOM      9  C   UNL A   1      31.672  24.083  23.155  1.00  0.00     0.190 C 
BRANCH   9  10
ATOM     10  C   UNL A   1      31.691  25.287  24.076  1.00  0.00     0.139 A 
ATOM     11  N   UNL A   1      31.728  25.345  25.470  1.00  0.00    -0.323 N 
ATOM     12  C   UNL A   1      31.711  26.690  25.827  1.00  0.00     0.069 A 
ATOM     13  N   UNL A   1      31.569  26.508  23.577  1.00  0.00    -0.230 NA
ATOM     14  C   UNL A   1      31.580  27.375  24.629  1.00  0.00     0.090 A 
ATOM     15  C   UNL A   1      31.777  27.354  27.063  1.00  0.00     0.030 A 
ATOM     16  C   UNL A   1      31.481  28.773  24.627  1.00  0.00     0.051 A 
ATOM     17  C   UNL A   1      31.683  28.749  27.050  1.00  0.00     0.023 A 
ATOM     18  C   UNL A   1      31.532  29.442  25.852  1.00  0.00     0.043 A 
ATOM     19  Cl  UNL A   1      31.407  31.161  25.883  1.00  0.00    -0.084 Cl
BRANCH  11  20
ATOM     20  C   UNL A   1      31.763  24.293  26.487  1.00  0.00     0.083 C 
ATOM     21  C   UNL A   1      30.620  23.284  26.428  1.00  0.00     0.031 C 
ATOM     22  C   UNL A   1      33.159  23.708  26.710  1.00  0.00     0.031 C 
ENDBRANCH  11  20
ENDBRANCH   9  10
BRANCH   9  23
ATOM     23  O   UNL A   1      30.355  23.555  23.212  1.00  0.00    -0.385 OA
ATOM     24  H   UNL A   1      29.855  23.847  22.434  1.00  0.00     0.211 HD
ENDBRANCH   9  23
ENDBRANCH   8   9
ENDBRANCH   5   8
ENDBRANCH   3   4
ENDBRANCH   2   3
ENDBRANCH   1   2
BRANCH   1  25
ATOM     25  C   UNL A   1      37.200  21.378  24.744  1.00  0.00     0.002 C 
BRANCH  25  26
ATOM     26  C   UNL A   1      38.169  22.301  25.494  1.00  0.00     0.021 C 
BRANCH  26  27
ATOM     27  C   UNL A   1      39.230  21.569  26.319  1.00  0.00     0.116 C 
BRANCH  27  28
ATOM     28  N   UNL A   1      40.581  21.763  25.837  1.00  0.00    -0.352 N 
ATOM     29  C   UNL A   1      41.527  22.741  25.979  1.00  0.00     0.251 C 
ATOM     30  H   UNL A   1      40.892  21.016  25.275  1.00  0.00     0.163 HD
ATOM     31  O   UNL A   1      42.608  22.527  25.425  1.00  0.00    -0.269 OA
BRANCH  29  32
ATOM     32  C   UNL A   1      41.319  24.032  26.689  1.00  0.00     0.039 A 
ATOM     33  C   UNL A   1      40.459  25.051  26.279  1.00  0.00     0.014 A 
ATOM     34  C   UNL A   1      42.086  24.230  27.854  1.00  0.00     0.014 A 
ATOM     35  C   UNL A   1      40.442  26.272  26.942  1.00  0.00     0.010 A 
ATOM     36  C   UNL A   1      42.047  25.438  28.542  1.00  0.00     0.010 A 
ATOM     37  C   UNL A   1      41.260  26.475  28.054  1.00  0.00    -0.014 A 
BRANCH  37  38
ATOM     38  C   UNL A   1      41.193  27.779  28.704  1.00  0.00     0.031 A 
ATOM     39  C   UNL A   1      42.178  28.791  28.226  1.00  0.00     0.074 A 
ATOM     40  C   UNL A   1      40.256  28.100  29.617  1.00  0.00     0.049 A 
ATOM     41  N   UNL A   1      43.128  29.365  28.895  1.00  0.00    -0.248 NA
ATOM     42  C   UNL A   1      42.155  29.132  26.796  1.00  0.00     0.031 C 
ATOM     43  C   UNL A   1      39.066  27.334  29.994  1.00  0.00     0.029 A 
ATOM     44  N   UNL A   1      40.114  29.263  30.312  1.00  0.00    -0.354 N 
ATOM     45  C   UNL A   1      43.696  30.289  28.021  1.00  0.00     0.074 A 
ATOM     46  C   UNL A   1      43.153  30.012  26.714  1.00  0.00     0.031 C 
ATOM     47  C   UNL A   1      38.206  28.150  30.644  1.00  0.00     0.029 A 
ATOM     48  C   UNL A   1      38.841  29.439  30.846  1.00  0.00     0.049 A 
ATOM     49  H   UNL A   1      40.840  29.917  30.426  1.00  0.00     0.167 HD
ATOM     50  C   UNL A   1      44.427  31.356  28.443  1.00  0.00     0.034 A 
ATOM     51  C   UNL A   1      38.336  30.599  31.331  1.00  0.00     0.034 A 
ATOM     52  C   UNL A   1      44.854  31.243  29.805  1.00  0.00     0.049 A 
ATOM     53  C   UNL A   1      39.489  31.456  31.693  1.00  0.00     0.074 A 
ATOM     54  C   UNL A   1      45.662  30.380  30.516  1.00  0.00     0.029 A 
ATOM     55  N   UNL A   1      44.141  31.950  30.741  1.00  0.00    -0.354 N 
ATOM     56  N   UNL A   1      40.324  31.188  32.656  1.00  0.00    -0.248 NA
ATOM     57  C   UNL A   1      39.926  32.471  30.750  1.00  0.00     0.031 C 
ATOM     58  C   UNL A   1      45.060  30.287  31.806  1.00  0.00     0.029 A 
ATOM     59  C   UNL A   1      43.937  31.117  31.810  1.00  0.00     0.049 A 
ATOM     60  H   UNL A   1      43.835  32.882  30.660  1.00  0.00     0.167 HD
ATOM     61  C   UNL A   1      41.543  31.672  32.205  1.00  0.00     0.074 A 
ATOM     62  C   UNL A   1      41.209  32.565  31.102  1.00  0.00     0.031 C 
ATOM     63  C   UNL A   1      42.716  31.083  32.584  1.00  0.00     0.034 A 
BRANCH  50  64
ATOM     64  C   UNL A   1      44.494  32.659  27.695  1.00  0.00     0.023 A 
ATOM     65  C   UNL A   1      45.588  32.905  26.840  1.00  0.00     0.012 A 
ATOM     66  C   UNL A   1      43.640  33.747  27.986  1.00  0.00     0.148 A 
ATOM     67  C   UNL A   1      45.808  34.172  26.286  1.00  0.00     0.002 A 
ATOM     68  C   UNL A   1      43.814  34.981  27.372  1.00  0.00     0.091 A 
ATOM     69  F   UNL A   1      42.726  33.623  28.957  1.00  0.00    -0.205 F 
ATOM     70  C   UNL A   1      44.910  35.205  26.536  1.00  0.00     0.022 A 
BRANCH  68  71
ATOM     71  S   UNL A   1      42.642  36.317  27.618  1.00  0.00     0.127 S 
ATOM     72  O   UNL A   1      43.179  37.345  26.732  1.00  0.00    -0.237 OA
ATOM     73  O   UNL A   1      41.389  35.706  27.174  1.00  0.00    -0.237 OA
ATOM     74  O   UNL A   1      42.690  36.602  29.047  1.00  0.00    -0.744 OA
ENDBRANCH  68  71
ENDBRANCH  50  64
BRANCH  51  75
ATOM     75  C   UNL A   1      36.957  31.142  31.252  1.00  0.00     0.023 A 
ATOM     76  C   UNL A   1      36.354  31.636  32.428  1.00  0.00     0.012 A 
ATOM     77  C   UNL A   1      36.353  31.463  30.016  1.00  0.00     0.148 A 
ATOM     78  C   UNL A   1      35.238  32.477  32.374  1.00  0.00     0.002 A 
ATOM     79  C   UNL A   1      35.232  32.287  29.968  1.00  0.00     0.091 A 
ATOM     80  F   UNL A   1      36.930  31.054  28.879  1.00  0.00    -0.205 F 
ATOM     81  C   UNL A   1      34.684  32.813  31.143  1.00  0.00     0.022 A 
BRANCH  79  82
ATOM     82  S   UNL A   1      34.474  32.756  28.406  1.00  0.00     0.127 S 
ATOM     83  O   UNL A   1      33.955  31.477  27.917  1.00  0.00    -0.237 OA
ATOM     84  O   UNL A   1      33.454  33.706  28.837  1.00  0.00    -0.237 OA
ATOM     85  O   UNL A   1      35.559  33.302  27.598  1.00  0.00    -0.744 OA
ENDBRANCH  79  82
ENDBRANCH  51  75
BRANCH  63  86
ATOM     86  C   UNL A   1      42.662  30.083  33.712  1.00  0.00     0.023 A 
ATOM     87  C   UNL A   1      42.132  28.788  33.529  1.00  0.00     0.012 A 
ATOM     88  C   UNL A   1      43.300  30.391  34.924  1.00  0.00     0.148 A 
ATOM     89  C   UNL A   1      42.211  27.830  34.542  1.00  0.00     0.002 A 
ATOM     90  C   UNL A   1      43.411  29.423  35.917  1.00  0.00     0.091 A 
ATOM     91  F   UNL A   1      43.815  31.621  35.074  1.00  0.00    -0.205 F 
ATOM     92  C   UNL A   1      42.861  28.145  35.733  1.00  0.00     0.022 A 
BRANCH  90  93
ATOM     93  S   UNL A   1      44.333  29.720  37.428  1.00  0.00     0.127 S 
ATOM     94  O   UNL A   1      43.494  30.710  38.107  1.00  0.00    -0.237 OA
ATOM     95  O   UNL A   1      44.334  28.393  38.055  1.00  0.00    -0.237 OA
ATOM     96  O   UNL A   1      45.645  30.186  37.019  1.00  0.00    -0.744 OA
ENDBRANCH  90  93
ENDBRANCH  63  86
ENDBRANCH  37  38
ENDBRANCH  29  32
ENDBRANCH  27  28
ENDBRANCH  26  27
ENDBRANCH  25  26
ENDBRANCH   1  25
TORSDOF 20
ENDMDL
MODEL 3
REMARK VINA RESULT:     -10.6      3.818      7.655
REMARK SMILES CC(C)n1c([C@H](O)CC(=O)NCCCCCCNC(=O)c2ccc(-c3c4nc(c(-c5cccc(S(=O)(=O)[O-])c5F)c5ccc([nH]5)c(-c5cccc(S(=O)(=O)[O-])c5F)c5nc(c(-c6cccc(S(=O)(=O)[O-])c6F)c6ccc3[nH]6)C=C5)C=C4)cc2)nc2cc(Cl)ccc21
REMARK SMILES IDX 14 1 13 2 12 3 11 4 9 5 10 6 8 8 6 9 5 10 4 11 91 12 84 13
REMARK SMILES IDX 85 14 90 15 86 16 89 17 87 18 88 19 2 20 1 21 3 22 7 23
REMARK SMILES IDX 15 25 16 26 17 27 18 28 19 29 20 31 21 32 22 33 83 34 23 35
REMARK SMILES IDX 82 36 24 37 25 38 26 39 76 40 27 41 81 42 75 43 77 44 28 45
REMARK SMILES IDX 80 46 74 47 73 48 29 50 61 51 41 52 60 53 42 54 45 55 59 56
REMARK SMILES IDX 78 57 43 58 44 59 58 61 79 62 46 63 30 64 31 65 39 66 32 67
REMARK SMILES IDX 34 68 40 69 33 70 35 71 36 72 37 73 38 74 62 75 63 76 71 77
REMARK SMILES IDX 64 78 66 79 72 80 65 81 67 82 68 83 69 84 70 85 47 86 48 87
REMARK SMILES IDX 56 88 49 89 51 90 57 91 50 92 52 93 53 94 54 95 55 96
REMARK H PARENT 11 7 7 24 18 30 77 49 45 60
REMARK Flexibility Score: inf
ROOT
ATOM      1  C   UNL A   1      36.492  23.631  24.693  1.00  0.00     0.002 C 
ENDROOT
BRANCH   1   2
ATOM      2  C   UNL A   1      35.089  24.032  24.236  1.00  0.00     0.021 C 
BRANCH   2   3
ATOM      3  C   UNL A   1      34.500  25.159  25.083  1.00  0.00     0.116 C 
BRANCH   3   4
ATOM      4  N   UNL A   1      33.902  26.182  24.243  1.00  0.00    -0.356 N 
ATOM      5  C   UNL A   1      32.641  26.227  23.714  1.00  0.00     0.223 C 
ATOM      6  O   UNL A   1      32.367  27.095  22.886  1.00  0.00    -0.275 OA
ATOM      7  H   UNL A   1      34.482  26.947  24.024  1.00  0.00     0.163 HD
BRANCH   5   8
ATOM      8  C   UNL A   1      31.597  25.250  24.205  1.00  0.00     0.140 C 
BRANCH   8   9
ATOM      9  C   UNL A   1      31.297  24.146  23.211  1.00  0.00     0.190 C 
BRANCH   9  10
ATOM     10  C   UNL A   1      31.690  22.752  23.658  1.00  0.00     0.139 A 
ATOM     11  N   UNL A   1      31.923  22.257  24.941  1.00  0.00    -0.323 N 
ATOM     12  C   UNL A   1      32.276  20.918  24.810  1.00  0.00     0.069 A 
ATOM     13  N   UNL A   1      31.961  21.818  22.758  1.00  0.00    -0.230 NA
ATOM     14  C   UNL A   1      32.318  20.694  23.443  1.00  0.00     0.090 A 
ATOM     15  C   UNL A   1      32.573  19.909  25.741  1.00  0.00     0.030 A 
ATOM     16  C   UNL A   1      32.695  19.437  22.948  1.00  0.00     0.051 A 
ATOM     17  C   UNL A   1      32.941  18.658  25.239  1.00  0.00     0.023 A 
ATOM     18  C   UNL A   1      33.005  18.431  23.866  1.00  0.00     0.043 A 
ATOM     19  Cl  UNL A   1      33.477  16.877  23.290  1.00  0.00    -0.084 Cl
BRANCH  11  20
ATOM     20  C   UNL A   1      31.866  22.899  26.256  1.00  0.00     0.083 C 
ATOM     21  C   UNL A   1      30.505  22.864  26.946  1.00  0.00     0.031 C 
ATOM     22  C   UNL A   1      33.073  22.580  27.141  1.00  0.00     0.031 C 
ENDBRANCH  11  20
ENDBRANCH   9  10
BRANCH   9  23
ATOM     23  O   UNL A   1      31.900  24.345  21.940  1.00  0.00    -0.385 OA
ATOM     24  H   UNL A   1      32.370  25.193  21.934  1.00  0.00     0.211 HD
ENDBRANCH   9  23
ENDBRANCH   8   9
ENDBRANCH   5   8
ENDBRANCH   3   4
ENDBRANCH   2   3
ENDBRANCH   1   2
BRANCH   1  25
ATOM     25  C   UNL A   1      36.964  22.280  24.142  1.00  0.00     0.002 C 
BRANCH  25  26
ATOM     26  C   UNL A   1      37.722  21.393  25.138  1.00  0.00     0.021 C 
BRANCH  26  27
ATOM     27  C   UNL A   1      38.649  22.155  26.087  1.00  0.00     0.116 C 
BRANCH  27  28
ATOM     28  N   UNL A   1      40.054  21.872  25.882  1.00  0.00    -0.352 N 
ATOM     29  C   UNL A   1      41.224  22.514  26.187  1.00  0.00     0.251 C 
ATOM     30  H   UNL A   1      40.203  21.019  25.414  1.00  0.00     0.163 HD
ATOM     31  O   UNL A   1      42.258  21.924  25.868  1.00  0.00    -0.269 OA
BRANCH  29  32
ATOM     32  C   UNL A   1      41.320  23.863  26.808  1.00  0.00     0.039 A 
ATOM     33  C   UNL A   1      42.152  24.204  27.875  1.00  0.00     0.014 A 
ATOM     34  C   UNL A   1      40.472  24.853  26.276  1.00  0.00     0.014 A 
ATOM     35  C   UNL A   1      42.064  25.458  28.467  1.00  0.00     0.010 A 
ATOM     36  C   UNL A   1      40.405  26.122  26.843  1.00  0.00     0.010 A 
ATOM     37  C   UNL A   1      41.168  26.405  27.971  1.00  0.00    -0.014 A 
BRANCH  37  38
ATOM     38  C   UNL A   1      41.127  27.701  28.637  1.00  0.00     0.031 A 
ATOM     39  C   UNL A   1      42.126  28.702  28.163  1.00  0.00     0.074 A 
ATOM     40  C   UNL A   1      40.203  28.027  29.561  1.00  0.00     0.049 A 
ATOM     41  N   UNL A   1      43.090  29.252  28.833  1.00  0.00    -0.248 NA
ATOM     42  C   UNL A   1      42.099  29.060  26.738  1.00  0.00     0.031 C 
ATOM     43  C   UNL A   1      39.002  27.277  29.937  1.00  0.00     0.029 A 
ATOM     44  N   UNL A   1      40.084  29.184  30.270  1.00  0.00    -0.354 N 
ATOM     45  C   UNL A   1      43.668  30.177  27.965  1.00  0.00     0.074 A 
ATOM     46  C   UNL A   1      43.110  29.925  26.659  1.00  0.00     0.031 C 
ATOM     47  C   UNL A   1      38.161  28.099  30.602  1.00  0.00     0.029 A 
ATOM     48  C   UNL A   1      38.819  29.375  30.815  1.00  0.00     0.049 A 
ATOM     49  H   UNL A   1      40.822  29.824  30.386  1.00  0.00     0.167 HD
ATOM     50  C   UNL A   1      44.420  31.227  28.394  1.00  0.00     0.034 A 
ATOM     51  C   UNL A   1      38.337  30.537  31.317  1.00  0.00     0.034 A 
ATOM     52  C   UNL A   1      44.853  31.090  29.752  1.00  0.00     0.049 A 
ATOM     53  C   UNL A   1      39.506  31.370  31.681  1.00  0.00     0.074 A 
ATOM     54  C   UNL A   1      45.652  30.205  30.447  1.00  0.00     0.029 A 
ATOM     55  N   UNL A   1      44.160  31.798  30.701  1.00  0.00    -0.354 N 
ATOM     56  N   UNL A   1      40.343  31.077  32.635  1.00  0.00    -0.248 NA
ATOM     57  C   UNL A   1      39.953  32.390  30.747  1.00  0.00     0.031 C 
ATOM     58  C   UNL A   1      45.058  30.107  31.740  1.00  0.00     0.029 A 
ATOM     59  C   UNL A   1      43.949  30.955  31.762  1.00  0.00     0.049 A 
ATOM     60  H   UNL A   1      43.868  32.735  30.633  1.00  0.00     0.167 HD
ATOM     61  C   UNL A   1      41.567  31.546  32.181  1.00  0.00     0.074 A 
ATOM     62  C   UNL A   1      41.241  32.458  31.090  1.00  0.00     0.031 C 
ATOM     63  C   UNL A   1      42.732  30.933  32.545  1.00  0.00     0.034 A 
BRANCH  50  64
ATOM     64  C   UNL A   1      44.503  32.537  27.661  1.00  0.00     0.023 A 
ATOM     65  C   UNL A   1      45.580  32.764  26.781  1.00  0.00     0.012 A 
ATOM     66  C   UNL A   1      43.688  33.645  27.989  1.00  0.00     0.148 A 
ATOM     67  C   UNL A   1      45.821  34.032  26.237  1.00  0.00     0.002 A 
ATOM     68  C   UNL A   1      43.880  34.881  27.386  1.00  0.00     0.091 A 
ATOM     69  F   UNL A   1      42.797  33.533  28.983  1.00  0.00    -0.205 F 
ATOM     70  C   UNL A   1      44.959  35.086  26.523  1.00  0.00     0.022 A 
BRANCH  68  71
ATOM     71  S   UNL A   1      42.754  36.246  27.681  1.00  0.00     0.127 S 
ATOM     72  O   UNL A   1      43.064  36.590  29.064  1.00  0.00    -0.237 OA
ATOM     73  O   UNL A   1      43.195  37.222  26.683  1.00  0.00    -0.237 OA
ATOM     74  O   UNL A   1      41.426  35.699  27.430  1.00  0.00    -0.744 OA
ENDBRANCH  68  71
ENDBRANCH  50  64
BRANCH  51  75
ATOM     75  C   UNL A   1      36.967  31.104  31.254  1.00  0.00     0.023 A 
ATOM     76  C   UNL A   1      36.374  31.578  32.444  1.00  0.00     0.012 A 
ATOM     77  C   UNL A   1      36.366  31.465  30.028  1.00  0.00     0.148 A 
ATOM     78  C   UNL A   1      35.271  32.438  32.412  1.00  0.00     0.002 A 
ATOM     79  C   UNL A   1      35.258  32.308  30.003  1.00  0.00     0.091 A 
ATOM     80  F   UNL A   1      36.934  31.076  28.880  1.00  0.00    -0.205 F 
ATOM     81  C   UNL A   1      34.720  32.814  31.192  1.00  0.00     0.022 A 
BRANCH  79  82
ATOM     82  S   UNL A   1      34.506  32.828  28.454  1.00  0.00     0.127 S 
ATOM     83  O   UNL A   1      33.943  31.576  27.947  1.00  0.00    -0.237 OA
ATOM     84  O   UNL A   1      33.519  33.803  28.908  1.00  0.00    -0.237 OA
ATOM     85  O   UNL A   1      35.601  33.354  27.648  1.00  0.00    -0.744 OA
ENDBRANCH  79  82
ENDBRANCH  51  75
BRANCH  63  86
ATOM     86  C   UNL A   1      42.670  29.920  33.660  1.00  0.00     0.023 A 
ATOM     87  C   UNL A   1      42.092  28.647  33.474  1.00  0.00     0.012 A 
ATOM     88  C   UNL A   1      43.344  30.191  34.862  1.00  0.00     0.148 A 
ATOM     89  C   UNL A   1      42.160  27.673  34.473  1.00  0.00     0.002 A 
ATOM     90  C   UNL A   1      43.445  29.207  35.840  1.00  0.00     0.091 A 
ATOM     91  F   UNL A   1      43.904  31.401  35.015  1.00  0.00    -0.205 F 
ATOM     92  C   UNL A   1      42.847  27.950  35.652  1.00  0.00     0.022 A 
BRANCH  90  93
ATOM     93  S   UNL A   1      44.410  29.453  37.333  1.00  0.00     0.127 S 
ATOM     94  O   UNL A   1      43.717  30.579  37.962  1.00  0.00    -0.237 OA
ATOM     95  O   UNL A   1      44.237  28.171  38.027  1.00  0.00    -0.237 OA
ATOM     96  O   UNL A   1      45.769  29.717  36.900  1.00  0.00    -0.744 OA
ENDBRANCH  90  93
ENDBRANCH  63  86
ENDBRANCH  37  38
ENDBRANCH  29  32
ENDBRANCH  27  28
ENDBRANCH  26  27
ENDBRANCH  25  26
ENDBRANCH   1  25
TORSDOF 20
ENDMDL
