MODEL 1
REMARK VINA RESULT:     -12.0      0.000      0.000
REMARK SMILES CN(C)S(=O)(=O)c1ccc(-n2c(CCC(=O)NCCCCCCNC(=O)c3ccc(-c4c5nc(c(-c6cccc(S(=O)(=O)[O-])c6F)c6ccc([nH]6)c(-c6cccc(S(=O)(=O)[O-])c6F)c6nc(c(-c7cccc(S(=O)(=O)[O-])c7F)c7ccc4[nH]7)C=C6)C=C5)cc3)ccc2-c2ccc(F)cc2)cc1
REMARK SMILES IDX 19 1 18 2 17 3 15 4 16 5 14 7 13 8 12 9 11 10 92 11 90 12
REMARK SMILES IDX 91 13 10 14 7 15 8 16 101 17 9 18 100 19 4 20 5 21 6 22 2 23
REMARK SMILES IDX 1 24 3 25 93 26 94 27 99 28 95 29 98 30 96 31 97 32 20 33
REMARK SMILES IDX 21 34 22 35 23 36 24 37 25 38 26 40 27 41 28 42 89 43 29 44
REMARK SMILES IDX 88 45 30 46 31 47 32 48 82 49 33 50 87 51 81 52 83 53 34 54
REMARK SMILES IDX 86 55 80 56 79 57 35 59 67 60 47 61 66 62 48 63 51 64 65 65
REMARK SMILES IDX 84 66 49 67 50 68 64 70 85 71 52 72 36 73 37 74 45 75 38 76
REMARK SMILES IDX 40 77 46 78 39 79 41 80 42 81 43 82 44 83 68 84 69 85 77 86
REMARK SMILES IDX 70 87 72 88 78 89 71 90 73 91 74 92 75 93 76 94 53 95 54 96
REMARK SMILES IDX 62 97 55 98 57 99 63 100 56 101 58 102 59 103 60 104 61 105
REMARK H PARENT 17 6 24 39 83 58 51 69
REMARK Flexibility Score: inf
ROOT
ATOM      1  C   UNL A   1      36.580  22.836  23.687  1.00  0.00     0.021 C 
ENDROOT
BRANCH   1   2
ATOM      2  C   UNL A   1      35.080  22.615  23.469  1.00  0.00     0.116 C 
BRANCH   2   3
ATOM      3  N   UNL A   1      34.488  23.505  22.479  1.00  0.00    -0.356 N 
ATOM      4  C   UNL A   1      33.181  23.679  22.117  1.00  0.00     0.220 C 
ATOM      5  O   UNL A   1      32.931  24.563  21.290  1.00  0.00    -0.275 OA
ATOM      6  H   UNL A   1      35.131  24.072  21.995  1.00  0.00     0.163 HD
BRANCH   4   7
ATOM      7  C   UNL A   1      32.080  22.775  22.645  1.00  0.00     0.106 C 
BRANCH   7   8
ATOM      8  C   UNL A   1      31.208  23.409  23.748  1.00  0.00     0.064 C 
BRANCH   8   9
ATOM      9  C   UNL A   1      31.958  24.341  24.674  1.00  0.00     0.024 A 
ATOM     10  N   UNL A   1      31.960  25.753  24.661  1.00  0.00    -0.314 N 
ATOM     11  C   UNL A   1      32.824  26.183  25.689  1.00  0.00     0.053 A 
ATOM     12  C   UNL A   1      32.877  23.929  25.627  1.00  0.00     0.024 A 
ATOM     13  C   UNL A   1      33.421  25.066  26.246  1.00  0.00     0.029 A 
BRANCH  10  14
ATOM     14  C   UNL A   1      31.092  26.628  23.907  1.00  0.00     0.046 A 
ATOM     15  C   UNL A   1      29.328  28.581  22.870  1.00  0.00     0.082 A 
ATOM     16  C   UNL A   1      30.693  28.620  22.560  1.00  0.00     0.024 A 
ATOM     17  C   UNL A   1      28.853  27.575  23.686  1.00  0.00     0.024 A 
ATOM     18  C   UNL A   1      31.569  27.642  23.068  1.00  0.00     0.028 A 
ATOM     19  C   UNL A   1      29.726  26.602  24.160  1.00  0.00     0.028 A 
BRANCH  15  20
ATOM     20  S   UNL A   1      28.272  29.878  22.281  1.00  0.00     0.242 S 
ATOM     21  O   UNL A   1      27.042  29.828  23.060  1.00  0.00    -0.207 OA
ATOM     22  O   UNL A   1      28.247  29.759  20.846  1.00  0.00    -0.207 OA
BRANCH  20  23
ATOM     23  N   UNL A   1      29.034  31.394  22.649  1.00  0.00    -0.204 NA
ATOM     24  C   UNL A   1      28.308  32.526  22.009  1.00  0.00     0.124 C 
ATOM     25  C   UNL A   1      29.251  31.693  24.092  1.00  0.00     0.124 C 
ENDBRANCH  20  23
ENDBRANCH  15  20
ENDBRANCH  10  14
BRANCH  11  26
ATOM     26  C   UNL A   1      32.890  27.553  26.215  1.00  0.00    -0.001 A 
ATOM     27  C   UNL A   1      31.765  28.216  26.712  1.00  0.00     0.013 A 
ATOM     28  C   UNL A   1      34.129  28.210  26.246  1.00  0.00     0.013 A 
ATOM     29  C   UNL A   1      31.908  29.480  27.300  1.00  0.00     0.040 A 
ATOM     30  C   UNL A   1      34.276  29.468  26.820  1.00  0.00     0.040 A 
ATOM     31  C   UNL A   1      33.160  30.088  27.360  1.00  0.00     0.123 A 
ATOM     32  F   UNL A   1      33.290  31.310  27.891  1.00  0.00    -0.207 F 
ENDBRANCH  11  26
ENDBRANCH   8   9
ENDBRANCH   7   8
ENDBRANCH   4   7
ENDBRANCH   2   3
ENDBRANCH   1   2
BRANCH   1  33
ATOM     33  C   UNL A   1      37.023  22.921  25.154  1.00  0.00     0.002 C 
BRANCH  33  34
ATOM     34  C   UNL A   1      38.161  22.000  25.671  1.00  0.00     0.002 C 
BRANCH  34  35
ATOM     35  C   UNL A   1      38.491  20.654  24.991  1.00  0.00     0.021 C 
BRANCH  35  36
ATOM     36  C   UNL A   1      38.874  19.473  25.917  1.00  0.00     0.116 C 
BRANCH  36  37
ATOM     37  N   UNL A   1      40.286  19.121  25.789  1.00  0.00    -0.352 N 
ATOM     38  C   UNL A   1      41.448  19.860  25.834  1.00  0.00     0.251 C 
ATOM     39  H   UNL A   1      40.438  18.161  25.640  1.00  0.00     0.163 HD
ATOM     40  O   UNL A   1      42.445  19.328  25.334  1.00  0.00    -0.269 OA
BRANCH  38  41
ATOM     41  C   UNL A   1      41.603  21.213  26.448  1.00  0.00     0.039 A 
ATOM     42  C   UNL A   1      41.207  21.378  27.789  1.00  0.00     0.014 A 
ATOM     43  C   UNL A   1      41.984  22.348  25.740  1.00  0.00     0.014 A 
ATOM     44  C   UNL A   1      41.235  22.638  28.410  1.00  0.00     0.010 A 
ATOM     45  C   UNL A   1      41.934  23.624  26.332  1.00  0.00     0.010 A 
ATOM     46  C   UNL A   1      41.617  23.774  27.687  1.00  0.00    -0.014 A 
BRANCH  46  47
ATOM     47  C   UNL A   1      41.987  25.027  28.423  1.00  0.00     0.031 A 
ATOM     48  C   UNL A   1      43.448  24.952  28.941  1.00  0.00     0.074 A 
ATOM     49  C   UNL A   1      41.052  26.012  28.619  1.00  0.00     0.049 A 
ATOM     50  N   UNL A   1      43.961  25.368  30.065  1.00  0.00    -0.248 NA
ATOM     51  C   UNL A   1      44.453  24.174  28.163  1.00  0.00     0.031 C 
ATOM     52  C   UNL A   1      39.693  26.011  28.039  1.00  0.00     0.029 A 
ATOM     53  N   UNL A   1      41.039  27.210  29.327  1.00  0.00    -0.354 N 
ATOM     54  C   UNL A   1      45.350  25.084  30.017  1.00  0.00     0.074 A 
ATOM     55  C   UNL A   1      45.553  24.205  28.914  1.00  0.00     0.031 C 
ATOM     56  C   UNL A   1      38.982  27.082  28.463  1.00  0.00     0.029 A 
ATOM     57  C   UNL A   1      39.798  27.905  29.343  1.00  0.00     0.049 A 
ATOM     58  H   UNL A   1      41.839  27.555  29.787  1.00  0.00     0.167 HD
ATOM     59  C   UNL A   1      46.286  25.723  30.779  1.00  0.00     0.034 A 
ATOM     60  C   UNL A   1      39.430  29.038  30.031  1.00  0.00     0.034 A 
ATOM     61  C   UNL A   1      45.651  26.726  31.561  1.00  0.00     0.049 A 
ATOM     62  C   UNL A   1      40.646  29.546  30.678  1.00  0.00     0.074 A 
ATOM     63  C   UNL A   1      44.876  26.705  32.687  1.00  0.00     0.029 A 
ATOM     64  N   UNL A   1      45.568  27.958  30.960  1.00  0.00    -0.354 N 
ATOM     65  N   UNL A   1      41.599  30.183  30.066  1.00  0.00    -0.248 NA
ATOM     66  C   UNL A   1      40.844  29.294  32.112  1.00  0.00     0.031 C 
ATOM     67  C   UNL A   1      44.040  27.829  32.539  1.00  0.00     0.029 A 
ATOM     68  C   UNL A   1      44.416  28.550  31.397  1.00  0.00     0.049 A 
ATOM     69  H   UNL A   1      46.219  28.346  30.332  1.00  0.00     0.167 HD
ATOM     70  C   UNL A   1      42.632  30.064  30.963  1.00  0.00     0.074 A 
ATOM     71  C   UNL A   1      42.031  29.873  32.261  1.00  0.00     0.031 C 
ATOM     72  C   UNL A   1      43.810  29.539  30.539  1.00  0.00     0.034 A 
BRANCH  59  73
ATOM     73  C   UNL A   1      47.800  25.773  30.760  1.00  0.00     0.023 A 
ATOM     74  C   UNL A   1      48.423  25.720  32.041  1.00  0.00     0.012 A 
ATOM     75  C   UNL A   1      48.610  26.145  29.674  1.00  0.00     0.148 A 
ATOM     76  C   UNL A   1      49.736  26.132  32.259  1.00  0.00     0.002 A 
ATOM     77  C   UNL A   1      49.947  26.501  29.889  1.00  0.00     0.091 A 
ATOM     78  F   UNL A   1      48.077  26.249  28.453  1.00  0.00    -0.205 F 
ATOM     79  C   UNL A   1      50.496  26.535  31.179  1.00  0.00     0.022 A 
BRANCH  77  80
ATOM     80  S   UNL A   1      51.059  26.939  28.545  1.00  0.00     0.127 S 
ATOM     81  O   UNL A   1      50.464  28.175  28.046  1.00  0.00    -0.237 OA
ATOM     82  O   UNL A   1      52.332  27.120  29.250  1.00  0.00    -0.237 OA
ATOM     83  O   UNL A   1      51.047  25.796  27.641  1.00  0.00    -0.744 OA
ENDBRANCH  77  80
ENDBRANCH  59  73
BRANCH  60  84
ATOM     84  C   UNL A   1      38.152  29.811  30.341  1.00  0.00     0.023 A 
ATOM     85  C   UNL A   1      37.356  29.595  31.473  1.00  0.00     0.012 A 
ATOM     86  C   UNL A   1      37.711  30.871  29.480  1.00  0.00     0.148 A 
ATOM     87  C   UNL A   1      36.265  30.441  31.779  1.00  0.00     0.002 A 
ATOM     88  C   UNL A   1      36.717  31.776  29.841  1.00  0.00     0.091 A 
ATOM     89  F   UNL A   1      38.221  30.993  28.251  1.00  0.00    -0.205 F 
ATOM     90  C   UNL A   1      35.975  31.557  30.994  1.00  0.00     0.022 A 
BRANCH  88  91
ATOM     91  S   UNL A   1      36.446  33.314  28.927  1.00  0.00     0.127 S 
ATOM     92  O   UNL A   1      37.792  33.878  28.854  1.00  0.00    -0.237 OA
ATOM     93  O   UNL A   1      35.922  32.808  27.658  1.00  0.00    -0.237 OA
ATOM     94  O   UNL A   1      35.492  34.095  29.704  1.00  0.00    -0.744 OA
ENDBRANCH  88  91
ENDBRANCH  60  84
BRANCH  72  95
ATOM     95  C   UNL A   1      44.105  29.785  29.063  1.00  0.00     0.023 A 
ATOM     96  C   UNL A   1      44.148  28.656  28.221  1.00  0.00     0.012 A 
ATOM     97  C   UNL A   1      44.472  31.031  28.501  1.00  0.00     0.148 A 
ATOM     98  C   UNL A   1      44.548  28.755  26.886  1.00  0.00     0.002 A 
ATOM     99  C   UNL A   1      44.880  31.132  27.167  1.00  0.00     0.091 A 
ATOM    100  F   UNL A   1      44.432  32.114  29.275  1.00  0.00    -0.205 F 
ATOM    101  C   UNL A   1      44.915  29.988  26.359  1.00  0.00     0.022 A 
BRANCH  99 102
ATOM    102  S   UNL A   1      45.441  32.668  26.400  1.00  0.00     0.127 S 
ATOM    103  O   UNL A   1      44.663  32.713  25.160  1.00  0.00    -0.237 OA
ATOM    104  O   UNL A   1      45.044  33.670  27.387  1.00  0.00    -0.237 OA
ATOM    105  O   UNL A   1      46.878  32.540  26.191  1.00  0.00    -0.744 OA
ENDBRANCH  99 102
ENDBRANCH  72  95
ENDBRANCH  46  47
ENDBRANCH  38  41
ENDBRANCH  36  37
ENDBRANCH  35  36
ENDBRANCH  34  35
ENDBRANCH  33  34
ENDBRANCH   1  33
TORSDOF 22
ENDMDL
MODEL 2
REMARK VINA RESULT:     -10.9      2.852      7.822
REMARK SMILES CN(C)S(=O)(=O)c1ccc(-n2c(CCC(=O)NCCCCCCNC(=O)c3ccc(-c4c5nc(c(-c6cccc(S(=O)(=O)[O-])c6F)c6ccc([nH]6)c(-c6cccc(S(=O)(=O)[O-])c6F)c6nc(c(-c7cccc(S(=O)(=O)[O-])c7F)c7ccc4[nH]7)C=C6)C=C5)cc3)ccc2-c2ccc(F)cc2)cc1
REMARK SMILES IDX 19 1 18 2 17 3 15 4 16 5 14 7 13 8 12 9 11 10 92 11 90 12
REMARK SMILES IDX 91 13 10 14 7 15 8 16 101 17 9 18 100 19 4 20 5 21 6 22 2 23
REMARK SMILES IDX 1 24 3 25 93 26 94 27 99 28 95 29 98 30 96 31 97 32 20 33
REMARK SMILES IDX 21 34 22 35 23 36 24 37 25 38 26 40 27 41 28 42 89 43 29 44
REMARK SMILES IDX 88 45 30 46 31 47 32 48 82 49 33 50 87 51 81 52 83 53 34 54
REMARK SMILES IDX 86 55 80 56 79 57 35 59 67 60 47 61 66 62 48 63 51 64 65 65
REMARK SMILES IDX 84 66 49 67 50 68 64 70 85 71 52 72 36 73 37 74 45 75 38 76
REMARK SMILES IDX 40 77 46 78 39 79 41 80 42 81 43 82 44 83 68 84 69 85 77 86
REMARK SMILES IDX 70 87 72 88 78 89 71 90 73 91 74 92 75 93 76 94 53 95 54 96
REMARK SMILES IDX 62 97 55 98 57 99 63 100 56 101 58 102 59 103 60 104 61 105
REMARK H PARENT 17 6 24 39 83 58 51 69
REMARK Flexibility Score: inf
ROOT
ATOM      1  C   UNL A   1      36.671  22.404  24.048  1.00  0.00     0.021 C 
ENDROOT
BRANCH   1   2
ATOM      2  C   UNL A   1      35.162  22.269  23.820  1.00  0.00     0.116 C 
BRANCH   2   3
ATOM      3  N   UNL A   1      34.647  23.112  22.750  1.00  0.00    -0.356 N 
ATOM      4  C   UNL A   1      33.369  23.279  22.294  1.00  0.00     0.220 C 
ATOM      5  O   UNL A   1      33.184  24.121  21.408  1.00  0.00    -0.275 OA
ATOM      6  H   UNL A   1      35.327  23.646  22.280  1.00  0.00     0.163 HD
BRANCH   4   7
ATOM      7  C   UNL A   1      32.225  22.415  22.795  1.00  0.00     0.106 C 
BRANCH   7   8
ATOM      8  C   UNL A   1      31.311  23.101  23.831  1.00  0.00     0.064 C 
BRANCH   8   9
ATOM      9  C   UNL A   1      32.041  24.017  24.790  1.00  0.00     0.024 A 
ATOM     10  N   UNL A   1      32.070  25.429  24.781  1.00  0.00    -0.314 N 
ATOM     11  C   UNL A   1      32.899  25.841  25.845  1.00  0.00     0.053 A 
ATOM     12  C   UNL A   1      32.910  23.586  25.780  1.00  0.00     0.024 A 
ATOM     13  C   UNL A   1      33.450  24.712  26.423  1.00  0.00     0.029 A 
BRANCH  10  14
ATOM     14  C   UNL A   1      31.251  26.322  23.993  1.00  0.00     0.046 A 
ATOM     15  C   UNL A   1      29.612  28.339  22.877  1.00  0.00     0.082 A 
ATOM     16  C   UNL A   1      30.968  28.258  22.539  1.00  0.00     0.024 A 
ATOM     17  C   UNL A   1      29.084  27.419  23.760  1.00  0.00     0.024 A 
ATOM     18  C   UNL A   1      31.782  27.247  23.087  1.00  0.00     0.028 A 
ATOM     19  C   UNL A   1      29.893  26.413  24.274  1.00  0.00     0.028 A 
BRANCH  15  20
ATOM     20  S   UNL A   1      28.640  29.675  22.233  1.00  0.00     0.242 S 
ATOM     21  O   UNL A   1      27.250  29.241  22.223  1.00  0.00    -0.207 OA
ATOM     22  O   UNL A   1      29.293  30.103  21.023  1.00  0.00    -0.207 OA
BRANCH  20  23
ATOM     23  N   UNL A   1      28.742  30.996  23.355  1.00  0.00    -0.204 NA
ATOM     24  C   UNL A   1      29.917  30.842  24.256  1.00  0.00     0.124 C 
ATOM     25  C   UNL A   1      28.738  32.366  22.768  1.00  0.00     0.124 C 
ENDBRANCH  20  23
ENDBRANCH  15  20
ENDBRANCH  10  14
BRANCH  11  26
ATOM     26  C   UNL A   1      32.969  27.208  26.376  1.00  0.00    -0.001 A 
ATOM     27  C   UNL A   1      34.108  28.005  26.239  1.00  0.00     0.013 A 
ATOM     28  C   UNL A   1      31.843  27.745  27.021  1.00  0.00     0.013 A 
ATOM     29  C   UNL A   1      34.080  29.337  26.671  1.00  0.00     0.040 A 
ATOM     30  C   UNL A   1      31.812  29.064  27.460  1.00  0.00     0.040 A 
ATOM     31  C   UNL A   1      32.931  29.858  27.265  1.00  0.00     0.123 A 
ATOM     32  F   UNL A   1      32.916  31.121  27.708  1.00  0.00    -0.207 F 
ENDBRANCH  11  26
ENDBRANCH   8   9
ENDBRANCH   7   8
ENDBRANCH   4   7
ENDBRANCH   2   3
ENDBRANCH   1   2
BRANCH   1  33
ATOM     33  C   UNL A   1      37.169  21.950  25.427  1.00  0.00     0.002 C 
BRANCH  33  34
ATOM     34  C   UNL A   1      38.665  21.591  25.627  1.00  0.00     0.002 C 
BRANCH  34  35
ATOM     35  C   UNL A   1      39.205  20.170  25.359  1.00  0.00     0.021 C 
BRANCH  35  36
ATOM     36  C   UNL A   1      40.106  19.541  26.450  1.00  0.00     0.116 C 
BRANCH  36  37
ATOM     37  N   UNL A   1      41.423  19.189  25.928  1.00  0.00    -0.352 N 
ATOM     38  C   UNL A   1      42.552  19.928  25.646  1.00  0.00     0.251 C 
ATOM     39  H   UNL A   1      41.526  18.229  25.739  1.00  0.00     0.163 HD
ATOM     40  O   UNL A   1      43.367  19.398  24.883  1.00  0.00    -0.269 OA
BRANCH  38  41
ATOM     41  C   UNL A   1      42.876  21.278  26.196  1.00  0.00     0.039 A 
ATOM     42  C   UNL A   1      42.731  21.478  27.582  1.00  0.00     0.014 A 
ATOM     43  C   UNL A   1      43.177  22.386  25.410  1.00  0.00     0.014 A 
ATOM     44  C   UNL A   1      42.926  22.742  28.163  1.00  0.00     0.010 A 
ATOM     45  C   UNL A   1      43.292  23.669  25.976  1.00  0.00     0.010 A 
ATOM     46  C   UNL A   1      43.227  23.849  27.363  1.00  0.00    -0.014 A 
BRANCH  46  47
ATOM     47  C   UNL A   1      43.778  25.091  27.997  1.00  0.00     0.031 A 
ATOM     48  C   UNL A   1      42.644  26.104  28.305  1.00  0.00     0.074 A 
ATOM     49  C   UNL A   1      45.133  25.237  28.164  1.00  0.00     0.049 A 
ATOM     50  N   UNL A   1      42.629  27.403  28.200  1.00  0.00    -0.248 NA
ATOM     51  C   UNL A   1      41.286  25.590  28.638  1.00  0.00     0.031 C 
ATOM     52  C   UNL A   1      46.134  24.187  27.882  1.00  0.00     0.029 A 
ATOM     53  N   UNL A   1      45.950  26.272  28.605  1.00  0.00    -0.354 N 
ATOM     54  C   UNL A   1      41.354  27.840  28.644  1.00  0.00     0.074 A 
ATOM     55  C   UNL A   1      40.529  26.682  28.731  1.00  0.00     0.031 C 
ATOM     56  C   UNL A   1      47.391  24.647  28.082  1.00  0.00     0.029 A 
ATOM     57  C   UNL A   1      47.350  26.030  28.532  1.00  0.00     0.049 A 
ATOM     58  H   UNL A   1      45.583  27.120  28.946  1.00  0.00     0.167 HD
ATOM     59  C   UNL A   1      41.093  29.107  29.084  1.00  0.00     0.034 A 
ATOM     60  C   UNL A   1      48.406  26.875  28.781  1.00  0.00     0.034 A 
ATOM     61  C   UNL A   1      42.295  29.866  29.070  1.00  0.00     0.049 A 
ATOM     62  C   UNL A   1      47.830  28.114  29.317  1.00  0.00     0.074 A 
ATOM     63  C   UNL A   1      43.035  30.456  28.085  1.00  0.00     0.029 A 
ATOM     64  N   UNL A   1      43.024  29.812  30.233  1.00  0.00    -0.354 N 
ATOM     65  N   UNL A   1      47.383  28.259  30.529  1.00  0.00    -0.248 NA
ATOM     66  C   UNL A   1      47.704  29.279  28.430  1.00  0.00     0.031 C 
ATOM     67  C   UNL A   1      44.352  30.414  28.584  1.00  0.00     0.029 A 
ATOM     68  C   UNL A   1      44.344  29.913  29.893  1.00  0.00     0.049 A 
ATOM     69  H   UNL A   1      42.663  29.719  31.144  1.00  0.00     0.167 HD
ATOM     70  C   UNL A   1      46.607  29.385  30.405  1.00  0.00     0.074 A 
ATOM     71  C   UNL A   1      47.131  30.125  29.281  1.00  0.00     0.031 C 
ATOM     72  C   UNL A   1      45.309  29.332  30.796  1.00  0.00     0.034 A 
BRANCH  59  73
ATOM     73  C   UNL A   1      39.924  29.749  29.803  1.00  0.00     0.023 A 
ATOM     74  C   UNL A   1      39.478  30.984  29.247  1.00  0.00     0.012 A 
ATOM     75  C   UNL A   1      39.443  29.415  31.079  1.00  0.00     0.148 A 
ATOM     76  C   UNL A   1      38.703  31.895  29.960  1.00  0.00     0.002 A 
ATOM     77  C   UNL A   1      38.614  30.308  31.769  1.00  0.00     0.091 A 
ATOM     78  F   UNL A   1      39.853  28.288  31.670  1.00  0.00    -0.205 F 
ATOM     79  C   UNL A   1      38.279  31.560  31.232  1.00  0.00     0.022 A 
BRANCH  77  80
ATOM     80  S   UNL A   1      37.918  29.930  33.384  1.00  0.00     0.127 S 
ATOM     81  O   UNL A   1      39.110  29.864  34.223  1.00  0.00    -0.237 OA
ATOM     82  O   UNL A   1      37.068  31.099  33.630  1.00  0.00    -0.237 OA
ATOM     83  O   UNL A   1      37.174  28.690  33.207  1.00  0.00    -0.744 OA
ENDBRANCH  77  80
ENDBRANCH  59  73
BRANCH  60  84
ATOM     84  C   UNL A   1      49.919  26.887  28.583  1.00  0.00     0.023 A 
ATOM     85  C   UNL A   1      50.848  27.017  29.622  1.00  0.00     0.012 A 
ATOM     86  C   UNL A   1      50.487  26.711  27.277  1.00  0.00     0.148 A 
ATOM     87  C   UNL A   1      52.236  26.876  29.392  1.00  0.00     0.002 A 
ATOM     88  C   UNL A   1      51.839  26.451  27.067  1.00  0.00     0.091 A 
ATOM     89  F   UNL A   1      49.724  26.846  26.189  1.00  0.00    -0.205 F 
ATOM     90  C   UNL A   1      52.728  26.545  28.130  1.00  0.00     0.022 A 
BRANCH  88  91
ATOM     91  S   UNL A   1      52.463  25.856  25.478  1.00  0.00     0.127 S 
ATOM     92  O   UNL A   1      53.790  26.466  25.412  1.00  0.00    -0.237 OA
ATOM     93  O   UNL A   1      52.463  24.408  25.690  1.00  0.00    -0.237 OA
ATOM     94  O   UNL A   1      51.523  26.316  24.464  1.00  0.00    -0.744 OA
ENDBRANCH  88  91
ENDBRANCH  60  84
BRANCH  72  95
ATOM     95  C   UNL A   1      45.038  28.339  31.921  1.00  0.00     0.023 A 
ATOM     96  C   UNL A   1      44.504  27.087  31.557  1.00  0.00     0.012 A 
ATOM     97  C   UNL A   1      45.150  28.622  33.303  1.00  0.00     0.148 A 
ATOM     98  C   UNL A   1      44.089  26.162  32.518  1.00  0.00     0.002 A 
ATOM     99  C   UNL A   1      44.728  27.701  34.268  1.00  0.00     0.091 A 
ATOM    100  F   UNL A   1      45.658  29.796  33.672  1.00  0.00    -0.205 F 
ATOM    101  C   UNL A   1      44.198  26.467  33.870  1.00  0.00     0.022 A 
BRANCH  99 102
ATOM    102  S   UNL A   1      44.761  28.020  36.046  1.00  0.00     0.127 S 
ATOM    103  O   UNL A   1      43.958  26.920  36.586  1.00  0.00    -0.237 OA
ATOM    104  O   UNL A   1      46.187  27.919  36.351  1.00  0.00    -0.237 OA
ATOM    105  O   UNL A   1      44.175  29.338  36.253  1.00  0.00    -0.744 OA
ENDBRANCH  99 102
ENDBRANCH  72  95
ENDBRANCH  46  47
ENDBRANCH  38  41
ENDBRANCH  36  37
ENDBRANCH  35  36
ENDBRANCH  34  35
ENDBRANCH  33  34
ENDBRANCH   1  33
TORSDOF 22
ENDMDL
MODEL 3
REMARK VINA RESULT:     -10.9      3.281      4.802
REMARK SMILES CN(C)S(=O)(=O)c1ccc(-n2c(CCC(=O)NCCCCCCNC(=O)c3ccc(-c4c5nc(c(-c6cccc(S(=O)(=O)[O-])c6F)c6ccc([nH]6)c(-c6cccc(S(=O)(=O)[O-])c6F)c6nc(c(-c7cccc(S(=O)(=O)[O-])c7F)c7ccc4[nH]7)C=C6)C=C5)cc3)ccc2-c2ccc(F)cc2)cc1
REMARK SMILES IDX 19 1 18 2 17 3 15 4 16 5 14 7 13 8 12 9 11 10 92 11 90 12
REMARK SMILES IDX 91 13 10 14 7 15 8 16 101 17 9 18 100 19 4 20 5 21 6 22 2 23
REMARK SMILES IDX 1 24 3 25 93 26 94 27 99 28 95 29 98 30 96 31 97 32 20 33
REMARK SMILES IDX 21 34 22 35 23 36 24 37 25 38 26 40 27 41 28 42 89 43 29 44
REMARK SMILES IDX 88 45 30 46 31 47 32 48 82 49 33 50 87 51 81 52 83 53 34 54
REMARK SMILES IDX 86 55 80 56 79 57 35 59 67 60 47 61 66 62 48 63 51 64 65 65
REMARK SMILES IDX 84 66 49 67 50 68 64 70 85 71 52 72 36 73 37 74 45 75 38 76
REMARK SMILES IDX 40 77 46 78 39 79 41 80 42 81 43 82 44 83 68 84 69 85 77 86
REMARK SMILES IDX 70 87 72 88 78 89 71 90 73 91 74 92 75 93 76 94 53 95 54 96
REMARK SMILES IDX 62 97 55 98 57 99 63 100 56 101 58 102 59 103 60 104 61 105
REMARK H PARENT 17 6 24 39 83 58 51 69
REMARK Flexibility Score: inf
ROOT
ATOM      1  C   UNL A   1      35.660  21.113  25.387  1.00  0.00     0.021 C 
ENDROOT
BRANCH   1   2
ATOM      2  C   UNL A   1      34.391  20.999  24.536  1.00  0.00     0.116 C 
BRANCH   2   3
ATOM      3  N   UNL A   1      34.363  21.901  23.392  1.00  0.00    -0.356 N 
ATOM      4  C   UNL A   1      33.308  22.511  22.774  1.00  0.00     0.220 C 
ATOM      5  O   UNL A   1      33.561  23.299  21.855  1.00  0.00    -0.275 OA
ATOM      6  H   UNL A   1      35.245  22.103  23.003  1.00  0.00     0.163 HD
BRANCH   4   7
ATOM      7  C   UNL A   1      31.871  22.184  23.141  1.00  0.00     0.106 C 
BRANCH   7   8
ATOM      8  C   UNL A   1      31.055  23.384  23.664  1.00  0.00     0.064 C 
BRANCH   8   9
ATOM      9  C   UNL A   1      31.825  24.300  24.589  1.00  0.00     0.024 A 
ATOM     10  N   UNL A   1      31.839  25.713  24.590  1.00  0.00    -0.314 N 
ATOM     11  C   UNL A   1      32.719  26.126  25.612  1.00  0.00     0.053 A 
ATOM     12  C   UNL A   1      32.751  23.871  25.529  1.00  0.00     0.024 A 
ATOM     13  C   UNL A   1      33.312  24.999  26.151  1.00  0.00     0.029 A 
BRANCH  10  14
ATOM     14  C   UNL A   1      30.970  26.603  23.854  1.00  0.00     0.046 A 
ATOM     15  C   UNL A   1      29.221  28.587  22.853  1.00  0.00     0.082 A 
ATOM     16  C   UNL A   1      30.578  28.598  22.509  1.00  0.00     0.024 A 
ATOM     17  C   UNL A   1      28.746  27.593  23.685  1.00  0.00     0.024 A 
ATOM     18  C   UNL A   1      31.447  27.604  23.000  1.00  0.00     0.028 A 
ATOM     19  C   UNL A   1      29.611  26.605  24.141  1.00  0.00     0.028 A 
BRANCH  15  20
ATOM     20  S   UNL A   1      28.177  29.903  22.285  1.00  0.00     0.242 S 
ATOM     21  O   UNL A   1      26.955  29.865  23.078  1.00  0.00    -0.207 OA
ATOM     22  O   UNL A   1      28.134  29.794  20.850  1.00  0.00    -0.207 OA
BRANCH  20  23
ATOM     23  N   UNL A   1      28.964  31.405  22.655  1.00  0.00    -0.204 NA
ATOM     24  C   UNL A   1      28.726  32.411  21.582  1.00  0.00     0.124 C 
ATOM     25  C   UNL A   1      28.654  32.007  23.982  1.00  0.00     0.124 C 
ENDBRANCH  20  23
ENDBRANCH  15  20
ENDBRANCH  10  14
BRANCH  11  26
ATOM     26  C   UNL A   1      32.803  27.490  26.149  1.00  0.00    -0.001 A 
ATOM     27  C   UNL A   1      31.712  28.125  26.747  1.00  0.00     0.013 A 
ATOM     28  C   UNL A   1      34.029  28.170  26.086  1.00  0.00     0.013 A 
ATOM     29  C   UNL A   1      31.880  29.384  27.339  1.00  0.00     0.040 A 
ATOM     30  C   UNL A   1      34.199  29.424  26.663  1.00  0.00     0.040 A 
ATOM     31  C   UNL A   1      33.122  30.016  27.302  1.00  0.00     0.123 A 
ATOM     32  F   UNL A   1      33.273  31.234  27.837  1.00  0.00    -0.207 F 
ENDBRANCH  11  26
ENDBRANCH   8   9
ENDBRANCH   7   8
ENDBRANCH   4   7
ENDBRANCH   2   3
ENDBRANCH   1   2
BRANCH   1  33
ATOM     33  C   UNL A   1      36.585  22.285  25.031  1.00  0.00     0.002 C 
BRANCH  33  34
ATOM     34  C   UNL A   1      37.985  22.392  25.692  1.00  0.00     0.002 C 
BRANCH  34  35
ATOM     35  C   UNL A   1      38.442  23.669  26.429  1.00  0.00     0.021 C 
BRANCH  35  36
ATOM     36  C   UNL A   1      39.891  23.685  26.975  1.00  0.00     0.116 C 
BRANCH  36  37
ATOM     37  N   UNL A   1      40.782  24.468  26.122  1.00  0.00    -0.352 N 
ATOM     38  C   UNL A   1      41.069  25.814  26.045  1.00  0.00     0.251 C 
ATOM     39  H   UNL A   1      41.278  23.924  25.470  1.00  0.00     0.163 HD
ATOM     40  O   UNL A   1      41.585  26.196  24.989  1.00  0.00    -0.269 OA
BRANCH  38  41
ATOM     41  C   UNL A   1      40.835  26.823  27.121  1.00  0.00     0.039 A 
ATOM     42  C   UNL A   1      40.161  26.403  28.284  1.00  0.00     0.014 A 
ATOM     43  C   UNL A   1      41.117  28.179  26.990  1.00  0.00     0.014 A 
ATOM     44  C   UNL A   1      39.822  27.311  29.301  1.00  0.00     0.010 A 
ATOM     45  C   UNL A   1      40.705  29.104  27.967  1.00  0.00     0.010 A 
ATOM     46  C   UNL A   1      40.108  28.673  29.157  1.00  0.00    -0.014 A 
BRANCH  46  47
ATOM     47  C   UNL A   1      40.076  29.565  30.361  1.00  0.00     0.031 A 
ATOM     48  C   UNL A   1      41.145  29.130  31.399  1.00  0.00     0.074 A 
ATOM     49  C   UNL A   1      39.133  30.557  30.460  1.00  0.00     0.049 A 
ATOM     50  N   UNL A   1      41.084  29.095  32.701  1.00  0.00    -0.248 NA
ATOM     51  C   UNL A   1      42.410  28.509  30.918  1.00  0.00     0.031 C 
ATOM     52  C   UNL A   1      38.184  30.926  29.389  1.00  0.00     0.029 A 
ATOM     53  N   UNL A   1      38.773  31.458  31.456  1.00  0.00    -0.354 N 
ATOM     54  C   UNL A   1      42.350  28.653  33.163  1.00  0.00     0.074 A 
ATOM     55  C   UNL A   1      43.050  28.149  32.029  1.00  0.00     0.031 C 
ATOM     56  C   UNL A   1      37.334  31.894  29.803  1.00  0.00     0.029 A 
ATOM     57  C   UNL A   1      37.644  32.276  31.173  1.00  0.00     0.049 A 
ATOM     58  H   UNL A   1      39.269  31.527  32.304  1.00  0.00     0.167 HD
ATOM     59  C   UNL A   1      42.825  28.882  34.423  1.00  0.00     0.034 A 
ATOM     60  C   UNL A   1      36.979  33.172  31.977  1.00  0.00     0.034 A 
ATOM     61  C   UNL A   1      41.881  29.664  35.146  1.00  0.00     0.049 A 
ATOM     62  C   UNL A   1      37.759  33.277  33.217  1.00  0.00     0.074 A 
ATOM     63  C   UNL A   1      40.682  29.394  35.742  1.00  0.00     0.029 A 
ATOM     64  N   UNL A   1      42.052  31.022  35.034  1.00  0.00    -0.354 N 
ATOM     65  N   UNL A   1      38.871  33.938  33.338  1.00  0.00    -0.248 NA
ATOM     66  C   UNL A   1      37.290  32.560  34.411  1.00  0.00     0.031 C 
ATOM     67  C   UNL A   1      39.978  30.611  35.644  1.00  0.00     0.029 A 
ATOM     68  C   UNL A   1      40.814  31.597  35.104  1.00  0.00     0.049 A 
ATOM     69  H   UNL A   1      42.908  31.495  34.924  1.00  0.00     0.167 HD
ATOM     70  C   UNL A   1      39.388  33.401  34.491  1.00  0.00     0.074 A 
ATOM     71  C   UNL A   1      38.268  32.893  35.248  1.00  0.00     0.031 C 
ATOM     72  C   UNL A   1      40.641  32.880  34.467  1.00  0.00     0.034 A 
BRANCH  59  73
ATOM     73  C   UNL A   1      44.181  28.728  35.079  1.00  0.00     0.023 A 
ATOM     74  C   UNL A   1      44.161  28.138  36.377  1.00  0.00     0.012 A 
ATOM     75  C   UNL A   1      45.378  29.346  34.680  1.00  0.00     0.148 A 
ATOM     76  C   UNL A   1      45.217  28.262  37.278  1.00  0.00     0.002 A 
ATOM     77  C   UNL A   1      46.459  29.415  35.567  1.00  0.00     0.091 A 
ATOM     78  F   UNL A   1      45.449  29.948  33.489  1.00  0.00    -0.205 F 
ATOM     79  C   UNL A   1      46.366  28.913  36.873  1.00  0.00     0.022 A 
BRANCH  77  80
ATOM     80  S   UNL A   1      48.038  30.144  35.111  1.00  0.00     0.127 S 
ATOM     81  O   UNL A   1      48.310  29.509  33.825  1.00  0.00    -0.237 OA
ATOM     82  O   UNL A   1      47.703  31.569  35.024  1.00  0.00    -0.237 OA
ATOM     83  O   UNL A   1      48.946  29.822  36.204  1.00  0.00    -0.744 OA
ENDBRANCH  77  80
ENDBRANCH  59  73
BRANCH  60  84
ATOM     84  C   UNL A   1      35.682  33.975  31.949  1.00  0.00     0.023 A 
ATOM     85  C   UNL A   1      35.098  34.566  33.075  1.00  0.00     0.012 A 
ATOM     86  C   UNL A   1      34.996  34.215  30.711  1.00  0.00     0.148 A 
ATOM     87  C   UNL A   1      33.976  35.419  32.962  1.00  0.00     0.002 A 
ATOM     88  C   UNL A   1      33.971  35.146  30.581  1.00  0.00     0.091 A 
ATOM     89  F   UNL A   1      35.296  33.493  29.628  1.00  0.00    -0.205 F 
ATOM     90  C   UNL A   1      33.443  35.748  31.716  1.00  0.00     0.022 A 
BRANCH  88  91
ATOM     91  S   UNL A   1      33.388  35.709  28.964  1.00  0.00     0.127 S 
ATOM     92  O   UNL A   1      34.622  35.746  28.180  1.00  0.00    -0.237 OA
ATOM     93  O   UNL A   1      32.462  34.636  28.600  1.00  0.00    -0.237 OA
ATOM     94  O   UNL A   1      32.756  37.004  29.178  1.00  0.00    -0.744 OA
ENDBRANCH  88  91
ENDBRANCH  60  84
BRANCH  72  95
ATOM     95  C   UNL A   1      41.567  33.538  33.449  1.00  0.00     0.023 A 
ATOM     96  C   UNL A   1      41.807  34.918  33.598  1.00  0.00     0.012 A 
ATOM     97  C   UNL A   1      42.092  32.905  32.296  1.00  0.00     0.148 A 
ATOM     98  C   UNL A   1      42.524  35.642  32.642  1.00  0.00     0.002 A 
ATOM     99  C   UNL A   1      42.803  33.630  31.334  1.00  0.00     0.091 A 
ATOM    100  F   UNL A   1      41.884  31.600  32.137  1.00  0.00    -0.205 F 
ATOM    101  C   UNL A   1      43.019  35.002  31.511  1.00  0.00     0.022 A 
BRANCH  99 102
ATOM    102  S   UNL A   1      43.432  32.915  29.798  1.00  0.00     0.127 S 
ATOM    103  O   UNL A   1      44.511  32.042  30.267  1.00  0.00    -0.237 OA
ATOM    104  O   UNL A   1      42.265  32.196  29.291  1.00  0.00    -0.237 OA
ATOM    105  O   UNL A   1      43.886  34.023  28.967  1.00  0.00    -0.744 OA
ENDBRANCH  99 102
ENDBRANCH  72  95
ENDBRANCH  46  47
ENDBRANCH  38  41
ENDBRANCH  36  37
ENDBRANCH  35  36
ENDBRANCH  34  35
ENDBRANCH  33  34
ENDBRANCH   1  33
TORSDOF 22
ENDMDL
