MODEL 1
REMARK VINA RESULT:     -11.8      0.000      0.000
REMARK SMILES CCOc1ccc(-c2cnc(N)cc2C(=O)NCCCCCCNC(=O)c2ccc(-c3c4nc(c(-c5cccc(S(=O)(=O)[O-])c5F)c5ccc([nH]5)c(-c5cccc(S(=O)(=O)[O-])c5F)c5nc(c(-c6cccc(S(=O)(=O)[O-])c6F)c6ccc3[nH]6)C=C5)C=C4)cc2)c(Cl)c1
REMARK SMILES IDX 20 1 19 2 18 3 17 4 15 5 16 6 14 8 8 9 9 10 10 11 13 12
REMARK SMILES IDX 11 13 7 14 4 15 5 16 92 17 6 18 90 19 91 20 3 21 2 22 1 23
REMARK SMILES IDX 12 24 21 27 22 28 23 29 24 30 25 31 26 33 27 34 28 35 89 36
REMARK SMILES IDX 29 37 88 38 30 39 31 40 32 41 82 42 33 43 87 44 81 45 83 46
REMARK SMILES IDX 34 47 86 48 80 49 79 50 35 52 67 53 47 54 66 55 48 56 51 57
REMARK SMILES IDX 65 58 84 59 49 60 50 61 64 63 85 64 52 65 36 66 37 67 45 68
REMARK SMILES IDX 38 69 40 70 46 71 39 72 41 73 42 74 43 75 44 76 68 77 69 78
REMARK SMILES IDX 77 79 70 80 72 81 78 82 71 83 73 84 74 85 75 86 76 87 53 88
REMARK SMILES IDX 54 89 62 90 55 91 57 92 63 93 56 94 58 95 59 96 60 97 61 98
REMARK H PARENT 17 7 12 25 12 26 24 32 83 51 51 62
REMARK Flexibility Score: inf
ROOT
ATOM      1  C   UNL A   1      33.042  30.081  26.458  1.00  0.00     0.002 C 
ENDROOT
BRANCH   1   2
ATOM      2  C   UNL A   1      32.936  28.606  26.879  1.00  0.00     0.021 C 
BRANCH   2   3
ATOM      3  C   UNL A   1      31.697  28.316  27.726  1.00  0.00     0.116 C 
BRANCH   3   4
ATOM      4  N   UNL A   1      31.063  27.091  27.286  1.00  0.00    -0.352 N 
ATOM      5  C   UNL A   1      30.766  26.509  26.083  1.00  0.00     0.252 C 
ATOM      6  O   UNL A   1      30.231  25.404  26.193  1.00  0.00    -0.269 OA
ATOM      7  H   UNL A   1      30.773  26.535  28.044  1.00  0.00     0.163 HD
BRANCH   5   8
ATOM      8  C   UNL A   1      31.111  27.067  24.726  1.00  0.00     0.052 A 
ATOM      9  C   UNL A   1      32.223  26.566  24.012  1.00  0.00     0.014 A 
ATOM     10  C   UNL A   1      32.608  27.282  22.873  1.00  0.00     0.123 A 
ATOM     11  N   UNL A   1      32.013  28.401  22.411  1.00  0.00    -0.239 NA
ATOM     12  C   UNL A   1      30.408  28.133  24.154  1.00  0.00     0.061 A 
ATOM     13  C   UNL A   1      30.922  28.810  23.059  1.00  0.00     0.124 A 
BRANCH   9  14
ATOM     14  C   UNL A   1      33.010  25.366  24.359  1.00  0.00     0.003 A 
ATOM     15  C   UNL A   1      34.614  23.152  25.054  1.00  0.00     0.120 A 
ATOM     16  C   UNL A   1      35.072  24.445  25.281  1.00  0.00     0.047 A 
ATOM     17  C   UNL A   1      33.385  22.948  24.432  1.00  0.00     0.067 A 
ATOM     18  C   UNL A   1      34.269  25.538  24.962  1.00  0.00     0.014 A 
ATOM     19  C   UNL A   1      32.595  24.047  24.071  1.00  0.00     0.052 A 
ATOM     20  Cl  UNL A   1      31.123  23.717  23.216  1.00  0.00    -0.084 Cl
BRANCH  15  21
ATOM     21  O   UNL A   1      35.396  22.061  25.309  1.00  0.00    -0.494 OA
BRANCH  21  22
ATOM     22  C   UNL A   1      36.728  22.397  25.719  1.00  0.00     0.226 C 
ATOM     23  C   UNL A   1      37.761  21.454  25.119  1.00  0.00     0.049 C 
ENDBRANCH  21  22
ENDBRANCH  15  21
ENDBRANCH   9  14
BRANCH  13  24
ATOM     24  N   UNL A   1      30.292  29.935  22.567  1.00  0.00    -0.384 N 
ATOM     25  H   UNL A   1      30.169  30.722  23.146  1.00  0.00     0.158 HD
ATOM     26  H   UNL A   1      29.967  29.950  21.638  1.00  0.00     0.158 HD
ENDBRANCH  13  24
ENDBRANCH   5   8
ENDBRANCH   3   4
ENDBRANCH   2   3
ENDBRANCH   1   2
BRANCH   1  27
ATOM     27  C   UNL A   1      31.704  30.750  26.117  1.00  0.00     0.002 C 
BRANCH  27  28
ATOM     28  C   UNL A   1      31.483  32.111  26.782  1.00  0.00     0.021 C 
BRANCH  28  29
ATOM     29  C   UNL A   1      32.762  32.760  27.297  1.00  0.00     0.116 C 
BRANCH  29  30
ATOM     30  N   UNL A   1      32.543  34.155  27.650  1.00  0.00    -0.352 N 
ATOM     31  C   UNL A   1      33.077  34.876  28.686  1.00  0.00     0.251 C 
ATOM     32  H   UNL A   1      31.926  34.649  27.062  1.00  0.00     0.163 HD
ATOM     33  O   UNL A   1      32.596  35.962  28.995  1.00  0.00    -0.269 OA
BRANCH  31  34
ATOM     34  C   UNL A   1      34.231  34.332  29.431  1.00  0.00     0.039 A 
ATOM     35  C   UNL A   1      34.013  33.695  30.654  1.00  0.00     0.014 A 
ATOM     36  C   UNL A   1      35.527  34.459  28.921  1.00  0.00     0.014 A 
ATOM     37  C   UNL A   1      35.094  33.145  31.345  1.00  0.00     0.010 A 
ATOM     38  C   UNL A   1      36.590  33.841  29.571  1.00  0.00     0.010 A 
ATOM     39  C   UNL A   1      36.387  33.190  30.797  1.00  0.00    -0.014 A 
BRANCH  39  40
ATOM     40  C   UNL A   1      37.540  32.561  31.489  1.00  0.00     0.031 A 
ATOM     41  C   UNL A   1      38.277  31.418  30.846  1.00  0.00     0.074 A 
ATOM     42  C   UNL A   1      37.867  32.963  32.732  1.00  0.00     0.049 A 
ATOM     43  N   UNL A   1      39.277  30.717  31.313  1.00  0.00    -0.248 NA
ATOM     44  C   UNL A   1      37.812  30.986  29.517  1.00  0.00     0.031 C 
ATOM     45  C   UNL A   1      37.178  34.010  33.491  1.00  0.00     0.029 A 
ATOM     46  N   UNL A   1      38.848  32.525  33.585  1.00  0.00    -0.354 N 
ATOM     47  C   UNL A   1      39.535  29.741  30.358  1.00  0.00     0.074 A 
ATOM     48  C   UNL A   1      38.564  29.917  29.302  1.00  0.00     0.031 C 
ATOM     49  C   UNL A   1      37.764  34.140  34.691  1.00  0.00     0.029 A 
ATOM     50  C   UNL A   1      38.846  33.167  34.801  1.00  0.00     0.049 A 
ATOM     51  H   UNL A   1      39.491  31.819  33.350  1.00  0.00     0.167 HD
ATOM     52  C   UNL A   1      40.509  28.800  30.347  1.00  0.00     0.034 A 
ATOM     53  C   UNL A   1      39.625  32.988  35.886  1.00  0.00     0.034 A 
ATOM     54  C   UNL A   1      41.495  28.653  31.384  1.00  0.00     0.049 A 
ATOM     55  C   UNL A   1      40.721  31.958  35.837  1.00  0.00     0.074 A 
ATOM     56  C   UNL A   1      42.581  27.798  31.424  1.00  0.00     0.029 A 
ATOM     57  N   UNL A   1      41.507  29.370  32.571  1.00  0.00    -0.354 N 
ATOM     58  N   UNL A   1      41.053  31.155  34.857  1.00  0.00    -0.248 NA
ATOM     59  C   UNL A   1      41.571  31.836  37.030  1.00  0.00     0.031 C 
ATOM     60  C   UNL A   1      43.229  27.971  32.651  1.00  0.00     0.029 A 
ATOM     61  C   UNL A   1      42.569  28.963  33.360  1.00  0.00     0.049 A 
ATOM     62  H   UNL A   1      40.855  30.065  32.818  1.00  0.00     0.167 HD
ATOM     63  C   UNL A   1      42.172  30.456  35.298  1.00  0.00     0.074 A 
ATOM     64  C   UNL A   1      42.470  30.948  36.628  1.00  0.00     0.031 C 
ATOM     65  C   UNL A   1      42.881  29.490  34.664  1.00  0.00     0.034 A 
BRANCH  52  66
ATOM     66  C   UNL A   1      40.575  27.875  29.158  1.00  0.00     0.023 A 
ATOM     67  C   UNL A   1      39.704  26.768  29.081  1.00  0.00     0.012 A 
ATOM     68  C   UNL A   1      41.468  28.124  28.097  1.00  0.00     0.148 A 
ATOM     69  C   UNL A   1      39.751  25.899  27.992  1.00  0.00     0.002 A 
ATOM     70  C   UNL A   1      41.474  27.282  26.991  1.00  0.00     0.091 A 
ATOM     71  F   UNL A   1      42.303  29.167  28.195  1.00  0.00    -0.205 F 
ATOM     72  C   UNL A   1      40.628  26.162  26.943  1.00  0.00     0.022 A 
BRANCH  70  73
ATOM     73  S   UNL A   1      42.507  27.583  25.553  1.00  0.00     0.127 S 
ATOM     74  O   UNL A   1      43.843  27.589  26.146  1.00  0.00    -0.237 OA
ATOM     75  O   UNL A   1      42.216  26.419  24.715  1.00  0.00    -0.237 OA
ATOM     76  O   UNL A   1      42.062  28.854  24.998  1.00  0.00    -0.744 OA
ENDBRANCH  70  73
ENDBRANCH  52  66
BRANCH  53  77
ATOM     77  C   UNL A   1      39.438  33.855  37.083  1.00  0.00     0.023 A 
ATOM     78  C   UNL A   1      39.864  35.198  37.037  1.00  0.00     0.012 A 
ATOM     79  C   UNL A   1      38.810  33.374  38.248  1.00  0.00     0.148 A 
ATOM     80  C   UNL A   1      39.693  36.036  38.138  1.00  0.00     0.002 A 
ATOM     81  C   UNL A   1      38.593  34.230  39.321  1.00  0.00     0.091 A 
ATOM     82  F   UNL A   1      38.418  32.092  38.272  1.00  0.00    -0.205 F 
ATOM     83  C   UNL A   1      39.049  35.556  39.276  1.00  0.00     0.022 A 
BRANCH  81  84
ATOM     84  S   UNL A   1      37.656  33.739  40.773  1.00  0.00     0.127 S 
ATOM     85  O   UNL A   1      36.430  33.216  40.176  1.00  0.00    -0.237 OA
ATOM     86  O   UNL A   1      38.532  32.731  41.368  1.00  0.00    -0.237 OA
ATOM     87  O   UNL A   1      37.502  34.947  41.572  1.00  0.00    -0.744 OA
ENDBRANCH  81  84
ENDBRANCH  53  77
BRANCH  65  88
ATOM     88  C   UNL A   1      44.078  28.918  35.379  1.00  0.00     0.023 A 
ATOM     89  C   UNL A   1      45.352  29.489  35.191  1.00  0.00     0.012 A 
ATOM     90  C   UNL A   1      43.923  27.861  36.298  1.00  0.00     0.148 A 
ATOM     91  C   UNL A   1      46.459  28.993  35.878  1.00  0.00     0.002 A 
ATOM     92  C   UNL A   1      45.021  27.407  37.018  1.00  0.00     0.091 A 
ATOM     93  F   UNL A   1      42.706  27.319  36.450  1.00  0.00    -0.205 F 
ATOM     94  C   UNL A   1      46.292  27.962  36.800  1.00  0.00     0.022 A 
BRANCH  92  95
ATOM     95  S   UNL A   1      44.884  26.153  38.298  1.00  0.00     0.127 S 
ATOM     96  O   UNL A   1      44.403  25.002  37.536  1.00  0.00    -0.237 OA
ATOM     97  O   UNL A   1      46.264  26.040  38.769  1.00  0.00    -0.237 OA
ATOM     98  O   UNL A   1      43.951  26.684  39.283  1.00  0.00    -0.744 OA
ENDBRANCH  92  95
ENDBRANCH  65  88
ENDBRANCH  39  40
ENDBRANCH  31  34
ENDBRANCH  29  30
ENDBRANCH  28  29
ENDBRANCH  27  28
ENDBRANCH   1  27
TORSDOF 20
ENDMDL
MODEL 2
REMARK VINA RESULT:     -11.4      1.350      2.988
REMARK SMILES CCOc1ccc(-c2cnc(N)cc2C(=O)NCCCCCCNC(=O)c2ccc(-c3c4nc(c(-c5cccc(S(=O)(=O)[O-])c5F)c5ccc([nH]5)c(-c5cccc(S(=O)(=O)[O-])c5F)c5nc(c(-c6cccc(S(=O)(=O)[O-])c6F)c6ccc3[nH]6)C=C5)C=C4)cc2)c(Cl)c1
REMARK SMILES IDX 20 1 19 2 18 3 17 4 15 5 16 6 14 8 8 9 9 10 10 11 13 12
REMARK SMILES IDX 11 13 7 14 4 15 5 16 92 17 6 18 90 19 91 20 3 21 2 22 1 23
REMARK SMILES IDX 12 24 21 27 22 28 23 29 24 30 25 31 26 33 27 34 28 35 89 36
REMARK SMILES IDX 29 37 88 38 30 39 31 40 32 41 82 42 33 43 87 44 81 45 83 46
REMARK SMILES IDX 34 47 86 48 80 49 79 50 35 52 67 53 47 54 66 55 48 56 51 57
REMARK SMILES IDX 65 58 84 59 49 60 50 61 64 63 85 64 52 65 36 66 37 67 45 68
REMARK SMILES IDX 38 69 40 70 46 71 39 72 41 73 42 74 43 75 44 76 68 77 69 78
REMARK SMILES IDX 77 79 70 80 72 81 78 82 71 83 73 84 74 85 75 86 76 87 53 88
REMARK SMILES IDX 54 89 62 90 55 91 57 92 63 93 56 94 58 95 59 96 60 97 61 98
REMARK H PARENT 17 7 12 25 12 26 24 32 83 51 51 62
REMARK Flexibility Score: inf
ROOT
ATOM      1  C   UNL A   1      32.339  29.922  26.839  1.00  0.00     0.002 C 
ENDROOT
BRANCH   1   2
ATOM      2  C   UNL A   1      31.640  28.556  26.736  1.00  0.00     0.021 C 
BRANCH   2   3
ATOM      3  C   UNL A   1      32.592  27.381  26.960  1.00  0.00     0.116 C 
BRANCH   3   4
ATOM      4  N   UNL A   1      31.864  26.131  26.914  1.00  0.00    -0.352 N 
ATOM      5  C   UNL A   1      32.006  24.927  26.277  1.00  0.00     0.252 C 
ATOM      6  O   UNL A   1      31.131  24.111  26.572  1.00  0.00    -0.269 OA
ATOM      7  H   UNL A   1      31.064  26.150  27.486  1.00  0.00     0.163 HD
BRANCH   5   8
ATOM      8  C   UNL A   1      33.143  24.543  25.364  1.00  0.00     0.052 A 
ATOM      9  C   UNL A   1      33.256  25.129  24.083  1.00  0.00     0.014 A 
ATOM     10  C   UNL A   1      34.197  24.560  23.218  1.00  0.00     0.123 A 
ATOM     11  N   UNL A   1      34.992  23.508  23.504  1.00  0.00    -0.239 NA
ATOM     12  C   UNL A   1      34.076  23.557  25.705  1.00  0.00     0.061 A 
ATOM     13  C   UNL A   1      34.918  23.021  24.743  1.00  0.00     0.124 A 
BRANCH   9  14
ATOM     14  C   UNL A   1      32.475  26.276  23.580  1.00  0.00     0.003 A 
ATOM     15  C   UNL A   1      31.080  28.546  22.655  1.00  0.00     0.120 A 
ATOM     16  C   UNL A   1      32.389  28.668  23.108  1.00  0.00     0.047 A 
ATOM     17  C   UNL A   1      30.436  27.314  22.710  1.00  0.00     0.067 A 
ATOM     18  C   UNL A   1      33.087  27.541  23.539  1.00  0.00     0.014 A 
ATOM     19  C   UNL A   1      31.122  26.188  23.185  1.00  0.00     0.052 A 
ATOM     20  Cl  UNL A   1      30.225  24.710  23.312  1.00  0.00    -0.084 Cl
BRANCH  15  21
ATOM     21  O   UNL A   1      30.351  29.638  22.272  1.00  0.00    -0.494 OA
BRANCH  21  22
ATOM     22  C   UNL A   1      28.936  29.408  22.273  1.00  0.00     0.226 C 
ATOM     23  C   UNL A   1      28.203  30.380  21.360  1.00  0.00     0.049 C 
ENDBRANCH  21  22
ENDBRANCH  15  21
ENDBRANCH   9  14
BRANCH  13  24
ATOM     24  N   UNL A   1      35.754  21.966  25.047  1.00  0.00    -0.384 N 
ATOM     25  H   UNL A   1      36.711  22.015  24.818  1.00  0.00     0.158 HD
ATOM     26  H   UNL A   1      35.394  21.166  25.493  1.00  0.00     0.158 HD
ENDBRANCH  13  24
ENDBRANCH   5   8
ENDBRANCH   3   4
ENDBRANCH   2   3
ENDBRANCH   1   2
BRANCH   1  27
ATOM     27  C   UNL A   1      31.684  31.043  26.022  1.00  0.00     0.002 C 
BRANCH  27  28
ATOM     28  C   UNL A   1      31.443  32.341  26.797  1.00  0.00     0.021 C 
BRANCH  28  29
ATOM     29  C   UNL A   1      32.697  32.910  27.449  1.00  0.00     0.116 C 
BRANCH  29  30
ATOM     30  N   UNL A   1      32.538  34.324  27.758  1.00  0.00    -0.352 N 
ATOM     31  C   UNL A   1      33.119  35.058  28.760  1.00  0.00     0.251 C 
ATOM     32  H   UNL A   1      31.928  34.821  27.166  1.00  0.00     0.163 HD
ATOM     33  O   UNL A   1      32.686  36.171  29.040  1.00  0.00    -0.269 OA
BRANCH  31  34
ATOM     34  C   UNL A   1      34.267  34.495  29.502  1.00  0.00     0.039 A 
ATOM     35  C   UNL A   1      34.040  33.853  30.721  1.00  0.00     0.014 A 
ATOM     36  C   UNL A   1      35.564  34.608  28.992  1.00  0.00     0.014 A 
ATOM     37  C   UNL A   1      35.115  33.285  31.408  1.00  0.00     0.010 A 
ATOM     38  C   UNL A   1      36.619  33.973  29.638  1.00  0.00     0.010 A 
ATOM     39  C   UNL A   1      36.408  33.317  30.860  1.00  0.00    -0.014 A 
BRANCH  39  40
ATOM     40  C   UNL A   1      37.553  32.669  31.548  1.00  0.00     0.031 A 
ATOM     41  C   UNL A   1      38.273  31.520  30.900  1.00  0.00     0.074 A 
ATOM     42  C   UNL A   1      37.887  33.062  32.792  1.00  0.00     0.049 A 
ATOM     43  N   UNL A   1      39.264  30.803  31.363  1.00  0.00    -0.248 NA
ATOM     44  C   UNL A   1      37.800  31.099  29.569  1.00  0.00     0.031 C 
ATOM     45  C   UNL A   1      37.213  34.115  33.557  1.00  0.00     0.029 A 
ATOM     46  N   UNL A   1      38.863  32.608  33.643  1.00  0.00    -0.354 N 
ATOM     47  C   UNL A   1      39.508  29.827  30.403  1.00  0.00     0.074 A 
ATOM     48  C   UNL A   1      38.537  30.021  29.349  1.00  0.00     0.031 C 
ATOM     49  C   UNL A   1      37.802  34.232  34.757  1.00  0.00     0.029 A 
ATOM     50  C   UNL A   1      38.871  33.244  34.862  1.00  0.00     0.049 A 
ATOM     51  H   UNL A   1      39.496  31.893  33.403  1.00  0.00     0.167 HD
ATOM     52  C   UNL A   1      40.468  28.872  30.388  1.00  0.00     0.034 A 
ATOM     53  C   UNL A   1      39.648  33.050  35.945  1.00  0.00     0.034 A 
ATOM     54  C   UNL A   1      41.453  28.708  31.423  1.00  0.00     0.049 A 
ATOM     55  C   UNL A   1      40.730  32.005  35.890  1.00  0.00     0.074 A 
ATOM     56  C   UNL A   1      42.528  27.838  31.457  1.00  0.00     0.029 A 
ATOM     57  N   UNL A   1      41.477  29.420  32.612  1.00  0.00    -0.354 N 
ATOM     58  N   UNL A   1      41.050  31.201  34.906  1.00  0.00    -0.248 NA
ATOM     59  C   UNL A   1      41.579  31.866  37.081  1.00  0.00     0.031 C 
ATOM     60  C   UNL A   1      43.179  27.997  32.685  1.00  0.00     0.029 A 
ATOM     61  C   UNL A   1      42.534  28.995  33.399  1.00  0.00     0.049 A 
ATOM     62  H   UNL A   1      40.835  30.123  32.863  1.00  0.00     0.167 HD
ATOM     63  C   UNL A   1      42.159  30.486  35.344  1.00  0.00     0.074 A 
ATOM     64  C   UNL A   1      42.466  30.968  36.675  1.00  0.00     0.031 C 
ATOM     65  C   UNL A   1      42.855  29.512  34.704  1.00  0.00     0.034 A 
BRANCH  52  66
ATOM     66  C   UNL A   1      40.520  27.952  29.194  1.00  0.00     0.023 A 
ATOM     67  C   UNL A   1      39.635  26.856  29.116  1.00  0.00     0.012 A 
ATOM     68  C   UNL A   1      41.413  28.194  28.133  1.00  0.00     0.148 A 
ATOM     69  C   UNL A   1      39.670  25.991  28.023  1.00  0.00     0.002 A 
ATOM     70  C   UNL A   1      41.407  27.357  27.023  1.00  0.00     0.091 A 
ATOM     71  F   UNL A   1      42.261  29.227  28.233  1.00  0.00    -0.205 F 
ATOM     72  C   UNL A   1      40.547  26.247  26.973  1.00  0.00     0.022 A 
BRANCH  70  73
ATOM     73  S   UNL A   1      42.439  27.651  25.583  1.00  0.00     0.127 S 
ATOM     74  O   UNL A   1      41.918  28.930  25.104  1.00  0.00    -0.237 OA
ATOM     75  O   UNL A   1      43.777  27.720  26.172  1.00  0.00    -0.237 OA
ATOM     76  O   UNL A   1      42.226  26.515  24.697  1.00  0.00    -0.744 OA
ENDBRANCH  70  73
ENDBRANCH  52  66
BRANCH  53  77
ATOM     77  C   UNL A   1      39.475  33.915  37.145  1.00  0.00     0.023 A 
ATOM     78  C   UNL A   1      39.904  35.256  37.098  1.00  0.00     0.012 A 
ATOM     79  C   UNL A   1      38.857  33.432  38.315  1.00  0.00     0.148 A 
ATOM     80  C   UNL A   1      39.745  36.093  38.203  1.00  0.00     0.002 A 
ATOM     81  C   UNL A   1      38.652  34.286  39.392  1.00  0.00     0.091 A 
ATOM     82  F   UNL A   1      38.462  32.151  38.340  1.00  0.00    -0.205 F 
ATOM     83  C   UNL A   1      39.111  35.611  39.345  1.00  0.00     0.022 A 
BRANCH  81  84
ATOM     84  S   UNL A   1      37.728  33.794  40.852  1.00  0.00     0.127 S 
ATOM     85  O   UNL A   1      37.447  35.084  41.477  1.00  0.00    -0.237 OA
ATOM     86  O   UNL A   1      36.567  33.128  40.262  1.00  0.00    -0.237 OA
ATOM     87  O   UNL A   1      38.612  32.911  41.601  1.00  0.00    -0.744 OA
ENDBRANCH  81  84
ENDBRANCH  53  77
BRANCH  65  88
ATOM     88  C   UNL A   1      44.044  28.921  35.416  1.00  0.00     0.023 A 
ATOM     89  C   UNL A   1      45.323  29.485  35.241  1.00  0.00     0.012 A 
ATOM     90  C   UNL A   1      43.878  27.851  36.318  1.00  0.00     0.148 A 
ATOM     91  C   UNL A   1      46.424  28.971  35.925  1.00  0.00     0.002 A 
ATOM     92  C   UNL A   1      44.970  27.379  37.036  1.00  0.00     0.091 A 
ATOM     93  F   UNL A   1      42.657  27.316  36.457  1.00  0.00    -0.205 F 
ATOM     94  C   UNL A   1      46.246  27.928  36.831  1.00  0.00     0.022 A 
BRANCH  92  95
ATOM     95  S   UNL A   1      44.818  26.107  38.296  1.00  0.00     0.127 S 
ATOM     96  O   UNL A   1      44.041  25.085  37.595  1.00  0.00    -0.237 OA
ATOM     97  O   UNL A   1      46.215  25.749  38.544  1.00  0.00    -0.237 OA
ATOM     98  O   UNL A   1      44.146  26.738  39.425  1.00  0.00    -0.744 OA
ENDBRANCH  92  95
ENDBRANCH  65  88
ENDBRANCH  39  40
ENDBRANCH  31  34
ENDBRANCH  29  30
ENDBRANCH  28  29
ENDBRANCH  27  28
ENDBRANCH   1  27
TORSDOF 20
ENDMDL
MODEL 3
REMARK VINA RESULT:     -11.4      1.408      7.637
REMARK SMILES CCOc1ccc(-c2cnc(N)cc2C(=O)NCCCCCCNC(=O)c2ccc(-c3c4nc(c(-c5cccc(S(=O)(=O)[O-])c5F)c5ccc([nH]5)c(-c5cccc(S(=O)(=O)[O-])c5F)c5nc(c(-c6cccc(S(=O)(=O)[O-])c6F)c6ccc3[nH]6)C=C5)C=C4)cc2)c(Cl)c1
REMARK SMILES IDX 20 1 19 2 18 3 17 4 15 5 16 6 14 8 8 9 9 10 10 11 13 12
REMARK SMILES IDX 11 13 7 14 4 15 5 16 92 17 6 18 90 19 91 20 3 21 2 22 1 23
REMARK SMILES IDX 12 24 21 27 22 28 23 29 24 30 25 31 26 33 27 34 28 35 89 36
REMARK SMILES IDX 29 37 88 38 30 39 31 40 32 41 82 42 33 43 87 44 81 45 83 46
REMARK SMILES IDX 34 47 86 48 80 49 79 50 35 52 67 53 47 54 66 55 48 56 51 57
REMARK SMILES IDX 65 58 84 59 49 60 50 61 64 63 85 64 52 65 36 66 37 67 45 68
REMARK SMILES IDX 38 69 40 70 46 71 39 72 41 73 42 74 43 75 44 76 68 77 69 78
REMARK SMILES IDX 77 79 70 80 72 81 78 82 71 83 73 84 74 85 75 86 76 87 53 88
REMARK SMILES IDX 54 89 62 90 55 91 57 92 63 93 56 94 58 95 59 96 60 97 61 98
REMARK H PARENT 17 7 12 25 12 26 24 32 83 51 51 62
REMARK Flexibility Score: inf
ROOT
ATOM      1  C   UNL A   1      32.881  29.820  25.968  1.00  0.00     0.002 C 
ENDROOT
BRANCH   1   2
ATOM      2  C   UNL A   1      32.901  28.537  26.815  1.00  0.00     0.021 C 
BRANCH   2   3
ATOM      3  C   UNL A   1      31.603  28.316  27.592  1.00  0.00     0.116 C 
BRANCH   3   4
ATOM      4  N   UNL A   1      31.028  27.031  27.252  1.00  0.00    -0.352 N 
ATOM      5  C   UNL A   1      30.768  26.337  26.101  1.00  0.00     0.252 C 
ATOM      6  O   UNL A   1      30.281  25.223  26.300  1.00  0.00    -0.269 OA
ATOM      7  H   UNL A   1      30.755  26.528  28.053  1.00  0.00     0.163 HD
BRANCH   5   8
ATOM      8  C   UNL A   1      31.101  26.795  24.704  1.00  0.00     0.052 A 
ATOM      9  C   UNL A   1      32.242  26.288  24.041  1.00  0.00     0.014 A 
ATOM     10  C   UNL A   1      32.606  26.923  22.849  1.00  0.00     0.123 A 
ATOM     11  N   UNL A   1      31.964  27.970  22.290  1.00  0.00    -0.239 NA
ATOM     12  C   UNL A   1      30.355  27.774  24.039  1.00  0.00     0.061 A 
ATOM     13  C   UNL A   1      30.849  28.380  22.894  1.00  0.00     0.124 A 
BRANCH   9  14
ATOM     14  C   UNL A   1      33.080  25.160  24.494  1.00  0.00     0.003 A 
ATOM     15  C   UNL A   1      34.775  23.091  25.391  1.00  0.00     0.120 A 
ATOM     16  C   UNL A   1      35.148  24.420  25.556  1.00  0.00     0.047 A 
ATOM     17  C   UNL A   1      33.590  22.778  24.732  1.00  0.00     0.067 A 
ATOM     18  C   UNL A   1      34.299  25.442  25.137  1.00  0.00     0.014 A 
ATOM     19  C   UNL A   1      32.755  23.804  24.271  1.00  0.00     0.052 A 
ATOM     20  Cl  UNL A   1      31.344  23.336  23.378  1.00  0.00    -0.084 Cl
BRANCH  15  21
ATOM     21  O   UNL A   1      35.607  22.065  25.744  1.00  0.00    -0.494 OA
BRANCH  21  22
ATOM     22  C   UNL A   1      36.865  22.088  25.057  1.00  0.00     0.226 C 
ATOM     23  C   UNL A   1      37.506  20.709  25.002  1.00  0.00     0.049 C 
ENDBRANCH  21  22
ENDBRANCH  15  21
ENDBRANCH   9  14
BRANCH  13  24
ATOM     24  N   UNL A   1      30.172  29.429  22.304  1.00  0.00    -0.384 N 
ATOM     25  H   UNL A   1      29.871  29.357  21.370  1.00  0.00     0.158 HD
ATOM     26  H   UNL A   1      29.991  30.248  22.819  1.00  0.00     0.158 HD
ENDBRANCH  13  24
ENDBRANCH   5   8
ENDBRANCH   3   4
ENDBRANCH   2   3
ENDBRANCH   1   2
BRANCH   1  27
ATOM     27  C   UNL A   1      31.505  30.488  25.844  1.00  0.00     0.002 C 
BRANCH  27  28
ATOM     28  C   UNL A   1      31.403  31.867  26.500  1.00  0.00     0.021 C 
BRANCH  28  29
ATOM     29  C   UNL A   1      32.672  32.299  27.227  1.00  0.00     0.116 C 
BRANCH  29  30
ATOM     30  N   UNL A   1      32.634  33.715  27.561  1.00  0.00    -0.352 N 
ATOM     31  C   UNL A   1      33.321  34.388  28.537  1.00  0.00     0.251 C 
ATOM     32  H   UNL A   1      32.031  34.265  27.009  1.00  0.00     0.163 HD
ATOM     33  O   UNL A   1      32.988  35.525  28.855  1.00  0.00    -0.269 OA
BRANCH  31  34
ATOM     34  C   UNL A   1      34.463  33.732  29.207  1.00  0.00     0.039 A 
ATOM     35  C   UNL A   1      34.218  32.705  30.121  1.00  0.00     0.014 A 
ATOM     36  C   UNL A   1      35.774  34.136  28.933  1.00  0.00     0.014 A 
ATOM     37  C   UNL A   1      35.293  32.054  30.729  1.00  0.00     0.010 A 
ATOM     38  C   UNL A   1      36.843  33.433  29.478  1.00  0.00     0.010 A 
ATOM     39  C   UNL A   1      36.614  32.394  30.392  1.00  0.00    -0.014 A 
BRANCH  39  40
ATOM     40  C   UNL A   1      37.769  31.675  30.984  1.00  0.00     0.031 A 
ATOM     41  C   UNL A   1      38.198  31.962  32.397  1.00  0.00     0.074 A 
ATOM     42  C   UNL A   1      38.483  30.825  30.220  1.00  0.00     0.049 A 
ATOM     43  N   UNL A   1      39.204  31.466  33.069  1.00  0.00    -0.248 NA
ATOM     44  C   UNL A   1      37.412  32.959  33.144  1.00  0.00     0.031 C 
ATOM     45  C   UNL A   1      38.212  30.523  28.812  1.00  0.00     0.029 A 
ATOM     46  N   UNL A   1      39.596  30.078  30.512  1.00  0.00    -0.354 N 
ATOM     47  C   UNL A   1      39.196  32.115  34.298  1.00  0.00     0.074 A 
ATOM     48  C   UNL A   1      38.108  33.066  34.266  1.00  0.00     0.031 C 
ATOM     49  C   UNL A   1      39.126  29.646  28.368  1.00  0.00     0.029 A 
ATOM     50  C   UNL A   1      40.066  29.350  29.444  1.00  0.00     0.049 A 
ATOM     51  H   UNL A   1      40.018  30.065  31.401  1.00  0.00     0.167 HD
ATOM     52  C   UNL A   1      40.004  31.919  35.367  1.00  0.00     0.034 A 
ATOM     53  C   UNL A   1      41.137  28.539  29.342  1.00  0.00     0.034 A 
ATOM     54  C   UNL A   1      41.062  30.946  35.405  1.00  0.00     0.049 A 
ATOM     55  C   UNL A   1      42.000  28.312  30.554  1.00  0.00     0.074 A 
ATOM     56  C   UNL A   1      41.875  30.600  36.470  1.00  0.00     0.029 A 
ATOM     57  N   UNL A   1      41.465  30.172  34.327  1.00  0.00    -0.354 N 
ATOM     58  N   UNL A   1      41.877  28.812  31.758  1.00  0.00    -0.248 NA
ATOM     59  C   UNL A   1      43.128  27.383  30.401  1.00  0.00     0.031 C 
ATOM     60  C   UNL A   1      42.793  29.643  36.025  1.00  0.00     0.029 A 
ATOM     61  C   UNL A   1      42.528  29.364  34.694  1.00  0.00     0.049 A 
ATOM     62  H   UNL A   1      41.056  30.195  33.432  1.00  0.00     0.167 HD
ATOM     63  C   UNL A   1      42.888  28.232  32.517  1.00  0.00     0.074 A 
ATOM     64  C   UNL A   1      43.600  27.328  31.638  1.00  0.00     0.031 C 
ATOM     65  C   UNL A   1      43.201  28.437  33.821  1.00  0.00     0.034 A 
BRANCH  52  66
ATOM     66  C   UNL A   1      39.752  32.753  36.597  1.00  0.00     0.023 A 
ATOM     67  C   UNL A   1      40.438  33.974  36.769  1.00  0.00     0.012 A 
ATOM     68  C   UNL A   1      38.806  32.353  37.561  1.00  0.00     0.148 A 
ATOM     69  C   UNL A   1      40.222  34.758  37.901  1.00  0.00     0.002 A 
ATOM     70  C   UNL A   1      38.559  33.165  38.662  1.00  0.00     0.091 A 
ATOM     71  F   UNL A   1      38.178  31.181  37.393  1.00  0.00    -0.205 F 
ATOM     72  C   UNL A   1      39.275  34.359  38.841  1.00  0.00     0.022 A 
BRANCH  70  73
ATOM     73  S   UNL A   1      37.300  32.781  39.884  1.00  0.00     0.127 S 
ATOM     74  O   UNL A   1      37.793  31.517  40.427  1.00  0.00    -0.237 OA
ATOM     75  O   UNL A   1      37.401  33.919  40.799  1.00  0.00    -0.237 OA
ATOM     76  O   UNL A   1      36.042  32.701  39.153  1.00  0.00    -0.744 OA
ENDBRANCH  70  73
ENDBRANCH  52  66
BRANCH  53  77
ATOM     77  C   UNL A   1      41.407  27.827  28.062  1.00  0.00     0.023 A 
ATOM     78  C   UNL A   1      41.881  28.556  26.953  1.00  0.00     0.012 A 
ATOM     79  C   UNL A   1      41.236  26.434  27.945  1.00  0.00     0.148 A 
ATOM     80  C   UNL A   1      42.153  27.916  25.744  1.00  0.00     0.002 A 
ATOM     81  C   UNL A   1      41.563  25.794  26.755  1.00  0.00     0.091 A 
ATOM     82  F   UNL A   1      40.779  25.761  29.011  1.00  0.00    -0.205 F 
ATOM     83  C   UNL A   1      42.004  26.534  25.648  1.00  0.00     0.022 A 
BRANCH  81  84
ATOM     84  S   UNL A   1      41.529  24.007  26.580  1.00  0.00     0.127 S 
ATOM     85  O   UNL A   1      40.095  23.743  26.478  1.00  0.00    -0.237 OA
ATOM     86  O   UNL A   1      42.282  23.812  25.342  1.00  0.00    -0.237 OA
ATOM     87  O   UNL A   1      42.182  23.479  27.770  1.00  0.00    -0.744 OA
ENDBRANCH  81  84
ENDBRANCH  53  77
BRANCH  65  88
ATOM     88  C   UNL A   1      44.346  27.643  34.396  1.00  0.00     0.023 A 
ATOM     89  C   UNL A   1      45.662  28.136  34.307  1.00  0.00     0.012 A 
ATOM     90  C   UNL A   1      44.104  26.442  35.093  1.00  0.00     0.148 A 
ATOM     91  C   UNL A   1      46.724  27.430  34.870  1.00  0.00     0.002 A 
ATOM     92  C   UNL A   1      45.160  25.770  35.697  1.00  0.00     0.091 A 
ATOM     93  F   UNL A   1      42.847  25.979  35.152  1.00  0.00    -0.205 F 
ATOM     94  C   UNL A   1      46.472  26.255  35.575  1.00  0.00     0.022 A 
BRANCH  92  95
ATOM     95  S   UNL A   1      44.918  24.306  36.709  1.00  0.00     0.127 S 
ATOM     96  O   UNL A   1      44.085  24.826  37.792  1.00  0.00    -0.237 OA
ATOM     97  O   UNL A   1      44.228  23.404  35.786  1.00  0.00    -0.237 OA
ATOM     98  O   UNL A   1      46.250  23.864  37.102  1.00  0.00    -0.744 OA
ENDBRANCH  92  95
ENDBRANCH  65  88
ENDBRANCH  39  40
ENDBRANCH  31  34
ENDBRANCH  29  30
ENDBRANCH  28  29
ENDBRANCH  27  28
ENDBRANCH   1  27
TORSDOF 20
ENDMDL
