MODEL 1
REMARK VINA RESULT:     -12.8      0.000      0.000
REMARK SMILES O=C(NCCCCCCNC(=O)c1ccc(-c2c3nc(c(-c4cccc(S(=O)(=O)[O-])c4F)c4ccc([nH]4)c(-c4cccc(S(=O)(=O)[O-])c4F)c4nc(c(-c5cccc(S(=O)(=O)[O-])c5F)c5ccc2[nH]5)C=C4)C=C3)cc1)C1=Cc2cc(S(F)(F)(F)(F)F)ccc2O[C@@H]1C(F)(F)F
REMARK SMILES IDX 7 1 6 2 5 3 4 4 3 5 1 6 2 7 76 9 77 10 91 11 78 12 90 13
REMARK SMILES IDX 79 14 89 15 80 16 88 17 87 18 92 19 93 20 94 21 95 22 81 23
REMARK SMILES IDX 82 24 83 25 84 26 85 27 86 28 8 29 9 30 10 31 11 32 12 34
REMARK SMILES IDX 13 35 14 36 75 37 15 38 74 39 16 40 17 41 18 42 68 43 19 44
REMARK SMILES IDX 73 45 67 46 69 47 20 48 72 49 66 50 65 51 21 53 53 54 33 55
REMARK SMILES IDX 52 56 34 57 37 58 51 59 70 60 35 61 36 62 50 64 71 65 38 66
REMARK SMILES IDX 22 67 23 68 31 69 24 70 26 71 32 72 25 73 27 74 28 75 29 76
REMARK SMILES IDX 30 77 54 78 55 79 63 80 56 81 58 82 64 83 57 84 59 85 60 86
REMARK SMILES IDX 61 87 62 88 39 89 40 90 48 91 41 92 43 93 49 94 42 95 44 96
REMARK SMILES IDX 45 97 46 98 47 99
REMARK H PARENT 3 8 10 33 69 52 37 63
REMARK Flexibility Score: inf
ROOT
ATOM      1  C   UNL A   1      31.790  30.786  26.215  1.00  0.00     0.002 C 
ENDROOT
BRANCH   1   2
ATOM      2  C   UNL A   1      32.766  30.227  27.238  1.00  0.00     0.002 C 
BRANCH   2   3
ATOM      3  C   UNL A   1      34.009  29.717  26.528  1.00  0.00     0.021 C 
BRANCH   3   4
ATOM      4  C   UNL A   1      34.042  28.198  26.591  1.00  0.00     0.116 C 
BRANCH   4   5
ATOM      5  N   UNL A   1      32.807  27.708  27.221  1.00  0.00    -0.352 N 
ATOM      6  O   UNL A   1      30.677  26.695  26.939  1.00  0.00    -0.270 OA
ATOM      7  C   UNL A   1      31.744  27.119  26.395  1.00  0.00     0.251 C 
ATOM      8  H   UNL A   1      32.692  27.775  28.197  1.00  0.00     0.163 HD
BRANCH   7   9
ATOM      9  C   UNL A   1      31.921  27.015  24.888  1.00  0.00     0.067 C 
ATOM     10  C   UNL A   1      32.740  26.065  24.364  1.00  0.00     0.025 C 
ATOM     11  C   UNL A   1      31.183  27.975  23.969  1.00  0.00     0.314 C 
ATOM     12  C   UNL A   1      33.477  25.105  25.283  1.00  0.00     0.019 A 
ATOM     13  O   UNL A   1      31.513  25.051  26.619  1.00  0.00    -0.475 OA
ATOM     14  C   UNL A   1      34.791  24.750  25.025  1.00  0.00     0.036 A 
ATOM     15  C   UNL A   1      32.798  24.551  26.281  1.00  0.00     0.128 A 
ATOM     16  C   UNL A   1      35.213  23.580  25.700  1.00  0.00     0.107 A 
ATOM     17  C   UNL A   1      33.327  23.498  26.988  1.00  0.00     0.048 A 
ATOM     18  C   UNL A   1      34.598  23.056  26.745  1.00  0.00     0.028 A 
BRANCH  11  19
ATOM     19  C   UNL A   1      30.279  27.187  23.035  1.00  0.00     0.429 C 
ATOM     20  F   UNL A   1      29.850  26.091  23.654  1.00  0.00    -0.167 F 
ATOM     21  F   UNL A   1      29.238  27.938  22.688  1.00  0.00    -0.167 F 
ATOM     22  F   UNL A   1      30.960  26.844  21.946  1.00  0.00    -0.167 F 
ENDBRANCH  11  19
BRANCH  16  23
ATOM     23  S   UNL A   1      36.697  22.744  25.089  1.00  0.00     0.310 S 
ATOM     24  F   UNL A   1      36.657  23.536  23.716  1.00  0.00    -0.094 F 
ATOM     25  F   UNL A   1      35.772  21.662  24.414  1.00  0.00    -0.094 F 
ATOM     26  F   UNL A   1      37.971  22.022  24.566  1.00  0.00    -0.094 F 
ATOM     27  F   UNL A   1      37.600  23.911  25.652  1.00  0.00    -0.094 F 
ATOM     28  F   UNL A   1      35.409  23.547  25.531  1.00  0.00    -0.094 F 
ENDBRANCH  16  23
ENDBRANCH   7   9
ENDBRANCH   4   5
ENDBRANCH   3   4
ENDBRANCH   2   3
ENDBRANCH   1   2
BRANCH   1  29
ATOM     29  C   UNL A   1      31.397  32.200  26.610  1.00  0.00     0.021 C 
BRANCH  29  30
ATOM     30  C   UNL A   1      32.590  32.901  27.240  1.00  0.00     0.116 C 
BRANCH  30  31
ATOM     31  N   UNL A   1      32.209  34.268  27.622  1.00  0.00    -0.352 N 
ATOM     32  C   UNL A   1      32.986  34.991  28.639  1.00  0.00     0.251 C 
ATOM     33  H   UNL A   1      31.432  34.700  27.197  1.00  0.00     0.163 HD
ATOM     34  O   UNL A   1      32.657  36.173  28.969  1.00  0.00    -0.269 OA
BRANCH  32  35
ATOM     35  C   UNL A   1      34.185  34.325  29.295  1.00  0.00     0.039 A 
ATOM     36  C   UNL A   1      35.448  34.528  28.766  1.00  0.00     0.014 A 
ATOM     37  C   UNL A   1      34.000  33.559  30.364  1.00  0.00     0.014 A 
ATOM     38  C   UNL A   1      36.429  33.641  29.268  1.00  0.00     0.010 A 
ATOM     39  C   UNL A   1      35.037  32.823  30.884  1.00  0.00     0.010 A 
ATOM     40  C   UNL A   1      36.301  32.930  30.373  1.00  0.00    -0.014 A 
BRANCH  40  41
ATOM     41  C   UNL A   1      37.494  32.267  31.042  1.00  0.00     0.031 A 
ATOM     42  C   UNL A   1      37.941  32.792  32.256  1.00  0.00     0.074 A 
ATOM     43  C   UNL A   1      38.073  31.179  30.410  1.00  0.00     0.049 A 
ATOM     44  N   UNL A   1      38.940  32.345  33.018  1.00  0.00    -0.248 NA
ATOM     45  C   UNL A   1      37.350  33.969  32.912  1.00  0.00     0.031 C 
ATOM     46  C   UNL A   1      37.622  30.638  29.190  1.00  0.00     0.029 A 
ATOM     47  N   UNL A   1      39.156  30.438  30.826  1.00  0.00    -0.354 N 
ATOM     48  C   UNL A   1      39.055  33.096  34.115  1.00  0.00     0.074 A 
ATOM     49  C   UNL A   1      38.039  34.155  34.059  1.00  0.00     0.031 C 
ATOM     50  C   UNL A   1      38.430  29.594  28.869  1.00  0.00     0.029 A 
ATOM     51  C   UNL A   1      39.398  29.464  29.883  1.00  0.00     0.049 A 
ATOM     52  H   UNL A   1      39.669  30.580  31.653  1.00  0.00     0.167 HD
ATOM     53  C   UNL A   1      39.967  32.939  35.160  1.00  0.00     0.034 A 
ATOM     54  C   UNL A   1      40.402  28.508  29.888  1.00  0.00     0.034 A 
ATOM     55  C   UNL A   1      40.944  31.956  35.186  1.00  0.00     0.049 A 
ATOM     56  C   UNL A   1      41.351  28.387  30.906  1.00  0.00     0.074 A 
ATOM     57  C   UNL A   1      41.866  31.779  36.235  1.00  0.00     0.029 A 
ATOM     58  N   UNL A   1      41.202  30.997  34.231  1.00  0.00    -0.354 N 
ATOM     59  N   UNL A   1      41.442  29.114  32.021  1.00  0.00    -0.248 NA
ATOM     60  C   UNL A   1      42.439  27.400  30.906  1.00  0.00     0.031 C 
ATOM     61  C   UNL A   1      42.675  30.734  35.913  1.00  0.00     0.029 A 
ATOM     62  C   UNL A   1      42.271  30.241  34.658  1.00  0.00     0.049 A 
ATOM     63  H   UNL A   1      40.706  30.873  33.390  1.00  0.00     0.167 HD
ATOM     64  C   UNL A   1      42.468  28.691  32.762  1.00  0.00     0.074 A 
ATOM     65  C   UNL A   1      43.129  27.587  32.052  1.00  0.00     0.031 C 
ATOM     66  C   UNL A   1      42.877  29.180  34.004  1.00  0.00     0.034 A 
BRANCH  53  67
ATOM     67  C   UNL A   1      39.885  33.900  36.335  1.00  0.00     0.023 A 
ATOM     68  C   UNL A   1      40.428  35.170  36.255  1.00  0.00     0.012 A 
ATOM     69  C   UNL A   1      39.267  33.482  37.433  1.00  0.00     0.148 A 
ATOM     70  C   UNL A   1      40.521  35.834  37.501  1.00  0.00     0.002 A 
ATOM     71  C   UNL A   1      39.281  34.245  38.577  1.00  0.00     0.091 A 
ATOM     72  F   UNL A   1      38.627  32.316  37.427  1.00  0.00    -0.205 F 
ATOM     73  C   UNL A   1      39.853  35.486  38.587  1.00  0.00     0.022 A 
BRANCH  71  74
ATOM     74  S   UNL A   1      38.535  33.594  40.092  1.00  0.00     0.127 S 
ATOM     75  O   UNL A   1      38.620  34.650  41.197  1.00  0.00    -0.237 OA
ATOM     76  O   UNL A   1      37.067  33.248  39.830  1.00  0.00    -0.237 OA
ATOM     77  O   UNL A   1      39.373  32.187  40.583  1.00  0.00    -0.744 OA
ENDBRANCH  71  74
ENDBRANCH  53  67
BRANCH  54  78
ATOM     78  C   UNL A   1      40.473  27.537  28.721  1.00  0.00     0.023 A 
ATOM     79  C   UNL A   1      39.649  26.424  28.744  1.00  0.00     0.012 A 
ATOM     80  C   UNL A   1      41.326  27.743  27.725  1.00  0.00     0.148 A 
ATOM     81  C   UNL A   1      40.006  25.427  27.805  1.00  0.00     0.002 A 
ATOM     82  C   UNL A   1      41.525  26.780  26.764  1.00  0.00     0.091 A 
ATOM     83  F   UNL A   1      41.993  28.892  27.653  1.00  0.00    -0.205 F 
ATOM     84  C   UNL A   1      40.787  25.629  26.759  1.00  0.00     0.022 A 
BRANCH  82  85
ATOM     85  S   UNL A   1      42.782  27.040  25.488  1.00  0.00     0.127 S 
ATOM     86  O   UNL A   1      42.913  25.775  24.636  1.00  0.00    -0.237 OA
ATOM     87  O   UNL A   1      42.369  28.214  24.597  1.00  0.00    -0.237 OA
ATOM     88  O   UNL A   1      44.283  27.386  26.229  1.00  0.00    -0.744 OA
ENDBRANCH  82  85
ENDBRANCH  54  78
BRANCH  66  89
ATOM     89  C   UNL A   1      44.060  28.507  34.681  1.00  0.00     0.023 A 
ATOM     90  C   UNL A   1      45.334  29.019  34.490  1.00  0.00     0.012 A 
ATOM     91  C   UNL A   1      43.853  27.440  35.445  1.00  0.00     0.148 A 
ATOM     92  C   UNL A   1      46.368  28.154  34.920  1.00  0.00     0.002 A 
ATOM     93  C   UNL A   1      44.913  26.721  35.944  1.00  0.00     0.091 A 
ATOM     94  F   UNL A   1      42.610  27.065  35.730  1.00  0.00    -0.205 F 
ATOM     95  C   UNL A   1      46.200  27.135  35.743  1.00  0.00     0.022 A 
BRANCH  93  96
ATOM     96  S   UNL A   1      44.600  25.203  36.878  1.00  0.00     0.127 S 
ATOM     97  O   UNL A   1      43.733  25.525  38.098  1.00  0.00    -0.237 OA
ATOM     98  O   UNL A   1      43.871  24.196  35.985  1.00  0.00    -0.237 OA
ATOM     99  O   UNL A   1      46.086  24.536  37.396  1.00  0.00    -0.744 OA
ENDBRANCH  93  96
ENDBRANCH  66  89
ENDBRANCH  40  41
ENDBRANCH  32  35
ENDBRANCH  30  31
ENDBRANCH  29  30
ENDBRANCH   1  29
TORSDOF 18
ENDMDL
MODEL 2
REMARK VINA RESULT:     -12.6      0.192      7.400
REMARK SMILES O=C(NCCCCCCNC(=O)c1ccc(-c2c3nc(c(-c4cccc(S(=O)(=O)[O-])c4F)c4ccc([nH]4)c(-c4cccc(S(=O)(=O)[O-])c4F)c4nc(c(-c5cccc(S(=O)(=O)[O-])c5F)c5ccc2[nH]5)C=C4)C=C3)cc1)C1=Cc2cc(S(F)(F)(F)(F)F)ccc2O[C@@H]1C(F)(F)F
REMARK SMILES IDX 7 1 6 2 5 3 4 4 3 5 1 6 2 7 76 9 77 10 91 11 78 12 90 13
REMARK SMILES IDX 79 14 89 15 80 16 88 17 87 18 92 19 93 20 94 21 95 22 81 23
REMARK SMILES IDX 82 24 83 25 84 26 85 27 86 28 8 29 9 30 10 31 11 32 12 34
REMARK SMILES IDX 13 35 14 36 75 37 15 38 74 39 16 40 17 41 18 42 68 43 19 44
REMARK SMILES IDX 73 45 67 46 69 47 20 48 72 49 66 50 65 51 21 53 53 54 33 55
REMARK SMILES IDX 52 56 34 57 37 58 51 59 70 60 35 61 36 62 50 64 71 65 38 66
REMARK SMILES IDX 22 67 23 68 31 69 24 70 26 71 32 72 25 73 27 74 28 75 29 76
REMARK SMILES IDX 30 77 54 78 55 79 63 80 56 81 58 82 64 83 57 84 59 85 60 86
REMARK SMILES IDX 61 87 62 88 39 89 40 90 48 91 41 92 43 93 49 94 42 95 44 96
REMARK SMILES IDX 45 97 46 98 47 99
REMARK H PARENT 3 8 10 33 69 52 37 63
REMARK Flexibility Score: inf
ROOT
ATOM      1  C   UNL A   1      31.770  30.859  26.144  1.00  0.00     0.002 C 
ENDROOT
BRANCH   1   2
ATOM      2  C   UNL A   1      32.801  30.317  27.122  1.00  0.00     0.002 C 
BRANCH   2   3
ATOM      3  C   UNL A   1      33.991  29.768  26.352  1.00  0.00     0.021 C 
BRANCH   3   4
ATOM      4  C   UNL A   1      34.057  28.260  26.531  1.00  0.00     0.116 C 
BRANCH   4   5
ATOM      5  N   UNL A   1      32.844  27.794  27.217  1.00  0.00    -0.352 N 
ATOM      6  O   UNL A   1      30.691  26.806  27.036  1.00  0.00    -0.270 OA
ATOM      7  C   UNL A   1      31.740  27.208  26.443  1.00  0.00     0.251 C 
ATOM      8  H   UNL A   1      32.769  27.875  28.196  1.00  0.00     0.163 HD
BRANCH   7   9
ATOM      9  C   UNL A   1      31.854  27.083  24.932  1.00  0.00     0.067 C 
ATOM     10  C   UNL A   1      32.637  26.113  24.387  1.00  0.00     0.025 C 
ATOM     11  C   UNL A   1      31.095  28.042  24.030  1.00  0.00     0.314 C 
ATOM     12  C   UNL A   1      33.397  25.154  25.289  1.00  0.00     0.019 A 
ATOM     13  O   UNL A   1      31.487  25.147  26.704  1.00  0.00    -0.475 OA
ATOM     14  C   UNL A   1      34.693  24.774  24.982  1.00  0.00     0.036 A 
ATOM     15  C   UNL A   1      32.750  24.623  26.320  1.00  0.00     0.128 A 
ATOM     16  C   UNL A   1      35.124  23.607  25.655  1.00  0.00     0.107 A 
ATOM     17  C   UNL A   1      33.291  23.571  27.020  1.00  0.00     0.048 A 
ATOM     18  C   UNL A   1      34.545  23.106  26.732  1.00  0.00     0.028 A 
BRANCH  11  19
ATOM     19  C   UNL A   1      30.142  27.257  23.144  1.00  0.00     0.429 C 
ATOM     20  F   UNL A   1      29.057  27.988  22.902  1.00  0.00    -0.167 F 
ATOM     21  F   UNL A   1      30.744  26.963  21.996  1.00  0.00    -0.167 F 
ATOM     22  F   UNL A   1      29.790  26.132  23.760  1.00  0.00    -0.167 F 
ENDBRANCH  11  19
BRANCH  16  23
ATOM     23  S   UNL A   1      36.570  22.740  24.997  1.00  0.00     0.310 S 
ATOM     24  F   UNL A   1      36.585  23.630  23.683  1.00  0.00    -0.094 F 
ATOM     25  F   UNL A   1      35.597  21.760  24.238  1.00  0.00    -0.094 F 
ATOM     26  F   UNL A   1      37.810  21.991  24.431  1.00  0.00    -0.094 F 
ATOM     27  F   UNL A   1      37.526  23.814  25.648  1.00  0.00    -0.094 F 
ATOM     28  F   UNL A   1      35.320  23.576  25.486  1.00  0.00    -0.094 F 
ENDBRANCH  16  23
ENDBRANCH   7   9
ENDBRANCH   4   5
ENDBRANCH   3   4
ENDBRANCH   2   3
ENDBRANCH   1   2
BRANCH   1  29
ATOM     29  C   UNL A   1      31.408  32.284  26.528  1.00  0.00     0.021 C 
BRANCH  29  30
ATOM     30  C   UNL A   1      32.594  32.941  27.217  1.00  0.00     0.116 C 
BRANCH  30  31
ATOM     31  N   UNL A   1      32.216  34.290  27.662  1.00  0.00    -0.352 N 
ATOM     32  C   UNL A   1      32.989  34.959  28.718  1.00  0.00     0.251 C 
ATOM     33  H   UNL A   1      31.444  34.745  27.253  1.00  0.00     0.163 HD
ATOM     34  O   UNL A   1      32.663  36.125  29.102  1.00  0.00    -0.269 OA
BRANCH  32  35
ATOM     35  C   UNL A   1      34.181  34.256  29.349  1.00  0.00     0.039 A 
ATOM     36  C   UNL A   1      35.455  34.530  28.882  1.00  0.00     0.014 A 
ATOM     37  C   UNL A   1      33.979  33.391  30.336  1.00  0.00     0.014 A 
ATOM     38  C   UNL A   1      36.439  33.617  29.332  1.00  0.00     0.010 A 
ATOM     39  C   UNL A   1      35.014  32.629  30.820  1.00  0.00     0.010 A 
ATOM     40  C   UNL A   1      36.291  32.805  30.363  1.00  0.00    -0.014 A 
BRANCH  40  41
ATOM     41  C   UNL A   1      37.476  32.103  31.007  1.00  0.00     0.031 A 
ATOM     42  C   UNL A   1      38.026  31.004  30.345  1.00  0.00     0.074 A 
ATOM     43  C   UNL A   1      37.943  32.593  32.215  1.00  0.00     0.049 A 
ATOM     44  N   UNL A   1      39.078  30.274  30.716  1.00  0.00    -0.248 NA
ATOM     45  C   UNL A   1      37.509  30.461  29.079  1.00  0.00     0.031 C 
ATOM     46  C   UNL A   1      37.400  33.707  32.884  1.00  0.00     0.029 A 
ATOM     47  N   UNL A   1      38.988  32.114  32.973  1.00  0.00    -0.354 N 
ATOM     48  C   UNL A   1      39.317  29.317  29.815  1.00  0.00     0.074 A 
ATOM     49  C   UNL A   1      38.307  29.420  28.754  1.00  0.00     0.031 C 
ATOM     50  C   UNL A   1      38.098  33.888  34.036  1.00  0.00     0.029 A 
ATOM     51  C   UNL A   1      39.091  32.892  34.105  1.00  0.00     0.049 A 
ATOM     52  H   UNL A   1      39.562  31.347  32.746  1.00  0.00     0.167 HD
ATOM     53  C   UNL A   1      40.337  28.365  29.838  1.00  0.00     0.034 A 
ATOM     54  C   UNL A   1      39.991  32.757  35.149  1.00  0.00     0.034 A 
ATOM     55  C   UNL A   1      41.264  28.257  30.862  1.00  0.00     0.049 A 
ATOM     56  C   UNL A   1      40.976  31.767  35.200  1.00  0.00     0.074 A 
ATOM     57  C   UNL A   1      42.304  27.308  30.897  1.00  0.00     0.029 A 
ATOM     58  N   UNL A   1      41.352  29.020  32.005  1.00  0.00    -0.354 N 
ATOM     59  N   UNL A   1      41.238  30.836  34.282  1.00  0.00    -0.248 NA
ATOM     60  C   UNL A   1      41.915  31.594  36.317  1.00  0.00     0.031 C 
ATOM     61  C   UNL A   1      43.003  27.490  32.049  1.00  0.00     0.029 A 
ATOM     62  C   UNL A   1      42.411  28.556  32.753  1.00  0.00     0.049 A 
ATOM     63  H   UNL A   1      40.760  29.769  32.246  1.00  0.00     0.167 HD
ATOM     64  C   UNL A   1      42.265  30.080  34.674  1.00  0.00     0.074 A 
ATOM     65  C   UNL A   1      42.711  30.552  35.993  1.00  0.00     0.031 C 
ATOM     66  C   UNL A   1      42.852  29.018  33.983  1.00  0.00     0.034 A 
BRANCH  53  67
ATOM     67  C   UNL A   1      40.437  27.393  28.674  1.00  0.00     0.023 A 
ATOM     68  C   UNL A   1      39.652  26.252  28.630  1.00  0.00     0.012 A 
ATOM     69  C   UNL A   1      41.291  27.679  27.700  1.00  0.00     0.148 A 
ATOM     70  C   UNL A   1      40.052  25.319  27.646  1.00  0.00     0.002 A 
ATOM     71  C   UNL A   1      41.533  26.774  26.693  1.00  0.00     0.091 A 
ATOM     72  F   UNL A   1      41.919  28.851  27.696  1.00  0.00    -0.205 F 
ATOM     73  C   UNL A   1      40.837  25.600  26.621  1.00  0.00     0.022 A 
BRANCH  71  74
ATOM     74  S   UNL A   1      42.793  27.143  25.447  1.00  0.00     0.127 S 
ATOM     75  O   UNL A   1      43.033  25.903  24.582  1.00  0.00    -0.237 OA
ATOM     76  O   UNL A   1      42.315  28.297  24.563  1.00  0.00    -0.237 OA
ATOM     77  O   UNL A   1      44.251  27.585  26.223  1.00  0.00    -0.744 OA
ENDBRANCH  71  74
ENDBRANCH  53  67
BRANCH  54  78
ATOM     78  C   UNL A   1      39.902  33.740  36.305  1.00  0.00     0.023 A 
ATOM     79  C   UNL A   1      40.439  35.005  36.130  1.00  0.00     0.012 A 
ATOM     80  C   UNL A   1      39.349  33.379  37.456  1.00  0.00     0.148 A 
ATOM     81  C   UNL A   1      40.604  35.729  37.335  1.00  0.00     0.002 A 
ATOM     82  C   UNL A   1      39.428  34.197  38.558  1.00  0.00     0.091 A 
ATOM     83  F   UNL A   1      38.709  32.216  37.544  1.00  0.00    -0.205 F 
ATOM     84  C   UNL A   1      39.999  35.437  38.473  1.00  0.00     0.022 A 
BRANCH  82  85
ATOM     85  S   UNL A   1      38.771  33.624  40.143  1.00  0.00     0.127 S 
ATOM     86  O   UNL A   1      39.549  32.387  40.601  1.00  0.00    -0.237 OA
ATOM     87  O   UNL A   1      38.917  34.734  41.187  1.00  0.00    -0.237 OA
ATOM     88  O   UNL A   1      37.119  33.223  39.965  1.00  0.00    -0.744 OA
ENDBRANCH  82  85
ENDBRANCH  54  78
BRANCH  66  89
ATOM     89  C   UNL A   1      44.048  28.327  34.619  1.00  0.00     0.023 A 
ATOM     90  C   UNL A   1      45.312  28.870  34.454  1.00  0.00     0.012 A 
ATOM     91  C   UNL A   1      43.861  27.216  35.322  1.00  0.00     0.148 A 
ATOM     92  C   UNL A   1      46.362  28.000  34.832  1.00  0.00     0.002 A 
ATOM     93  C   UNL A   1      44.933  26.487  35.776  1.00  0.00     0.091 A 
ATOM     94  F   UNL A   1      42.625  26.805  35.587  1.00  0.00    -0.205 F 
ATOM     95  C   UNL A   1      46.213  26.933  35.597  1.00  0.00     0.022 A 
BRANCH  93  96
ATOM     96  S   UNL A   1      44.648  24.914  36.625  1.00  0.00     0.127 S 
ATOM     97  O   UNL A   1      43.725  25.142  37.824  1.00  0.00    -0.237 OA
ATOM     98  O   UNL A   1      43.993  23.925  35.657  1.00  0.00    -0.237 OA
ATOM     99  O   UNL A   1      46.140  24.279  37.166  1.00  0.00    -0.744 OA
ENDBRANCH  93  96
ENDBRANCH  66  89
ENDBRANCH  40  41
ENDBRANCH  32  35
ENDBRANCH  30  31
ENDBRANCH  29  30
ENDBRANCH   1  29
TORSDOF 18
ENDMDL
MODEL 3
REMARK VINA RESULT:     -12.5      1.683      3.579
REMARK SMILES O=C(NCCCCCCNC(=O)c1ccc(-c2c3nc(c(-c4cccc(S(=O)(=O)[O-])c4F)c4ccc([nH]4)c(-c4cccc(S(=O)(=O)[O-])c4F)c4nc(c(-c5cccc(S(=O)(=O)[O-])c5F)c5ccc2[nH]5)C=C4)C=C3)cc1)C1=Cc2cc(S(F)(F)(F)(F)F)ccc2O[C@@H]1C(F)(F)F
REMARK SMILES IDX 7 1 6 2 5 3 4 4 3 5 1 6 2 7 76 9 77 10 91 11 78 12 90 13
REMARK SMILES IDX 79 14 89 15 80 16 88 17 87 18 92 19 93 20 94 21 95 22 81 23
REMARK SMILES IDX 82 24 83 25 84 26 85 27 86 28 8 29 9 30 10 31 11 32 12 34
REMARK SMILES IDX 13 35 14 36 75 37 15 38 74 39 16 40 17 41 18 42 68 43 19 44
REMARK SMILES IDX 73 45 67 46 69 47 20 48 72 49 66 50 65 51 21 53 53 54 33 55
REMARK SMILES IDX 52 56 34 57 37 58 51 59 70 60 35 61 36 62 50 64 71 65 38 66
REMARK SMILES IDX 22 67 23 68 31 69 24 70 26 71 32 72 25 73 27 74 28 75 29 76
REMARK SMILES IDX 30 77 54 78 55 79 63 80 56 81 58 82 64 83 57 84 59 85 60 86
REMARK SMILES IDX 61 87 62 88 39 89 40 90 48 91 41 92 43 93 49 94 42 95 44 96
REMARK SMILES IDX 45 97 46 98 47 99
REMARK H PARENT 3 8 10 33 69 52 37 63
REMARK Flexibility Score: inf
ROOT
ATOM      1  C   UNL A   1      31.848  30.513  26.515  1.00  0.00     0.002 C 
ENDROOT
BRANCH   1   2
ATOM      2  C   UNL A   1      33.349  30.324  26.667  1.00  0.00     0.002 C 
BRANCH   2   3
ATOM      3  C   UNL A   1      33.622  29.127  27.564  1.00  0.00     0.021 C 
BRANCH   3   4
ATOM      4  C   UNL A   1      33.000  27.882  26.951  1.00  0.00     0.116 C 
BRANCH   4   5
ATOM      5  N   UNL A   1      33.976  27.235  26.063  1.00  0.00    -0.352 N 
ATOM      6  O   UNL A   1      34.488  25.399  24.644  1.00  0.00    -0.270 OA
ATOM      7  C   UNL A   1      33.644  25.959  25.412  1.00  0.00     0.251 C 
ATOM      8  H   UNL A   1      34.852  27.655  25.904  1.00  0.00     0.163 HD
BRANCH   7   9
ATOM      9  C   UNL A   1      32.292  25.310  25.658  1.00  0.00     0.067 C 
ATOM     10  C   UNL A   1      31.166  25.866  25.136  1.00  0.00     0.025 C 
ATOM     11  C   UNL A   1      32.198  24.039  26.486  1.00  0.00     0.314 C 
ATOM     12  C   UNL A   1      31.259  27.137  24.307  1.00  0.00     0.019 A 
ATOM     13  O   UNL A   1      33.258  26.249  23.376  1.00  0.00    -0.475 OA
ATOM     14  C   UNL A   1      30.315  28.140  24.446  1.00  0.00     0.036 A 
ATOM     15  C   UNL A   1      32.214  27.212  23.386  1.00  0.00     0.128 A 
ATOM     16  C   UNL A   1      30.287  29.055  23.367  1.00  0.00     0.107 A 
ATOM     17  C   UNL A   1      32.201  28.212  22.445  1.00  0.00     0.048 A 
ATOM     18  C   UNL A   1      31.261  29.205  22.486  1.00  0.00     0.028 A 
BRANCH  11  19
ATOM     19  C   UNL A   1      31.597  22.927  25.643  1.00  0.00     0.429 C 
ATOM     20  F   UNL A   1      30.271  23.033  25.649  1.00  0.00    -0.167 F 
ATOM     21  F   UNL A   1      32.044  23.027  24.395  1.00  0.00    -0.167 F 
ATOM     22  F   UNL A   1      31.949  21.749  26.147  1.00  0.00    -0.167 F 
ENDBRANCH  11  19
BRANCH  16  23
ATOM     23  S   UNL A   1      28.817  30.094  23.180  1.00  0.00     0.310 S 
ATOM     24  F   UNL A   1      29.470  30.916  21.990  1.00  0.00    -0.094 F 
ATOM     25  F   UNL A   1      29.467  31.137  24.166  1.00  0.00    -0.094 F 
ATOM     26  F   UNL A   1      27.554  30.987  23.023  1.00  0.00    -0.094 F 
ATOM     27  F   UNL A   1      28.245  29.107  22.087  1.00  0.00    -0.094 F 
ATOM     28  F   UNL A   1      30.142  29.233  23.244  1.00  0.00    -0.094 F 
ENDBRANCH  16  23
ENDBRANCH   7   9
ENDBRANCH   4   5
ENDBRANCH   3   4
ENDBRANCH   2   3
ENDBRANCH   1   2
BRANCH   1  29
ATOM     29  C   UNL A   1      31.503  31.982  26.695  1.00  0.00     0.021 C 
BRANCH  29  30
ATOM     30  C   UNL A   1      32.740  32.742  27.145  1.00  0.00     0.116 C 
BRANCH  30  31
ATOM     31  N   UNL A   1      32.355  34.097  27.567  1.00  0.00    -0.352 N 
ATOM     32  C   UNL A   1      33.122  34.786  28.614  1.00  0.00     0.251 C 
ATOM     33  H   UNL A   1      31.584  34.542  27.147  1.00  0.00     0.163 HD
ATOM     34  O   UNL A   1      32.790  35.958  28.979  1.00  0.00    -0.269 OA
BRANCH  32  35
ATOM     35  C   UNL A   1      34.313  34.098  29.262  1.00  0.00     0.039 A 
ATOM     36  C   UNL A   1      34.101  33.206  30.299  1.00  0.00     0.014 A 
ATOM     37  C   UNL A   1      35.537  34.364  28.821  1.00  0.00     0.014 A 
ATOM     38  C   UNL A   1      35.276  32.859  31.006  1.00  0.00     0.010 A 
ATOM     39  C   UNL A   1      36.639  33.880  29.483  1.00  0.00     0.010 A 
ATOM     40  C   UNL A   1      36.503  33.039  30.554  1.00  0.00    -0.014 A 
BRANCH  40  41
ATOM     41  C   UNL A   1      37.701  32.350  31.188  1.00  0.00     0.031 A 
ATOM     42  C   UNL A   1      38.190  32.861  32.391  1.00  0.00     0.074 A 
ATOM     43  C   UNL A   1      38.241  31.254  30.536  1.00  0.00     0.049 A 
ATOM     44  N   UNL A   1      39.200  32.391  33.124  1.00  0.00    -0.248 NA
ATOM     45  C   UNL A   1      37.640  34.046  33.068  1.00  0.00     0.031 C 
ATOM     46  C   UNL A   1      37.747  30.727  29.326  1.00  0.00     0.029 A 
ATOM     47  N   UNL A   1      39.320  30.490  30.920  1.00  0.00    -0.354 N 
ATOM     48  C   UNL A   1      39.359  33.135  34.221  1.00  0.00     0.074 A 
ATOM     49  C   UNL A   1      38.363  34.213  34.197  1.00  0.00     0.031 C 
ATOM     50  C   UNL A   1      38.526  29.669  28.979  1.00  0.00     0.029 A 
ATOM     51  C   UNL A   1      39.518  29.516  29.966  1.00  0.00     0.049 A 
ATOM     52  H   UNL A   1      39.857  30.619  31.734  1.00  0.00     0.167 HD
ATOM     53  C   UNL A   1      40.295  32.955  35.241  1.00  0.00     0.034 A 
ATOM     54  C   UNL A   1      40.502  28.541  29.941  1.00  0.00     0.034 A 
ATOM     55  C   UNL A   1      41.253  31.953  35.237  1.00  0.00     0.049 A 
ATOM     56  C   UNL A   1      41.476  28.396  30.933  1.00  0.00     0.074 A 
ATOM     57  C   UNL A   1      42.199  31.753  36.260  1.00  0.00     0.029 A 
ATOM     58  N   UNL A   1      41.466  30.993  34.272  1.00  0.00    -0.354 N 
ATOM     59  N   UNL A   1      41.610  29.116  32.048  1.00  0.00    -0.248 NA
ATOM     60  C   UNL A   1      42.543  27.387  30.900  1.00  0.00     0.031 C 
ATOM     61  C   UNL A   1      42.978  30.694  35.913  1.00  0.00     0.029 A 
ATOM     62  C   UNL A   1      42.531  30.215  34.667  1.00  0.00     0.049 A 
ATOM     63  H   UNL A   1      40.946  30.883  33.443  1.00  0.00     0.167 HD
ATOM     64  C   UNL A   1      42.647  28.670  32.760  1.00  0.00     0.074 A 
ATOM     65  C   UNL A   1      43.267  27.556  32.029  1.00  0.00     0.031 C 
ATOM     66  C   UNL A   1      43.099  29.145  33.993  1.00  0.00     0.034 A 
BRANCH  53  67
ATOM     67  C   UNL A   1      40.263  33.912  36.422  1.00  0.00     0.023 A 
ATOM     68  C   UNL A   1      40.884  35.147  36.354  1.00  0.00     0.012 A 
ATOM     69  C   UNL A   1      39.612  33.526  37.513  1.00  0.00     0.148 A 
ATOM     70  C   UNL A   1      41.007  35.796  37.605  1.00  0.00     0.002 A 
ATOM     71  C   UNL A   1      39.665  34.280  38.661  1.00  0.00     0.091 A 
ATOM     72  F   UNL A   1      38.902  32.402  37.494  1.00  0.00    -0.205 F 
ATOM     73  C   UNL A   1      40.311  35.484  38.683  1.00  0.00     0.022 A 
BRANCH  71  74
ATOM     74  S   UNL A   1      38.868  33.667  40.167  1.00  0.00     0.127 S 
ATOM     75  O   UNL A   1      39.126  34.645  41.315  1.00  0.00    -0.237 OA
ATOM     76  O   UNL A   1      37.361  33.542  39.932  1.00  0.00    -0.237 OA
ATOM     77  O   UNL A   1      39.511  32.135  40.569  1.00  0.00    -0.744 OA
ENDBRANCH  71  74
ENDBRANCH  53  67
BRANCH  54  78
ATOM     78  C   UNL A   1      40.524  27.574  28.769  1.00  0.00     0.023 A 
ATOM     79  C   UNL A   1      39.656  26.495  28.795  1.00  0.00     0.012 A 
ATOM     80  C   UNL A   1      41.374  27.750  27.765  1.00  0.00     0.148 A 
ATOM     81  C   UNL A   1      39.963  25.489  27.847  1.00  0.00     0.002 A 
ATOM     82  C   UNL A   1      41.525  26.786  26.798  1.00  0.00     0.091 A 
ATOM     83  F   UNL A   1      42.086  28.872  27.693  1.00  0.00    -0.205 F 
ATOM     84  C   UNL A   1      40.742  25.665  26.795  1.00  0.00     0.022 A 
BRANCH  82  85
ATOM     85  S   UNL A   1      42.779  27.001  25.511  1.00  0.00     0.127 S 
ATOM     86  O   UNL A   1      42.854  25.735  24.655  1.00  0.00    -0.237 OA
ATOM     87  O   UNL A   1      42.403  28.194  24.628  1.00  0.00    -0.237 OA
ATOM     88  O   UNL A   1      44.299  27.288  26.239  1.00  0.00    -0.744 OA
ENDBRANCH  82  85
ENDBRANCH  54  78
BRANCH  66  89
ATOM     89  C   UNL A   1      44.286  28.446  34.635  1.00  0.00     0.023 A 
ATOM     90  C   UNL A   1      45.565  28.921  34.396  1.00  0.00     0.012 A 
ATOM     91  C   UNL A   1      44.076  27.392  35.416  1.00  0.00     0.148 A 
ATOM     92  C   UNL A   1      46.590  28.032  34.798  1.00  0.00     0.002 A 
ATOM     93  C   UNL A   1      45.133  26.648  35.885  1.00  0.00     0.091 A 
ATOM     94  F   UNL A   1      42.834  27.053  35.747  1.00  0.00    -0.205 F 
ATOM     95  C   UNL A   1      46.423  27.026  35.637  1.00  0.00     0.022 A 
BRANCH  93  96
ATOM     96  S   UNL A   1      44.811  25.148  36.845  1.00  0.00     0.127 S 
ATOM     97  O   UNL A   1      46.139  24.480  37.208  1.00  0.00    -0.237 OA
ATOM     98  O   UNL A   1      44.058  25.515  38.126  1.00  0.00    -0.237 OA
ATOM     99  O   UNL A   1      43.865  24.069  35.916  1.00  0.00    -0.744 OA
ENDBRANCH  93  96
ENDBRANCH  66  89
ENDBRANCH  40  41
ENDBRANCH  32  35
ENDBRANCH  30  31
ENDBRANCH  29  30
ENDBRANCH   1  29
TORSDOF 18
ENDMDL
