MODEL 1
REMARK VINA RESULT:     -11.5      0.000      0.000
REMARK SMILES CC(C)(C)N(CC(=O)NCCCCCCNC(=O)c1ccc(-c2c3nc(c(-c4cccc(S(=O)(=O)[O-])c4F)c4ccc([nH]4)c(-c4cccc(S(=O)(=O)[O-])c4F)c4nc(c(-c5cccc(S(=O)(=O)[O-])c5F)c5ccc2[nH]5)C=C4)C=C3)cc1)C(=O)Nc1ccc([N+](=O)[O-])cc1
REMARK SMILES IDX 12 1 11 2 10 3 9 4 7 5 8 6 6 8 5 9 2 10 1 11 3 12 4 13 82 14
REMARK SMILES IDX 83 15 84 16 85 18 86 19 93 20 87 21 92 22 88 23 89 24 90 25
REMARK SMILES IDX 91 26 13 27 14 28 15 29 16 30 17 31 18 33 19 34 20 35 81 36
REMARK SMILES IDX 21 37 80 38 22 39 23 40 24 41 74 42 25 43 79 44 73 45 75 46
REMARK SMILES IDX 26 47 78 48 72 49 71 50 27 52 59 53 39 54 58 55 40 56 43 57
REMARK SMILES IDX 57 58 76 59 41 60 42 61 56 63 77 64 44 65 28 66 29 67 37 68
REMARK SMILES IDX 30 69 32 70 38 71 31 72 33 73 34 74 35 75 36 76 60 77 61 78
REMARK SMILES IDX 69 79 62 80 64 81 70 82 63 83 65 84 66 85 67 86 68 87 45 88
REMARK SMILES IDX 46 89 54 90 47 91 49 92 55 93 48 94 50 95 51 96 52 97 53 98
REMARK H PARENT 9 7 84 17 16 32 75 51 43 62
REMARK Flexibility Score: inf
ROOT
ATOM      1  C   UNL A   1      32.199  29.566  26.868  1.00  0.00     0.002 C 
ENDROOT
BRANCH   1   2
ATOM      2  C   UNL A   1      33.551  29.016  26.404  1.00  0.00     0.021 C 
BRANCH   2   3
ATOM      3  C   UNL A   1      33.657  27.497  26.350  1.00  0.00     0.116 C 
BRANCH   3   4
ATOM      4  N   UNL A   1      32.404  26.808  26.214  1.00  0.00    -0.355 N 
ATOM      5  C   UNL A   1      32.187  25.464  26.248  1.00  0.00     0.239 C 
ATOM      6  O   UNL A   1      31.093  25.097  26.696  1.00  0.00    -0.273 OA
ATOM      7  H   UNL A   1      31.609  27.373  26.082  1.00  0.00     0.163 HD
BRANCH   5   8
ATOM      8  C   UNL A   1      33.233  24.408  25.820  1.00  0.00     0.221 C 
BRANCH   8   9
ATOM      9  N   UNL A   1      33.267  23.837  24.454  1.00  0.00    -0.310 N 
BRANCH   9  10
ATOM     10  C   UNL A   1      32.201  22.790  24.087  1.00  0.00     0.037 C 
ATOM     11  C   UNL A   1      30.821  23.382  23.670  1.00  0.00     0.034 C 
ATOM     12  C   UNL A   1      31.901  21.781  25.227  1.00  0.00     0.034 C 
ATOM     13  C   UNL A   1      32.679  21.993  22.845  1.00  0.00     0.034 C 
ENDBRANCH   9  10
BRANCH   9  14
ATOM     14  C   UNL A   1      33.958  24.421  23.391  1.00  0.00     0.322 C 
ATOM     15  O   UNL A   1      35.009  23.944  22.946  1.00  0.00    -0.248 OA
ATOM     16  N   UNL A   1      33.430  25.379  22.583  1.00  0.00    -0.308 N 
ATOM     17  H   UNL A   1      33.783  25.310  21.667  1.00  0.00     0.171 HD
BRANCH  16  18
ATOM     18  C   UNL A   1      32.524  26.429  22.702  1.00  0.00     0.043 A 
ATOM     19  C   UNL A   1      33.035  27.733  22.717  1.00  0.00     0.033 A 
ATOM     20  C   UNL A   1      31.158  26.228  22.854  1.00  0.00     0.033 A 
ATOM     21  C   UNL A   1      32.169  28.829  22.668  1.00  0.00     0.088 A 
ATOM     22  C   UNL A   1      30.276  27.314  22.792  1.00  0.00     0.088 A 
ATOM     23  C   UNL A   1      30.788  28.607  22.649  1.00  0.00     0.269 A 
BRANCH  23  24
ATOM     24  N   UNL A   1      29.874  29.736  22.445  1.00  0.00     0.062 N 
ATOM     25  O   UNL A   1      29.331  30.223  23.449  1.00  0.00    -0.258 OA
ATOM     26  O   UNL A   1      29.702  30.142  21.288  1.00  0.00    -0.258 OA
ENDBRANCH  23  24
ENDBRANCH  16  18
ENDBRANCH   9  14
ENDBRANCH   8   9
ENDBRANCH   5   8
ENDBRANCH   3   4
ENDBRANCH   2   3
ENDBRANCH   1   2
BRANCH   1  27
ATOM     27  C   UNL A   1      31.549  30.615  25.959  1.00  0.00     0.002 C 
BRANCH  27  28
ATOM     28  C   UNL A   1      31.381  32.014  26.555  1.00  0.00     0.021 C 
BRANCH  28  29
ATOM     29  C   UNL A   1      32.632  32.595  27.196  1.00  0.00     0.116 C 
BRANCH  29  30
ATOM     30  N   UNL A   1      32.445  33.976  27.607  1.00  0.00    -0.352 N 
ATOM     31  C   UNL A   1      33.105  34.672  28.595  1.00  0.00     0.251 C 
ATOM     32  H   UNL A   1      31.757  34.479  27.114  1.00  0.00     0.163 HD
ATOM     33  O   UNL A   1      32.706  35.767  28.955  1.00  0.00    -0.269 OA
BRANCH  31  34
ATOM     34  C   UNL A   1      34.297  34.061  29.224  1.00  0.00     0.039 A 
ATOM     35  C   UNL A   1      35.569  34.432  28.782  1.00  0.00     0.014 A 
ATOM     36  C   UNL A   1      34.151  33.140  30.264  1.00  0.00     0.014 A 
ATOM     37  C   UNL A   1      36.699  33.915  29.421  1.00  0.00     0.010 A 
ATOM     38  C   UNL A   1      35.274  32.689  30.948  1.00  0.00     0.010 A 
ATOM     39  C   UNL A   1      36.561  33.059  30.525  1.00  0.00    -0.014 A 
BRANCH  39  40
ATOM     40  C   UNL A   1      37.738  32.499  31.237  1.00  0.00     0.031 A 
ATOM     41  C   UNL A   1      38.475  31.329  30.639  1.00  0.00     0.074 A 
ATOM     42  C   UNL A   1      38.082  32.969  32.453  1.00  0.00     0.049 A 
ATOM     43  N   UNL A   1      39.429  30.602  31.156  1.00  0.00    -0.248 NA
ATOM     44  C   UNL A   1      38.059  30.901  29.291  1.00  0.00     0.031 C 
ATOM     45  C   UNL A   1      37.408  34.056  33.166  1.00  0.00     0.029 A 
ATOM     46  N   UNL A   1      39.067  32.564  33.321  1.00  0.00    -0.354 N 
ATOM     47  C   UNL A   1      39.702  29.613  30.217  1.00  0.00     0.074 A 
ATOM     48  C   UNL A   1      38.785  29.806  29.116  1.00  0.00     0.031 C 
ATOM     49  C   UNL A   1      37.989  34.223  34.367  1.00  0.00     0.029 A 
ATOM     50  C   UNL A   1      39.053  33.237  34.523  1.00  0.00     0.049 A 
ATOM     51  H   UNL A   1      39.719  31.859  33.106  1.00  0.00     0.167 HD
ATOM     52  C   UNL A   1      40.653  28.650  30.252  1.00  0.00     0.034 A 
ATOM     53  C   UNL A   1      39.803  33.063  35.631  1.00  0.00     0.034 A 
ATOM     54  C   UNL A   1      41.595  28.492  31.324  1.00  0.00     0.049 A 
ATOM     55  C   UNL A   1      40.877  32.006  35.625  1.00  0.00     0.074 A 
ATOM     56  C   UNL A   1      42.634  27.584  31.429  1.00  0.00     0.029 A 
ATOM     57  N   UNL A   1      41.622  29.268  32.471  1.00  0.00    -0.354 N 
ATOM     58  N   UNL A   1      41.198  31.160  34.677  1.00  0.00    -0.248 NA
ATOM     59  C   UNL A   1      41.718  31.903  36.828  1.00  0.00     0.031 C 
ATOM     60  C   UNL A   1      43.283  27.804  32.647  1.00  0.00     0.029 A 
ATOM     61  C   UNL A   1      42.666  28.868  33.286  1.00  0.00     0.049 A 
ATOM     62  H   UNL A   1      40.993  29.997  32.676  1.00  0.00     0.167 HD
ATOM     63  C   UNL A   1      42.306  30.464  35.146  1.00  0.00     0.074 A 
ATOM     64  C   UNL A   1      42.610  30.994  36.458  1.00  0.00     0.031 C 
ATOM     65  C   UNL A   1      43.002  29.465  34.551  1.00  0.00     0.034 A 
BRANCH  52  66
ATOM     66  C   UNL A   1      40.770  27.734  29.062  1.00  0.00     0.023 A 
ATOM     67  C   UNL A   1      39.897  26.631  28.952  1.00  0.00     0.012 A 
ATOM     68  C   UNL A   1      41.680  28.002  28.021  1.00  0.00     0.148 A 
ATOM     69  C   UNL A   1      39.947  25.793  27.841  1.00  0.00     0.002 A 
ATOM     70  C   UNL A   1      41.692  27.188  26.894  1.00  0.00     0.091 A 
ATOM     71  F   UNL A   1      42.511  29.045  28.152  1.00  0.00    -0.205 F 
ATOM     72  C   UNL A   1      40.835  26.078  26.807  1.00  0.00     0.022 A 
BRANCH  70  73
ATOM     73  S   UNL A   1      42.740  27.513  25.470  1.00  0.00     0.127 S 
ATOM     74  O   UNL A   1      42.633  26.255  24.733  1.00  0.00    -0.237 OA
ATOM     75  O   UNL A   1      42.061  28.647  24.845  1.00  0.00    -0.237 OA
ATOM     76  O   UNL A   1      44.062  27.809  26.002  1.00  0.00    -0.744 OA
ENDBRANCH  70  73
ENDBRANCH  52  66
BRANCH  53  77
ATOM     77  C   UNL A   1      39.604  33.937  36.822  1.00  0.00     0.023 A 
ATOM     78  C   UNL A   1      40.025  35.281  36.775  1.00  0.00     0.012 A 
ATOM     79  C   UNL A   1      39.016  33.446  38.003  1.00  0.00     0.148 A 
ATOM     80  C   UNL A   1      39.908  36.105  37.896  1.00  0.00     0.002 A 
ATOM     81  C   UNL A   1      38.849  34.288  39.097  1.00  0.00     0.091 A 
ATOM     82  F   UNL A   1      38.634  32.162  38.038  1.00  0.00    -0.205 F 
ATOM     83  C   UNL A   1      39.313  35.611  39.053  1.00  0.00     0.022 A 
BRANCH  81  84
ATOM     84  S   UNL A   1      37.976  33.767  40.578  1.00  0.00     0.127 S 
ATOM     85  O   UNL A   1      38.886  32.764  41.126  1.00  0.00    -0.237 OA
ATOM     86  O   UNL A   1      37.898  35.012  41.343  1.00  0.00    -0.237 OA
ATOM     87  O   UNL A   1      36.686  33.273  40.113  1.00  0.00    -0.744 OA
ENDBRANCH  81  84
ENDBRANCH  53  77
BRANCH  65  88
ATOM     88  C   UNL A   1      44.210  28.921  35.267  1.00  0.00     0.023 A 
ATOM     89  C   UNL A   1      45.482  29.475  35.026  1.00  0.00     0.012 A 
ATOM     90  C   UNL A   1      44.058  27.928  36.256  1.00  0.00     0.148 A 
ATOM     91  C   UNL A   1      46.592  29.030  35.743  1.00  0.00     0.002 A 
ATOM     92  C   UNL A   1      45.160  27.526  37.000  1.00  0.00     0.091 A 
ATOM     93  F   UNL A   1      42.840  27.405  36.455  1.00  0.00    -0.205 F 
ATOM     94  C   UNL A   1      46.429  28.067  36.737  1.00  0.00     0.022 A 
BRANCH  92  95
ATOM     95  S   UNL A   1      45.029  26.368  38.367  1.00  0.00     0.127 S 
ATOM     96  O   UNL A   1      45.978  26.931  39.326  1.00  0.00    -0.237 OA
ATOM     97  O   UNL A   1      43.624  26.499  38.749  1.00  0.00    -0.237 OA
ATOM     98  O   UNL A   1      45.390  25.063  37.826  1.00  0.00    -0.744 OA
ENDBRANCH  92  95
ENDBRANCH  65  88
ENDBRANCH  39  40
ENDBRANCH  31  34
ENDBRANCH  29  30
ENDBRANCH  28  29
ENDBRANCH  27  28
ENDBRANCH   1  27
TORSDOF 21
ENDMDL
MODEL 2
REMARK VINA RESULT:     -11.1      6.316     11.216
REMARK SMILES CC(C)(C)N(CC(=O)NCCCCCCNC(=O)c1ccc(-c2c3nc(c(-c4cccc(S(=O)(=O)[O-])c4F)c4ccc([nH]4)c(-c4cccc(S(=O)(=O)[O-])c4F)c4nc(c(-c5cccc(S(=O)(=O)[O-])c5F)c5ccc2[nH]5)C=C4)C=C3)cc1)C(=O)Nc1ccc([N+](=O)[O-])cc1
REMARK SMILES IDX 12 1 11 2 10 3 9 4 7 5 8 6 6 8 5 9 2 10 1 11 3 12 4 13 82 14
REMARK SMILES IDX 83 15 84 16 85 18 86 19 93 20 87 21 92 22 88 23 89 24 90 25
REMARK SMILES IDX 91 26 13 27 14 28 15 29 16 30 17 31 18 33 19 34 20 35 81 36
REMARK SMILES IDX 21 37 80 38 22 39 23 40 24 41 74 42 25 43 79 44 73 45 75 46
REMARK SMILES IDX 26 47 78 48 72 49 71 50 27 52 59 53 39 54 58 55 40 56 43 57
REMARK SMILES IDX 57 58 76 59 41 60 42 61 56 63 77 64 44 65 28 66 29 67 37 68
REMARK SMILES IDX 30 69 32 70 38 71 31 72 33 73 34 74 35 75 36 76 60 77 61 78
REMARK SMILES IDX 69 79 62 80 64 81 70 82 63 83 65 84 66 85 67 86 68 87 45 88
REMARK SMILES IDX 46 89 54 90 47 91 49 92 55 93 48 94 50 95 51 96 52 97 53 98
REMARK H PARENT 9 7 84 17 16 32 75 51 43 62
REMARK Flexibility Score: inf
ROOT
ATOM      1  C   UNL A   1      37.750  23.251  25.674  1.00  0.00     0.002 C 
ENDROOT
BRANCH   1   2
ATOM      2  C   UNL A   1      36.807  22.442  24.777  1.00  0.00     0.021 C 
BRANCH   2   3
ATOM      3  C   UNL A   1      35.836  21.523  25.506  1.00  0.00     0.116 C 
BRANCH   3   4
ATOM      4  N   UNL A   1      35.424  21.986  26.803  1.00  0.00    -0.355 N 
ATOM      5  C   UNL A   1      34.369  22.795  27.099  1.00  0.00     0.239 C 
ATOM      6  O   UNL A   1      33.832  22.613  28.200  1.00  0.00    -0.273 OA
ATOM      7  H   UNL A   1      35.967  21.683  27.566  1.00  0.00     0.163 HD
BRANCH   5   8
ATOM      8  C   UNL A   1      33.795  23.856  26.132  1.00  0.00     0.221 C 
BRANCH   8   9
ATOM      9  N   UNL A   1      32.413  23.778  25.604  1.00  0.00    -0.310 N 
BRANCH   9  10
ATOM     10  C   UNL A   1      32.164  22.893  24.371  1.00  0.00     0.037 C 
ATOM     11  C   UNL A   1      30.878  23.245  23.565  1.00  0.00     0.034 C 
ATOM     12  C   UNL A   1      32.054  21.381  24.702  1.00  0.00     0.034 C 
ATOM     13  C   UNL A   1      33.327  23.087  23.363  1.00  0.00     0.034 C 
ENDBRANCH   9  10
BRANCH   9  14
ATOM     14  C   UNL A   1      31.286  24.160  26.334  1.00  0.00     0.322 C 
ATOM     15  O   UNL A   1      30.828  23.470  27.252  1.00  0.00    -0.248 OA
ATOM     16  N   UNL A   1      30.754  25.411  26.300  1.00  0.00    -0.308 N 
ATOM     17  H   UNL A   1      30.351  25.653  27.165  1.00  0.00     0.171 HD
BRANCH  16  18
ATOM     18  C   UNL A   1      30.628  26.442  25.374  1.00  0.00     0.043 A 
ATOM     19  C   UNL A   1      29.682  26.290  24.353  1.00  0.00     0.033 A 
ATOM     20  C   UNL A   1      31.431  27.577  25.399  1.00  0.00     0.033 A 
ATOM     21  C   UNL A   1      29.395  27.356  23.495  1.00  0.00     0.088 A 
ATOM     22  C   UNL A   1      31.147  28.658  24.557  1.00  0.00     0.088 A 
ATOM     23  C   UNL A   1      30.095  28.559  23.641  1.00  0.00     0.269 A 
BRANCH  23  24
ATOM     24  N   UNL A   1      29.701  29.729  22.852  1.00  0.00     0.062 N 
ATOM     25  O   UNL A   1      29.187  30.683  23.457  1.00  0.00    -0.258 OA
ATOM     26  O   UNL A   1      29.907  29.703  21.631  1.00  0.00    -0.258 OA
ENDBRANCH  23  24
ENDBRANCH  16  18
ENDBRANCH   9  14
ENDBRANCH   8   9
ENDBRANCH   5   8
ENDBRANCH   3   4
ENDBRANCH   2   3
ENDBRANCH   1   2
BRANCH   1  27
ATOM     27  C   UNL A   1      38.980  22.507  26.204  1.00  0.00     0.002 C 
BRANCH  27  28
ATOM     28  C   UNL A   1      39.266  21.141  25.576  1.00  0.00     0.021 C 
BRANCH  28  29
ATOM     29  C   UNL A   1      39.461  20.004  26.568  1.00  0.00     0.116 C 
BRANCH  29  30
ATOM     30  N   UNL A   1      40.516  19.094  26.157  1.00  0.00    -0.352 N 
ATOM     31  C   UNL A   1      41.832  19.381  25.874  1.00  0.00     0.251 C 
ATOM     32  H   UNL A   1      40.255  18.148  26.070  1.00  0.00     0.163 HD
ATOM     33  O   UNL A   1      42.552  18.545  25.354  1.00  0.00    -0.269 OA
BRANCH  31  34
ATOM     34  C   UNL A   1      42.354  20.729  26.195  1.00  0.00     0.039 A 
ATOM     35  C   UNL A   1      42.656  21.610  25.154  1.00  0.00     0.014 A 
ATOM     36  C   UNL A   1      42.519  21.123  27.525  1.00  0.00     0.014 A 
ATOM     37  C   UNL A   1      43.078  22.909  25.450  1.00  0.00     0.010 A 
ATOM     38  C   UNL A   1      42.862  22.438  27.817  1.00  0.00     0.010 A 
ATOM     39  C   UNL A   1      43.161  23.340  26.784  1.00  0.00    -0.014 A 
BRANCH  39  40
ATOM     40  C   UNL A   1      43.594  24.717  27.138  1.00  0.00     0.031 A 
ATOM     41  C   UNL A   1      42.596  25.673  27.738  1.00  0.00     0.074 A 
ATOM     42  C   UNL A   1      44.839  25.136  26.836  1.00  0.00     0.049 A 
ATOM     43  N   UNL A   1      42.721  26.949  27.987  1.00  0.00    -0.248 NA
ATOM     44  C   UNL A   1      41.268  25.125  28.072  1.00  0.00     0.031 C 
ATOM     45  C   UNL A   1      45.878  24.324  26.198  1.00  0.00     0.029 A 
ATOM     46  N   UNL A   1      45.431  26.365  26.995  1.00  0.00    -0.354 N 
ATOM     47  C   UNL A   1      41.484  27.363  28.470  1.00  0.00     0.074 A 
ATOM     48  C   UNL A   1      40.609  26.213  28.440  1.00  0.00     0.031 C 
ATOM     49  C   UNL A   1      46.973  25.080  26.007  1.00  0.00     0.029 A 
ATOM     50  C   UNL A   1      46.706  26.434  26.478  1.00  0.00     0.049 A 
ATOM     51  H   UNL A   1      44.986  27.125  27.434  1.00  0.00     0.167 HD
ATOM     52  C   UNL A   1      41.119  28.583  28.928  1.00  0.00     0.034 A 
ATOM     53  C   UNL A   1      47.554  27.479  26.379  1.00  0.00     0.034 A 
ATOM     54  C   UNL A   1      42.005  29.711  29.004  1.00  0.00     0.049 A 
ATOM     55  C   UNL A   1      47.130  28.816  26.931  1.00  0.00     0.074 A 
ATOM     56  C   UNL A   1      41.748  30.974  29.505  1.00  0.00     0.029 A 
ATOM     57  N   UNL A   1      43.323  29.707  28.577  1.00  0.00    -0.354 N 
ATOM     58  N   UNL A   1      45.997  29.154  27.495  1.00  0.00    -0.248 NA
ATOM     59  C   UNL A   1      48.116  29.906  26.868  1.00  0.00     0.031 C 
ATOM     60  C   UNL A   1      42.910  31.739  29.371  1.00  0.00     0.029 A 
ATOM     61  C   UNL A   1      43.897  30.943  28.813  1.00  0.00     0.049 A 
ATOM     62  H   UNL A   1      43.783  28.939  28.168  1.00  0.00     0.167 HD
ATOM     63  C   UNL A   1      46.151  30.476  27.899  1.00  0.00     0.074 A 
ATOM     64  C   UNL A   1      47.493  30.874  27.526  1.00  0.00     0.031 C 
ATOM     65  C   UNL A   1      45.260  31.293  28.511  1.00  0.00     0.034 A 
BRANCH  52  66
ATOM     66  C   UNL A   1      39.716  28.746  29.453  1.00  0.00     0.023 A 
ATOM     67  C   UNL A   1      39.426  28.360  30.778  1.00  0.00     0.012 A 
ATOM     68  C   UNL A   1      38.711  29.348  28.673  1.00  0.00     0.148 A 
ATOM     69  C   UNL A   1      38.152  28.543  31.309  1.00  0.00     0.002 A 
ATOM     70  C   UNL A   1      37.454  29.570  29.225  1.00  0.00     0.091 A 
ATOM     71  F   UNL A   1      39.002  29.694  27.411  1.00  0.00    -0.205 F 
ATOM     72  C   UNL A   1      37.170  29.158  30.538  1.00  0.00     0.022 A 
BRANCH  70  73
ATOM     73  S   UNL A   1      36.141  30.426  28.345  1.00  0.00     0.127 S 
ATOM     74  O   UNL A   1      35.861  29.495  27.254  1.00  0.00    -0.237 OA
ATOM     75  O   UNL A   1      35.095  30.506  29.363  1.00  0.00    -0.237 OA
ATOM     76  O   UNL A   1      36.698  31.709  27.938  1.00  0.00    -0.744 OA
ENDBRANCH  70  73
ENDBRANCH  52  66
BRANCH  53  77
ATOM     77  C   UNL A   1      48.907  27.300  25.779  1.00  0.00     0.023 A 
ATOM     78  C   UNL A   1      49.989  26.934  26.603  1.00  0.00     0.012 A 
ATOM     79  C   UNL A   1      49.132  27.501  24.404  1.00  0.00     0.148 A 
ATOM     80  C   UNL A   1      51.278  26.819  26.080  1.00  0.00     0.002 A 
ATOM     81  C   UNL A   1      50.408  27.329  23.878  1.00  0.00     0.091 A 
ATOM     82  F   UNL A   1      48.096  27.862  23.635  1.00  0.00    -0.205 F 
ATOM     83  C   UNL A   1      51.486  27.009  24.717  1.00  0.00     0.022 A 
BRANCH  81  84
ATOM     84  S   UNL A   1      50.733  27.426  22.114  1.00  0.00     0.127 S 
ATOM     85  O   UNL A   1      49.721  26.524  21.571  1.00  0.00    -0.237 OA
ATOM     86  O   UNL A   1      50.506  28.845  21.837  1.00  0.00    -0.237 OA
ATOM     87  O   UNL A   1      52.118  27.004  21.952  1.00  0.00    -0.744 OA
ENDBRANCH  81  84
ENDBRANCH  53  77
BRANCH  65  88
ATOM     88  C   UNL A   1      45.714  32.676  28.892  1.00  0.00     0.023 A 
ATOM     89  C   UNL A   1      46.357  32.894  30.125  1.00  0.00     0.012 A 
ATOM     90  C   UNL A   1      45.592  33.738  27.973  1.00  0.00     0.148 A 
ATOM     91  C   UNL A   1      46.850  34.156  30.451  1.00  0.00     0.002 A 
ATOM     92  C   UNL A   1      46.131  34.981  28.285  1.00  0.00     0.091 A 
ATOM     93  F   UNL A   1      44.962  33.511  26.812  1.00  0.00    -0.205 F 
ATOM     94  C   UNL A   1      46.749  35.194  29.527  1.00  0.00     0.022 A 
BRANCH  92  95
ATOM     95  S   UNL A   1      46.138  36.347  27.118  1.00  0.00     0.127 S 
ATOM     96  O   UNL A   1      47.112  37.252  27.727  1.00  0.00    -0.237 OA
ATOM     97  O   UNL A   1      46.590  35.700  25.887  1.00  0.00    -0.237 OA
ATOM     98  O   UNL A   1      44.769  36.846  27.073  1.00  0.00    -0.744 OA
ENDBRANCH  92  95
ENDBRANCH  65  88
ENDBRANCH  39  40
ENDBRANCH  31  34
ENDBRANCH  29  30
ENDBRANCH  28  29
ENDBRANCH  27  28
ENDBRANCH   1  27
TORSDOF 21
ENDMDL
MODEL 3
REMARK VINA RESULT:     -11.0      5.589      8.619
REMARK SMILES CC(C)(C)N(CC(=O)NCCCCCCNC(=O)c1ccc(-c2c3nc(c(-c4cccc(S(=O)(=O)[O-])c4F)c4ccc([nH]4)c(-c4cccc(S(=O)(=O)[O-])c4F)c4nc(c(-c5cccc(S(=O)(=O)[O-])c5F)c5ccc2[nH]5)C=C4)C=C3)cc1)C(=O)Nc1ccc([N+](=O)[O-])cc1
REMARK SMILES IDX 12 1 11 2 10 3 9 4 7 5 8 6 6 8 5 9 2 10 1 11 3 12 4 13 82 14
REMARK SMILES IDX 83 15 84 16 85 18 86 19 93 20 87 21 92 22 88 23 89 24 90 25
REMARK SMILES IDX 91 26 13 27 14 28 15 29 16 30 17 31 18 33 19 34 20 35 81 36
REMARK SMILES IDX 21 37 80 38 22 39 23 40 24 41 74 42 25 43 79 44 73 45 75 46
REMARK SMILES IDX 26 47 78 48 72 49 71 50 27 52 59 53 39 54 58 55 40 56 43 57
REMARK SMILES IDX 57 58 76 59 41 60 42 61 56 63 77 64 44 65 28 66 29 67 37 68
REMARK SMILES IDX 30 69 32 70 38 71 31 72 33 73 34 74 35 75 36 76 60 77 61 78
REMARK SMILES IDX 69 79 62 80 64 81 70 82 63 83 65 84 66 85 67 86 68 87 45 88
REMARK SMILES IDX 46 89 54 90 47 91 49 92 55 93 48 94 50 95 51 96 52 97 53 98
REMARK H PARENT 9 7 84 17 16 32 75 51 43 62
REMARK Flexibility Score: inf
ROOT
ATOM      1  C   UNL A   1      35.483  23.428  24.553  1.00  0.00     0.002 C 
ENDROOT
BRANCH   1   2
ATOM      2  C   UNL A   1      34.765  24.443  23.659  1.00  0.00     0.021 C 
BRANCH   2   3
ATOM      3  C   UNL A   1      33.365  24.045  23.208  1.00  0.00     0.116 C 
BRANCH   3   4
ATOM      4  N   UNL A   1      32.959  24.592  21.943  1.00  0.00    -0.355 N 
ATOM      5  C   UNL A   1      32.892  25.905  21.588  1.00  0.00     0.239 C 
ATOM      6  O   UNL A   1      33.102  26.161  20.396  1.00  0.00    -0.273 OA
ATOM      7  H   UNL A   1      32.698  23.941  21.252  1.00  0.00     0.163 HD
BRANCH   5   8
ATOM      8  C   UNL A   1      32.632  27.058  22.587  1.00  0.00     0.221 C 
BRANCH   8   9
ATOM      9  N   UNL A   1      31.630  26.952  23.672  1.00  0.00    -0.310 N 
BRANCH   9  10
ATOM     10  C   UNL A   1      31.909  27.706  24.984  1.00  0.00     0.037 C 
ATOM     11  C   UNL A   1      30.998  27.295  26.179  1.00  0.00     0.034 C 
ATOM     12  C   UNL A   1      31.771  29.247  24.857  1.00  0.00     0.034 C 
ATOM     13  C   UNL A   1      33.351  27.385  25.457  1.00  0.00     0.034 C 
ENDBRANCH   9  10
BRANCH   9  14
ATOM     14  C   UNL A   1      30.319  26.515  23.472  1.00  0.00     0.322 C 
ATOM     15  O   UNL A   1      29.991  25.330  23.601  1.00  0.00    -0.248 OA
ATOM     16  N   UNL A   1      29.251  27.351  23.387  1.00  0.00    -0.308 N 
ATOM     17  H   UNL A   1      28.437  26.932  23.748  1.00  0.00     0.171 HD
BRANCH  16  18
ATOM     18  C   UNL A   1      28.998  28.641  22.929  1.00  0.00     0.043 A 
ATOM     19  C   UNL A   1      27.873  29.304  23.436  1.00  0.00     0.033 A 
ATOM     20  C   UNL A   1      29.783  29.264  21.966  1.00  0.00     0.033 A 
ATOM     21  C   UNL A   1      27.661  30.655  23.140  1.00  0.00     0.088 A 
ATOM     22  C   UNL A   1      29.592  30.619  21.671  1.00  0.00     0.088 A 
ATOM     23  C   UNL A   1      28.559  31.320  22.300  1.00  0.00     0.269 A 
BRANCH  23  24
ATOM     24  N   UNL A   1      28.435  32.768  22.105  1.00  0.00     0.062 N 
ATOM     25  O   UNL A   1      29.043  33.508  22.894  1.00  0.00    -0.258 OA
ATOM     26  O   UNL A   1      27.737  33.169  21.165  1.00  0.00    -0.258 OA
ENDBRANCH  23  24
ENDBRANCH  16  18
ENDBRANCH   9  14
ENDBRANCH   8   9
ENDBRANCH   5   8
ENDBRANCH   3   4
ENDBRANCH   2   3
ENDBRANCH   1   2
BRANCH   1  27
ATOM     27  C   UNL A   1      35.957  22.141  23.868  1.00  0.00     0.002 C 
BRANCH  27  28
ATOM     28  C   UNL A   1      36.687  21.132  24.758  1.00  0.00     0.021 C 
BRANCH  28  29
ATOM     29  C   UNL A   1      37.723  21.731  25.696  1.00  0.00     0.116 C 
BRANCH  29  30
ATOM     30  N   UNL A   1      38.744  20.769  26.070  1.00  0.00    -0.352 N 
ATOM     31  C   UNL A   1      40.019  21.008  26.533  1.00  0.00     0.251 C 
ATOM     32  H   UNL A   1      38.491  19.821  25.982  1.00  0.00     0.163 HD
ATOM     33  O   UNL A   1      40.828  20.100  26.621  1.00  0.00    -0.269 OA
BRANCH  31  34
ATOM     34  C   UNL A   1      40.395  22.391  26.903  1.00  0.00     0.039 A 
ATOM     35  C   UNL A   1      41.222  22.601  28.009  1.00  0.00     0.014 A 
ATOM     36  C   UNL A   1      39.947  23.472  26.139  1.00  0.00     0.014 A 
ATOM     37  C   UNL A   1      41.642  23.897  28.320  1.00  0.00     0.010 A 
ATOM     38  C   UNL A   1      40.429  24.749  26.404  1.00  0.00     0.010 A 
ATOM     39  C   UNL A   1      41.268  24.978  27.506  1.00  0.00    -0.014 A 
BRANCH  39  40
ATOM     40  C   UNL A   1      41.704  26.368  27.797  1.00  0.00     0.031 A 
ATOM     41  C   UNL A   1      43.116  26.782  27.472  1.00  0.00     0.074 A 
ATOM     42  C   UNL A   1      40.876  27.220  28.434  1.00  0.00     0.049 A 
ATOM     43  N   UNL A   1      43.741  27.890  27.770  1.00  0.00    -0.248 NA
ATOM     44  C   UNL A   1      43.944  25.805  26.742  1.00  0.00     0.031 C 
ATOM     45  C   UNL A   1      39.507  26.918  28.857  1.00  0.00     0.029 A 
ATOM     46  N   UNL A   1      41.080  28.507  28.870  1.00  0.00    -0.354 N 
ATOM     47  C   UNL A   1      45.040  27.730  27.300  1.00  0.00     0.074 A 
ATOM     48  C   UNL A   1      45.126  26.403  26.733  1.00  0.00     0.031 C 
ATOM     49  C   UNL A   1      38.999  27.982  29.502  1.00  0.00     0.029 A 
ATOM     50  C   UNL A   1      40.013  29.029  29.568  1.00  0.00     0.049 A 
ATOM     51  H   UNL A   1      41.910  29.007  28.701  1.00  0.00     0.167 HD
ATOM     52  C   UNL A   1      46.060  28.619  27.308  1.00  0.00     0.034 A 
ATOM     53  C   UNL A   1      39.879  30.210  30.205  1.00  0.00     0.034 A 
ATOM     54  C   UNL A   1      45.957  29.954  27.826  1.00  0.00     0.049 A 
ATOM     55  C   UNL A   1      41.021  31.193  30.166  1.00  0.00     0.074 A 
ATOM     56  C   UNL A   1      46.915  30.952  27.830  1.00  0.00     0.029 A 
ATOM     57  N   UNL A   1      44.822  30.483  28.421  1.00  0.00    -0.354 N 
ATOM     58  N   UNL A   1      42.200  31.066  29.608  1.00  0.00    -0.248 NA
ATOM     59  C   UNL A   1      40.801  32.497  30.810  1.00  0.00     0.031 C 
ATOM     60  C   UNL A   1      46.363  32.083  28.438  1.00  0.00     0.029 A 
ATOM     61  C   UNL A   1      45.052  31.797  28.787  1.00  0.00     0.049 A 
ATOM     62  H   UNL A   1      43.978  29.997  28.561  1.00  0.00     0.167 HD
ATOM     63  C   UNL A   1      42.841  32.287  29.788  1.00  0.00     0.074 A 
ATOM     64  C   UNL A   1      41.915  33.145  30.497  1.00  0.00     0.031 C 
ATOM     65  C   UNL A   1      44.088  32.661  29.415  1.00  0.00     0.034 A 
BRANCH  52  66
ATOM     66  C   UNL A   1      47.361  28.202  26.674  1.00  0.00     0.023 A 
ATOM     67  C   UNL A   1      48.456  27.871  27.499  1.00  0.00     0.012 A 
ATOM     68  C   UNL A   1      47.480  28.062  25.278  1.00  0.00     0.148 A 
ATOM     69  C   UNL A   1      49.657  27.435  26.945  1.00  0.00     0.002 A 
ATOM     70  C   UNL A   1      48.667  27.582  24.735  1.00  0.00     0.091 A 
ATOM     71  F   UNL A   1      46.434  28.396  24.510  1.00  0.00    -0.205 F 
ATOM     72  C   UNL A   1      49.759  27.279  25.566  1.00  0.00     0.022 A 
BRANCH  70  73
ATOM     73  S   UNL A   1      48.877  27.268  22.978  1.00  0.00     0.127 S 
ATOM     74  O   UNL A   1      48.289  25.937  22.843  1.00  0.00    -0.237 OA
ATOM     75  O   UNL A   1      48.091  28.347  22.380  1.00  0.00    -0.237 OA
ATOM     76  O   UNL A   1      50.309  27.341  22.724  1.00  0.00    -0.744 OA
ENDBRANCH  70  73
ENDBRANCH  52  66
BRANCH  53  77
ATOM     77  C   UNL A   1      38.603  30.556  30.894  1.00  0.00     0.023 A 
ATOM     78  C   UNL A   1      38.396  30.137  32.223  1.00  0.00     0.012 A 
ATOM     79  C   UNL A   1      37.591  31.286  30.241  1.00  0.00     0.148 A 
ATOM     80  C   UNL A   1      37.187  30.394  32.871  1.00  0.00     0.002 A 
ATOM     81  C   UNL A   1      36.411  31.589  30.912  1.00  0.00     0.091 A 
ATOM     82  F   UNL A   1      37.797  31.666  28.972  1.00  0.00    -0.205 F 
ATOM     83  C   UNL A   1      36.198  31.126  32.219  1.00  0.00     0.022 A 
BRANCH  81  84
ATOM     84  S   UNL A   1      35.145  32.637  30.190  1.00  0.00     0.127 S 
ATOM     85  O   UNL A   1      34.216  32.798  31.306  1.00  0.00    -0.237 OA
ATOM     86  O   UNL A   1      35.903  33.840  29.841  1.00  0.00    -0.237 OA
ATOM     87  O   UNL A   1      34.640  31.899  29.040  1.00  0.00    -0.744 OA
ENDBRANCH  81  84
ENDBRANCH  53  77
BRANCH  65  88
ATOM     88  C   UNL A   1      44.512  34.079  29.689  1.00  0.00     0.023 A 
ATOM     89  C   UNL A   1      45.377  34.363  30.763  1.00  0.00     0.012 A 
ATOM     90  C   UNL A   1      44.130  35.113  28.811  1.00  0.00     0.148 A 
ATOM     91  C   UNL A   1      45.836  35.662  30.976  1.00  0.00     0.002 A 
ATOM     92  C   UNL A   1      44.632  36.395  29.000  1.00  0.00     0.091 A 
ATOM     93  F   UNL A   1      43.292  34.822  27.806  1.00  0.00    -0.205 F 
ATOM     94  C   UNL A   1      45.475  36.673  30.087  1.00  0.00     0.022 A 
BRANCH  92  95
ATOM     95  S   UNL A   1      44.303  37.737  27.852  1.00  0.00     0.127 S 
ATOM     96  O   UNL A   1      43.536  38.661  28.686  1.00  0.00    -0.237 OA
ATOM     97  O   UNL A   1      45.652  38.193  27.516  1.00  0.00    -0.237 OA
ATOM     98  O   UNL A   1      43.570  37.146  26.740  1.00  0.00    -0.744 OA
ENDBRANCH  92  95
ENDBRANCH  65  88
ENDBRANCH  39  40
ENDBRANCH  31  34
ENDBRANCH  29  30
ENDBRANCH  28  29
ENDBRANCH  27  28
ENDBRANCH   1  27
TORSDOF 21
ENDMDL
