MODEL 1
REMARK VINA RESULT:      -9.6      0.000      0.000
REMARK SMILES O=C(NCCCCCCNC(=O)c1cc(Cl)c2c(c1)[C@H]1C=CC[C@H]1[C@H](c1ccc(S(=O)(=O)N3CCOCC3)cc1)N2)c1ccc(-c2c3nc(c(-c4cccc(S(=O)(=O)[O-])c4F)c4ccc([nH]4)c(-c4cccc(S(=O)(=O)[O-])c4F)c4nc(c(-c5cccc(S(=O)(=O)[O-])c5F)c5ccc2[nH]5)C=C4)C=C3)cc1
REMARK SMILES IDX 6 1 5 2 4 3 3 4 1 5 2 6 42 8 43 9 104 10 44 11 103 12 45 13
REMARK SMILES IDX 46 14 47 15 97 16 48 17 102 18 96 19 98 20 49 21 101 22
REMARK SMILES IDX 95 23 94 24 50 26 82 27 62 28 81 29 63 30 66 31 80 32 99 33
REMARK SMILES IDX 64 34 65 35 79 37 100 38 67 39 51 40 52 41 60 42 53 43 55 44
REMARK SMILES IDX 61 45 54 46 56 47 57 48 58 49 59 50 83 51 84 52 92 53 85 54
REMARK SMILES IDX 87 55 93 56 86 57 88 58 89 59 90 60 91 61 68 62 69 63 77 64
REMARK SMILES IDX 70 65 72 66 78 67 71 68 73 69 74 70 75 71 76 72 7 73 8 74
REMARK SMILES IDX 9 75 10 76 11 77 12 79 13 80 14 81 19 82 15 83 18 84 16 85
REMARK SMILES IDX 17 86 20 87 41 88 21 89 24 90 25 91 22 93 23 94 26 95 27 96
REMARK SMILES IDX 40 97 28 98 39 99 29 100 30 101 31 102 32 103 33 104 34 105
REMARK SMILES IDX 38 106 35 107 37 108 36 109
REMARK H PARENT 3 7 98 25 66 36 10 78 41 92
REMARK Flexibility Score: inf
ROOT
ATOM      1  C   UNL A   1      46.536  24.192  26.108  1.00  0.00     0.002 C 
ENDROOT
BRANCH   1   2
ATOM      2  C   UNL A   1      47.250  24.492  24.787  1.00  0.00     0.021 C 
BRANCH   2   3
ATOM      3  C   UNL A   1      48.491  25.366  24.931  1.00  0.00     0.116 C 
BRANCH   3   4
ATOM      4  N   UNL A   1      48.558  26.364  23.878  1.00  0.00    -0.352 N 
ATOM      5  O   UNL A   1      47.889  28.202  22.761  1.00  0.00    -0.269 OA
ATOM      6  C   UNL A   1      47.965  27.598  23.826  1.00  0.00     0.251 C 
ATOM      7  H   UNL A   1      49.103  26.121  23.094  1.00  0.00     0.163 HD
BRANCH   6   8
ATOM      8  C   UNL A   1      47.425  28.190  25.066  1.00  0.00     0.039 A 
ATOM      9  C   UNL A   1      46.050  28.152  25.319  1.00  0.00     0.014 A 
ATOM     10  C   UNL A   1      48.302  28.753  25.997  1.00  0.00     0.014 A 
ATOM     11  C   UNL A   1      45.543  28.754  26.463  1.00  0.00     0.010 A 
ATOM     12  C   UNL A   1      47.795  29.308  27.174  1.00  0.00     0.010 A 
ATOM     13  C   UNL A   1      46.411  29.326  27.407  1.00  0.00    -0.014 A 
BRANCH  13  14
ATOM     14  C   UNL A   1      45.847  29.850  28.672  1.00  0.00     0.031 A 
ATOM     15  C   UNL A   1      45.244  31.219  28.751  1.00  0.00     0.074 A 
ATOM     16  C   UNL A   1      45.867  29.055  29.758  1.00  0.00     0.049 A 
ATOM     17  N   UNL A   1      44.594  31.765  29.746  1.00  0.00    -0.248 NA
ATOM     18  C   UNL A   1      45.385  32.091  27.574  1.00  0.00     0.031 C 
ATOM     19  C   UNL A   1      46.478  27.725  29.809  1.00  0.00     0.029 A 
ATOM     20  N   UNL A   1      45.361  29.239  31.018  1.00  0.00    -0.354 N 
ATOM     21  C   UNL A   1      44.267  33.047  29.329  1.00  0.00     0.074 A 
ATOM     22  C   UNL A   1      44.797  33.205  27.992  1.00  0.00     0.031 C 
ATOM     23  C   UNL A   1      46.290  27.203  31.029  1.00  0.00     0.029 A 
ATOM     24  C   UNL A   1      45.567  28.169  31.853  1.00  0.00     0.049 A 
ATOM     25  H   UNL A   1      44.894  30.060  31.297  1.00  0.00     0.167 HD
ATOM     26  C   UNL A   1      43.574  33.997  29.998  1.00  0.00     0.034 A 
ATOM     27  C   UNL A   1      45.215  27.976  33.139  1.00  0.00     0.034 A 
ATOM     28  C   UNL A   1      43.035  33.824  31.319  1.00  0.00     0.049 A 
ATOM     29  C   UNL A   1      44.432  29.035  33.854  1.00  0.00     0.074 A 
ATOM     30  C   UNL A   1      42.243  34.701  32.040  1.00  0.00     0.029 A 
ATOM     31  N   UNL A   1      43.253  32.721  32.128  1.00  0.00    -0.354 N 
ATOM     32  N   UNL A   1      43.999  30.182  33.390  1.00  0.00    -0.248 NA
ATOM     33  C   UNL A   1      44.061  28.772  35.252  1.00  0.00     0.031 C 
ATOM     34  C   UNL A   1      42.011  34.142  33.298  1.00  0.00     0.029 A 
ATOM     35  C   UNL A   1      42.630  32.902  33.349  1.00  0.00     0.049 A 
ATOM     36  H   UNL A   1      43.773  31.926  31.871  1.00  0.00     0.167 HD
ATOM     37  C   UNL A   1      43.291  30.771  34.430  1.00  0.00     0.074 A 
ATOM     38  C   UNL A   1      43.346  29.852  35.549  1.00  0.00     0.031 C 
ATOM     39  C   UNL A   1      42.658  31.968  34.446  1.00  0.00     0.034 A 
BRANCH  26  40
ATOM     40  C   UNL A   1      43.315  35.306  29.307  1.00  0.00     0.023 A 
ATOM     41  C   UNL A   1      42.235  35.415  28.409  1.00  0.00     0.012 A 
ATOM     42  C   UNL A   1      44.069  36.451  29.631  1.00  0.00     0.148 A 
ATOM     43  C   UNL A   1      41.915  36.642  27.833  1.00  0.00     0.002 A 
ATOM     44  C   UNL A   1      43.727  37.677  29.074  1.00  0.00     0.091 A 
ATOM     45  F   UNL A   1      45.098  36.318  30.479  1.00  0.00    -0.205 F 
ATOM     46  C   UNL A   1      42.653  37.774  28.173  1.00  0.00     0.022 A 
BRANCH  44  47
ATOM     47  S   UNL A   1      44.580  39.203  29.486  1.00  0.00     0.127 S 
ATOM     48  O   UNL A   1      43.856  40.173  28.665  1.00  0.00    -0.237 OA
ATOM     49  O   UNL A   1      44.332  39.314  30.923  1.00  0.00    -0.237 OA
ATOM     50  O   UNL A   1      45.974  38.999  29.119  1.00  0.00    -0.744 OA
ENDBRANCH  44  47
ENDBRANCH  26  40
BRANCH  27  51
ATOM     51  C   UNL A   1      45.564  26.681  33.780  1.00  0.00     0.023 A 
ATOM     52  C   UNL A   1      46.723  26.594  34.573  1.00  0.00     0.012 A 
ATOM     53  C   UNL A   1      44.676  25.590  33.724  1.00  0.00     0.148 A 
ATOM     54  C   UNL A   1      46.988  25.439  35.309  1.00  0.00     0.002 A 
ATOM     55  C   UNL A   1      44.927  24.457  34.487  1.00  0.00     0.091 A 
ATOM     56  F   UNL A   1      43.575  25.710  32.969  1.00  0.00    -0.205 F 
ATOM     57  C   UNL A   1      46.086  24.378  35.276  1.00  0.00     0.022 A 
BRANCH  55  58
ATOM     58  S   UNL A   1      43.775  23.084  34.595  1.00  0.00     0.127 S 
ATOM     59  O   UNL A   1      42.666  23.683  35.335  1.00  0.00    -0.237 OA
ATOM     60  O   UNL A   1      43.500  22.818  33.182  1.00  0.00    -0.237 OA
ATOM     61  O   UNL A   1      44.484  22.020  35.291  1.00  0.00    -0.744 OA
ENDBRANCH  55  58
ENDBRANCH  27  51
BRANCH  39  62
ATOM     62  C   UNL A   1      41.945  32.390  35.700  1.00  0.00     0.023 A 
ATOM     63  C   UNL A   1      42.565  33.302  36.574  1.00  0.00     0.012 A 
ATOM     64  C   UNL A   1      40.596  32.036  35.901  1.00  0.00     0.148 A 
ATOM     65  C   UNL A   1      41.846  33.867  37.627  1.00  0.00     0.002 A 
ATOM     66  C   UNL A   1      39.877  32.629  36.931  1.00  0.00     0.091 A 
ATOM     67  F   UNL A   1      40.033  31.165  35.050  1.00  0.00    -0.205 F 
ATOM     68  C   UNL A   1      40.501  33.544  37.795  1.00  0.00     0.022 A 
BRANCH  66  69
ATOM     69  S   UNL A   1      38.122  32.338  37.180  1.00  0.00     0.127 S 
ATOM     70  O   UNL A   1      37.888  31.173  36.327  1.00  0.00    -0.237 OA
ATOM     71  O   UNL A   1      38.056  32.068  38.616  1.00  0.00    -0.237 OA
ATOM     72  O   UNL A   1      37.443  33.555  36.755  1.00  0.00    -0.744 OA
ENDBRANCH  66  69
ENDBRANCH  39  62
ENDBRANCH  13  14
ENDBRANCH   6   8
ENDBRANCH   3   4
ENDBRANCH   2   3
ENDBRANCH   1   2
BRANCH   1  73
ATOM     73  C   UNL A   1      45.504  23.063  26.037  1.00  0.00     0.002 C 
BRANCH  73  74
ATOM     74  C   UNL A   1      44.928  22.812  24.643  1.00  0.00     0.021 C 
BRANCH  74  75
ATOM     75  C   UNL A   1      43.413  22.648  24.617  1.00  0.00     0.116 C 
BRANCH  75  76
ATOM     76  N   UNL A   1      42.996  21.368  25.173  1.00  0.00    -0.352 N 
ATOM     77  C   UNL A   1      42.134  21.135  26.211  1.00  0.00     0.251 C 
ATOM     78  H   UNL A   1      43.385  20.570  24.748  1.00  0.00     0.163 HD
ATOM     79  O   UNL A   1      42.010  20.022  26.708  1.00  0.00    -0.269 OA
BRANCH  77  80
ATOM     80  C   UNL A   1      41.367  22.271  26.739  1.00  0.00     0.041 A 
ATOM     81  C   UNL A   1      40.007  22.386  26.455  1.00  0.00     0.036 A 
ATOM     82  C   UNL A   1      42.033  23.245  27.478  1.00  0.00     0.020 A 
ATOM     83  C   UNL A   1      39.341  23.545  26.824  1.00  0.00     0.065 A 
ATOM     84  C   UNL A   1      41.349  24.400  27.883  1.00  0.00    -0.015 A 
ATOM     85  Cl  UNL A   1      37.678  23.710  26.374  1.00  0.00    -0.082 Cl
ATOM     86  C   UNL A   1      40.007  24.581  27.507  1.00  0.00     0.057 A 
ATOM     87  C   UNL A   1      42.058  25.409  28.738  1.00  0.00     0.049 C 
ATOM     88  N   UNL A   1      39.322  25.727  27.877  1.00  0.00    -0.376 N 
ATOM     89  C   UNL A   1      43.107  26.228  28.031  1.00  0.00    -0.023 C 
ATOM     90  C   UNL A   1      41.152  26.501  29.347  1.00  0.00     0.031 C 
ATOM     91  C   UNL A   1      40.041  26.897  28.337  1.00  0.00     0.114 C 
ATOM     92  H   UNL A   1      38.339  25.746  27.826  1.00  0.00     0.161 HD
ATOM     93  C   UNL A   1      43.177  27.459  28.552  1.00  0.00    -0.030 C 
ATOM     94  C   UNL A   1      42.174  27.619  29.652  1.00  0.00     0.034 C 
BRANCH  91  95
ATOM     95  C   UNL A   1      39.036  27.879  28.918  1.00  0.00    -0.025 A 
ATOM     96  C   UNL A   1      38.535  27.831  30.237  1.00  0.00     0.007 A 
ATOM     97  C   UNL A   1      38.582  28.894  28.084  1.00  0.00     0.007 A 
ATOM     98  C   UNL A   1      37.646  28.810  30.715  1.00  0.00     0.022 A 
ATOM     99  C   UNL A   1      37.737  29.871  28.574  1.00  0.00     0.022 A 
ATOM    100  C   UNL A   1      37.274  29.857  29.876  1.00  0.00     0.082 A 
BRANCH 100 101
ATOM    101  S   UNL A   1      36.259  31.192  30.473  1.00  0.00     0.243 S 
ATOM    102  O   UNL A   1      35.341  31.520  29.403  1.00  0.00    -0.207 OA
ATOM    103  O   UNL A   1      35.788  30.788  31.780  1.00  0.00    -0.207 OA
BRANCH 101 104
ATOM    104  N   UNL A   1      37.292  32.505  30.696  1.00  0.00    -0.193 NA
ATOM    105  C   UNL A   1      37.110  33.801  30.004  1.00  0.00     0.131 C 
ATOM    106  C   UNL A   1      38.585  32.371  31.391  1.00  0.00     0.131 C 
ATOM    107  C   UNL A   1      38.352  34.221  29.190  1.00  0.00     0.177 C 
ATOM    108  C   UNL A   1      39.736  32.699  30.441  1.00  0.00     0.177 C 
ATOM    109  O   UNL A   1      39.598  34.007  29.867  1.00  0.00    -0.379 OA
ENDBRANCH 101 104
ENDBRANCH 100 101
ENDBRANCH  91  95
ENDBRANCH  77  80
ENDBRANCH  75  76
ENDBRANCH  74  75
ENDBRANCH  73  74
ENDBRANCH   1  73
TORSDOF 19
ENDMDL
MODEL 2
REMARK VINA RESULT:      -9.4      2.216      7.611
REMARK SMILES O=C(NCCCCCCNC(=O)c1cc(Cl)c2c(c1)[C@H]1C=CC[C@H]1[C@H](c1ccc(S(=O)(=O)N3CCOCC3)cc1)N2)c1ccc(-c2c3nc(c(-c4cccc(S(=O)(=O)[O-])c4F)c4ccc([nH]4)c(-c4cccc(S(=O)(=O)[O-])c4F)c4nc(c(-c5cccc(S(=O)(=O)[O-])c5F)c5ccc2[nH]5)C=C4)C=C3)cc1
REMARK SMILES IDX 6 1 5 2 4 3 3 4 1 5 2 6 42 8 43 9 104 10 44 11 103 12 45 13
REMARK SMILES IDX 46 14 47 15 97 16 48 17 102 18 96 19 98 20 49 21 101 22
REMARK SMILES IDX 95 23 94 24 50 26 82 27 62 28 81 29 63 30 66 31 80 32 99 33
REMARK SMILES IDX 64 34 65 35 79 37 100 38 67 39 51 40 52 41 60 42 53 43 55 44
REMARK SMILES IDX 61 45 54 46 56 47 57 48 58 49 59 50 83 51 84 52 92 53 85 54
REMARK SMILES IDX 87 55 93 56 86 57 88 58 89 59 90 60 91 61 68 62 69 63 77 64
REMARK SMILES IDX 70 65 72 66 78 67 71 68 73 69 74 70 75 71 76 72 7 73 8 74
REMARK SMILES IDX 9 75 10 76 11 77 12 79 13 80 14 81 19 82 15 83 18 84 16 85
REMARK SMILES IDX 17 86 20 87 41 88 21 89 24 90 25 91 22 93 23 94 26 95 27 96
REMARK SMILES IDX 40 97 28 98 39 99 29 100 30 101 31 102 32 103 33 104 34 105
REMARK SMILES IDX 38 106 35 107 37 108 36 109
REMARK H PARENT 3 7 98 25 66 36 10 78 41 92
REMARK Flexibility Score: inf
ROOT
ATOM      1  C   UNL A   1      45.135  22.594  24.299  1.00  0.00     0.002 C 
ENDROOT
BRANCH   1   2
ATOM      2  C   UNL A   1      44.831  23.616  25.397  1.00  0.00     0.021 C 
BRANCH   2   3
ATOM      3  C   UNL A   1      46.067  24.283  25.992  1.00  0.00     0.116 C 
BRANCH   3   4
ATOM      4  N   UNL A   1      46.677  25.200  25.045  1.00  0.00    -0.352 N 
ATOM      5  O   UNL A   1      46.884  27.146  23.930  1.00  0.00    -0.269 OA
ATOM      6  C   UNL A   1      46.525  26.558  24.945  1.00  0.00     0.251 C 
ATOM      7  H   UNL A   1      47.282  24.790  24.384  1.00  0.00     0.163 HD
BRANCH   6   8
ATOM      8  C   UNL A   1      45.930  27.301  26.074  1.00  0.00     0.039 A 
ATOM      9  C   UNL A   1      44.540  27.408  26.185  1.00  0.00     0.014 A 
ATOM     10  C   UNL A   1      46.765  27.861  27.044  1.00  0.00     0.014 A 
ATOM     11  C   UNL A   1      43.988  28.149  27.222  1.00  0.00     0.010 A 
ATOM     12  C   UNL A   1      46.204  28.558  28.116  1.00  0.00     0.010 A 
ATOM     13  C   UNL A   1      44.813  28.720  28.203  1.00  0.00    -0.014 A 
BRANCH  13  14
ATOM     14  C   UNL A   1      44.185  29.399  29.360  1.00  0.00     0.031 A 
ATOM     15  C   UNL A   1      43.881  28.661  30.628  1.00  0.00     0.074 A 
ATOM     16  C   UNL A   1      43.908  30.712  29.257  1.00  0.00     0.049 A 
ATOM     17  N   UNL A   1      43.459  29.144  31.768  1.00  0.00    -0.248 NA
ATOM     18  C   UNL A   1      44.071  27.202  30.626  1.00  0.00     0.031 C 
ATOM     19  C   UNL A   1      44.110  31.517  28.050  1.00  0.00     0.029 A 
ATOM     20  N   UNL A   1      43.406  31.601  30.172  1.00  0.00    -0.354 N 
ATOM     21  C   UNL A   1      43.310  28.052  32.611  1.00  0.00     0.074 A 
ATOM     22  C   UNL A   1      43.679  26.877  31.852  1.00  0.00     0.031 C 
ATOM     23  C   UNL A   1      43.760  32.785  28.307  1.00  0.00     0.029 A 
ATOM     24  C   UNL A   1      43.286  32.879  29.685  1.00  0.00     0.049 A 
ATOM     25  H   UNL A   1      43.156  31.347  31.090  1.00  0.00     0.167 HD
ATOM     26  C   UNL A   1      42.916  28.038  33.905  1.00  0.00     0.034 A 
ATOM     27  C   UNL A   1      42.847  34.007  30.276  1.00  0.00     0.034 A 
ATOM     28  C   UNL A   1      42.568  29.213  34.657  1.00  0.00     0.049 A 
ATOM     29  C   UNL A   1      42.433  33.971  31.716  1.00  0.00     0.074 A 
ATOM     30  C   UNL A   1      42.243  29.302  35.999  1.00  0.00     0.029 A 
ATOM     31  N   UNL A   1      42.472  30.491  34.134  1.00  0.00    -0.354 N 
ATOM     32  N   UNL A   1      42.445  32.953  32.542  1.00  0.00    -0.248 NA
ATOM     33  C   UNL A   1      41.974  35.230  32.318  1.00  0.00     0.031 C 
ATOM     34  C   UNL A   1      41.917  30.630  36.279  1.00  0.00     0.029 A 
ATOM     35  C   UNL A   1      42.071  31.374  35.119  1.00  0.00     0.049 A 
ATOM     36  H   UNL A   1      42.662  30.736  33.199  1.00  0.00     0.167 HD
ATOM     37  C   UNL A   1      42.013  33.450  33.765  1.00  0.00     0.074 A 
ATOM     38  C   UNL A   1      41.753  34.863  33.576  1.00  0.00     0.031 C 
ATOM     39  C   UNL A   1      41.848  32.786  34.933  1.00  0.00     0.034 A 
BRANCH  26  40
ATOM     40  C   UNL A   1      42.871  26.717  34.620  1.00  0.00     0.023 A 
ATOM     41  C   UNL A   1      41.630  26.089  34.840  1.00  0.00     0.012 A 
ATOM     42  C   UNL A   1      44.061  26.049  34.971  1.00  0.00     0.148 A 
ATOM     43  C   UNL A   1      41.571  24.819  35.411  1.00  0.00     0.002 A 
ATOM     44  C   UNL A   1      43.996  24.772  35.514  1.00  0.00     0.091 A 
ATOM     45  F   UNL A   1      45.228  26.673  34.761  1.00  0.00    -0.205 F 
ATOM     46  C   UNL A   1      42.752  24.157  35.737  1.00  0.00     0.022 A 
BRANCH  44  47
ATOM     47  S   UNL A   1      45.459  23.813  35.921  1.00  0.00     0.127 S 
ATOM     48  O   UNL A   1      44.897  22.471  36.065  1.00  0.00    -0.237 OA
ATOM     49  O   UNL A   1      46.290  24.003  34.732  1.00  0.00    -0.237 OA
ATOM     50  O   UNL A   1      45.996  24.394  37.142  1.00  0.00    -0.744 OA
ENDBRANCH  44  47
ENDBRANCH  26  40
BRANCH  27  51
ATOM     51  C   UNL A   1      42.856  35.267  29.487  1.00  0.00     0.023 A 
ATOM     52  C   UNL A   1      41.750  35.580  28.675  1.00  0.00     0.012 A 
ATOM     53  C   UNL A   1      43.885  36.213  29.655  1.00  0.00     0.148 A 
ATOM     54  C   UNL A   1      41.665  36.823  28.049  1.00  0.00     0.002 A 
ATOM     55  C   UNL A   1      43.777  37.462  29.058  1.00  0.00     0.091 A 
ATOM     56  F   UNL A   1      44.918  35.887  30.444  1.00  0.00    -0.205 F 
ATOM     57  C   UNL A   1      42.670  37.767  28.250  1.00  0.00     0.022 A 
BRANCH  55  58
ATOM     58  S   UNL A   1      44.964  38.780  29.342  1.00  0.00     0.127 S 
ATOM     59  O   UNL A   1      44.321  39.908  28.673  1.00  0.00    -0.237 OA
ATOM     60  O   UNL A   1      44.977  38.855  30.803  1.00  0.00    -0.237 OA
ATOM     61  O   UNL A   1      46.211  38.330  28.741  1.00  0.00    -0.744 OA
ENDBRANCH  55  58
ENDBRANCH  27  51
BRANCH  39  62
ATOM     62  C   UNL A   1      41.372  33.550  36.136  1.00  0.00     0.023 A 
ATOM     63  C   UNL A   1      39.991  33.656  36.387  1.00  0.00     0.012 A 
ATOM     64  C   UNL A   1      42.294  33.985  37.109  1.00  0.00     0.148 A 
ATOM     65  C   UNL A   1      39.533  34.174  37.598  1.00  0.00     0.002 A 
ATOM     66  C   UNL A   1      41.831  34.468  38.327  1.00  0.00     0.091 A 
ATOM     67  F   UNL A   1      43.603  33.870  36.842  1.00  0.00    -0.205 F 
ATOM     68  C   UNL A   1      40.450  34.564  38.571  1.00  0.00     0.022 A 
BRANCH  66  69
ATOM     69  S   UNL A   1      42.931  34.920  39.672  1.00  0.00     0.127 S 
ATOM     70  O   UNL A   1      43.824  33.763  39.729  1.00  0.00    -0.237 OA
ATOM     71  O   UNL A   1      43.549  36.145  39.166  1.00  0.00    -0.237 OA
ATOM     72  O   UNL A   1      42.086  35.100  40.846  1.00  0.00    -0.744 OA
ENDBRANCH  66  69
ENDBRANCH  39  62
ENDBRANCH  13  14
ENDBRANCH   6   8
ENDBRANCH   3   4
ENDBRANCH   2   3
ENDBRANCH   1   2
BRANCH   1  73
ATOM     73  C   UNL A   1      46.195  21.552  24.668  1.00  0.00     0.002 C 
BRANCH  73  74
ATOM     74  C   UNL A   1      45.652  20.139  24.885  1.00  0.00     0.021 C 
BRANCH  74  75
ATOM     75  C   UNL A   1      44.225  19.939  24.390  1.00  0.00     0.116 C 
BRANCH  75  76
ATOM     76  N   UNL A   1      43.528  18.907  25.145  1.00  0.00    -0.352 N 
ATOM     77  C   UNL A   1      42.763  19.051  26.272  1.00  0.00     0.251 C 
ATOM     78  H   UNL A   1      43.620  17.988  24.802  1.00  0.00     0.163 HD
ATOM     79  O   UNL A   1      42.386  18.085  26.924  1.00  0.00    -0.269 OA
BRANCH  77  80
ATOM     80  C   UNL A   1      42.420  20.413  26.702  1.00  0.00     0.041 A 
ATOM     81  C   UNL A   1      43.193  21.053  27.670  1.00  0.00     0.036 A 
ATOM     82  C   UNL A   1      41.291  21.024  26.165  1.00  0.00     0.020 A 
ATOM     83  C   UNL A   1      42.760  22.268  28.179  1.00  0.00     0.065 A 
ATOM     84  C   UNL A   1      40.874  22.270  26.654  1.00  0.00    -0.015 A 
ATOM     85  Cl  UNL A   1      43.681  22.996  29.451  1.00  0.00    -0.082 Cl
ATOM     86  C   UNL A   1      41.580  22.875  27.708  1.00  0.00     0.057 A 
ATOM     87  C   UNL A   1      39.697  22.949  26.018  1.00  0.00     0.049 C 
ATOM     88  N   UNL A   1      41.169  24.094  28.220  1.00  0.00    -0.376 N 
ATOM     89  C   UNL A   1      38.355  22.334  26.326  1.00  0.00    -0.023 C 
ATOM     90  C   UNL A   1      39.483  24.418  26.442  1.00  0.00     0.031 C 
ATOM     91  C   UNL A   1      39.840  24.598  27.943  1.00  0.00     0.114 C 
ATOM     92  H   UNL A   1      41.785  24.622  28.778  1.00  0.00     0.161 HD
ATOM     93  C   UNL A   1      37.402  23.273  26.363  1.00  0.00    -0.030 C 
ATOM     94  C   UNL A   1      37.989  24.625  26.106  1.00  0.00     0.034 C 
BRANCH  91  95
ATOM     95  C   UNL A   1      39.772  26.048  28.399  1.00  0.00    -0.025 A 
ATOM     96  C   UNL A   1      40.419  27.124  27.755  1.00  0.00     0.007 A 
ATOM     97  C   UNL A   1      39.016  26.324  29.531  1.00  0.00     0.007 A 
ATOM     98  C   UNL A   1      40.264  28.445  28.208  1.00  0.00     0.022 A 
ATOM     99  C   UNL A   1      38.840  27.629  29.948  1.00  0.00     0.022 A 
ATOM    100  C   UNL A   1      39.435  28.695  29.299  1.00  0.00     0.082 A 
BRANCH 100 101
ATOM    101  S   UNL A   1      39.099  30.360  29.831  1.00  0.00     0.243 S 
ATOM    102  O   UNL A   1      40.385  30.992  30.041  1.00  0.00    -0.207 OA
ATOM    103  O   UNL A   1      38.134  30.896  28.896  1.00  0.00    -0.207 OA
BRANCH 101 104
ATOM    104  N   UNL A   1      38.330  30.230  31.325  1.00  0.00    -0.193 NA
ATOM    105  C   UNL A   1      36.880  30.462  31.509  1.00  0.00     0.131 C 
ATOM    106  C   UNL A   1      39.088  30.133  32.586  1.00  0.00     0.131 C 
ATOM    107  C   UNL A   1      36.579  31.556  32.555  1.00  0.00     0.177 C 
ATOM    108  C   UNL A   1      38.791  31.336  33.480  1.00  0.00     0.177 C 
ATOM    109  O   UNL A   1      37.387  31.475  33.738  1.00  0.00    -0.379 OA
ENDBRANCH 101 104
ENDBRANCH 100 101
ENDBRANCH  91  95
ENDBRANCH  77  80
ENDBRANCH  75  76
ENDBRANCH  74  75
ENDBRANCH  73  74
ENDBRANCH   1  73
TORSDOF 19
ENDMDL
MODEL 3
REMARK VINA RESULT:      -9.4      6.505     10.425
REMARK SMILES O=C(NCCCCCCNC(=O)c1cc(Cl)c2c(c1)[C@H]1C=CC[C@H]1[C@H](c1ccc(S(=O)(=O)N3CCOCC3)cc1)N2)c1ccc(-c2c3nc(c(-c4cccc(S(=O)(=O)[O-])c4F)c4ccc([nH]4)c(-c4cccc(S(=O)(=O)[O-])c4F)c4nc(c(-c5cccc(S(=O)(=O)[O-])c5F)c5ccc2[nH]5)C=C4)C=C3)cc1
REMARK SMILES IDX 6 1 5 2 4 3 3 4 1 5 2 6 42 8 43 9 104 10 44 11 103 12 45 13
REMARK SMILES IDX 46 14 47 15 97 16 48 17 102 18 96 19 98 20 49 21 101 22
REMARK SMILES IDX 95 23 94 24 50 26 82 27 62 28 81 29 63 30 66 31 80 32 99 33
REMARK SMILES IDX 64 34 65 35 79 37 100 38 67 39 51 40 52 41 60 42 53 43 55 44
REMARK SMILES IDX 61 45 54 46 56 47 57 48 58 49 59 50 83 51 84 52 92 53 85 54
REMARK SMILES IDX 87 55 93 56 86 57 88 58 89 59 90 60 91 61 68 62 69 63 77 64
REMARK SMILES IDX 70 65 72 66 78 67 71 68 73 69 74 70 75 71 76 72 7 73 8 74
REMARK SMILES IDX 9 75 10 76 11 77 12 79 13 80 14 81 19 82 15 83 18 84 16 85
REMARK SMILES IDX 17 86 20 87 41 88 21 89 24 90 25 91 22 93 23 94 26 95 27 96
REMARK SMILES IDX 40 97 28 98 39 99 29 100 30 101 31 102 32 103 33 104 34 105
REMARK SMILES IDX 38 106 35 107 37 108 36 109
REMARK H PARENT 3 7 98 25 66 36 10 78 41 92
REMARK Flexibility Score: inf
ROOT
ATOM      1  C   UNL A   1      43.624  36.832  28.354  1.00  0.00     0.002 C 
ENDROOT
BRANCH   1   2
ATOM      2  C   UNL A   1      42.853  38.146  28.200  1.00  0.00     0.021 C 
BRANCH   2   3
ATOM      3  C   UNL A   1      43.151  39.177  29.284  1.00  0.00     0.116 C 
BRANCH   3   4
ATOM      4  N   UNL A   1      44.577  39.272  29.542  1.00  0.00    -0.352 N 
ATOM      5  O   UNL A   1      46.408  39.500  30.834  1.00  0.00    -0.269 OA
ATOM      6  C   UNL A   1      45.247  39.118  30.727  1.00  0.00     0.251 C 
ATOM      7  H   UNL A   1      45.140  39.476  28.759  1.00  0.00     0.163 HD
BRANCH   6   8
ATOM      8  C   UNL A   1      44.556  38.484  31.868  1.00  0.00     0.039 A 
ATOM      9  C   UNL A   1      44.719  37.117  32.112  1.00  0.00     0.014 A 
ATOM     10  C   UNL A   1      43.772  39.268  32.717  1.00  0.00     0.014 A 
ATOM     11  C   UNL A   1      44.027  36.517  33.156  1.00  0.00     0.010 A 
ATOM     12  C   UNL A   1      43.122  38.673  33.800  1.00  0.00     0.010 A 
ATOM     13  C   UNL A   1      43.233  37.290  34.017  1.00  0.00    -0.014 A 
BRANCH  13  14
ATOM     14  C   UNL A   1      42.608  36.640  35.192  1.00  0.00     0.031 A 
ATOM     15  C   UNL A   1      43.106  36.894  36.582  1.00  0.00     0.074 A 
ATOM     16  C   UNL A   1      41.558  35.823  34.987  1.00  0.00     0.049 A 
ATOM     17  N   UNL A   1      42.583  36.506  37.716  1.00  0.00    -0.248 NA
ATOM     18  C   UNL A   1      44.344  37.677  36.727  1.00  0.00     0.031 C 
ATOM     19  C   UNL A   1      41.024  35.461  33.672  1.00  0.00     0.029 A 
ATOM     20  N   UNL A   1      40.750  35.156  35.871  1.00  0.00    -0.354 N 
ATOM     21  C   UNL A   1      43.434  36.975  38.707  1.00  0.00     0.074 A 
ATOM     22  C   UNL A   1      44.515  37.670  38.043  1.00  0.00     0.031 C 
ATOM     23  C   UNL A   1      39.964  34.659  33.836  1.00  0.00     0.029 A 
ATOM     24  C   UNL A   1      39.756  34.429  35.264  1.00  0.00     0.049 A 
ATOM     25  H   UNL A   1      40.871  35.195  36.847  1.00  0.00     0.167 HD
ATOM     26  C   UNL A   1      43.311  36.848  40.048  1.00  0.00     0.034 A 
ATOM     27  C   UNL A   1      38.781  33.663  35.789  1.00  0.00     0.034 A 
ATOM     28  C   UNL A   1      42.224  36.171  40.700  1.00  0.00     0.049 A 
ATOM     29  C   UNL A   1      38.654  33.552  37.279  1.00  0.00     0.074 A 
ATOM     30  C   UNL A   1      41.971  36.070  42.057  1.00  0.00     0.029 A 
ATOM     31  N   UNL A   1      41.228  35.459  40.052  1.00  0.00    -0.354 N 
ATOM     32  N   UNL A   1      39.381  34.130  38.204  1.00  0.00    -0.248 NA
ATOM     33  C   UNL A   1      37.566  32.715  37.802  1.00  0.00     0.031 C 
ATOM     34  C   UNL A   1      40.842  35.268  42.230  1.00  0.00     0.029 A 
ATOM     35  C   UNL A   1      40.372  34.896  40.980  1.00  0.00     0.049 A 
ATOM     36  H   UNL A   1      41.143  35.368  39.075  1.00  0.00     0.167 HD
ATOM     37  C   UNL A   1      38.830  33.743  39.418  1.00  0.00     0.074 A 
ATOM     38  C   UNL A   1      37.703  32.884  39.113  1.00  0.00     0.031 C 
ATOM     39  C   UNL A   1      39.231  34.072  40.668  1.00  0.00     0.034 A 
BRANCH  26  40
ATOM     40  C   UNL A   1      44.356  37.485  40.920  1.00  0.00     0.023 A 
ATOM     41  C   UNL A   1      45.516  36.759  41.256  1.00  0.00     0.012 A 
ATOM     42  C   UNL A   1      44.241  38.833  41.313  1.00  0.00     0.148 A 
ATOM     43  C   UNL A   1      46.543  37.362  41.980  1.00  0.00     0.002 A 
ATOM     44  C   UNL A   1      45.281  39.436  42.010  1.00  0.00     0.091 A 
ATOM     45  F   UNL A   1      43.123  39.498  40.990  1.00  0.00    -0.205 F 
ATOM     46  C   UNL A   1      46.430  38.701  42.346  1.00  0.00     0.022 A 
BRANCH  44  47
ATOM     47  S   UNL A   1      45.258  41.168  42.483  1.00  0.00     0.127 S 
ATOM     48  O   UNL A   1      46.516  41.286  43.219  1.00  0.00    -0.237 OA
ATOM     49  O   UNL A   1      45.244  41.841  41.185  1.00  0.00    -0.237 OA
ATOM     50  O   UNL A   1      44.055  41.353  43.281  1.00  0.00    -0.744 OA
ENDBRANCH  44  47
ENDBRANCH  26  40
BRANCH  27  51
ATOM     51  C   UNL A   1      37.822  33.007  34.862  1.00  0.00     0.023 A 
ATOM     52  C   UNL A   1      36.747  33.752  34.341  1.00  0.00     0.012 A 
ATOM     53  C   UNL A   1      38.058  31.702  34.389  1.00  0.00     0.148 A 
ATOM     54  C   UNL A   1      35.926  33.208  33.354  1.00  0.00     0.002 A 
ATOM     55  C   UNL A   1      37.259  31.180  33.380  1.00  0.00     0.091 A 
ATOM     56  F   UNL A   1      39.096  31.025  34.898  1.00  0.00    -0.205 F 
ATOM     57  C   UNL A   1      36.188  31.929  32.865  1.00  0.00     0.022 A 
BRANCH  55  58
ATOM     58  S   UNL A   1      37.581  29.589  32.613  1.00  0.00     0.127 S 
ATOM     59  O   UNL A   1      37.264  28.665  33.700  1.00  0.00    -0.237 OA
ATOM     60  O   UNL A   1      36.620  29.594  31.509  1.00  0.00    -0.237 OA
ATOM     61  O   UNL A   1      38.979  29.616  32.208  1.00  0.00    -0.744 OA
ENDBRANCH  55  58
ENDBRANCH  27  51
BRANCH  39  62
ATOM     62  C   UNL A   1      38.461  33.529  41.840  1.00  0.00     0.023 A 
ATOM     63  C   UNL A   1      37.328  34.223  42.304  1.00  0.00     0.012 A 
ATOM     64  C   UNL A   1      38.748  32.244  42.341  1.00  0.00     0.148 A 
ATOM     65  C   UNL A   1      36.481  33.638  43.245  1.00  0.00     0.002 A 
ATOM     66  C   UNL A   1      37.881  31.654  43.252  1.00  0.00     0.091 A 
ATOM     67  F   UNL A   1      39.834  31.608  41.878  1.00  0.00    -0.205 F 
ATOM     68  C   UNL A   1      36.748  32.351  43.706  1.00  0.00     0.022 A 
BRANCH  66  69
ATOM     69  S   UNL A   1      38.094  29.971  43.844  1.00  0.00     0.127 S 
ATOM     70  O   UNL A   1      39.354  30.072  44.581  1.00  0.00    -0.237 OA
ATOM     71  O   UNL A   1      36.909  29.788  44.681  1.00  0.00    -0.237 OA
ATOM     72  O   UNL A   1      38.144  29.126  42.658  1.00  0.00    -0.744 OA
ENDBRANCH  66  69
ENDBRANCH  39  62
ENDBRANCH  13  14
ENDBRANCH   6   8
ENDBRANCH   3   4
ENDBRANCH   2   3
ENDBRANCH   1   2
BRANCH   1  73
ATOM     73  C   UNL A   1      42.757  35.616  28.696  1.00  0.00     0.002 C 
BRANCH  73  74
ATOM     74  C   UNL A   1      41.281  35.761  28.324  1.00  0.00     0.021 C 
BRANCH  74  75
ATOM     75  C   UNL A   1      40.343  34.890  29.152  1.00  0.00     0.116 C 
BRANCH  75  76
ATOM     76  N   UNL A   1      41.069  34.074  30.115  1.00  0.00    -0.352 N 
ATOM     77  C   UNL A   1      40.713  32.859  30.636  1.00  0.00     0.251 C 
ATOM     78  H   UNL A   1      41.926  34.444  30.430  1.00  0.00     0.163 HD
ATOM     79  O   UNL A   1      41.315  32.361  31.580  1.00  0.00    -0.269 OA
BRANCH  77  80
ATOM     80  C   UNL A   1      39.560  32.167  30.046  1.00  0.00     0.041 A 
ATOM     81  C   UNL A   1      39.726  30.916  29.454  1.00  0.00     0.036 A 
ATOM     82  C   UNL A   1      38.322  32.803  30.046  1.00  0.00     0.020 A 
ATOM     83  C   UNL A   1      38.664  30.355  28.762  1.00  0.00     0.065 A 
ATOM     84  C   UNL A   1      37.238  32.218  29.377  1.00  0.00    -0.015 A 
ATOM     85  Cl  UNL A   1      38.922  28.848  27.950  1.00  0.00    -0.082 Cl
ATOM     86  C   UNL A   1      37.420  31.011  28.681  1.00  0.00     0.057 A 
ATOM     87  C   UNL A   1      35.893  32.879  29.444  1.00  0.00     0.049 C 
ATOM     88  N   UNL A   1      36.367  30.430  27.994  1.00  0.00    -0.376 N 
ATOM     89  C   UNL A   1      35.757  34.147  28.639  1.00  0.00    -0.023 C 
ATOM     90  C   UNL A   1      34.720  32.030  28.908  1.00  0.00     0.031 C 
ATOM     91  C   UNL A   1      35.181  31.199  27.679  1.00  0.00     0.114 C 
ATOM     92  H   UNL A   1      36.426  29.487  27.716  1.00  0.00     0.161 HD
ATOM     93  C   UNL A   1      34.510  34.281  28.174  1.00  0.00    -0.030 C 
ATOM     94  C   UNL A   1      33.668  33.117  28.592  1.00  0.00     0.034 C 
BRANCH  91  95
ATOM     95  C   UNL A   1      34.110  30.244  27.175  1.00  0.00    -0.025 A 
ATOM     96  C   UNL A   1      32.907  30.641  26.553  1.00  0.00     0.007 A 
ATOM     97  C   UNL A   1      34.340  28.884  27.343  1.00  0.00     0.007 A 
ATOM     98  C   UNL A   1      31.991  29.692  26.066  1.00  0.00     0.022 A 
ATOM     99  C   UNL A   1      33.451  27.960  26.830  1.00  0.00     0.022 A 
ATOM    100  C   UNL A   1      32.290  28.337  26.181  1.00  0.00     0.082 A 
BRANCH 100 101
ATOM    101  S   UNL A   1      31.229  27.101  25.464  1.00  0.00     0.243 S 
ATOM    102  O   UNL A   1      30.510  26.491  26.562  1.00  0.00    -0.207 OA
ATOM    103  O   UNL A   1      30.538  27.747  24.369  1.00  0.00    -0.207 OA
BRANCH 101 104
ATOM    104  N   UNL A   1      32.249  25.937  24.796  1.00  0.00    -0.193 NA
ATOM    105  C   UNL A   1      32.398  25.737  23.336  1.00  0.00     0.131 C 
ATOM    106  C   UNL A   1      32.860  24.874  25.613  1.00  0.00     0.131 C 
ATOM    107  C   UNL A   1      32.081  24.292  22.898  1.00  0.00     0.177 C 
ATOM    108  C   UNL A   1      32.372  23.501  25.153  1.00  0.00     0.177 C 
ATOM    109  O   UNL A   1      32.629  23.284  23.758  1.00  0.00    -0.379 OA
ENDBRANCH 101 104
ENDBRANCH 100 101
ENDBRANCH  91  95
ENDBRANCH  77  80
ENDBRANCH  75  76
ENDBRANCH  74  75
ENDBRANCH  73  74
ENDBRANCH   1  73
TORSDOF 19
ENDMDL
