MODEL 1
REMARK VINA RESULT:     -12.4      0.000      0.000
REMARK SMILES Nc1nc(N2CCCCC2)nc2c1[C@H](C(=O)NCCCCCCNC(=O)c1ccc(-c3c4nc(c(-c5cccc(S(=O)(=O)[O-])c5F)c5ccc([nH]5)c(-c5cccc(S(=O)(=O)[O-])c5F)c5nc(c(-c6cccc(S(=O)(=O)[O-])c6F)c6ccc3[nH]6)C=C5)C=C4)cc1)CC(=O)N2
REMARK SMILES IDX 21 1 20 2 19 3 18 4 17 5 15 6 16 7 14 9 2 10 3 11 13 12 4 13
REMARK SMILES IDX 12 14 11 15 93 16 90 17 91 18 92 20 1 21 5 24 6 25 10 26
REMARK SMILES IDX 7 27 9 28 8 29 22 30 23 31 24 32 25 33 26 35 27 36 28 37
REMARK SMILES IDX 89 38 29 39 88 40 30 41 31 42 32 43 82 44 33 45 87 46 81 47
REMARK SMILES IDX 83 48 34 49 86 50 80 51 79 52 35 54 67 55 47 56 66 57 48 58
REMARK SMILES IDX 51 59 65 60 84 61 49 62 50 63 64 65 85 66 52 67 36 68 37 69
REMARK SMILES IDX 45 70 38 71 40 72 46 73 39 74 41 75 42 76 43 77 44 78 68 79
REMARK SMILES IDX 69 80 77 81 70 82 72 83 78 84 71 85 73 86 74 87 75 88 76 89
REMARK SMILES IDX 53 90 54 91 62 92 55 93 57 94 63 95 56 96 58 97 59 98 60 99
REMARK SMILES IDX 61 100
REMARK H PARENT 17 8 93 19 1 22 1 23 24 34 83 53 51 64
REMARK Flexibility Score: inf
ROOT
ATOM      1  C   UNL A   1      31.920  27.230  26.515  1.00  0.00     0.002 C 
ENDROOT
BRANCH   1   2
ATOM      2  C   UNL A   1      31.084  26.702  25.346  1.00  0.00     0.002 C 
BRANCH   2   3
ATOM      3  C   UNL A   1      31.805  26.638  23.993  1.00  0.00     0.021 C 
BRANCH   3   4
ATOM      4  C   UNL A   1      33.329  26.688  24.077  1.00  0.00     0.116 C 
BRANCH   4   5
ATOM      5  N   UNL A   1      33.942  25.693  23.214  1.00  0.00    -0.356 N 
ATOM      6  C   UNL A   1      34.372  24.430  23.494  1.00  0.00     0.228 C 
ATOM      7  O   UNL A   1      34.940  23.804  22.599  1.00  0.00    -0.274 OA
ATOM      8  H   UNL A   1      34.068  25.975  22.280  1.00  0.00     0.163 HD
BRANCH   6   9
ATOM      9  C   UNL A   1      34.121  23.835  24.876  1.00  0.00     0.125 C 
ATOM     10  C   UNL A   1      32.452  21.995  24.337  1.00  0.00     0.135 A 
ATOM     11  N   UNL A   1      32.116  20.705  24.218  1.00  0.00    -0.196 NA
ATOM     12  C   UNL A   1      33.689  22.400  24.787  1.00  0.00     0.050 A 
ATOM     13  C   UNL A   1      33.028  19.783  24.557  1.00  0.00     0.229 A 
ATOM     14  C   UNL A   1      34.562  21.381  25.073  1.00  0.00     0.144 A 
ATOM     15  N   UNL A   1      34.253  20.083  25.001  1.00  0.00    -0.195 NA
ATOM     16  N   UNL A   1      35.878  21.673  25.409  1.00  0.00    -0.310 N 
ATOM     17  C   UNL A   1      35.353  24.033  25.755  1.00  0.00     0.119 C 
ATOM     18  C   UNL A   1      36.368  22.925  25.615  1.00  0.00     0.226 C 
ATOM     19  H   UNL A   1      36.502  20.919  25.506  1.00  0.00     0.171 HD
ATOM     20  O   UNL A   1      37.567  23.118  25.800  1.00  0.00    -0.275 OA
BRANCH  10  21
ATOM     21  N   UNL A   1      31.456  22.901  24.013  1.00  0.00    -0.383 N 
ATOM     22  H   UNL A   1      31.516  23.833  24.326  1.00  0.00     0.158 HD
ATOM     23  H   UNL A   1      30.687  22.614  23.470  1.00  0.00     0.158 HD
ENDBRANCH  10  21
BRANCH  13  24
ATOM     24  N   UNL A   1      32.713  18.457  24.413  1.00  0.00    -0.341 N 
ATOM     25  C   UNL A   1      32.529  17.626  25.584  1.00  0.00     0.119 C 
ATOM     26  C   UNL A   1      32.900  17.838  23.116  1.00  0.00     0.119 C 
ATOM     27  C   UNL A   1      33.633  16.581  25.681  1.00  0.00     0.022 C 
ATOM     28  C   UNL A   1      34.027  16.802  23.205  1.00  0.00     0.022 C 
ATOM     29  C   UNL A   1      33.798  15.828  24.361  1.00  0.00     0.004 C 
ENDBRANCH  13  24
ENDBRANCH   6   9
ENDBRANCH   4   5
ENDBRANCH   3   4
ENDBRANCH   2   3
ENDBRANCH   1   2
BRANCH   1  30
ATOM     30  C   UNL A   1      31.743  28.717  26.826  1.00  0.00     0.021 C 
BRANCH  30  31
ATOM     31  C   UNL A   1      32.706  29.646  26.096  1.00  0.00     0.116 C 
BRANCH  31  32
ATOM     32  N   UNL A   1      32.457  31.047  26.396  1.00  0.00    -0.352 N 
ATOM     33  C   UNL A   1      33.135  31.887  27.245  1.00  0.00     0.251 C 
ATOM     34  H   UNL A   1      31.695  31.451  25.921  1.00  0.00     0.163 HD
ATOM     35  O   UNL A   1      32.678  32.996  27.506  1.00  0.00    -0.269 OA
BRANCH  33  36
ATOM     36  C   UNL A   1      34.405  31.444  27.860  1.00  0.00     0.039 A 
ATOM     37  C   UNL A   1      35.445  32.365  28.001  1.00  0.00     0.014 A 
ATOM     38  C   UNL A   1      34.569  30.125  28.295  1.00  0.00     0.014 A 
ATOM     39  C   UNL A   1      36.633  31.975  28.622  1.00  0.00     0.010 A 
ATOM     40  C   UNL A   1      35.724  29.759  28.980  1.00  0.00     0.010 A 
ATOM     41  C   UNL A   1      36.775  30.675  29.135  1.00  0.00    -0.014 A 
BRANCH  41  42
ATOM     42  C   UNL A   1      38.029  30.257  29.810  1.00  0.00     0.031 A 
ATOM     43  C   UNL A   1      38.338  30.745  31.198  1.00  0.00     0.074 A 
ATOM     44  C   UNL A   1      38.908  29.468  29.161  1.00  0.00     0.049 A 
ATOM     45  N   UNL A   1      39.358  30.453  31.963  1.00  0.00    -0.248 NA
ATOM     46  C   UNL A   1      37.394  31.701  31.799  1.00  0.00     0.031 C 
ATOM     47  C   UNL A   1      38.755  28.990  27.786  1.00  0.00     0.029 A 
ATOM     48  N   UNL A   1      40.103  28.931  29.570  1.00  0.00    -0.354 N 
ATOM     49  C   UNL A   1      39.184  31.194  33.125  1.00  0.00     0.074 A 
ATOM     50  C   UNL A   1      37.995  31.996  32.942  1.00  0.00     0.031 C 
ATOM     51  C   UNL A   1      39.802  28.208  27.475  1.00  0.00     0.029 A 
ATOM     52  C   UNL A   1      40.707  28.140  28.620  1.00  0.00     0.049 A 
ATOM     53  H   UNL A   1      40.491  29.096  30.460  1.00  0.00     0.167 HD
ATOM     54  C   UNL A   1      39.915  31.172  34.264  1.00  0.00     0.034 A 
ATOM     55  C   UNL A   1      41.849  27.427  28.673  1.00  0.00     0.034 A 
ATOM     56  C   UNL A   1      41.068  30.339  34.460  1.00  0.00     0.049 A 
ATOM     57  C   UNL A   1      42.646  27.413  29.950  1.00  0.00     0.074 A 
ATOM     58  C   UNL A   1      41.826  30.178  35.605  1.00  0.00     0.029 A 
ATOM     59  N   UNL A   1      41.634  29.531  33.486  1.00  0.00    -0.354 N 
ATOM     60  N   UNL A   1      42.374  27.987  31.097  1.00  0.00    -0.248 NA
ATOM     61  C   UNL A   1      43.892  26.632  29.952  1.00  0.00     0.031 C 
ATOM     62  C   UNL A   1      42.863  29.285  35.318  1.00  0.00     0.029 A 
ATOM     63  C   UNL A   1      42.744  28.881  33.997  1.00  0.00     0.049 A 
ATOM     64  H   UNL A   1      41.296  29.434  32.566  1.00  0.00     0.167 HD
ATOM     65  C   UNL A   1      43.401  27.624  31.962  1.00  0.00     0.074 A 
ATOM     66  C   UNL A   1      44.289  26.759  31.212  1.00  0.00     0.031 C 
ATOM     67  C   UNL A   1      43.599  27.992  33.252  1.00  0.00     0.034 A 
BRANCH  54  68
ATOM     68  C   UNL A   1      39.433  32.014  35.416  1.00  0.00     0.023 A 
ATOM     69  C   UNL A   1      38.546  31.445  36.354  1.00  0.00     0.012 A 
ATOM     70  C   UNL A   1      39.881  33.334  35.603  1.00  0.00     0.148 A 
ATOM     71  C   UNL A   1      38.085  32.187  37.439  1.00  0.00     0.002 A 
ATOM     72  C   UNL A   1      39.450  34.055  36.711  1.00  0.00     0.091 A 
ATOM     73  F   UNL A   1      40.706  33.866  34.689  1.00  0.00    -0.205 F 
ATOM     74  C   UNL A   1      38.545  33.487  37.623  1.00  0.00     0.022 A 
BRANCH  72  75
ATOM     75  S   UNL A   1      40.041  35.712  37.077  1.00  0.00     0.127 S 
ATOM     76  O   UNL A   1      41.479  35.488  37.215  1.00  0.00    -0.237 OA
ATOM     77  O   UNL A   1      39.653  36.452  35.876  1.00  0.00    -0.237 OA
ATOM     78  O   UNL A   1      39.351  36.123  38.291  1.00  0.00    -0.744 OA
ENDBRANCH  72  75
ENDBRANCH  54  68
BRANCH  55  79
ATOM     79  C   UNL A   1      42.241  26.583  27.507  1.00  0.00     0.023 A 
ATOM     80  C   UNL A   1      43.036  27.150  26.492  1.00  0.00     0.012 A 
ATOM     81  C   UNL A   1      41.904  25.217  27.435  1.00  0.00     0.148 A 
ATOM     82  C   UNL A   1      43.480  26.376  25.420  1.00  0.00     0.002 A 
ATOM     83  C   UNL A   1      42.392  24.439  26.390  1.00  0.00     0.091 A 
ATOM     84  F   UNL A   1      41.140  24.701  28.406  1.00  0.00    -0.205 F 
ATOM     85  C   UNL A   1      43.170  25.019  25.375  1.00  0.00     0.022 A 
BRANCH  83  86
ATOM     86  S   UNL A   1      42.162  22.658  26.316  1.00  0.00     0.127 S 
ATOM     87  O   UNL A   1      42.780  22.329  25.035  1.00  0.00    -0.237 OA
ATOM     88  O   UNL A   1      42.906  22.211  27.494  1.00  0.00    -0.237 OA
ATOM     89  O   UNL A   1      40.723  22.442  26.393  1.00  0.00    -0.744 OA
ENDBRANCH  83  86
ENDBRANCH  55  79
BRANCH  67  90
ATOM     90  C   UNL A   1      44.833  27.487  33.953  1.00  0.00     0.023 A 
ATOM     91  C   UNL A   1      45.995  28.282  33.950  1.00  0.00     0.012 A 
ATOM     92  C   UNL A   1      44.799  26.310  34.727  1.00  0.00     0.148 A 
ATOM     93  C   UNL A   1      47.109  27.912  34.701  1.00  0.00     0.002 A 
ATOM     94  C   UNL A   1      45.898  25.970  35.509  1.00  0.00     0.091 A 
ATOM     95  F   UNL A   1      43.687  25.562  34.705  1.00  0.00    -0.205 F 
ATOM     96  C   UNL A   1      47.055  26.765  35.491  1.00  0.00     0.022 A 
BRANCH  94  97
ATOM     97  S   UNL A   1      45.891  24.572  36.638  1.00  0.00     0.127 S 
ATOM     98  O   UNL A   1      44.690  24.836  37.430  1.00  0.00    -0.237 OA
ATOM     99  O   UNL A   1      45.781  23.436  35.722  1.00  0.00    -0.237 OA
ATOM    100  O   UNL A   1      47.145  24.640  37.374  1.00  0.00    -0.744 OA
ENDBRANCH  94  97
ENDBRANCH  67  90
ENDBRANCH  41  42
ENDBRANCH  33  36
ENDBRANCH  31  32
ENDBRANCH  30  31
ENDBRANCH   1  30
TORSDOF 18
ENDMDL
MODEL 2
REMARK VINA RESULT:     -12.3      5.170     10.537
REMARK SMILES Nc1nc(N2CCCCC2)nc2c1[C@H](C(=O)NCCCCCCNC(=O)c1ccc(-c3c4nc(c(-c5cccc(S(=O)(=O)[O-])c5F)c5ccc([nH]5)c(-c5cccc(S(=O)(=O)[O-])c5F)c5nc(c(-c6cccc(S(=O)(=O)[O-])c6F)c6ccc3[nH]6)C=C5)C=C4)cc1)CC(=O)N2
REMARK SMILES IDX 21 1 20 2 19 3 18 4 17 5 15 6 16 7 14 9 2 10 3 11 13 12 4 13
REMARK SMILES IDX 12 14 11 15 93 16 90 17 91 18 92 20 1 21 5 24 6 25 10 26
REMARK SMILES IDX 7 27 9 28 8 29 22 30 23 31 24 32 25 33 26 35 27 36 28 37
REMARK SMILES IDX 89 38 29 39 88 40 30 41 31 42 32 43 82 44 33 45 87 46 81 47
REMARK SMILES IDX 83 48 34 49 86 50 80 51 79 52 35 54 67 55 47 56 66 57 48 58
REMARK SMILES IDX 51 59 65 60 84 61 49 62 50 63 64 65 85 66 52 67 36 68 37 69
REMARK SMILES IDX 45 70 38 71 40 72 46 73 39 74 41 75 42 76 43 77 44 78 68 79
REMARK SMILES IDX 69 80 77 81 70 82 72 83 78 84 71 85 73 86 74 87 75 88 76 89
REMARK SMILES IDX 53 90 54 91 62 92 55 93 57 94 63 95 56 96 58 97 59 98 60 99
REMARK SMILES IDX 61 100
REMARK H PARENT 17 8 93 19 1 22 1 23 24 34 83 53 51 64
REMARK Flexibility Score: inf
ROOT
ATOM      1  C   UNL A   1      34.224  22.797  24.739  1.00  0.00     0.002 C 
ENDROOT
BRANCH   1   2
ATOM      2  C   UNL A   1      33.384  21.937  25.689  1.00  0.00     0.002 C 
BRANCH   2   3
ATOM      3  C   UNL A   1      32.377  22.702  26.557  1.00  0.00     0.021 C 
BRANCH   3   4
ATOM      4  C   UNL A   1      31.500  23.695  25.797  1.00  0.00     0.116 C 
BRANCH   4   5
ATOM      5  N   UNL A   1      31.184  24.856  26.611  1.00  0.00    -0.356 N 
ATOM      6  C   UNL A   1      31.353  26.184  26.354  1.00  0.00     0.228 C 
ATOM      7  O   UNL A   1      31.079  26.983  27.250  1.00  0.00    -0.274 OA
ATOM      8  H   UNL A   1      30.785  24.652  27.487  1.00  0.00     0.163 HD
BRANCH   6   9
ATOM      9  C   UNL A   1      31.849  26.631  24.983  1.00  0.00     0.125 C 
ATOM     10  C   UNL A   1      29.660  27.178  23.810  1.00  0.00     0.135 A 
ATOM     11  N   UNL A   1      28.792  28.047  23.279  1.00  0.00    -0.196 NA
ATOM     12  C   UNL A   1      30.877  27.568  24.325  1.00  0.00     0.050 A 
ATOM     13  C   UNL A   1      29.134  29.342  23.250  1.00  0.00     0.229 A 
ATOM     14  C   UNL A   1      31.117  28.918  24.281  1.00  0.00     0.144 A 
ATOM     15  N   UNL A   1      30.291  29.811  23.728  1.00  0.00    -0.195 NA
ATOM     16  N   UNL A   1      32.253  29.437  24.890  1.00  0.00    -0.310 N 
ATOM     17  C   UNL A   1      33.251  27.219  25.106  1.00  0.00     0.119 C 
ATOM     18  C   UNL A   1      33.252  28.692  25.433  1.00  0.00     0.226 C 
ATOM     19  H   UNL A   1      32.342  30.416  24.930  1.00  0.00     0.171 HD
ATOM     20  O   UNL A   1      34.174  29.218  26.053  1.00  0.00    -0.275 OA
BRANCH  10  21
ATOM     21  N   UNL A   1      29.270  25.849  23.774  1.00  0.00    -0.383 N 
ATOM     22  H   UNL A   1      29.702  25.192  24.367  1.00  0.00     0.158 HD
ATOM     23  H   UNL A   1      28.561  25.561  23.154  1.00  0.00     0.158 HD
ENDBRANCH  10  21
BRANCH  13  24
ATOM     24  N   UNL A   1      28.245  30.251  22.738  1.00  0.00    -0.341 N 
ATOM     25  C   UNL A   1      27.866  30.183  21.342  1.00  0.00     0.119 C 
ATOM     26  C   UNL A   1      27.963  31.450  23.501  1.00  0.00     0.119 C 
ATOM     27  C   UNL A   1      28.390  31.397  20.583  1.00  0.00     0.022 C 
ATOM     28  C   UNL A   1      28.511  32.670  22.751  1.00  0.00     0.022 C 
ATOM     29  C   UNL A   1      28.025  32.696  21.301  1.00  0.00     0.004 C 
ENDBRANCH  13  24
ENDBRANCH   6   9
ENDBRANCH   4   5
ENDBRANCH   3   4
ENDBRANCH   2   3
ENDBRANCH   1   2
BRANCH   1  30
ATOM     30  C   UNL A   1      35.677  22.355  24.568  1.00  0.00     0.021 C 
BRANCH  30  31
ATOM     31  C   UNL A   1      36.519  22.408  25.839  1.00  0.00     0.116 C 
BRANCH  31  32
ATOM     32  N   UNL A   1      37.555  21.388  25.859  1.00  0.00    -0.352 N 
ATOM     33  C   UNL A   1      38.899  21.521  26.106  1.00  0.00     0.251 C 
ATOM     34  H   UNL A   1      37.249  20.472  25.669  1.00  0.00     0.163 HD
ATOM     35  O   UNL A   1      39.657  20.574  25.910  1.00  0.00    -0.269 OA
BRANCH  33  36
ATOM     36  C   UNL A   1      39.435  22.812  26.588  1.00  0.00     0.039 A 
ATOM     37  C   UNL A   1      40.351  22.813  27.643  1.00  0.00     0.014 A 
ATOM     38  C   UNL A   1      39.034  24.018  26.004  1.00  0.00     0.014 A 
ATOM     39  C   UNL A   1      40.901  24.019  28.079  1.00  0.00     0.010 A 
ATOM     40  C   UNL A   1      39.640  25.211  26.390  1.00  0.00     0.010 A 
ATOM     41  C   UNL A   1      40.566  25.226  27.443  1.00  0.00    -0.014 A 
BRANCH  41  42
ATOM     42  C   UNL A   1      41.158  26.511  27.890  1.00  0.00     0.031 A 
ATOM     43  C   UNL A   1      42.598  26.824  27.590  1.00  0.00     0.074 A 
ATOM     44  C   UNL A   1      40.412  27.381  28.599  1.00  0.00     0.049 A 
ATOM     45  N   UNL A   1      43.276  27.910  27.859  1.00  0.00    -0.248 NA
ATOM     46  C   UNL A   1      43.387  25.778  26.920  1.00  0.00     0.031 C 
ATOM     47  C   UNL A   1      39.027  27.159  29.016  1.00  0.00     0.029 A 
ATOM     48  N   UNL A   1      40.714  28.626  29.095  1.00  0.00    -0.354 N 
ATOM     49  C   UNL A   1      44.566  27.673  27.404  1.00  0.00     0.074 A 
ATOM     50  C   UNL A   1      44.595  26.319  26.896  1.00  0.00     0.031 C 
ATOM     51  C   UNL A   1      38.590  28.241  29.680  1.00  0.00     0.029 A 
ATOM     52  C   UNL A   1      39.665  29.228  29.749  1.00  0.00     0.049 A 
ATOM     53  H   UNL A   1      41.598  29.046  28.991  1.00  0.00     0.167 HD
ATOM     54  C   UNL A   1      45.621  28.521  27.361  1.00  0.00     0.034 A 
ATOM     55  C   UNL A   1      39.575  30.444  30.323  1.00  0.00     0.034 A 
ATOM     56  C   UNL A   1      45.576  29.880  27.823  1.00  0.00     0.049 A 
ATOM     57  C   UNL A   1      40.758  31.373  30.262  1.00  0.00     0.074 A 
ATOM     58  C   UNL A   1      46.562  30.846  27.745  1.00  0.00     0.029 A 
ATOM     59  N   UNL A   1      44.489  30.464  28.455  1.00  0.00    -0.354 N 
ATOM     60  N   UNL A   1      41.917  31.193  29.676  1.00  0.00    -0.248 NA
ATOM     61  C   UNL A   1      40.614  32.683  30.916  1.00  0.00     0.031 C 
ATOM     62  C   UNL A   1      46.077  32.011  28.346  1.00  0.00     0.029 A 
ATOM     63  C   UNL A   1      44.784  31.774  28.789  1.00  0.00     0.049 A 
ATOM     64  H   UNL A   1      43.633  30.013  28.639  1.00  0.00     0.167 HD
ATOM     65  C   UNL A   1      42.633  32.369  29.871  1.00  0.00     0.074 A 
ATOM     66  C   UNL A   1      41.767  33.265  30.611  1.00  0.00     0.031 C 
ATOM     67  C   UNL A   1      43.900  32.669  29.491  1.00  0.00     0.034 A 
BRANCH  54  68
ATOM     68  C   UNL A   1      46.886  28.024  26.714  1.00  0.00     0.023 A 
ATOM     69  C   UNL A   1      47.911  27.501  27.530  1.00  0.00     0.012 A 
ATOM     70  C   UNL A   1      47.050  28.025  25.317  1.00  0.00     0.148 A 
ATOM     71  C   UNL A   1      49.093  27.021  26.969  1.00  0.00     0.002 A 
ATOM     72  C   UNL A   1      48.214  27.506  24.761  1.00  0.00     0.091 A 
ATOM     73  F   UNL A   1      46.074  28.546  24.558  1.00  0.00    -0.205 F 
ATOM     74  C   UNL A   1      49.240  27.014  25.586  1.00  0.00     0.022 A 
BRANCH  72  75
ATOM     75  S   UNL A   1      48.469  27.385  22.987  1.00  0.00     0.127 S 
ATOM     76  O   UNL A   1      48.311  25.949  22.764  1.00  0.00    -0.237 OA
ATOM     77  O   UNL A   1      47.378  28.206  22.461  1.00  0.00    -0.237 OA
ATOM     78  O   UNL A   1      49.801  27.917  22.738  1.00  0.00    -0.744 OA
ENDBRANCH  72  75
ENDBRANCH  54  68
BRANCH  55  79
ATOM     79  C   UNL A   1      38.275  30.884  30.908  1.00  0.00     0.023 A 
ATOM     80  C   UNL A   1      38.054  30.708  32.288  1.00  0.00     0.012 A 
ATOM     81  C   UNL A   1      37.298  31.540  30.133  1.00  0.00     0.148 A 
ATOM     82  C   UNL A   1      36.880  31.168  32.885  1.00  0.00     0.002 A 
ATOM     83  C   UNL A   1      36.153  32.041  30.744  1.00  0.00     0.091 A 
ATOM     84  F   UNL A   1      37.525  31.689  28.821  1.00  0.00    -0.205 F 
ATOM     85  C   UNL A   1      35.936  31.845  32.117  1.00  0.00     0.022 A 
BRANCH  83  86
ATOM     86  S   UNL A   1      34.945  33.043  29.868  1.00  0.00     0.127 S 
ATOM     87  O   UNL A   1      34.407  32.088  28.903  1.00  0.00    -0.237 OA
ATOM     88  O   UNL A   1      34.028  33.416  30.945  1.00  0.00    -0.237 OA
ATOM     89  O   UNL A   1      35.693  34.157  29.299  1.00  0.00    -0.744 OA
ENDBRANCH  83  86
ENDBRANCH  55  79
BRANCH  67  90
ATOM     90  C   UNL A   1      44.457  34.014  29.877  1.00  0.00     0.023 A 
ATOM     91  C   UNL A   1      45.262  34.117  31.029  1.00  0.00     0.012 A 
ATOM     92  C   UNL A   1      44.308  35.132  29.033  1.00  0.00     0.148 A 
ATOM     93  C   UNL A   1      45.904  35.314  31.340  1.00  0.00     0.002 A 
ATOM     94  C   UNL A   1      44.989  36.310  29.325  1.00  0.00     0.091 A 
ATOM     95  F   UNL A   1      43.528  35.015  27.949  1.00  0.00    -0.205 F 
ATOM     96  C   UNL A   1      45.780  36.404  30.481  1.00  0.00     0.022 A 
BRANCH  94  97
ATOM     97  S   UNL A   1      44.977  37.735  28.230  1.00  0.00     0.127 S 
ATOM     98  O   UNL A   1      45.645  37.203  27.043  1.00  0.00    -0.237 OA
ATOM     99  O   UNL A   1      43.545  37.985  28.065  1.00  0.00    -0.237 OA
ATOM    100  O   UNL A   1      45.701  38.787  28.929  1.00  0.00    -0.744 OA
ENDBRANCH  94  97
ENDBRANCH  67  90
ENDBRANCH  41  42
ENDBRANCH  33  36
ENDBRANCH  31  32
ENDBRANCH  30  31
ENDBRANCH   1  30
TORSDOF 18
ENDMDL
MODEL 3
REMARK VINA RESULT:     -12.2      4.847     10.215
REMARK SMILES Nc1nc(N2CCCCC2)nc2c1[C@H](C(=O)NCCCCCCNC(=O)c1ccc(-c3c4nc(c(-c5cccc(S(=O)(=O)[O-])c5F)c5ccc([nH]5)c(-c5cccc(S(=O)(=O)[O-])c5F)c5nc(c(-c6cccc(S(=O)(=O)[O-])c6F)c6ccc3[nH]6)C=C5)C=C4)cc1)CC(=O)N2
REMARK SMILES IDX 21 1 20 2 19 3 18 4 17 5 15 6 16 7 14 9 2 10 3 11 13 12 4 13
REMARK SMILES IDX 12 14 11 15 93 16 90 17 91 18 92 20 1 21 5 24 6 25 10 26
REMARK SMILES IDX 7 27 9 28 8 29 22 30 23 31 24 32 25 33 26 35 27 36 28 37
REMARK SMILES IDX 89 38 29 39 88 40 30 41 31 42 32 43 82 44 33 45 87 46 81 47
REMARK SMILES IDX 83 48 34 49 86 50 80 51 79 52 35 54 67 55 47 56 66 57 48 58
REMARK SMILES IDX 51 59 65 60 84 61 49 62 50 63 64 65 85 66 52 67 36 68 37 69
REMARK SMILES IDX 45 70 38 71 40 72 46 73 39 74 41 75 42 76 43 77 44 78 68 79
REMARK SMILES IDX 69 80 77 81 70 82 72 83 78 84 71 85 73 86 74 87 75 88 76 89
REMARK SMILES IDX 53 90 54 91 62 92 55 93 57 94 63 95 56 96 58 97 59 98 60 99
REMARK SMILES IDX 61 100
REMARK H PARENT 17 8 93 19 1 22 1 23 24 34 83 53 51 64
REMARK Flexibility Score: inf
ROOT
ATOM      1  C   UNL A   1      34.637  22.388  25.369  1.00  0.00     0.002 C 
ENDROOT
BRANCH   1   2
ATOM      2  C   UNL A   1      33.273  23.006  25.046  1.00  0.00     0.002 C 
BRANCH   2   3
ATOM      3  C   UNL A   1      32.177  22.771  26.092  1.00  0.00     0.021 C 
BRANCH   3   4
ATOM      4  C   UNL A   1      30.885  23.550  25.853  1.00  0.00     0.116 C 
BRANCH   4   5
ATOM      5  N   UNL A   1      30.835  24.757  26.661  1.00  0.00    -0.356 N 
ATOM      6  C   UNL A   1      31.193  26.036  26.355  1.00  0.00     0.228 C 
ATOM      7  O   UNL A   1      31.132  26.879  27.250  1.00  0.00    -0.274 OA
ATOM      8  H   UNL A   1      30.488  24.631  27.573  1.00  0.00     0.163 HD
BRANCH   6   9
ATOM      9  C   UNL A   1      31.630  26.381  24.935  1.00  0.00     0.125 C 
ATOM     10  C   UNL A   1      29.416  27.034  23.871  1.00  0.00     0.135 A 
ATOM     11  N   UNL A   1      28.580  27.940  23.349  1.00  0.00    -0.196 NA
ATOM     12  C   UNL A   1      30.688  27.355  24.290  1.00  0.00     0.050 A 
ATOM     13  C   UNL A   1      29.011  29.203  23.233  1.00  0.00     0.229 A 
ATOM     14  C   UNL A   1      31.021  28.681  24.163  1.00  0.00     0.144 A 
ATOM     15  N   UNL A   1      30.227  29.606  23.615  1.00  0.00    -0.195 NA
ATOM     16  N   UNL A   1      32.227  29.141  24.674  1.00  0.00    -0.310 N 
ATOM     17  C   UNL A   1      33.076  26.867  24.943  1.00  0.00     0.119 C 
ATOM     18  C   UNL A   1      33.204  28.350  25.193  1.00  0.00     0.226 C 
ATOM     19  H   UNL A   1      32.388  30.112  24.658  1.00  0.00     0.171 HD
ATOM     20  O   UNL A   1      34.199  28.833  25.729  1.00  0.00    -0.275 OA
BRANCH  10  21
ATOM     21  N   UNL A   1      28.930  25.738  23.926  1.00  0.00    -0.383 N 
ATOM     22  H   UNL A   1      29.475  25.024  24.331  1.00  0.00     0.158 HD
ATOM     23  H   UNL A   1      28.040  25.529  23.561  1.00  0.00     0.158 HD
ENDBRANCH  10  21
BRANCH  13  24
ATOM     24  N   UNL A   1      28.158  30.150  22.730  1.00  0.00    -0.341 N 
ATOM     25  C   UNL A   1      27.940  30.241  21.302  1.00  0.00     0.119 C 
ATOM     26  C   UNL A   1      27.757  31.246  23.588  1.00  0.00     0.119 C 
ATOM     27  C   UNL A   1      28.510  31.543  20.752  1.00  0.00     0.022 C 
ATOM     28  C   UNL A   1      28.349  32.555  23.051  1.00  0.00     0.022 C 
ATOM     29  C   UNL A   1      28.028  32.743  21.568  1.00  0.00     0.004 C 
ENDBRANCH  13  24
ENDBRANCH   6   9
ENDBRANCH   4   5
ENDBRANCH   3   4
ENDBRANCH   2   3
ENDBRANCH   1   2
BRANCH   1  30
ATOM     30  C   UNL A   1      35.620  23.312  26.088  1.00  0.00     0.021 C 
BRANCH  30  31
ATOM     31  C   UNL A   1      36.969  23.479  25.396  1.00  0.00     0.116 C 
BRANCH  31  32
ATOM     32  N   UNL A   1      37.951  22.509  25.855  1.00  0.00    -0.352 N 
ATOM     33  C   UNL A   1      39.153  22.722  26.484  1.00  0.00     0.251 C 
ATOM     34  H   UNL A   1      37.720  21.566  25.694  1.00  0.00     0.163 HD
ATOM     35  O   UNL A   1      39.935  21.790  26.645  1.00  0.00    -0.269 OA
BRANCH  33  36
ATOM     36  C   UNL A   1      39.512  24.080  26.947  1.00  0.00     0.039 A 
ATOM     37  C   UNL A   1      39.308  24.413  28.288  1.00  0.00     0.014 A 
ATOM     38  C   UNL A   1      40.045  25.022  26.061  1.00  0.00     0.014 A 
ATOM     39  C   UNL A   1      39.684  25.675  28.750  1.00  0.00     0.010 A 
ATOM     40  C   UNL A   1      40.489  26.251  26.540  1.00  0.00     0.010 A 
ATOM     41  C   UNL A   1      40.297  26.598  27.885  1.00  0.00    -0.014 A 
BRANCH  41  42
ATOM     42  C   UNL A   1      40.714  27.936  28.373  1.00  0.00     0.031 A 
ATOM     43  C   UNL A   1      42.166  28.324  28.364  1.00  0.00     0.074 A 
ATOM     44  C   UNL A   1      39.791  28.789  28.859  1.00  0.00     0.049 A 
ATOM     45  N   UNL A   1      42.715  29.460  28.707  1.00  0.00    -0.248 NA
ATOM     46  C   UNL A   1      43.132  27.299  27.935  1.00  0.00     0.031 C 
ATOM     47  C   UNL A   1      38.362  28.499  28.990  1.00  0.00     0.029 A 
ATOM     48  N   UNL A   1      39.917  30.070  29.336  1.00  0.00    -0.354 N 
ATOM     49  C   UNL A   1      44.084  29.283  28.547  1.00  0.00     0.074 A 
ATOM     50  C   UNL A   1      44.289  27.913  28.134  1.00  0.00     0.031 C 
ATOM     51  C   UNL A   1      37.739  29.581  29.484  1.00  0.00     0.029 A 
ATOM     52  C   UNL A   1      38.723  30.635  29.721  1.00  0.00     0.049 A 
ATOM     53  H   UNL A   1      40.780  30.540  29.396  1.00  0.00     0.167 HD
ATOM     54  C   UNL A   1      45.079  30.192  28.678  1.00  0.00     0.034 A 
ATOM     55  C   UNL A   1      38.451  31.867  30.194  1.00  0.00     0.034 A 
ATOM     56  C   UNL A   1      44.867  31.565  29.042  1.00  0.00     0.049 A 
ATOM     57  C   UNL A   1      39.571  32.864  30.329  1.00  0.00     0.074 A 
ATOM     58  C   UNL A   1      45.796  32.586  29.117  1.00  0.00     0.029 A 
ATOM     59  N   UNL A   1      43.642  32.108  29.398  1.00  0.00    -0.354 N 
ATOM     60  N   UNL A   1      40.836  32.731  30.010  1.00  0.00    -0.248 NA
ATOM     61  C   UNL A   1      39.225  34.190  30.863  1.00  0.00     0.031 C 
ATOM     62  C   UNL A   1      45.136  33.745  29.536  1.00  0.00     0.029 A 
ATOM     63  C   UNL A   1      43.792  33.448  29.712  1.00  0.00     0.049 A 
ATOM     64  H   UNL A   1      42.791  31.614  29.424  1.00  0.00     0.167 HD
ATOM     65  C   UNL A   1      41.433  33.956  30.284  1.00  0.00     0.074 A 
ATOM     66  C   UNL A   1      40.385  34.829  30.774  1.00  0.00     0.031 C 
ATOM     67  C   UNL A   1      42.735  34.317  30.161  1.00  0.00     0.034 A 
BRANCH  54  68
ATOM     68  C   UNL A   1      46.476  29.746  28.339  1.00  0.00     0.023 A 
ATOM     69  C   UNL A   1      46.921  29.845  27.004  1.00  0.00     0.012 A 
ATOM     70  C   UNL A   1      47.361  29.278  29.328  1.00  0.00     0.148 A 
ATOM     71  C   UNL A   1      48.210  29.452  26.652  1.00  0.00     0.002 A 
ATOM     72  C   UNL A   1      48.660  28.928  28.977  1.00  0.00     0.091 A 
ATOM     73  F   UNL A   1      46.915  29.169  30.588  1.00  0.00    -0.205 F 
ATOM     74  C   UNL A   1      49.082  29.005  27.639  1.00  0.00     0.022 A 
BRANCH  72  75
ATOM     75  S   UNL A   1      49.882  28.408  30.186  1.00  0.00     0.127 S 
ATOM     76  O   UNL A   1      51.047  28.156  29.339  1.00  0.00    -0.237 OA
ATOM     77  O   UNL A   1      49.996  29.591  31.040  1.00  0.00    -0.237 OA
ATOM     78  O   UNL A   1      49.320  27.238  30.845  1.00  0.00    -0.744 OA
ENDBRANCH  72  75
ENDBRANCH  54  68
BRANCH  55  79
ATOM     79  C   UNL A   1      37.036  32.251  30.467  1.00  0.00     0.023 A 
ATOM     80  C   UNL A   1      36.534  32.116  31.776  1.00  0.00     0.012 A 
ATOM     81  C   UNL A   1      36.217  32.819  29.472  1.00  0.00     0.148 A 
ATOM     82  C   UNL A   1      35.238  32.527  32.088  1.00  0.00     0.002 A 
ATOM     83  C   UNL A   1      34.944  33.274  29.800  1.00  0.00     0.091 A 
ATOM     84  F   UNL A   1      36.711  32.931  28.232  1.00  0.00    -0.205 F 
ATOM     85  C   UNL A   1      34.448  33.118  31.105  1.00  0.00     0.022 A 
BRANCH  83  86
ATOM     86  S   UNL A   1      33.904  34.170  28.640  1.00  0.00     0.127 S 
ATOM     87  O   UNL A   1      33.534  33.118  27.696  1.00  0.00    -0.237 OA
ATOM     88  O   UNL A   1      32.818  34.632  29.506  1.00  0.00    -0.237 OA
ATOM     89  O   UNL A   1      34.739  35.234  28.099  1.00  0.00    -0.744 OA
ENDBRANCH  83  86
ENDBRANCH  55  79
BRANCH  67  90
ATOM     90  C   UNL A   1      43.128  35.709  30.579  1.00  0.00     0.023 A 
ATOM     91  C   UNL A   1      43.587  35.927  31.892  1.00  0.00     0.012 A 
ATOM     92  C   UNL A   1      43.181  36.761  29.642  1.00  0.00     0.148 A 
ATOM     93  C   UNL A   1      44.087  37.171  32.272  1.00  0.00     0.002 A 
ATOM     94  C   UNL A   1      43.723  37.987  30.015  1.00  0.00     0.091 A 
ATOM     95  F   UNL A   1      42.728  36.535  28.401  1.00  0.00    -0.205 F 
ATOM     96  C   UNL A   1      44.169  38.195  31.330  1.00  0.00     0.022 A 
BRANCH  94  97
ATOM     97  S   UNL A   1      43.968  39.334  28.852  1.00  0.00     0.127 S 
ATOM     98  O   UNL A   1      42.591  39.672  28.494  1.00  0.00    -0.237 OA
ATOM     99  O   UNL A   1      44.647  40.334  29.676  1.00  0.00    -0.237 OA
ATOM    100  O   UNL A   1      44.774  38.791  27.767  1.00  0.00    -0.744 OA
ENDBRANCH  94  97
ENDBRANCH  67  90
ENDBRANCH  41  42
ENDBRANCH  33  36
ENDBRANCH  31  32
ENDBRANCH  30  31
ENDBRANCH   1  30
TORSDOF 18
ENDMDL
