MODEL 1
REMARK VINA RESULT:     -10.8      0.000      0.000
REMARK SMILES CCC[NH+]1CCN(C(=O)N[C@H]2C=C[C@@H](C(=O)NCCCCCCNC(=O)c3ccc(-c4c5nc(c(-c6cccc(S(=O)(=O)[O-])c6F)c6ccc([nH]6)c(-c6cccc(S(=O)(=O)[O-])c6F)c6nc(c(-c7cccc(S(=O)(=O)[O-])c7F)c7ccc4[nH]7)C=C6)C=C5)cc3)C2)CC1
REMARK SMILES IDX 20 1 19 2 18 3 17 4 15 5 16 6 14 8 11 9 12 10 90 11 13 12
REMARK SMILES IDX 10 13 4 14 5 15 92 16 6 18 91 19 7 20 8 21 9 22 3 24 2 25
REMARK SMILES IDX 1 26 21 27 22 28 23 29 24 30 25 31 26 33 27 34 28 35 89 36
REMARK SMILES IDX 29 37 88 38 30 39 31 40 32 41 82 42 33 43 87 44 81 45 83 46
REMARK SMILES IDX 34 47 86 48 80 49 79 50 35 52 67 53 47 54 66 55 48 56 51 57
REMARK SMILES IDX 65 58 84 59 49 60 50 61 64 63 85 64 52 65 36 66 37 67 45 68
REMARK SMILES IDX 38 69 40 70 46 71 39 72 41 73 42 74 43 75 44 76 68 77 69 78
REMARK SMILES IDX 77 79 70 80 72 81 78 82 71 83 73 84 74 85 75 86 76 87 53 88
REMARK SMILES IDX 54 89 62 90 55 91 57 92 63 93 56 94 58 95 59 96 60 97 61 98
REMARK H PARENT 17 7 4 17 10 23 24 32 83 51 51 62
REMARK Flexibility Score: inf
ROOT
ATOM      1  C   UNL A   1      30.592  27.006  24.958  1.00  0.00     0.002 C 
ENDROOT
BRANCH   1   2
ATOM      2  C   UNL A   1      30.096  26.693  23.548  1.00  0.00     0.021 C 
BRANCH   2   3
ATOM      3  C   UNL A   1      30.403  25.280  23.073  1.00  0.00     0.116 C 
BRANCH   3   4
ATOM      4  N   UNL A   1      31.710  25.133  22.476  1.00  0.00    -0.356 N 
ATOM      5  C   UNL A   1      32.894  24.723  22.998  1.00  0.00     0.227 C 
ATOM      6  O   UNL A   1      33.799  24.505  22.179  1.00  0.00    -0.274 OA
ATOM      7  H   UNL A   1      31.749  25.370  21.521  1.00  0.00     0.163 HD
BRANCH   5   8
ATOM      8  C   UNL A   1      33.173  24.484  24.497  1.00  0.00     0.103 C 
ATOM      9  C   UNL A   1      34.722  22.995  25.710  1.00  0.00     0.107 C 
ATOM     10  C   UNL A   1      35.193  24.399  25.718  1.00  0.00    -0.006 C 
ATOM     11  C   UNL A   1      33.330  23.066  25.053  1.00  0.00     0.047 C 
ATOM     12  C   UNL A   1      34.371  25.210  25.036  1.00  0.00    -0.016 C 
BRANCH   9  13
ATOM     13  N   UNL A   1      35.625  21.972  25.168  1.00  0.00    -0.332 N 
ATOM     14  N   UNL A   1      32.889  17.486  25.129  1.00  0.00    -0.332 N 
ATOM     15  C   UNL A   1      34.312  17.196  24.830  1.00  0.00     0.284 C 
ATOM     16  C   UNL A   1      32.841  18.602  26.057  1.00  0.00     0.284 C 
ATOM     17  H   UNL A   1      32.430  16.716  25.617  1.00  0.00     0.348 HD
ATOM     18  C   UNL A   1      35.146  18.410  24.349  1.00  0.00     0.183 C 
ATOM     19  C   UNL A   1      33.572  19.851  25.580  1.00  0.00     0.183 C 
ATOM     20  N   UNL A   1      34.916  19.672  25.087  1.00  0.00    -0.314 N 
ATOM     21  C   UNL A   1      35.833  20.667  24.923  1.00  0.00     0.318 C 
ATOM     22  O   UNL A   1      36.967  20.421  24.495  1.00  0.00    -0.249 OA
ATOM     23  H   UNL A   1      36.423  22.448  24.841  1.00  0.00     0.165 HD
BRANCH  14  24
ATOM     24  C   UNL A   1      32.069  17.552  23.911  1.00  0.00     0.262 C 
BRANCH  24  25
ATOM     25  C   UNL A   1      32.104  18.797  22.997  1.00  0.00     0.058 C 
ATOM     26  C   UNL A   1      32.425  18.508  21.533  1.00  0.00     0.010 C 
ENDBRANCH  24  25
ENDBRANCH  14  24
ENDBRANCH   9  13
ENDBRANCH   5   8
ENDBRANCH   3   4
ENDBRANCH   2   3
ENDBRANCH   1   2
BRANCH   1  27
ATOM     27  C   UNL A   1      31.493  28.239  25.075  1.00  0.00     0.002 C 
BRANCH  27  28
ATOM     28  C   UNL A   1      32.336  28.323  26.351  1.00  0.00     0.021 C 
BRANCH  28  29
ATOM     29  C   UNL A   1      33.691  29.004  26.185  1.00  0.00     0.116 C 
BRANCH  29  30
ATOM     30  N   UNL A   1      33.664  30.393  26.621  1.00  0.00    -0.352 N 
ATOM     31  C   UNL A   1      34.485  31.041  27.509  1.00  0.00     0.251 C 
ATOM     32  H   UNL A   1      32.956  30.947  26.222  1.00  0.00     0.163 HD
ATOM     33  O   UNL A   1      34.195  32.171  27.900  1.00  0.00    -0.269 OA
BRANCH  31  34
ATOM     34  C   UNL A   1      35.707  30.375  28.007  1.00  0.00     0.039 A 
ATOM     35  C   UNL A   1      36.882  30.467  27.258  1.00  0.00     0.014 A 
ATOM     36  C   UNL A   1      35.694  29.662  29.209  1.00  0.00     0.014 A 
ATOM     37  C   UNL A   1      38.058  29.889  27.741  1.00  0.00     0.010 A 
ATOM     38  C   UNL A   1      36.883  29.156  29.726  1.00  0.00     0.010 A 
ATOM     39  C   UNL A   1      38.076  29.256  28.996  1.00  0.00    -0.014 A 
BRANCH  39  40
ATOM     40  C   UNL A   1      39.335  28.707  29.563  1.00  0.00     0.031 A 
ATOM     41  C   UNL A   1      39.983  29.363  30.753  1.00  0.00     0.074 A 
ATOM     42  C   UNL A   1      39.938  27.666  28.955  1.00  0.00     0.049 A 
ATOM     43  N   UNL A   1      41.103  29.057  31.355  1.00  0.00    -0.248 NA
ATOM     44  C   UNL A   1      39.296  30.532  31.328  1.00  0.00     0.031 C 
ATOM     45  C   UNL A   1      39.451  26.994  27.749  1.00  0.00     0.029 A 
ATOM     46  N   UNL A   1      41.106  27.009  29.252  1.00  0.00    -0.354 N 
ATOM     47  C   UNL A   1      41.273  30.008  32.352  1.00  0.00     0.074 A 
ATOM     48  C   UNL A   1      40.158  30.926  32.253  1.00  0.00     0.031 C 
ATOM     49  C   UNL A   1      40.310  26.019  27.411  1.00  0.00     0.029 A 
ATOM     50  C   UNL A   1      41.426  26.019  28.353  1.00  0.00     0.049 A 
ATOM     51  H   UNL A   1      41.662  27.225  30.036  1.00  0.00     0.167 HD
ATOM     52  C   UNL A   1      42.251  30.098  33.284  1.00  0.00     0.034 A 
ATOM     53  C   UNL A   1      42.502  25.211  28.284  1.00  0.00     0.034 A 
ATOM     54  C   UNL A   1      43.342  29.168  33.396  1.00  0.00     0.049 A 
ATOM     55  C   UNL A   1      43.562  25.313  29.347  1.00  0.00     0.074 A 
ATOM     56  C   UNL A   1      44.338  29.122  34.356  1.00  0.00     0.029 A 
ATOM     57  N   UNL A   1      43.592  28.129  32.513  1.00  0.00    -0.354 N 
ATOM     58  N   UNL A   1      43.622  26.121  30.377  1.00  0.00    -0.248 NA
ATOM     59  C   UNL A   1      44.685  24.370  29.258  1.00  0.00     0.031 C 
ATOM     60  C   UNL A   1      45.210  28.078  34.033  1.00  0.00     0.029 A 
ATOM     61  C   UNL A   1      44.733  27.445  32.895  1.00  0.00     0.049 A 
ATOM     62  H   UNL A   1      43.038  27.910  31.729  1.00  0.00     0.167 HD
ATOM     63  C   UNL A   1      44.766  25.759  31.080  1.00  0.00     0.074 A 
ATOM     64  C   UNL A   1      45.357  24.645  30.368  1.00  0.00     0.031 C 
ATOM     65  C   UNL A   1      45.286  26.307  32.205  1.00  0.00     0.034 A 
BRANCH  52  66
ATOM     66  C   UNL A   1      42.166  31.222  34.285  1.00  0.00     0.023 A 
ATOM     67  C   UNL A   1      43.073  32.300  34.204  1.00  0.00     0.012 A 
ATOM     68  C   UNL A   1      41.158  31.245  35.268  1.00  0.00     0.148 A 
ATOM     69  C   UNL A   1      43.005  33.358  35.109  1.00  0.00     0.002 A 
ATOM     70  C   UNL A   1      41.064  32.327  36.135  1.00  0.00     0.091 A 
ATOM     71  F   UNL A   1      40.314  30.205  35.343  1.00  0.00    -0.205 F 
ATOM     72  C   UNL A   1      41.995  33.377  36.066  1.00  0.00     0.022 A 
BRANCH  70  73
ATOM     73  S   UNL A   1      39.750  32.488  37.349  1.00  0.00     0.127 S 
ATOM     74  O   UNL A   1      40.500  32.436  38.604  1.00  0.00    -0.237 OA
ATOM     75  O   UNL A   1      39.193  33.802  37.026  1.00  0.00    -0.237 OA
ATOM     76  O   UNL A   1      38.846  31.371  37.116  1.00  0.00    -0.744 OA
ENDBRANCH  70  73
ENDBRANCH  52  66
BRANCH  53  77
ATOM     77  C   UNL A   1      42.603  24.197  27.196  1.00  0.00     0.023 A 
ATOM     78  C   UNL A   1      43.331  24.500  26.029  1.00  0.00     0.012 A 
ATOM     79  C   UNL A   1      42.002  22.929  27.321  1.00  0.00     0.148 A 
ATOM     80  C   UNL A   1      43.428  23.573  24.990  1.00  0.00     0.002 A 
ATOM     81  C   UNL A   1      42.152  21.989  26.308  1.00  0.00     0.091 A 
ATOM     82  F   UNL A   1      41.307  22.663  28.435  1.00  0.00    -0.205 F 
ATOM     83  C   UNL A   1      42.847  22.315  25.134  1.00  0.00     0.022 A 
BRANCH  81  84
ATOM     84  S   UNL A   1      41.553  20.303  26.462  1.00  0.00     0.127 S 
ATOM     85  O   UNL A   1      42.220  19.644  25.341  1.00  0.00    -0.237 OA
ATOM     86  O   UNL A   1      42.053  19.925  27.784  1.00  0.00    -0.237 OA
ATOM     87  O   UNL A   1      40.102  20.388  26.371  1.00  0.00    -0.744 OA
ENDBRANCH  81  84
ENDBRANCH  53  77
BRANCH  65  88
ATOM     88  C   UNL A   1      46.537  25.687  32.773  1.00  0.00     0.023 A 
ATOM     89  C   UNL A   1      47.801  26.218  32.447  1.00  0.00     0.012 A 
ATOM     90  C   UNL A   1      46.452  24.618  33.689  1.00  0.00     0.148 A 
ATOM     91  C   UNL A   1      48.962  25.674  32.994  1.00  0.00     0.002 A 
ATOM     92  C   UNL A   1      47.609  24.116  34.271  1.00  0.00     0.091 A 
ATOM     93  F   UNL A   1      45.242  24.115  33.974  1.00  0.00    -0.205 F 
ATOM     94  C   UNL A   1      48.865  24.632  33.915  1.00  0.00     0.022 A 
BRANCH  92  95
ATOM     95  S   UNL A   1      47.576  22.845  35.540  1.00  0.00     0.127 S 
ATOM     96  O   UNL A   1      49.003  22.603  35.755  1.00  0.00    -0.237 OA
ATOM     97  O   UNL A   1      46.901  23.527  36.644  1.00  0.00    -0.237 OA
ATOM     98  O   UNL A   1      46.833  21.727  34.974  1.00  0.00    -0.744 OA
ENDBRANCH  92  95
ENDBRANCH  65  88
ENDBRANCH  39  40
ENDBRANCH  31  34
ENDBRANCH  29  30
ENDBRANCH  28  29
ENDBRANCH  27  28
ENDBRANCH   1  27
TORSDOF 19
ENDMDL
MODEL 2
REMARK VINA RESULT:     -10.6      5.017     13.068
REMARK SMILES CCC[NH+]1CCN(C(=O)N[C@H]2C=C[C@@H](C(=O)NCCCCCCNC(=O)c3ccc(-c4c5nc(c(-c6cccc(S(=O)(=O)[O-])c6F)c6ccc([nH]6)c(-c6cccc(S(=O)(=O)[O-])c6F)c6nc(c(-c7cccc(S(=O)(=O)[O-])c7F)c7ccc4[nH]7)C=C6)C=C5)cc3)C2)CC1
REMARK SMILES IDX 20 1 19 2 18 3 17 4 15 5 16 6 14 8 11 9 12 10 90 11 13 12
REMARK SMILES IDX 10 13 4 14 5 15 92 16 6 18 91 19 7 20 8 21 9 22 3 24 2 25
REMARK SMILES IDX 1 26 21 27 22 28 23 29 24 30 25 31 26 33 27 34 28 35 89 36
REMARK SMILES IDX 29 37 88 38 30 39 31 40 32 41 82 42 33 43 87 44 81 45 83 46
REMARK SMILES IDX 34 47 86 48 80 49 79 50 35 52 67 53 47 54 66 55 48 56 51 57
REMARK SMILES IDX 65 58 84 59 49 60 50 61 64 63 85 64 52 65 36 66 37 67 45 68
REMARK SMILES IDX 38 69 40 70 46 71 39 72 41 73 42 74 43 75 44 76 68 77 69 78
REMARK SMILES IDX 77 79 70 80 72 81 78 82 71 83 73 84 74 85 75 86 76 87 53 88
REMARK SMILES IDX 54 89 62 90 55 91 57 92 63 93 56 94 58 95 59 96 60 97 61 98
REMARK H PARENT 17 7 4 17 10 23 24 32 83 51 51 62
REMARK Flexibility Score: inf
ROOT
ATOM      1  C   UNL A   1      47.087  26.829  31.473  1.00  0.00     0.002 C 
ENDROOT
BRANCH   1   2
ATOM      2  C   UNL A   1      47.198  28.278  31.004  1.00  0.00     0.021 C 
BRANCH   2   3
ATOM      3  C   UNL A   1      48.049  28.472  29.758  1.00  0.00     0.116 C 
BRANCH   3   4
ATOM      4  N   UNL A   1      47.297  28.468  28.525  1.00  0.00    -0.356 N 
ATOM      5  C   UNL A   1      46.644  27.472  27.875  1.00  0.00     0.227 C 
ATOM      6  O   UNL A   1      45.914  27.825  26.938  1.00  0.00    -0.274 OA
ATOM      7  H   UNL A   1      47.247  29.344  28.078  1.00  0.00     0.163 HD
BRANCH   5   8
ATOM      8  C   UNL A   1      46.722  25.973  28.234  1.00  0.00     0.103 C 
ATOM      9  C   UNL A   1      46.468  23.904  26.912  1.00  0.00     0.107 C 
ATOM     10  C   UNL A   1      47.889  24.182  27.227  1.00  0.00    -0.006 C 
ATOM     11  C   UNL A   1      45.689  24.979  27.696  1.00  0.00     0.047 C 
ATOM     12  C   UNL A   1      48.038  25.320  27.921  1.00  0.00    -0.016 C 
BRANCH   9  13
ATOM     13  N   UNL A   1      46.095  23.758  25.500  1.00  0.00    -0.332 N 
ATOM     14  N   UNL A   1      45.001  18.666  24.801  1.00  0.00    -0.332 N 
ATOM     15  C   UNL A   1      45.055  19.342  23.482  1.00  0.00     0.284 C 
ATOM     16  C   UNL A   1      45.972  19.302  25.674  1.00  0.00     0.284 C 
ATOM     17  H   UNL A   1      45.293  17.689  24.748  1.00  0.00     0.348 HD
ATOM     18  C   UNL A   1      44.901  20.884  23.525  1.00  0.00     0.183 C 
ATOM     19  C   UNL A   1      45.798  20.810  25.818  1.00  0.00     0.183 C 
ATOM     20  N   UNL A   1      45.654  21.568  24.600  1.00  0.00    -0.314 N 
ATOM     21  C   UNL A   1      45.810  22.917  24.490  1.00  0.00     0.318 C 
ATOM     22  O   UNL A   1      45.667  23.487  23.402  1.00  0.00    -0.249 OA
ATOM     23  H   UNL A   1      46.023  24.669  25.134  1.00  0.00     0.165 HD
BRANCH  14  24
ATOM     24  C   UNL A   1      43.624  18.503  25.285  1.00  0.00     0.262 C 
BRANCH  24  25
ATOM     25  C   UNL A   1      43.336  18.181  26.768  1.00  0.00     0.058 C 
ATOM     26  C   UNL A   1      42.228  19.017  27.403  1.00  0.00     0.010 C 
ENDBRANCH  24  25
ENDBRANCH  14  24
ENDBRANCH   9  13
ENDBRANCH   5   8
ENDBRANCH   3   4
ENDBRANCH   2   3
ENDBRANCH   1   2
BRANCH   1  27
ATOM     27  C   UNL A   1      48.412  26.065  31.553  1.00  0.00     0.002 C 
BRANCH  27  28
ATOM     28  C   UNL A   1      48.711  25.399  32.899  1.00  0.00     0.021 C 
BRANCH  28  29
ATOM     29  C   UNL A   1      48.981  26.363  34.049  1.00  0.00     0.116 C 
BRANCH  29  30
ATOM     30  N   UNL A   1      48.628  25.791  35.341  1.00  0.00    -0.352 N 
ATOM     31  C   UNL A   1      47.459  25.902  36.050  1.00  0.00     0.251 C 
ATOM     32  H   UNL A   1      49.327  25.246  35.766  1.00  0.00     0.163 HD
ATOM     33  O   UNL A   1      47.407  25.505  37.213  1.00  0.00    -0.269 OA
BRANCH  31  34
ATOM     34  C   UNL A   1      46.268  26.513  35.422  1.00  0.00     0.039 A 
ATOM     35  C   UNL A   1      46.360  27.813  34.919  1.00  0.00     0.014 A 
ATOM     36  C   UNL A   1      45.065  25.808  35.332  1.00  0.00     0.014 A 
ATOM     37  C   UNL A   1      45.260  28.385  34.275  1.00  0.00     0.010 A 
ATOM     38  C   UNL A   1      43.997  26.350  34.621  1.00  0.00     0.010 A 
ATOM     39  C   UNL A   1      44.079  27.645  34.092  1.00  0.00    -0.014 A 
BRANCH  39  40
ATOM     40  C   UNL A   1      42.928  28.208  33.339  1.00  0.00     0.031 A 
ATOM     41  C   UNL A   1      42.705  27.833  31.899  1.00  0.00     0.074 A 
ATOM     42  C   UNL A   1      42.130  29.119  33.930  1.00  0.00     0.049 A 
ATOM     43  N   UNL A   1      41.787  28.256  31.069  1.00  0.00    -0.248 NA
ATOM     44  C   UNL A   1      43.652  26.875  31.303  1.00  0.00     0.031 C 
ATOM     45  C   UNL A   1      42.290  29.624  35.295  1.00  0.00     0.029 A 
ATOM     46  N   UNL A   1      41.043  29.805  33.448  1.00  0.00    -0.354 N 
ATOM     47  C   UNL A   1      42.063  27.648  29.851  1.00  0.00     0.074 A 
ATOM     48  C   UNL A   1      43.257  26.852  30.039  1.00  0.00     0.031 C 
ATOM     49  C   UNL A   1      41.335  30.534  35.542  1.00  0.00     0.029 A 
ATOM     50  C   UNL A   1      40.518  30.706  34.345  1.00  0.00     0.049 A 
ATOM     51  H   UNL A   1      40.673  29.665  32.546  1.00  0.00     0.167 HD
ATOM     52  C   UNL A   1      41.373  27.721  28.688  1.00  0.00     0.034 A 
ATOM     53  C   UNL A   1      39.503  31.582  34.214  1.00  0.00     0.034 A 
ATOM     54  C   UNL A   1      40.172  28.491  28.514  1.00  0.00     0.049 A 
ATOM     55  C   UNL A   1      38.736  31.626  32.920  1.00  0.00     0.074 A 
ATOM     56  C   UNL A   1      39.352  28.566  27.401  1.00  0.00     0.029 A 
ATOM     57  N   UNL A   1      39.624  29.333  29.469  1.00  0.00    -0.354 N 
ATOM     58  N   UNL A   1      38.918  30.922  31.830  1.00  0.00    -0.248 NA
ATOM     59  C   UNL A   1      37.602  32.557  32.851  1.00  0.00     0.031 C 
ATOM     60  C   UNL A   1      38.329  29.480  27.672  1.00  0.00     0.029 A 
ATOM     61  C   UNL A   1      38.487  29.943  28.969  1.00  0.00     0.049 A 
ATOM     62  H   UNL A   1      39.991  29.476  30.372  1.00  0.00     0.167 HD
ATOM     63  C   UNL A   1      37.901  31.298  30.959  1.00  0.00     0.074 A 
ATOM     64  C   UNL A   1      37.093  32.276  31.659  1.00  0.00     0.031 C 
ATOM     65  C   UNL A   1      37.664  30.880  29.692  1.00  0.00     0.034 A 
BRANCH  52  66
ATOM     66  C   UNL A   1      41.880  26.915  27.520  1.00  0.00     0.023 A 
ATOM     67  C   UNL A   1      42.600  27.555  26.489  1.00  0.00     0.012 A 
ATOM     68  C   UNL A   1      41.696  25.519  27.466  1.00  0.00     0.148 A 
ATOM     69  C   UNL A   1      43.092  26.828  25.406  1.00  0.00     0.002 A 
ATOM     70  C   UNL A   1      42.232  24.794  26.408  1.00  0.00     0.091 A 
ATOM     71  F   UNL A   1      40.995  24.929  28.444  1.00  0.00    -0.205 F 
ATOM     72  C   UNL A   1      42.917  25.448  25.371  1.00  0.00     0.022 A 
BRANCH  70  73
ATOM     73  S   UNL A   1      42.135  23.003  26.312  1.00  0.00     0.127 S 
ATOM     74  O   UNL A   1      40.705  22.773  26.513  1.00  0.00    -0.237 OA
ATOM     75  O   UNL A   1      42.609  22.742  24.952  1.00  0.00    -0.237 OA
ATOM     76  O   UNL A   1      43.003  22.494  27.365  1.00  0.00    -0.744 OA
ENDBRANCH  70  73
ENDBRANCH  52  66
BRANCH  53  77
ATOM     77  C   UNL A   1      39.120  32.454  35.361  1.00  0.00     0.023 A 
ATOM     78  C   UNL A   1      38.216  31.973  36.329  1.00  0.00     0.012 A 
ATOM     79  C   UNL A   1      39.662  33.746  35.511  1.00  0.00     0.148 A 
ATOM     80  C   UNL A   1      37.830  32.776  37.404  1.00  0.00     0.002 A 
ATOM     81  C   UNL A   1      39.320  34.517  36.614  1.00  0.00     0.091 A 
ATOM     82  F   UNL A   1      40.514  34.188  34.575  1.00  0.00    -0.205 F 
ATOM     83  C   UNL A   1      38.389  34.043  37.552  1.00  0.00     0.022 A 
BRANCH  81  84
ATOM     84  S   UNL A   1      40.088  36.104  36.957  1.00  0.00     0.127 S 
ATOM     85  O   UNL A   1      39.292  36.586  38.083  1.00  0.00    -0.237 OA
ATOM     86  O   UNL A   1      41.456  35.709  37.295  1.00  0.00    -0.237 OA
ATOM     87  O   UNL A   1      39.973  36.874  35.726  1.00  0.00    -0.744 OA
ENDBRANCH  81  84
ENDBRANCH  53  77
BRANCH  65  88
ATOM     88  C   UNL A   1      36.456  31.439  28.984  1.00  0.00     0.023 A 
ATOM     89  C   UNL A   1      36.349  32.826  28.757  1.00  0.00     0.012 A 
ATOM     90  C   UNL A   1      35.460  30.577  28.481  1.00  0.00     0.148 A 
ATOM     91  C   UNL A   1      35.253  33.349  28.072  1.00  0.00     0.002 A 
ATOM     92  C   UNL A   1      34.399  31.101  27.753  1.00  0.00     0.091 A 
ATOM     93  F   UNL A   1      35.571  29.263  28.721  1.00  0.00    -0.205 F 
ATOM     94  C   UNL A   1      34.285  32.487  27.560  1.00  0.00     0.022 A 
BRANCH  92  95
ATOM     95  S   UNL A   1      33.161  30.062  26.971  1.00  0.00     0.127 S 
ATOM     96  O   UNL A   1      32.144  31.043  26.593  1.00  0.00    -0.237 OA
ATOM     97  O   UNL A   1      33.902  29.489  25.848  1.00  0.00    -0.237 OA
ATOM     98  O   UNL A   1      32.748  29.095  27.980  1.00  0.00    -0.744 OA
ENDBRANCH  92  95
ENDBRANCH  65  88
ENDBRANCH  39  40
ENDBRANCH  31  34
ENDBRANCH  29  30
ENDBRANCH  28  29
ENDBRANCH  27  28
ENDBRANCH   1  27
TORSDOF 19
ENDMDL
MODEL 3
REMARK VINA RESULT:     -10.6      1.718      2.181
REMARK SMILES CCC[NH+]1CCN(C(=O)N[C@H]2C=C[C@@H](C(=O)NCCCCCCNC(=O)c3ccc(-c4c5nc(c(-c6cccc(S(=O)(=O)[O-])c6F)c6ccc([nH]6)c(-c6cccc(S(=O)(=O)[O-])c6F)c6nc(c(-c7cccc(S(=O)(=O)[O-])c7F)c7ccc4[nH]7)C=C6)C=C5)cc3)C2)CC1
REMARK SMILES IDX 20 1 19 2 18 3 17 4 15 5 16 6 14 8 11 9 12 10 90 11 13 12
REMARK SMILES IDX 10 13 4 14 5 15 92 16 6 18 91 19 7 20 8 21 9 22 3 24 2 25
REMARK SMILES IDX 1 26 21 27 22 28 23 29 24 30 25 31 26 33 27 34 28 35 89 36
REMARK SMILES IDX 29 37 88 38 30 39 31 40 32 41 82 42 33 43 87 44 81 45 83 46
REMARK SMILES IDX 34 47 86 48 80 49 79 50 35 52 67 53 47 54 66 55 48 56 51 57
REMARK SMILES IDX 65 58 84 59 49 60 50 61 64 63 85 64 52 65 36 66 37 67 45 68
REMARK SMILES IDX 38 69 40 70 46 71 39 72 41 73 42 74 43 75 44 76 68 77 69 78
REMARK SMILES IDX 77 79 70 80 72 81 78 82 71 83 73 84 74 85 75 86 76 87 53 88
REMARK SMILES IDX 54 89 62 90 55 91 57 92 63 93 56 94 58 95 59 96 60 97 61 98
REMARK H PARENT 17 7 4 17 10 23 24 32 83 51 51 62
REMARK Flexibility Score: inf
ROOT
ATOM      1  C   UNL A   1      30.597  27.266  25.236  1.00  0.00     0.002 C 
ENDROOT
BRANCH   1   2
ATOM      2  C   UNL A   1      30.064  27.171  23.807  1.00  0.00     0.021 C 
BRANCH   2   3
ATOM      3  C   UNL A   1      30.679  26.052  22.980  1.00  0.00     0.116 C 
BRANCH   3   4
ATOM      4  N   UNL A   1      32.016  26.335  22.510  1.00  0.00    -0.356 N 
ATOM      5  C   UNL A   1      33.218  25.811  22.857  1.00  0.00     0.227 C 
ATOM      6  O   UNL A   1      34.172  26.116  22.126  1.00  0.00    -0.274 OA
ATOM      7  H   UNL A   1      32.062  27.031  21.815  1.00  0.00     0.163 HD
BRANCH   5   8
ATOM      8  C   UNL A   1      33.467  24.862  24.047  1.00  0.00     0.103 C 
ATOM      9  C   UNL A   1      33.109  22.442  24.381  1.00  0.00     0.107 C 
ATOM     10  C   UNL A   1      34.541  22.760  24.175  1.00  0.00    -0.006 C 
ATOM     11  C   UNL A   1      32.422  23.820  24.456  1.00  0.00     0.047 C 
ATOM     12  C   UNL A   1      34.741  24.070  23.964  1.00  0.00    -0.016 C 
BRANCH   9  13
ATOM     13  N   UNL A   1      32.484  21.473  23.472  1.00  0.00    -0.332 N 
ATOM     14  N   UNL A   1      34.724  16.837  24.523  1.00  0.00    -0.332 N 
ATOM     15  C   UNL A   1      33.907  16.720  23.291  1.00  0.00     0.284 C 
ATOM     16  C   UNL A   1      35.283  18.177  24.568  1.00  0.00     0.284 C 
ATOM     17  H   UNL A   1      35.532  16.213  24.513  1.00  0.00     0.348 HD
ATOM     18  C   UNL A   1      32.834  17.822  23.104  1.00  0.00     0.183 C 
ATOM     19  C   UNL A   1      34.250  19.294  24.480  1.00  0.00     0.183 C 
ATOM     20  N   UNL A   1      33.275  19.198  23.423  1.00  0.00    -0.314 N 
ATOM     21  C   UNL A   1      32.492  20.222  22.980  1.00  0.00     0.318 C 
ATOM     22  O   UNL A   1      31.679  20.050  22.063  1.00  0.00    -0.249 OA
ATOM     23  H   UNL A   1      31.737  21.941  23.035  1.00  0.00     0.165 HD
BRANCH  14  24
ATOM     24  C   UNL A   1      34.016  16.333  25.707  1.00  0.00     0.262 C 
BRANCH  24  25
ATOM     25  C   UNL A   1      32.546  15.866  25.615  1.00  0.00     0.058 C 
ATOM     26  C   UNL A   1      32.337  14.365  25.795  1.00  0.00     0.010 C 
ENDBRANCH  24  25
ENDBRANCH  14  24
ENDBRANCH   9  13
ENDBRANCH   5   8
ENDBRANCH   3   4
ENDBRANCH   2   3
ENDBRANCH   1   2
BRANCH   1  27
ATOM     27  C   UNL A   1      31.564  28.425  25.496  1.00  0.00     0.002 C 
BRANCH  27  28
ATOM     28  C   UNL A   1      32.776  28.090  26.371  1.00  0.00     0.021 C 
BRANCH  28  29
ATOM     29  C   UNL A   1      34.003  28.965  26.133  1.00  0.00     0.116 C 
BRANCH  29  30
ATOM     30  N   UNL A   1      33.867  30.280  26.742  1.00  0.00    -0.352 N 
ATOM     31  C   UNL A   1      34.623  30.865  27.725  1.00  0.00     0.251 C 
ATOM     32  H   UNL A   1      33.126  30.828  26.399  1.00  0.00     0.163 HD
ATOM     33  O   UNL A   1      34.244  31.912  28.249  1.00  0.00    -0.269 OA
BRANCH  31  34
ATOM     34  C   UNL A   1      35.884  30.231  28.165  1.00  0.00     0.039 A 
ATOM     35  C   UNL A   1      37.018  30.347  27.357  1.00  0.00     0.014 A 
ATOM     36  C   UNL A   1      35.947  29.522  29.368  1.00  0.00     0.014 A 
ATOM     37  C   UNL A   1      38.229  29.799  27.784  1.00  0.00     0.010 A 
ATOM     38  C   UNL A   1      37.172  29.047  29.827  1.00  0.00     0.010 A 
ATOM     39  C   UNL A   1      38.324  29.172  29.038  1.00  0.00    -0.014 A 
BRANCH  39  40
ATOM     40  C   UNL A   1      39.623  28.655  29.544  1.00  0.00     0.031 A 
ATOM     41  C   UNL A   1      40.321  29.341  30.687  1.00  0.00     0.074 A 
ATOM     42  C   UNL A   1      40.212  27.616  28.920  1.00  0.00     0.049 A 
ATOM     43  N   UNL A   1      41.478  29.065  31.232  1.00  0.00    -0.248 NA
ATOM     44  C   UNL A   1      39.644  30.506  31.282  1.00  0.00     0.031 C 
ATOM     45  C   UNL A   1      39.673  26.916  27.752  1.00  0.00     0.029 A 
ATOM     46  N   UNL A   1      41.406  26.985  29.163  1.00  0.00    -0.354 N 
ATOM     47  C   UNL A   1      41.683  30.036  32.204  1.00  0.00     0.074 A 
ATOM     48  C   UNL A   1      40.548  30.931  32.152  1.00  0.00     0.031 C 
ATOM     49  C   UNL A   1      40.531  25.951  27.383  1.00  0.00     0.029 A 
ATOM     50  C   UNL A   1      41.696  25.986  28.262  1.00  0.00     0.049 A 
ATOM     51  H   UNL A   1      42.000  27.223  29.912  1.00  0.00     0.167 HD
ATOM     52  C   UNL A   1      42.709  30.157  33.080  1.00  0.00     0.034 A 
ATOM     53  C   UNL A   1      42.782  25.197  28.148  1.00  0.00     0.034 A 
ATOM     54  C   UNL A   1      43.822  29.249  33.147  1.00  0.00     0.049 A 
ATOM     55  C   UNL A   1      43.896  25.336  29.149  1.00  0.00     0.074 A 
ATOM     56  C   UNL A   1      44.868  29.238  34.051  1.00  0.00     0.029 A 
ATOM     57  N   UNL A   1      44.043  28.202  32.267  1.00  0.00    -0.354 N 
ATOM     58  N   UNL A   1      43.996  26.160  30.163  1.00  0.00    -0.248 NA
ATOM     59  C   UNL A   1      45.030  24.411  29.013  1.00  0.00     0.031 C 
ATOM     60  C   UNL A   1      45.742  28.204  33.697  1.00  0.00     0.029 A 
ATOM     61  C   UNL A   1      45.216  27.545  32.596  1.00  0.00     0.049 A 
ATOM     62  H   UNL A   1      43.452  27.960  31.517  1.00  0.00     0.167 HD
ATOM     63  C   UNL A   1      45.183  25.831  30.807  1.00  0.00     0.074 A 
ATOM     64  C   UNL A   1      45.755  24.716  30.081  1.00  0.00     0.031 C 
ATOM     65  C   UNL A   1      45.753  26.406  31.894  1.00  0.00     0.034 A 
BRANCH  52  66
ATOM     66  C   UNL A   1      42.656  31.296  34.067  1.00  0.00     0.023 A 
ATOM     67  C   UNL A   1      42.115  31.082  35.352  1.00  0.00     0.012 A 
ATOM     68  C   UNL A   1      43.190  32.560  33.747  1.00  0.00     0.148 A 
ATOM     69  C   UNL A   1      42.069  32.116  36.287  1.00  0.00     0.002 A 
ATOM     70  C   UNL A   1      43.186  33.571  34.701  1.00  0.00     0.091 A 
ATOM     71  F   UNL A   1      43.685  32.752  32.515  1.00  0.00    -0.205 F 
ATOM     72  C   UNL A   1      42.614  33.355  35.965  1.00  0.00     0.022 A 
BRANCH  70  73
ATOM     73  S   UNL A   1      43.937  35.178  34.415  1.00  0.00     0.127 S 
ATOM     74  O   UNL A   1      45.306  34.805  34.061  1.00  0.00    -0.237 OA
ATOM     75  O   UNL A   1      43.140  35.696  33.303  1.00  0.00    -0.237 OA
ATOM     76  O   UNL A   1      43.794  35.917  35.661  1.00  0.00    -0.744 OA
ENDBRANCH  70  73
ENDBRANCH  52  66
BRANCH  53  77
ATOM     77  C   UNL A   1      42.843  24.168  27.071  1.00  0.00     0.023 A 
ATOM     78  C   UNL A   1      43.528  24.454  25.874  1.00  0.00     0.012 A 
ATOM     79  C   UNL A   1      42.248  22.902  27.235  1.00  0.00     0.148 A 
ATOM     80  C   UNL A   1      43.586  23.513  24.845  1.00  0.00     0.002 A 
ATOM     81  C   UNL A   1      42.361  21.948  26.231  1.00  0.00     0.091 A 
ATOM     82  F   UNL A   1      41.594  22.651  28.378  1.00  0.00    -0.205 F 
ATOM     83  C   UNL A   1      43.012  22.257  25.027  1.00  0.00     0.022 A 
BRANCH  81  84
ATOM     84  S   UNL A   1      41.769  20.264  26.430  1.00  0.00     0.127 S 
ATOM     85  O   UNL A   1      42.275  19.921  27.757  1.00  0.00    -0.237 OA
ATOM     86  O   UNL A   1      40.319  20.443  26.352  1.00  0.00    -0.237 OA
ATOM     87  O   UNL A   1      42.339  19.509  25.322  1.00  0.00    -0.744 OA
ENDBRANCH  81  84
ENDBRANCH  53  77
BRANCH  65  88
ATOM     88  C   UNL A   1      47.044  25.818  32.403  1.00  0.00     0.023 A 
ATOM     89  C   UNL A   1      48.276  26.254  31.875  1.00  0.00     0.012 A 
ATOM     90  C   UNL A   1      47.036  24.882  33.457  1.00  0.00     0.148 A 
ATOM     91  C   UNL A   1      49.477  25.741  32.362  1.00  0.00     0.002 A 
ATOM     92  C   UNL A   1      48.239  24.415  33.974  1.00  0.00     0.091 A 
ATOM     93  F   UNL A   1      45.854  24.467  33.935  1.00  0.00    -0.205 F 
ATOM     94  C   UNL A   1      49.459  24.833  33.419  1.00  0.00     0.022 A 
BRANCH  92  95
ATOM     95  S   UNL A   1      48.317  23.323  35.397  1.00  0.00     0.127 S 
ATOM     96  O   UNL A   1      47.503  22.193  34.950  1.00  0.00    -0.237 OA
ATOM     97  O   UNL A   1      49.750  23.043  35.493  1.00  0.00    -0.237 OA
ATOM     98  O   UNL A   1      47.772  24.079  36.517  1.00  0.00    -0.744 OA
ENDBRANCH  92  95
ENDBRANCH  65  88
ENDBRANCH  39  40
ENDBRANCH  31  34
ENDBRANCH  29  30
ENDBRANCH  28  29
ENDBRANCH  27  28
ENDBRANCH   1  27
TORSDOF 19
ENDMDL
