MODEL 1
REMARK VINA RESULT:      -9.7      0.000      0.000
REMARK SMILES O=C(NCCCCCCNC(=O)c1nnn(-c2ccc(C(F)(F)F)cc2)c1-c1cccc(Cl)c1)c1ccc(-c2c3nc(c(-c4cccc(S(=O)(=O)[O-])c4F)c4ccc([nH]4)c(-c4cccc(S(=O)(=O)[O-])c4F)c4nc(c(-c5cccc(S(=O)(=O)[O-])c5F)c5ccc2[nH]5)C=C4)C=C3)cc1
REMARK SMILES IDX 6 1 5 2 4 3 3 4 1 5 2 6 35 8 36 9 97 10 37 11 96 12 38 13
REMARK SMILES IDX 39 14 40 15 90 16 41 17 95 18 89 19 91 20 42 21 94 22 88 23
REMARK SMILES IDX 87 24 43 26 75 27 55 28 74 29 56 30 59 31 73 32 92 33 57 34
REMARK SMILES IDX 58 35 72 37 93 38 60 39 44 40 45 41 53 42 46 43 48 44 54 45
REMARK SMILES IDX 47 46 49 47 50 48 51 49 52 50 76 51 77 52 85 53 78 54 80 55
REMARK SMILES IDX 86 56 79 57 81 58 82 59 83 60 84 61 61 62 62 63 70 64 63 65
REMARK SMILES IDX 65 66 71 67 64 68 66 69 67 70 68 71 69 72 7 73 8 74 9 75
REMARK SMILES IDX 10 76 11 77 12 79 13 80 14 81 27 82 15 83 16 84 28 85 29 86
REMARK SMILES IDX 34 87 30 88 32 89 31 90 33 91 17 92 18 93 26 94 19 95 25 96
REMARK SMILES IDX 20 97 21 98 22 99 23 100 24 101
REMARK H PARENT 3 7 91 25 59 36 10 78
REMARK Flexibility Score: inf
ROOT
ATOM      1  C   UNL A   1      35.794  33.138  31.720  1.00  0.00     0.002 C 
ENDROOT
BRANCH   1   2
ATOM      2  C   UNL A   1      34.783  33.835  30.803  1.00  0.00     0.021 C 
BRANCH   2   3
ATOM      3  C   UNL A   1      35.252  34.056  29.363  1.00  0.00     0.116 C 
BRANCH   3   4
ATOM      4  N   UNL A   1      34.764  33.073  28.423  1.00  0.00    -0.352 N 
ATOM      5  O   UNL A   1      34.413  31.232  27.268  1.00  0.00    -0.269 OA
ATOM      6  C   UNL A   1      35.184  31.836  28.020  1.00  0.00     0.251 C 
ATOM      7  H   UNL A   1      33.941  33.361  27.968  1.00  0.00     0.163 HD
BRANCH   6   8
ATOM      8  C   UNL A   1      36.488  31.212  28.376  1.00  0.00     0.039 A 
ATOM      9  C   UNL A   1      37.623  31.894  28.816  1.00  0.00     0.014 A 
ATOM     10  C   UNL A   1      36.565  29.815  28.222  1.00  0.00     0.014 A 
ATOM     11  C   UNL A   1      38.820  31.218  29.029  1.00  0.00     0.010 A 
ATOM     12  C   UNL A   1      37.753  29.129  28.449  1.00  0.00     0.010 A 
ATOM     13  C   UNL A   1      38.889  29.840  28.825  1.00  0.00    -0.014 A 
BRANCH  13  14
ATOM     14  C   UNL A   1      40.148  29.172  29.141  1.00  0.00     0.031 A 
ATOM     15  C   UNL A   1      40.374  28.884  30.588  1.00  0.00     0.074 A 
ATOM     16  C   UNL A   1      40.992  28.707  28.200  1.00  0.00     0.049 A 
ATOM     17  N   UNL A   1      41.351  29.270  31.346  1.00  0.00    -0.248 NA
ATOM     18  C   UNL A   1      39.320  28.145  31.300  1.00  0.00     0.031 C 
ATOM     19  C   UNL A   1      40.752  28.625  26.756  1.00  0.00     0.029 A 
ATOM     20  N   UNL A   1      42.186  28.065  28.358  1.00  0.00    -0.354 N 
ATOM     21  C   UNL A   1      41.144  28.642  32.577  1.00  0.00     0.074 A 
ATOM     22  C   UNL A   1      39.812  28.102  32.537  1.00  0.00     0.031 C 
ATOM     23  C   UNL A   1      41.632  27.755  26.215  1.00  0.00     0.029 A 
ATOM     24  C   UNL A   1      42.564  27.327  27.243  1.00  0.00     0.049 A 
ATOM     25  H   UNL A   1      42.725  28.118  29.180  1.00  0.00     0.167 HD
ATOM     26  C   UNL A   1      42.161  28.422  33.457  1.00  0.00     0.034 A 
ATOM     27  C   UNL A   1      43.513  26.362  27.193  1.00  0.00     0.034 A 
ATOM     28  C   UNL A   1      43.297  29.263  33.183  1.00  0.00     0.049 A 
ATOM     29  C   UNL A   1      44.401  26.532  28.363  1.00  0.00     0.074 A 
ATOM     30  C   UNL A   1      43.529  30.621  33.115  1.00  0.00     0.029 A 
ATOM     31  N   UNL A   1      44.396  28.667  32.618  1.00  0.00    -0.354 N 
ATOM     32  N   UNL A   1      45.217  27.535  28.521  1.00  0.00    -0.248 NA
ATOM     33  C   UNL A   1      44.127  25.751  29.558  1.00  0.00     0.031 C 
ATOM     34  C   UNL A   1      44.522  30.776  32.104  1.00  0.00     0.029 A 
ATOM     35  C   UNL A   1      44.851  29.502  31.637  1.00  0.00     0.049 A 
ATOM     36  H   UNL A   1      44.786  27.799  32.872  1.00  0.00     0.167 HD
ATOM     37  C   UNL A   1      45.208  27.777  29.887  1.00  0.00     0.074 A 
ATOM     38  C   UNL A   1      44.635  26.573  30.480  1.00  0.00     0.031 C 
ATOM     39  C   UNL A   1      45.394  29.037  30.381  1.00  0.00     0.034 A 
BRANCH  26  40
ATOM     40  C   UNL A   1      42.296  27.196  34.345  1.00  0.00     0.023 A 
ATOM     41  C   UNL A   1      41.903  27.334  35.698  1.00  0.00     0.012 A 
ATOM     42  C   UNL A   1      43.051  26.046  34.021  1.00  0.00     0.148 A 
ATOM     43  C   UNL A   1      42.320  26.437  36.687  1.00  0.00     0.002 A 
ATOM     44  C   UNL A   1      43.399  25.115  34.995  1.00  0.00     0.091 A 
ATOM     45  F   UNL A   1      43.559  25.893  32.796  1.00  0.00    -0.205 F 
ATOM     46  C   UNL A   1      43.071  25.325  36.335  1.00  0.00     0.022 A 
BRANCH  44  47
ATOM     47  S   UNL A   1      44.323  23.631  34.578  1.00  0.00     0.127 S 
ATOM     48  O   UNL A   1      45.580  24.196  34.101  1.00  0.00    -0.237 OA
ATOM     49  O   UNL A   1      44.401  22.949  35.871  1.00  0.00    -0.237 OA
ATOM     50  O   UNL A   1      43.507  22.936  33.590  1.00  0.00    -0.744 OA
ENDBRANCH  44  47
ENDBRANCH  26  40
BRANCH  27  51
ATOM     51  C   UNL A   1      43.570  25.154  26.339  1.00  0.00     0.023 A 
ATOM     52  C   UNL A   1      44.599  25.019  25.388  1.00  0.00     0.012 A 
ATOM     53  C   UNL A   1      42.772  24.024  26.626  1.00  0.00     0.148 A 
ATOM     54  C   UNL A   1      44.841  23.791  24.759  1.00  0.00     0.002 A 
ATOM     55  C   UNL A   1      43.006  22.810  25.989  1.00  0.00     0.091 A 
ATOM     56  F   UNL A   1      41.848  24.114  27.592  1.00  0.00    -0.205 F 
ATOM     57  C   UNL A   1      44.049  22.686  25.063  1.00  0.00     0.022 A 
BRANCH  55  58
ATOM     58  S   UNL A   1      42.027  21.343  26.339  1.00  0.00     0.127 S 
ATOM     59  O   UNL A   1      40.679  21.788  25.983  1.00  0.00    -0.237 OA
ATOM     60  O   UNL A   1      42.610  20.365  25.425  1.00  0.00    -0.237 OA
ATOM     61  O   UNL A   1      42.210  21.074  27.760  1.00  0.00    -0.744 OA
ENDBRANCH  55  58
ENDBRANCH  27  51
BRANCH  39  62
ATOM     62  C   UNL A   1      45.906  30.105  29.447  1.00  0.00     0.023 A 
ATOM     63  C   UNL A   1      47.286  30.337  29.269  1.00  0.00     0.012 A 
ATOM     64  C   UNL A   1      44.991  30.750  28.597  1.00  0.00     0.148 A 
ATOM     65  C   UNL A   1      47.742  31.214  28.283  1.00  0.00     0.002 A 
ATOM     66  C   UNL A   1      45.452  31.581  27.584  1.00  0.00     0.091 A 
ATOM     67  F   UNL A   1      43.683  30.512  28.772  1.00  0.00    -0.205 F 
ATOM     68  C   UNL A   1      46.826  31.826  27.431  1.00  0.00     0.022 A 
BRANCH  66  69
ATOM     69  S   UNL A   1      44.339  32.279  26.361  1.00  0.00     0.127 S 
ATOM     70  O   UNL A   1      45.261  32.691  25.306  1.00  0.00    -0.237 OA
ATOM     71  O   UNL A   1      43.490  31.136  26.021  1.00  0.00    -0.237 OA
ATOM     72  O   UNL A   1      43.632  33.360  27.037  1.00  0.00    -0.744 OA
ENDBRANCH  66  69
ENDBRANCH  39  62
ENDBRANCH  13  14
ENDBRANCH   6   8
ENDBRANCH   3   4
ENDBRANCH   2   3
ENDBRANCH   1   2
BRANCH   1  73
ATOM     73  C   UNL A   1      35.550  31.648  31.985  1.00  0.00     0.002 C 
BRANCH  73  74
ATOM     74  C   UNL A   1      36.802  30.773  32.084  1.00  0.00     0.021 C 
BRANCH  74  75
ATOM     75  C   UNL A   1      37.890  31.316  33.000  1.00  0.00     0.116 C 
BRANCH  75  76
ATOM     76  N   UNL A   1      39.115  31.632  32.290  1.00  0.00    -0.351 N 
ATOM     77  C   UNL A   1      39.936  32.725  32.454  1.00  0.00     0.274 C 
ATOM     78  H   UNL A   1      39.395  30.984  31.605  1.00  0.00     0.163 HD
ATOM     79  O   UNL A   1      40.889  32.875  31.688  1.00  0.00    -0.267 OA
BRANCH  77  80
ATOM     80  C   UNL A   1      39.651  33.668  33.523  1.00  0.00     0.178 A 
ATOM     81  N   UNL A   1      38.617  34.568  33.446  1.00  0.00    -0.124 NA
ATOM     82  C   UNL A   1      40.267  33.780  34.764  1.00  0.00     0.108 A 
ATOM     83  N   UNL A   1      38.513  35.184  34.616  1.00  0.00    -0.061 NA
ATOM     84  N   UNL A   1      39.567  34.814  35.377  1.00  0.00    -0.212 N 
BRANCH  82  85
ATOM     85  C   UNL A   1      41.258  32.932  35.428  1.00  0.00     0.004 A 
ATOM     86  C   UNL A   1      40.880  31.662  35.904  1.00  0.00     0.010 A 
ATOM     87  C   UNL A   1      42.583  33.348  35.575  1.00  0.00     0.031 A 
ATOM     88  C   UNL A   1      41.804  30.829  36.532  1.00  0.00     0.002 A 
ATOM     89  C   UNL A   1      43.503  32.509  36.209  1.00  0.00     0.041 A 
ATOM     90  C   UNL A   1      43.119  31.255  36.688  1.00  0.00     0.020 A 
ATOM     91  Cl  UNL A   1      45.129  33.034  36.407  1.00  0.00    -0.084 Cl
ENDBRANCH  82  85
BRANCH  84  92
ATOM     92  C   UNL A   1      39.790  35.360  36.662  1.00  0.00     0.067 A 
ATOM     93  C   UNL A   1      39.114  34.828  37.763  1.00  0.00     0.029 A 
ATOM     94  C   UNL A   1      40.777  36.339  36.839  1.00  0.00     0.029 A 
ATOM     95  C   UNL A   1      39.515  35.199  39.050  1.00  0.00     0.015 A 
ATOM     96  C   UNL A   1      41.150  36.725  38.123  1.00  0.00     0.015 A 
ATOM     97  C   UNL A   1      40.548  36.134  39.242  1.00  0.00     0.056 A 
BRANCH  97  98
ATOM     98  C   UNL A   1      41.027  36.463  40.636  1.00  0.00     0.416 C 
ATOM     99  F   UNL A   1      40.074  36.233  41.580  1.00  0.00    -0.166 F 
ATOM    100  F   UNL A   1      42.105  35.715  41.000  1.00  0.00    -0.166 F 
ATOM    101  F   UNL A   1      41.401  37.763  40.792  1.00  0.00    -0.166 F 
ENDBRANCH  97  98
ENDBRANCH  84  92
ENDBRANCH  77  80
ENDBRANCH  75  76
ENDBRANCH  74  75
ENDBRANCH  73  74
ENDBRANCH   1  73
TORSDOF 19
ENDMDL
MODEL 2
REMARK VINA RESULT:      -9.5      4.005     10.828
REMARK SMILES O=C(NCCCCCCNC(=O)c1nnn(-c2ccc(C(F)(F)F)cc2)c1-c1cccc(Cl)c1)c1ccc(-c2c3nc(c(-c4cccc(S(=O)(=O)[O-])c4F)c4ccc([nH]4)c(-c4cccc(S(=O)(=O)[O-])c4F)c4nc(c(-c5cccc(S(=O)(=O)[O-])c5F)c5ccc2[nH]5)C=C4)C=C3)cc1
REMARK SMILES IDX 6 1 5 2 4 3 3 4 1 5 2 6 35 8 36 9 97 10 37 11 96 12 38 13
REMARK SMILES IDX 39 14 40 15 90 16 41 17 95 18 89 19 91 20 42 21 94 22 88 23
REMARK SMILES IDX 87 24 43 26 75 27 55 28 74 29 56 30 59 31 73 32 92 33 57 34
REMARK SMILES IDX 58 35 72 37 93 38 60 39 44 40 45 41 53 42 46 43 48 44 54 45
REMARK SMILES IDX 47 46 49 47 50 48 51 49 52 50 76 51 77 52 85 53 78 54 80 55
REMARK SMILES IDX 86 56 79 57 81 58 82 59 83 60 84 61 61 62 62 63 70 64 63 65
REMARK SMILES IDX 65 66 71 67 64 68 66 69 67 70 68 71 69 72 7 73 8 74 9 75
REMARK SMILES IDX 10 76 11 77 12 79 13 80 14 81 27 82 15 83 16 84 28 85 29 86
REMARK SMILES IDX 34 87 30 88 32 89 31 90 33 91 17 92 18 93 26 94 19 95 25 96
REMARK SMILES IDX 20 97 21 98 22 99 23 100 24 101
REMARK H PARENT 3 7 91 25 59 36 10 78
REMARK Flexibility Score: inf
ROOT
ATOM      1  C   UNL A   1      46.712  23.810  26.303  1.00  0.00     0.002 C 
ENDROOT
BRANCH   1   2
ATOM      2  C   UNL A   1      46.675  24.689  25.046  1.00  0.00     0.021 C 
BRANCH   2   3
ATOM      3  C   UNL A   1      45.577  25.754  25.028  1.00  0.00     0.116 C 
BRANCH   3   4
ATOM      4  N   UNL A   1      46.018  27.051  24.568  1.00  0.00    -0.352 N 
ATOM      5  O   UNL A   1      46.638  29.159  24.439  1.00  0.00    -0.269 OA
ATOM      6  C   UNL A   1      46.061  28.303  25.116  1.00  0.00     0.251 C 
ATOM      7  H   UNL A   1      46.366  27.028  23.648  1.00  0.00     0.163 HD
BRANCH   6   8
ATOM      8  C   UNL A   1      45.434  28.698  26.407  1.00  0.00     0.039 A 
ATOM      9  C   UNL A   1      44.064  28.725  26.673  1.00  0.00     0.014 A 
ATOM     10  C   UNL A   1      46.320  29.101  27.424  1.00  0.00     0.014 A 
ATOM     11  C   UNL A   1      43.585  29.204  27.888  1.00  0.00     0.010 A 
ATOM     12  C   UNL A   1      45.850  29.565  28.648  1.00  0.00     0.010 A 
ATOM     13  C   UNL A   1      44.477  29.643  28.865  1.00  0.00    -0.014 A 
BRANCH  13  14
ATOM     14  C   UNL A   1      43.923  30.060  30.149  1.00  0.00     0.031 A 
ATOM     15  C   UNL A   1      43.620  28.954  31.105  1.00  0.00     0.074 A 
ATOM     16  C   UNL A   1      43.820  31.349  30.525  1.00  0.00     0.049 A 
ATOM     17  N   UNL A   1      42.489  28.650  31.657  1.00  0.00    -0.248 NA
ATOM     18  C   UNL A   1      44.706  28.009  31.407  1.00  0.00     0.031 C 
ATOM     19  C   UNL A   1      44.371  32.520  29.835  1.00  0.00     0.029 A 
ATOM     20  N   UNL A   1      43.331  31.870  31.688  1.00  0.00    -0.354 N 
ATOM     21  C   UNL A   1      42.769  27.607  32.544  1.00  0.00     0.074 A 
ATOM     22  C   UNL A   1      44.098  27.156  32.230  1.00  0.00     0.031 C 
ATOM     23  C   UNL A   1      44.416  33.556  30.701  1.00  0.00     0.029 A 
ATOM     24  C   UNL A   1      43.784  33.158  31.945  1.00  0.00     0.049 A 
ATOM     25  H   UNL A   1      42.719  31.381  32.285  1.00  0.00     0.167 HD
ATOM     26  C   UNL A   1      41.974  27.335  33.616  1.00  0.00     0.034 A 
ATOM     27  C   UNL A   1      43.728  33.815  33.129  1.00  0.00     0.034 A 
ATOM     28  C   UNL A   1      40.664  27.913  33.471  1.00  0.00     0.049 A 
ATOM     29  C   UNL A   1      42.710  33.154  33.972  1.00  0.00     0.074 A 
ATOM     30  C   UNL A   1      39.631  27.806  32.563  1.00  0.00     0.029 A 
ATOM     31  N   UNL A   1      40.376  29.013  34.238  1.00  0.00    -0.354 N 
ATOM     32  N   UNL A   1      41.430  33.181  33.727  1.00  0.00    -0.248 NA
ATOM     33  C   UNL A   1      43.146  32.143  34.921  1.00  0.00     0.031 C 
ATOM     34  C   UNL A   1      39.034  29.100  32.529  1.00  0.00     0.029 A 
ATOM     35  C   UNL A   1      39.724  29.907  33.436  1.00  0.00     0.049 A 
ATOM     36  H   UNL A   1      40.597  29.137  35.190  1.00  0.00     0.167 HD
ATOM     37  C   UNL A   1      40.974  31.936  34.135  1.00  0.00     0.074 A 
ATOM     38  C   UNL A   1      42.038  31.401  34.979  1.00  0.00     0.031 C 
ATOM     39  C   UNL A   1      39.911  31.338  33.518  1.00  0.00     0.034 A 
BRANCH  26  40
ATOM     40  C   UNL A   1      42.471  26.862  34.973  1.00  0.00     0.023 A 
ATOM     41  C   UNL A   1      41.690  25.887  35.641  1.00  0.00     0.012 A 
ATOM     42  C   UNL A   1      43.454  27.521  35.744  1.00  0.00     0.148 A 
ATOM     43  C   UNL A   1      41.812  25.654  37.015  1.00  0.00     0.002 A 
ATOM     44  C   UNL A   1      43.624  27.230  37.095  1.00  0.00     0.091 A 
ATOM     45  F   UNL A   1      44.156  28.531  35.227  1.00  0.00    -0.205 F 
ATOM     46  C   UNL A   1      42.781  26.328  37.745  1.00  0.00     0.022 A 
BRANCH  44  47
ATOM     47  S   UNL A   1      44.902  28.037  38.069  1.00  0.00     0.127 S 
ATOM     48  O   UNL A   1      44.415  29.411  38.105  1.00  0.00    -0.237 OA
ATOM     49  O   UNL A   1      44.817  27.314  39.339  1.00  0.00    -0.237 OA
ATOM     50  O   UNL A   1      46.142  27.806  37.338  1.00  0.00    -0.744 OA
ENDBRANCH  44  47
ENDBRANCH  26  40
BRANCH  27  51
ATOM     51  C   UNL A   1      44.661  34.825  33.678  1.00  0.00     0.023 A 
ATOM     52  C   UNL A   1      44.196  36.124  33.961  1.00  0.00     0.012 A 
ATOM     53  C   UNL A   1      45.934  34.451  34.160  1.00  0.00     0.148 A 
ATOM     54  C   UNL A   1      44.965  37.013  34.722  1.00  0.00     0.002 A 
ATOM     55  C   UNL A   1      46.702  35.342  34.903  1.00  0.00     0.091 A 
ATOM     56  F   UNL A   1      46.351  33.192  33.974  1.00  0.00    -0.205 F 
ATOM     57  C   UNL A   1      46.215  36.621  35.197  1.00  0.00     0.022 A 
BRANCH  55  58
ATOM     58  S   UNL A   1      48.319  34.900  35.551  1.00  0.00     0.127 S 
ATOM     59  O   UNL A   1      48.017  34.622  36.955  1.00  0.00    -0.237 OA
ATOM     60  O   UNL A   1      48.654  33.724  34.753  1.00  0.00    -0.237 OA
ATOM     61  O   UNL A   1      49.163  36.070  35.344  1.00  0.00    -0.744 OA
ENDBRANCH  55  58
ENDBRANCH  27  51
BRANCH  39  62
ATOM     62  C   UNL A   1      39.056  32.169  32.596  1.00  0.00     0.023 A 
ATOM     63  C   UNL A   1      39.264  32.182  31.200  1.00  0.00     0.012 A 
ATOM     64  C   UNL A   1      37.911  32.793  33.120  1.00  0.00     0.148 A 
ATOM     65  C   UNL A   1      38.364  32.827  30.349  1.00  0.00     0.002 A 
ATOM     66  C   UNL A   1      36.991  33.388  32.265  1.00  0.00     0.091 A 
ATOM     67  F   UNL A   1      37.722  32.764  34.447  1.00  0.00    -0.205 F 
ATOM     68  C   UNL A   1      37.220  33.417  30.880  1.00  0.00     0.022 A 
BRANCH  66  69
ATOM     69  S   UNL A   1      35.428  34.032  32.867  1.00  0.00     0.127 S 
ATOM     70  O   UNL A   1      35.819  35.333  33.404  1.00  0.00    -0.237 OA
ATOM     71  O   UNL A   1      34.621  34.091  31.647  1.00  0.00    -0.237 OA
ATOM     72  O   UNL A   1      34.949  33.065  33.847  1.00  0.00    -0.744 OA
ENDBRANCH  66  69
ENDBRANCH  39  62
ENDBRANCH  13  14
ENDBRANCH   6   8
ENDBRANCH   3   4
ENDBRANCH   2   3
ENDBRANCH   1   2
BRANCH   1  73
ATOM     73  C   UNL A   1      45.811  22.570  26.287  1.00  0.00     0.002 C 
BRANCH  73  74
ATOM     74  C   UNL A   1      45.247  22.173  24.920  1.00  0.00     0.021 C 
BRANCH  74  75
ATOM     75  C   UNL A   1      43.752  21.885  24.906  1.00  0.00     0.116 C 
BRANCH  75  76
ATOM     76  N   UNL A   1      43.373  20.839  25.836  1.00  0.00    -0.351 N 
ATOM     77  C   UNL A   1      42.331  20.833  26.735  1.00  0.00     0.274 C 
ATOM     78  H   UNL A   1      43.933  20.029  25.824  1.00  0.00     0.163 HD
ATOM     79  O   UNL A   1      42.221  19.889  27.517  1.00  0.00    -0.267 OA
BRANCH  77  80
ATOM     80  C   UNL A   1      41.393  21.945  26.734  1.00  0.00     0.178 A 
ATOM     81  N   UNL A   1      40.123  21.827  26.224  1.00  0.00    -0.124 NA
ATOM     82  C   UNL A   1      41.555  23.214  27.276  1.00  0.00     0.108 A 
ATOM     83  N   UNL A   1      39.460  22.944  26.494  1.00  0.00    -0.061 NA
ATOM     84  N   UNL A   1      40.336  23.832  27.016  1.00  0.00    -0.212 N 
BRANCH  82  85
ATOM     85  C   UNL A   1      42.615  23.775  28.114  1.00  0.00     0.004 A 
ATOM     86  C   UNL A   1      43.401  24.836  27.625  1.00  0.00     0.010 A 
ATOM     87  C   UNL A   1      42.846  23.295  29.405  1.00  0.00     0.031 A 
ATOM     88  C   UNL A   1      44.412  25.396  28.404  1.00  0.00     0.002 A 
ATOM     89  C   UNL A   1      43.864  23.859  30.179  1.00  0.00     0.041 A 
ATOM     90  C   UNL A   1      44.646  24.903  29.684  1.00  0.00     0.020 A 
ATOM     91  Cl  UNL A   1      44.159  23.251  31.761  1.00  0.00    -0.084 Cl
ENDBRANCH  82  85
BRANCH  84  92
ATOM     92  C   UNL A   1      39.956  25.155  27.340  1.00  0.00     0.067 A 
ATOM     93  C   UNL A   1      39.249  25.399  28.520  1.00  0.00     0.029 A 
ATOM     94  C   UNL A   1      40.400  26.219  26.543  1.00  0.00     0.029 A 
ATOM     95  C   UNL A   1      39.091  26.717  28.956  1.00  0.00     0.015 A 
ATOM     96  C   UNL A   1      40.214  27.531  26.970  1.00  0.00     0.015 A 
ATOM     97  C   UNL A   1      39.589  27.793  28.197  1.00  0.00     0.056 A 
BRANCH  97  98
ATOM     98  C   UNL A   1      39.486  29.205  28.721  1.00  0.00     0.416 C 
ATOM     99  F   UNL A   1      40.616  29.602  29.370  1.00  0.00    -0.166 F 
ATOM    100  F   UNL A   1      39.288  30.111  27.724  1.00  0.00    -0.166 F 
ATOM    101  F   UNL A   1      38.465  29.388  29.604  1.00  0.00    -0.166 F 
ENDBRANCH  97  98
ENDBRANCH  84  92
ENDBRANCH  77  80
ENDBRANCH  75  76
ENDBRANCH  74  75
ENDBRANCH  73  74
ENDBRANCH   1  73
TORSDOF 19
ENDMDL
MODEL 3
REMARK VINA RESULT:      -9.3      3.896     11.906
REMARK SMILES O=C(NCCCCCCNC(=O)c1nnn(-c2ccc(C(F)(F)F)cc2)c1-c1cccc(Cl)c1)c1ccc(-c2c3nc(c(-c4cccc(S(=O)(=O)[O-])c4F)c4ccc([nH]4)c(-c4cccc(S(=O)(=O)[O-])c4F)c4nc(c(-c5cccc(S(=O)(=O)[O-])c5F)c5ccc2[nH]5)C=C4)C=C3)cc1
REMARK SMILES IDX 6 1 5 2 4 3 3 4 1 5 2 6 35 8 36 9 97 10 37 11 96 12 38 13
REMARK SMILES IDX 39 14 40 15 90 16 41 17 95 18 89 19 91 20 42 21 94 22 88 23
REMARK SMILES IDX 87 24 43 26 75 27 55 28 74 29 56 30 59 31 73 32 92 33 57 34
REMARK SMILES IDX 58 35 72 37 93 38 60 39 44 40 45 41 53 42 46 43 48 44 54 45
REMARK SMILES IDX 47 46 49 47 50 48 51 49 52 50 76 51 77 52 85 53 78 54 80 55
REMARK SMILES IDX 86 56 79 57 81 58 82 59 83 60 84 61 61 62 62 63 70 64 63 65
REMARK SMILES IDX 65 66 71 67 64 68 66 69 67 70 68 71 69 72 7 73 8 74 9 75
REMARK SMILES IDX 10 76 11 77 12 79 13 80 14 81 27 82 15 83 16 84 28 85 29 86
REMARK SMILES IDX 34 87 30 88 32 89 31 90 33 91 17 92 18 93 26 94 19 95 25 96
REMARK SMILES IDX 20 97 21 98 22 99 23 100 24 101
REMARK H PARENT 3 7 91 25 59 36 10 78
REMARK Flexibility Score: inf
ROOT
ATOM      1  C   UNL A   1      45.074  24.557  25.758  1.00  0.00     0.002 C 
ENDROOT
BRANCH   1   2
ATOM      2  C   UNL A   1      44.385  23.194  25.897  1.00  0.00     0.021 C 
BRANCH   2   3
ATOM      3  C   UNL A   1      43.140  23.001  25.031  1.00  0.00     0.116 C 
BRANCH   3   4
ATOM      4  N   UNL A   1      42.018  22.413  25.727  1.00  0.00    -0.352 N 
ATOM      5  O   UNL A   1      40.162  22.082  26.863  1.00  0.00    -0.269 OA
ATOM      6  C   UNL A   1      41.045  22.890  26.562  1.00  0.00     0.251 C 
ATOM      7  H   UNL A   1      41.936  21.446  25.563  1.00  0.00     0.163 HD
BRANCH   6   8
ATOM      8  C   UNL A   1      41.012  24.257  27.149  1.00  0.00     0.039 A 
ATOM      9  C   UNL A   1      40.436  25.383  26.560  1.00  0.00     0.014 A 
ATOM     10  C   UNL A   1      41.647  24.406  28.397  1.00  0.00     0.014 A 
ATOM     11  C   UNL A   1      40.549  26.634  27.158  1.00  0.00     0.010 A 
ATOM     12  C   UNL A   1      41.750  25.651  29.009  1.00  0.00     0.010 A 
ATOM     13  C   UNL A   1      41.223  26.770  28.371  1.00  0.00    -0.014 A 
BRANCH  13  14
ATOM     14  C   UNL A   1      41.241  28.091  28.991  1.00  0.00     0.031 A 
ATOM     15  C   UNL A   1      42.271  29.033  28.463  1.00  0.00     0.074 A 
ATOM     16  C   UNL A   1      40.310  28.503  29.873  1.00  0.00     0.049 A 
ATOM     17  N   UNL A   1      43.221  29.635  29.106  1.00  0.00    -0.248 NA
ATOM     18  C   UNL A   1      42.298  29.255  27.009  1.00  0.00     0.031 C 
ATOM     19  C   UNL A   1      39.067  27.816  30.237  1.00  0.00     0.029 A 
ATOM     20  N   UNL A   1      40.207  29.703  30.516  1.00  0.00    -0.354 N 
ATOM     21  C   UNL A   1      43.831  30.480  28.174  1.00  0.00     0.074 A 
ATOM     22  C   UNL A   1      43.332  30.087  26.884  1.00  0.00     0.031 C 
ATOM     23  C   UNL A   1      38.230  28.704  30.817  1.00  0.00     0.029 A 
ATOM     24  C   UNL A   1      38.923  29.969  30.978  1.00  0.00     0.049 A 
ATOM     25  H   UNL A   1      40.965  30.318  30.640  1.00  0.00     0.167 HD
ATOM     26  C   UNL A   1      44.534  31.584  28.551  1.00  0.00     0.034 A 
ATOM     27  C   UNL A   1      38.438  31.170  31.375  1.00  0.00     0.034 A 
ATOM     28  C   UNL A   1      44.929  31.521  29.933  1.00  0.00     0.049 A 
ATOM     29  C   UNL A   1      39.585  32.048  31.687  1.00  0.00     0.074 A 
ATOM     30  C   UNL A   1      45.684  30.666  30.708  1.00  0.00     0.029 A 
ATOM     31  N   UNL A   1      44.257  32.329  30.815  1.00  0.00    -0.354 N 
ATOM     32  N   UNL A   1      40.387  31.869  32.699  1.00  0.00    -0.248 NA
ATOM     33  C   UNL A   1      40.070  32.947  30.654  1.00  0.00     0.031 C 
ATOM     34  C   UNL A   1      45.072  30.694  31.995  1.00  0.00     0.029 A 
ATOM     35  C   UNL A   1      43.998  31.585  31.931  1.00  0.00     0.049 A 
ATOM     36  H   UNL A   1      44.007  33.271  30.672  1.00  0.00     0.167 HD
ATOM     37  C   UNL A   1      41.630  32.269  32.231  1.00  0.00     0.074 A 
ATOM     38  C   UNL A   1      41.349  33.044  31.026  1.00  0.00     0.031 C 
ATOM     39  C   UNL A   1      42.777  31.693  32.698  1.00  0.00     0.034 A 
BRANCH  26  40
ATOM     40  C   UNL A   1      44.561  32.901  27.793  1.00  0.00     0.023 A 
ATOM     41  C   UNL A   1      43.634  33.053  26.732  1.00  0.00     0.012 A 
ATOM     42  C   UNL A   1      45.612  33.844  27.853  1.00  0.00     0.148 A 
ATOM     43  C   UNL A   1      43.801  34.020  25.735  1.00  0.00     0.002 A 
ATOM     44  C   UNL A   1      45.729  34.854  26.901  1.00  0.00     0.091 A 
ATOM     45  F   UNL A   1      46.591  33.710  28.750  1.00  0.00    -0.205 F 
ATOM     46  C   UNL A   1      44.851  34.923  25.819  1.00  0.00     0.022 A 
BRANCH  44  47
ATOM     47  S   UNL A   1      47.041  36.079  27.000  1.00  0.00     0.127 S 
ATOM     48  O   UNL A   1      46.794  36.663  28.314  1.00  0.00    -0.237 OA
ATOM     49  O   UNL A   1      48.240  35.246  26.906  1.00  0.00    -0.237 OA
ATOM     50  O   UNL A   1      46.835  36.953  25.851  1.00  0.00    -0.744 OA
ENDBRANCH  44  47
ENDBRANCH  26  40
BRANCH  27  51
ATOM     51  C   UNL A   1      37.057  31.695  31.275  1.00  0.00     0.023 A 
ATOM     52  C   UNL A   1      36.426  32.222  32.418  1.00  0.00     0.012 A 
ATOM     53  C   UNL A   1      36.454  31.914  30.017  1.00  0.00     0.148 A 
ATOM     54  C   UNL A   1      35.243  32.963  32.309  1.00  0.00     0.002 A 
ATOM     55  C   UNL A   1      35.271  32.639  29.914  1.00  0.00     0.091 A 
ATOM     56  F   UNL A   1      37.088  31.495  28.914  1.00  0.00    -0.205 F 
ATOM     57  C   UNL A   1      34.668  33.176  31.058  1.00  0.00     0.022 A 
BRANCH  55  58
ATOM     58  S   UNL A   1      34.480  32.956  28.331  1.00  0.00     0.127 S 
ATOM     59  O   UNL A   1      35.580  33.522  27.551  1.00  0.00    -0.237 OA
ATOM     60  O   UNL A   1      34.067  31.615  27.925  1.00  0.00    -0.237 OA
ATOM     61  O   UNL A   1      33.401  33.896  28.609  1.00  0.00    -0.744 OA
ENDBRANCH  55  58
ENDBRANCH  27  51
BRANCH  39  62
ATOM     62  C   UNL A   1      42.698  30.837  33.936  1.00  0.00     0.023 A 
ATOM     63  C   UNL A   1      42.735  31.397  35.230  1.00  0.00     0.012 A 
ATOM     64  C   UNL A   1      42.389  29.473  33.793  1.00  0.00     0.148 A 
ATOM     65  C   UNL A   1      42.496  30.608  36.358  1.00  0.00     0.002 A 
ATOM     66  C   UNL A   1      42.101  28.704  34.913  1.00  0.00     0.091 A 
ATOM     67  F   UNL A   1      42.348  28.957  32.555  1.00  0.00    -0.205 F 
ATOM     68  C   UNL A   1      42.165  29.265  36.199  1.00  0.00     0.022 A 
BRANCH  66  69
ATOM     69  S   UNL A   1      41.523  27.011  34.768  1.00  0.00     0.127 S 
ATOM     70  O   UNL A   1      41.137  26.700  36.143  1.00  0.00    -0.237 OA
ATOM     71  O   UNL A   1      40.404  27.140  33.833  1.00  0.00    -0.237 OA
ATOM     72  O   UNL A   1      42.649  26.249  34.242  1.00  0.00    -0.744 OA
ENDBRANCH  66  69
ENDBRANCH  39  62
ENDBRANCH  13  14
ENDBRANCH   6   8
ENDBRANCH   3   4
ENDBRANCH   2   3
ENDBRANCH   1   2
BRANCH   1  73
ATOM     73  C   UNL A   1      44.313  25.759  26.329  1.00  0.00     0.002 C 
BRANCH  73  74
ATOM     74  C   UNL A   1      44.861  26.337  27.637  1.00  0.00     0.021 C 
BRANCH  74  75
ATOM     75  C   UNL A   1      45.330  25.299  28.646  1.00  0.00     0.116 C 
BRANCH  75  76
ATOM     76  N   UNL A   1      46.301  25.829  29.585  1.00  0.00    -0.351 N 
ATOM     77  C   UNL A   1      47.644  26.051  29.387  1.00  0.00     0.274 C 
ATOM     78  H   UNL A   1      45.955  26.059  30.477  1.00  0.00     0.163 HD
ATOM     79  O   UNL A   1      48.336  26.419  30.337  1.00  0.00    -0.267 OA
BRANCH  77  80
ATOM     80  C   UNL A   1      48.206  25.844  28.061  1.00  0.00     0.178 A 
ATOM     81  N   UNL A   1      48.451  24.589  27.561  1.00  0.00    -0.124 NA
ATOM     82  C   UNL A   1      48.504  26.792  27.090  1.00  0.00     0.108 A 
ATOM     83  N   UNL A   1      48.817  24.709  26.292  1.00  0.00    -0.061 NA
ATOM     84  N   UNL A   1      48.971  26.026  26.027  1.00  0.00    -0.212 N 
BRANCH  82  85
ATOM     85  C   UNL A   1      48.227  28.228  27.029  1.00  0.00     0.004 A 
ATOM     86  C   UNL A   1      47.140  28.695  26.266  1.00  0.00     0.010 A 
ATOM     87  C   UNL A   1      49.007  29.146  27.736  1.00  0.00     0.031 A 
ATOM     88  C   UNL A   1      46.847  30.056  26.196  1.00  0.00     0.002 A 
ATOM     89  C   UNL A   1      48.710  30.508  27.658  1.00  0.00     0.041 A 
ATOM     90  C   UNL A   1      47.637  30.966  26.892  1.00  0.00     0.020 A 
ATOM     91  Cl  UNL A   1      49.686  31.637  28.514  1.00  0.00    -0.084 Cl
ENDBRANCH  82  85
BRANCH  84  92
ATOM     92  C   UNL A   1      49.434  26.487  24.773  1.00  0.00     0.067 A 
ATOM     93  C   UNL A   1      48.551  26.546  23.692  1.00  0.00     0.029 A 
ATOM     94  C   UNL A   1      50.734  26.999  24.658  1.00  0.00     0.029 A 
ATOM     95  C   UNL A   1      48.940  27.224  22.534  1.00  0.00     0.015 A 
ATOM     96  C   UNL A   1      51.124  27.649  23.490  1.00  0.00     0.015 A 
ATOM     97  C   UNL A   1      50.220  27.799  22.429  1.00  0.00     0.056 A 
BRANCH  97  98
ATOM     98  C   UNL A   1      50.597  28.601  21.207  1.00  0.00     0.416 C 
ATOM     99  F   UNL A   1      49.670  29.551  20.903  1.00  0.00    -0.166 F 
ATOM    100  F   UNL A   1      51.775  29.264  21.369  1.00  0.00    -0.166 F 
ATOM    101  F   UNL A   1      50.741  27.847  20.082  1.00  0.00    -0.166 F 
ENDBRANCH  97  98
ENDBRANCH  84  92
ENDBRANCH  77  80
ENDBRANCH  75  76
ENDBRANCH  74  75
ENDBRANCH  73  74
ENDBRANCH   1  73
TORSDOF 19
ENDMDL
