MODEL 1
REMARK VINA RESULT:     -12.1      0.000      0.000
REMARK SMILES Cc1cccc(-c2cc(OCC(=O)NCCCCCCNC(=O)c3ccc(-c4c5nc(c(-c6cccc(S(=O)(=O)[O-])c6F)c6ccc([nH]6)c(-c6cccc(S(=O)(=O)[O-])c6F)c6nc(c(-c7cccc(S(=O)(=O)[O-])c7F)c7ccc4[nH]7)C=C6)C=C5)cc3)nc(Nc3ccccc3C)n2)c1
REMARK SMILES IDX 17 1 16 2 15 3 14 4 12 5 13 6 11 8 10 9 9 10 7 11 8 12 97 13
REMARK SMILES IDX 88 14 87 15 6 16 1 17 2 18 3 19 98 20 4 21 5 22 89 23 90 25
REMARK SMILES IDX 91 26 95 27 92 28 94 29 96 30 93 31 18 32 19 33 20 34 21 35
REMARK SMILES IDX 22 36 23 38 24 39 25 40 86 41 26 42 85 43 27 44 28 45 29 46
REMARK SMILES IDX 79 47 30 48 84 49 78 50 80 51 31 52 83 53 77 54 76 55 32 57
REMARK SMILES IDX 64 58 44 59 63 60 45 61 48 62 62 63 81 64 46 65 47 66 61 68
REMARK SMILES IDX 82 69 49 70 33 71 34 72 42 73 35 74 37 75 43 76 36 77 38 78
REMARK SMILES IDX 39 79 40 80 41 81 65 82 66 83 74 84 67 85 69 86 75 87 68 88
REMARK SMILES IDX 70 89 71 90 72 91 73 92 50 93 51 94 59 95 52 96 54 97 60 98
REMARK SMILES IDX 53 99 55 100 56 101 57 102 58 103
REMARK H PARENT 14 7 89 24 21 37 80 56 48 67
REMARK Flexibility Score: inf
ROOT
ATOM      1  C   UNL A   1      31.636  28.037  26.778  1.00  0.00     0.002 C 
ENDROOT
BRANCH   1   2
ATOM      2  C   UNL A   1      31.089  27.717  25.381  1.00  0.00     0.021 C 
BRANCH   2   3
ATOM      3  C   UNL A   1      31.916  26.736  24.554  1.00  0.00     0.116 C 
BRANCH   3   4
ATOM      4  N   UNL A   1      32.839  27.406  23.665  1.00  0.00    -0.353 N 
ATOM      5  C   UNL A   1      33.320  26.962  22.473  1.00  0.00     0.258 C 
ATOM      6  O   UNL A   1      34.037  27.709  21.803  1.00  0.00    -0.271 OA
ATOM      7  H   UNL A   1      33.160  28.288  23.959  1.00  0.00     0.163 HD
BRANCH   5   8
ATOM      8  C   UNL A   1      32.945  25.557  21.979  1.00  0.00     0.331 C 
BRANCH   8   9
ATOM      9  O   UNL A   1      32.267  24.695  22.878  1.00  0.00    -0.467 OA
BRANCH   9  10
ATOM     10  C   UNL A   1      32.956  23.637  23.400  1.00  0.00     0.219 A 
ATOM     11  C   UNL A   1      34.770  22.531  24.355  1.00  0.00     0.080 A 
ATOM     12  C   UNL A   1      34.264  23.685  23.811  1.00  0.00     0.097 A 
ATOM     13  N   UNL A   1      34.054  21.405  24.435  1.00  0.00    -0.212 NA
ATOM     14  C   UNL A   1      32.783  21.431  24.013  1.00  0.00     0.231 A 
ATOM     15  N   UNL A   1      32.211  22.521  23.482  1.00  0.00    -0.177 NA
BRANCH  11  16
ATOM     16  C   UNL A   1      36.121  22.476  24.912  1.00  0.00     0.001 A 
ATOM     17  C   UNL A   1      38.490  24.722  26.891  1.00  0.00     0.044 C 
ATOM     18  C   UNL A   1      37.947  23.547  26.134  1.00  0.00    -0.050 A 
ATOM     19  C   UNL A   1      38.734  22.407  25.936  1.00  0.00     0.003 A 
ATOM     20  C   UNL A   1      36.648  23.575  25.612  1.00  0.00     0.013 A 
ATOM     21  C   UNL A   1      38.220  21.304  25.255  1.00  0.00     0.001 A 
ATOM     22  C   UNL A   1      36.917  21.334  24.756  1.00  0.00     0.010 A 
ENDBRANCH  11  16
BRANCH  14  23
ATOM     23  N   UNL A   1      32.019  20.268  24.084  1.00  0.00    -0.324 N 
ATOM     24  H   UNL A   1      31.046  20.370  23.987  1.00  0.00     0.170 HD
BRANCH  23  25
ATOM     25  C   UNL A   1      32.503  18.966  24.278  1.00  0.00     0.044 A 
ATOM     26  C   UNL A   1      32.740  18.527  25.590  1.00  0.00     0.026 A 
ATOM     27  C   UNL A   1      32.660  18.053  23.214  1.00  0.00    -0.027 A 
ATOM     28  C   UNL A   1      33.071  17.196  25.853  1.00  0.00     0.002 A 
ATOM     29  C   UNL A   1      32.983  16.715  23.494  1.00  0.00     0.005 A 
ATOM     30  C   UNL A   1      32.539  18.486  21.777  1.00  0.00     0.046 C 
ATOM     31  C   UNL A   1      33.177  16.287  24.807  1.00  0.00     0.000 A 
ENDBRANCH  23  25
ENDBRANCH  14  23
ENDBRANCH   9  10
ENDBRANCH   8   9
ENDBRANCH   5   8
ENDBRANCH   3   4
ENDBRANCH   2   3
ENDBRANCH   1   2
BRANCH   1  32
ATOM     32  C   UNL A   1      32.210  29.446  26.993  1.00  0.00     0.002 C 
BRANCH  32  33
ATOM     33  C   UNL A   1      33.559  29.740  26.340  1.00  0.00     0.021 C 
BRANCH  33  34
ATOM     34  C   UNL A   1      34.759  29.410  27.204  1.00  0.00     0.116 C 
BRANCH  34  35
ATOM     35  N   UNL A   1      35.577  30.568  27.477  1.00  0.00    -0.352 N 
ATOM     36  C   UNL A   1      36.795  30.639  28.118  1.00  0.00     0.251 C 
ATOM     37  H   UNL A   1      35.215  31.426  27.158  1.00  0.00     0.163 HD
ATOM     38  O   UNL A   1      37.118  31.716  28.614  1.00  0.00    -0.269 OA
BRANCH  36  39
ATOM     39  C   UNL A   1      37.758  29.508  28.033  1.00  0.00     0.039 A 
ATOM     40  C   UNL A   1      37.902  28.729  29.191  1.00  0.00     0.014 A 
ATOM     41  C   UNL A   1      38.689  29.388  27.006  1.00  0.00     0.014 A 
ATOM     42  C   UNL A   1      39.105  28.075  29.441  1.00  0.00     0.010 A 
ATOM     43  C   UNL A   1      39.904  28.806  27.273  1.00  0.00     0.010 A 
ATOM     44  C   UNL A   1      40.135  28.237  28.526  1.00  0.00    -0.014 A 
BRANCH  44  45
ATOM     45  C   UNL A   1      41.523  27.905  28.769  1.00  0.00     0.031 A 
ATOM     46  C   UNL A   1      42.022  26.569  28.426  1.00  0.00     0.074 A 
ATOM     47  C   UNL A   1      42.355  28.932  29.055  1.00  0.00     0.049 A 
ATOM     48  N   UNL A   1      43.199  26.147  28.726  1.00  0.00    -0.248 NA
ATOM     49  C   UNL A   1      41.202  25.574  27.744  1.00  0.00     0.031 C 
ATOM     50  C   UNL A   1      43.800  28.990  28.883  1.00  0.00     0.029 A 
ATOM     51  N   UNL A   1      42.051  30.100  29.764  1.00  0.00    -0.354 N 
ATOM     52  C   UNL A   1      43.403  24.984  28.020  1.00  0.00     0.074 A 
ATOM     53  C   UNL A   1      42.094  24.596  27.559  1.00  0.00     0.031 C 
ATOM     54  C   UNL A   1      44.289  29.951  29.682  1.00  0.00     0.029 A 
ATOM     55  C   UNL A   1      43.192  30.383  30.533  1.00  0.00     0.049 A 
ATOM     56  H   UNL A   1      41.212  30.616  29.731  1.00  0.00     0.167 HD
ATOM     57  C   UNL A   1      44.685  24.593  27.786  1.00  0.00     0.034 A 
ATOM     58  C   UNL A   1      43.196  30.346  31.900  1.00  0.00     0.034 A 
ATOM     59  C   UNL A   1      45.616  25.372  28.618  1.00  0.00     0.049 A 
ATOM     60  C   UNL A   1      44.192  29.342  32.461  1.00  0.00     0.074 A 
ATOM     61  C   UNL A   1      46.464  26.436  28.362  1.00  0.00     0.029 A 
ATOM     62  N   UNL A   1      45.526  25.269  30.005  1.00  0.00    -0.354 N 
ATOM     63  N   UNL A   1      44.837  28.463  31.743  1.00  0.00    -0.248 NA
ATOM     64  C   UNL A   1      44.524  29.239  33.878  1.00  0.00     0.031 C 
ATOM     65  C   UNL A   1      46.778  27.051  29.609  1.00  0.00     0.029 A 
ATOM     66  C   UNL A   1      46.167  26.331  30.624  1.00  0.00     0.049 A 
ATOM     67  H   UNL A   1      45.068  24.540  30.481  1.00  0.00     0.167 HD
ATOM     68  C   UNL A   1      45.536  27.610  32.558  1.00  0.00     0.074 A 
ATOM     69  C   UNL A   1      45.376  28.197  33.879  1.00  0.00     0.031 C 
ATOM     70  C   UNL A   1      46.124  26.466  32.081  1.00  0.00     0.034 A 
BRANCH  57  71
ATOM     71  C   UNL A   1      45.153  23.663  26.673  1.00  0.00     0.023 A 
ATOM     72  C   UNL A   1      46.134  24.170  25.790  1.00  0.00     0.012 A 
ATOM     73  C   UNL A   1      44.638  22.381  26.345  1.00  0.00     0.148 A 
ATOM     74  C   UNL A   1      46.558  23.474  24.650  1.00  0.00     0.002 A 
ATOM     75  C   UNL A   1      45.098  21.662  25.236  1.00  0.00     0.091 A 
ATOM     76  F   UNL A   1      43.637  21.856  27.048  1.00  0.00    -0.205 F 
ATOM     77  C   UNL A   1      46.047  22.215  24.376  1.00  0.00     0.022 A 
BRANCH  75  78
ATOM     78  S   UNL A   1      44.500  20.007  24.838  1.00  0.00     0.127 S 
ATOM     79  O   UNL A   1      44.741  19.931  23.397  1.00  0.00    -0.237 OA
ATOM     80  O   UNL A   1      45.373  19.155  25.645  1.00  0.00    -0.237 OA
ATOM     81  O   UNL A   1      43.096  19.969  25.229  1.00  0.00    -0.744 OA
ENDBRANCH  75  78
ENDBRANCH  57  71
BRANCH  58  82
ATOM     82  C   UNL A   1      41.873  30.691  32.508  1.00  0.00     0.023 A 
ATOM     83  C   UNL A   1      41.062  29.607  32.923  1.00  0.00     0.012 A 
ATOM     84  C   UNL A   1      41.620  31.967  33.041  1.00  0.00     0.148 A 
ATOM     85  C   UNL A   1      40.139  29.757  33.960  1.00  0.00     0.002 A 
ATOM     86  C   UNL A   1      40.687  32.111  34.070  1.00  0.00     0.091 A 
ATOM     87  F   UNL A   1      42.340  33.004  32.598  1.00  0.00    -0.205 F 
ATOM     88  C   UNL A   1      39.982  30.999  34.562  1.00  0.00     0.022 A 
BRANCH  86  89
ATOM     89  S   UNL A   1      40.439  33.690  34.894  1.00  0.00     0.127 S 
ATOM     90  O   UNL A   1      39.241  33.422  35.685  1.00  0.00    -0.237 OA
ATOM     91  O   UNL A   1      41.666  33.842  35.674  1.00  0.00    -0.237 OA
ATOM     92  O   UNL A   1      40.299  34.654  33.813  1.00  0.00    -0.744 OA
ENDBRANCH  86  89
ENDBRANCH  58  82
BRANCH  70  93
ATOM     93  C   UNL A   1      46.689  25.342  32.941  1.00  0.00     0.023 A 
ATOM     94  C   UNL A   1      48.058  25.240  33.253  1.00  0.00     0.012 A 
ATOM     95  C   UNL A   1      45.827  24.421  33.597  1.00  0.00     0.148 A 
ATOM     96  C   UNL A   1      48.560  24.248  34.105  1.00  0.00     0.002 A 
ATOM     97  C   UNL A   1      46.316  23.516  34.539  1.00  0.00     0.091 A 
ATOM     98  F   UNL A   1      44.520  24.398  33.302  1.00  0.00    -0.205 F 
ATOM     99  C   UNL A   1      47.686  23.400  34.768  1.00  0.00     0.022 A 
BRANCH  97 100
ATOM    100  S   UNL A   1      45.195  22.599  35.607  1.00  0.00     0.127 S 
ATOM    101  O   UNL A   1      44.661  21.589  34.695  1.00  0.00    -0.237 OA
ATOM    102  O   UNL A   1      46.094  22.075  36.636  1.00  0.00    -0.237 OA
ATOM    103  O   UNL A   1      44.248  23.593  36.096  1.00  0.00    -0.744 OA
ENDBRANCH  97 100
ENDBRANCH  70  93
ENDBRANCH  44  45
ENDBRANCH  36  39
ENDBRANCH  34  35
ENDBRANCH  33  34
ENDBRANCH  32  33
ENDBRANCH   1  32
TORSDOF 21
ENDMDL
MODEL 2
REMARK VINA RESULT:     -11.6      5.198     11.639
REMARK SMILES Cc1cccc(-c2cc(OCC(=O)NCCCCCCNC(=O)c3ccc(-c4c5nc(c(-c6cccc(S(=O)(=O)[O-])c6F)c6ccc([nH]6)c(-c6cccc(S(=O)(=O)[O-])c6F)c6nc(c(-c7cccc(S(=O)(=O)[O-])c7F)c7ccc4[nH]7)C=C6)C=C5)cc3)nc(Nc3ccccc3C)n2)c1
REMARK SMILES IDX 17 1 16 2 15 3 14 4 12 5 13 6 11 8 10 9 9 10 7 11 8 12 97 13
REMARK SMILES IDX 88 14 87 15 6 16 1 17 2 18 3 19 98 20 4 21 5 22 89 23 90 25
REMARK SMILES IDX 91 26 95 27 92 28 94 29 96 30 93 31 18 32 19 33 20 34 21 35
REMARK SMILES IDX 22 36 23 38 24 39 25 40 86 41 26 42 85 43 27 44 28 45 29 46
REMARK SMILES IDX 79 47 30 48 84 49 78 50 80 51 31 52 83 53 77 54 76 55 32 57
REMARK SMILES IDX 64 58 44 59 63 60 45 61 48 62 62 63 81 64 46 65 47 66 61 68
REMARK SMILES IDX 82 69 49 70 33 71 34 72 42 73 35 74 37 75 43 76 36 77 38 78
REMARK SMILES IDX 39 79 40 80 41 81 65 82 66 83 74 84 67 85 69 86 75 87 68 88
REMARK SMILES IDX 70 89 71 90 72 91 73 92 50 93 51 94 59 95 52 96 54 97 60 98
REMARK SMILES IDX 53 99 55 100 56 101 57 102 58 103
REMARK H PARENT 14 7 89 24 21 37 80 56 48 67
REMARK Flexibility Score: inf
ROOT
ATOM      1  C   UNL A   1      40.985  26.211  27.499  1.00  0.00     0.002 C 
ENDROOT
BRANCH   1   2
ATOM      2  C   UNL A   1      40.776  24.692  27.529  1.00  0.00     0.021 C 
BRANCH   2   3
ATOM      3  C   UNL A   1      39.328  24.220  27.427  1.00  0.00     0.116 C 
BRANCH   3   4
ATOM      4  N   UNL A   1      39.221  22.875  26.907  1.00  0.00    -0.353 N 
ATOM      5  C   UNL A   1      38.374  22.417  25.946  1.00  0.00     0.258 C 
ATOM      6  O   UNL A   1      38.482  21.250  25.563  1.00  0.00    -0.271 OA
ATOM      7  H   UNL A   1      39.834  22.211  27.296  1.00  0.00     0.163 HD
BRANCH   5   8
ATOM      8  C   UNL A   1      37.321  23.361  25.349  1.00  0.00     0.331 C 
BRANCH   8   9
ATOM      9  O   UNL A   1      36.102  23.527  26.054  1.00  0.00    -0.467 OA
BRANCH   9  10
ATOM     10  C   UNL A   1      34.972  22.965  25.530  1.00  0.00     0.219 A 
ATOM     11  C   UNL A   1      33.657  21.279  24.604  1.00  0.00     0.080 A 
ATOM     12  C   UNL A   1      34.892  21.684  25.045  1.00  0.00     0.097 A 
ATOM     13  N   UNL A   1      32.600  22.097  24.594  1.00  0.00    -0.212 NA
ATOM     14  C   UNL A   1      32.751  23.336  25.081  1.00  0.00     0.231 A 
ATOM     15  N   UNL A   1      33.920  23.802  25.543  1.00  0.00    -0.177 NA
BRANCH  11  16
ATOM     16  C   UNL A   1      33.419  19.912  24.147  1.00  0.00     0.001 A 
ATOM     17  C   UNL A   1      34.792  16.406  24.779  1.00  0.00     0.044 C 
ATOM     18  C   UNL A   1      33.979  17.533  24.215  1.00  0.00    -0.050 A 
ATOM     19  C   UNL A   1      33.011  17.288  23.235  1.00  0.00     0.003 A 
ATOM     20  C   UNL A   1      34.181  18.847  24.656  1.00  0.00     0.013 A 
ATOM     21  C   UNL A   1      32.238  18.332  22.729  1.00  0.00     0.001 A 
ATOM     22  C   UNL A   1      32.433  19.635  23.190  1.00  0.00     0.010 A 
ENDBRANCH  11  16
BRANCH  14  23
ATOM     23  N   UNL A   1      31.663  24.206  25.076  1.00  0.00    -0.324 N 
ATOM     24  H   UNL A   1      30.934  24.007  25.706  1.00  0.00     0.170 HD
BRANCH  23  25
ATOM     25  C   UNL A   1      31.505  25.337  24.263  1.00  0.00     0.044 A 
ATOM     26  C   UNL A   1      31.686  25.198  22.878  1.00  0.00     0.026 A 
ATOM     27  C   UNL A   1      31.073  26.579  24.773  1.00  0.00    -0.027 A 
ATOM     28  C   UNL A   1      31.390  26.248  22.006  1.00  0.00     0.002 A 
ATOM     29  C   UNL A   1      30.770  27.623  23.884  1.00  0.00     0.005 A 
ATOM     30  C   UNL A   1      30.974  26.833  26.254  1.00  0.00     0.046 C 
ATOM     31  C   UNL A   1      30.918  27.455  22.508  1.00  0.00     0.000 A 
ENDBRANCH  23  25
ENDBRANCH  14  23
ENDBRANCH   9  10
ENDBRANCH   8   9
ENDBRANCH   5   8
ENDBRANCH   3   4
ENDBRANCH   2   3
ENDBRANCH   1   2
BRANCH   1  32
ATOM     32  C   UNL A   1      41.548  26.860  28.772  1.00  0.00     0.002 C 
BRANCH  32  33
ATOM     33  C   UNL A   1      40.653  27.881  29.471  1.00  0.00     0.021 C 
BRANCH  33  34
ATOM     34  C   UNL A   1      40.559  29.218  28.763  1.00  0.00     0.116 C 
BRANCH  34  35
ATOM     35  N   UNL A   1      39.293  29.398  28.092  1.00  0.00    -0.352 N 
ATOM     36  C   UNL A   1      38.113  29.909  28.588  1.00  0.00     0.251 C 
ATOM     37  H   UNL A   1      39.271  29.119  27.148  1.00  0.00     0.163 HD
ATOM     38  O   UNL A   1      37.070  29.597  28.017  1.00  0.00    -0.269 OA
BRANCH  36  39
ATOM     39  C   UNL A   1      38.130  30.953  29.647  1.00  0.00     0.039 A 
ATOM     40  C   UNL A   1      38.361  32.269  29.217  1.00  0.00     0.014 A 
ATOM     41  C   UNL A   1      38.221  30.650  31.002  1.00  0.00     0.014 A 
ATOM     42  C   UNL A   1      38.961  33.183  30.077  1.00  0.00     0.010 A 
ATOM     43  C   UNL A   1      38.878  31.521  31.837  1.00  0.00     0.010 A 
ATOM     44  C   UNL A   1      39.327  32.745  31.340  1.00  0.00    -0.014 A 
BRANCH  44  45
ATOM     45  C   UNL A   1      40.227  33.442  32.235  1.00  0.00     0.031 A 
ATOM     46  C   UNL A   1      39.684  34.198  33.369  1.00  0.00     0.074 A 
ATOM     47  C   UNL A   1      41.541  33.143  32.134  1.00  0.00     0.049 A 
ATOM     48  N   UNL A   1      40.394  34.950  34.132  1.00  0.00    -0.248 NA
ATOM     49  C   UNL A   1      38.265  34.197  33.708  1.00  0.00     0.031 C 
ATOM     50  C   UNL A   1      42.577  33.297  33.147  1.00  0.00     0.029 A 
ATOM     51  N   UNL A   1      42.249  32.802  30.975  1.00  0.00    -0.354 N 
ATOM     52  C   UNL A   1      39.618  35.267  35.222  1.00  0.00     0.074 A 
ATOM     53  C   UNL A   1      38.276  34.911  34.838  1.00  0.00     0.031 C 
ATOM     54  C   UNL A   1      43.772  33.331  32.537  1.00  0.00     0.029 A 
ATOM     55  C   UNL A   1      43.509  33.410  31.109  1.00  0.00     0.049 A 
ATOM     56  H   UNL A   1      41.931  32.252  30.222  1.00  0.00     0.167 HD
ATOM     57  C   UNL A   1      40.245  35.640  36.371  1.00  0.00     0.034 A 
ATOM     58  C   UNL A   1      43.944  34.410  30.284  1.00  0.00     0.034 A 
ATOM     59  C   UNL A   1      41.667  35.916  36.107  1.00  0.00     0.049 A 
ATOM     60  C   UNL A   1      44.262  35.696  31.031  1.00  0.00     0.074 A 
ATOM     61  C   UNL A   1      42.835  35.210  36.335  1.00  0.00     0.029 A 
ATOM     62  N   UNL A   1      42.001  36.954  35.238  1.00  0.00    -0.354 N 
ATOM     63  N   UNL A   1      43.973  35.912  32.285  1.00  0.00    -0.248 NA
ATOM     64  C   UNL A   1      44.915  36.847  30.415  1.00  0.00     0.031 C 
ATOM     65  C   UNL A   1      43.845  35.757  35.490  1.00  0.00     0.029 A 
ATOM     66  C   UNL A   1      43.308  36.826  34.793  1.00  0.00     0.049 A 
ATOM     67  H   UNL A   1      41.390  37.679  34.976  1.00  0.00     0.167 HD
ATOM     68  C   UNL A   1      44.249  37.214  32.616  1.00  0.00     0.074 A 
ATOM     69  C   UNL A   1      44.920  37.728  31.432  1.00  0.00     0.031 C 
ATOM     70  C   UNL A   1      43.840  37.766  33.803  1.00  0.00     0.034 A 
BRANCH  57  71
ATOM     71  C   UNL A   1      39.665  35.569  37.778  1.00  0.00     0.023 A 
ATOM     72  C   UNL A   1      39.616  36.778  38.508  1.00  0.00     0.012 A 
ATOM     73  C   UNL A   1      39.269  34.407  38.490  1.00  0.00     0.148 A 
ATOM     74  C   UNL A   1      39.229  36.833  39.855  1.00  0.00     0.002 A 
ATOM     75  C   UNL A   1      38.833  34.467  39.818  1.00  0.00     0.091 A 
ATOM     76  F   UNL A   1      39.377  33.203  37.931  1.00  0.00    -0.205 F 
ATOM     77  C   UNL A   1      38.828  35.679  40.509  1.00  0.00     0.022 A 
BRANCH  75  78
ATOM     78  S   UNL A   1      38.269  33.010  40.721  1.00  0.00     0.127 S 
ATOM     79  O   UNL A   1      39.410  32.726  41.592  1.00  0.00    -0.237 OA
ATOM     80  O   UNL A   1      37.084  33.512  41.417  1.00  0.00    -0.237 OA
ATOM     81  O   UNL A   1      37.989  31.986  39.721  1.00  0.00    -0.744 OA
ENDBRANCH  75  78
ENDBRANCH  57  71
BRANCH  58  82
ATOM     82  C   UNL A   1      43.382  34.324  28.899  1.00  0.00     0.023 A 
ATOM     83  C   UNL A   1      42.381  35.267  28.560  1.00  0.00     0.012 A 
ATOM     84  C   UNL A   1      44.076  33.674  27.864  1.00  0.00     0.148 A 
ATOM     85  C   UNL A   1      42.193  35.670  27.236  1.00  0.00     0.002 A 
ATOM     86  C   UNL A   1      43.875  34.074  26.541  1.00  0.00     0.091 A 
ATOM     87  F   UNL A   1      44.974  32.733  28.183  1.00  0.00    -0.205 F 
ATOM     88  C   UNL A   1      42.970  35.104  26.232  1.00  0.00     0.022 A 
BRANCH  86  89
ATOM     89  S   UNL A   1      44.849  33.385  25.196  1.00  0.00     0.127 S 
ATOM     90  O   UNL A   1      45.953  34.336  25.117  1.00  0.00    -0.237 OA
ATOM     91  O   UNL A   1      45.214  32.064  25.707  1.00  0.00    -0.237 OA
ATOM     92  O   UNL A   1      43.940  33.352  24.060  1.00  0.00    -0.744 OA
ENDBRANCH  86  89
ENDBRANCH  58  82
BRANCH  70  93
ATOM     93  C   UNL A   1      43.872  39.252  34.141  1.00  0.00     0.023 A 
ATOM     94  C   UNL A   1      44.457  39.749  35.321  1.00  0.00     0.012 A 
ATOM     95  C   UNL A   1      43.440  40.223  33.198  1.00  0.00     0.148 A 
ATOM     96  C   UNL A   1      44.548  41.120  35.590  1.00  0.00     0.002 A 
ATOM     97  C   UNL A   1      43.646  41.586  33.416  1.00  0.00     0.091 A 
ATOM     98  F   UNL A   1      42.803  39.840  32.082  1.00  0.00    -0.205 F 
ATOM     99  C   UNL A   1      44.165  42.041  34.627  1.00  0.00     0.022 A 
BRANCH  97 100
ATOM    100  S   UNL A   1      43.415  42.778  32.088  1.00  0.00     0.127 S 
ATOM    101  O   UNL A   1      41.986  42.653  31.809  1.00  0.00    -0.237 OA
ATOM    102  O   UNL A   1      43.803  44.039  32.723  1.00  0.00    -0.237 OA
ATOM    103  O   UNL A   1      44.320  42.342  31.032  1.00  0.00    -0.744 OA
ENDBRANCH  97 100
ENDBRANCH  70  93
ENDBRANCH  44  45
ENDBRANCH  36  39
ENDBRANCH  34  35
ENDBRANCH  33  34
ENDBRANCH  32  33
ENDBRANCH   1  32
TORSDOF 21
ENDMDL
MODEL 3
REMARK VINA RESULT:     -11.6      5.862     10.897
REMARK SMILES Cc1cccc(-c2cc(OCC(=O)NCCCCCCNC(=O)c3ccc(-c4c5nc(c(-c6cccc(S(=O)(=O)[O-])c6F)c6ccc([nH]6)c(-c6cccc(S(=O)(=O)[O-])c6F)c6nc(c(-c7cccc(S(=O)(=O)[O-])c7F)c7ccc4[nH]7)C=C6)C=C5)cc3)nc(Nc3ccccc3C)n2)c1
REMARK SMILES IDX 17 1 16 2 15 3 14 4 12 5 13 6 11 8 10 9 9 10 7 11 8 12 97 13
REMARK SMILES IDX 88 14 87 15 6 16 1 17 2 18 3 19 98 20 4 21 5 22 89 23 90 25
REMARK SMILES IDX 91 26 95 27 92 28 94 29 96 30 93 31 18 32 19 33 20 34 21 35
REMARK SMILES IDX 22 36 23 38 24 39 25 40 86 41 26 42 85 43 27 44 28 45 29 46
REMARK SMILES IDX 79 47 30 48 84 49 78 50 80 51 31 52 83 53 77 54 76 55 32 57
REMARK SMILES IDX 64 58 44 59 63 60 45 61 48 62 62 63 81 64 46 65 47 66 61 68
REMARK SMILES IDX 82 69 49 70 33 71 34 72 42 73 35 74 37 75 43 76 36 77 38 78
REMARK SMILES IDX 39 79 40 80 41 81 65 82 66 83 74 84 67 85 69 86 75 87 68 88
REMARK SMILES IDX 70 89 71 90 72 91 73 92 50 93 51 94 59 95 52 96 54 97 60 98
REMARK SMILES IDX 53 99 55 100 56 101 57 102 58 103
REMARK H PARENT 14 7 89 24 21 37 80 56 48 67
REMARK Flexibility Score: inf
ROOT
ATOM      1  C   UNL A   1      33.935  28.614  25.745  1.00  0.00     0.002 C 
ENDROOT
BRANCH   1   2
ATOM      2  C   UNL A   1      32.939  27.460  25.584  1.00  0.00     0.021 C 
BRANCH   2   3
ATOM      3  C   UNL A   1      32.593  27.079  24.146  1.00  0.00     0.116 C 
BRANCH   3   4
ATOM      4  N   UNL A   1      31.166  27.043  23.913  1.00  0.00    -0.353 N 
ATOM      5  C   UNL A   1      30.348  25.956  23.908  1.00  0.00     0.258 C 
ATOM      6  O   UNL A   1      29.134  26.123  23.777  1.00  0.00    -0.271 OA
ATOM      7  H   UNL A   1      30.735  27.910  23.736  1.00  0.00     0.163 HD
BRANCH   5   8
ATOM      8  C   UNL A   1      30.949  24.554  24.086  1.00  0.00     0.331 C 
BRANCH   8   9
ATOM      9  O   UNL A   1      32.144  24.249  23.385  1.00  0.00    -0.467 OA
BRANCH   9  10
ATOM     10  C   UNL A   1      32.902  23.202  23.828  1.00  0.00     0.219 A 
ATOM     11  C   UNL A   1      34.812  22.137  24.630  1.00  0.00     0.080 A 
ATOM     12  C   UNL A   1      34.231  23.287  24.156  1.00  0.00     0.097 A 
ATOM     13  N   UNL A   1      34.143  20.983  24.719  1.00  0.00    -0.212 NA
ATOM     14  C   UNL A   1      32.847  20.974  24.380  1.00  0.00     0.231 A 
ATOM     15  N   UNL A   1      32.204  22.057  23.922  1.00  0.00    -0.177 NA
BRANCH  11  16
ATOM     16  C   UNL A   1      36.197  22.117  25.097  1.00  0.00     0.001 A 
ATOM     17  C   UNL A   1      38.684  24.479  26.772  1.00  0.00     0.044 C 
ATOM     18  C   UNL A   1      38.096  23.260  26.127  1.00  0.00    -0.050 A 
ATOM     19  C   UNL A   1      38.873  22.110  25.946  1.00  0.00     0.003 A 
ATOM     20  C   UNL A   1      36.766  23.256  25.692  1.00  0.00     0.013 A 
ATOM     21  C   UNL A   1      38.320  20.968  25.369  1.00  0.00     0.001 A 
ATOM     22  C   UNL A   1      36.986  20.967  24.957  1.00  0.00     0.010 A 
ENDBRANCH  11  16
BRANCH  14  23
ATOM     23  N   UNL A   1      32.131  19.782  24.462  1.00  0.00    -0.324 N 
ATOM     24  H   UNL A   1      31.150  19.854  24.481  1.00  0.00     0.170 HD
BRANCH  23  25
ATOM     25  C   UNL A   1      32.672  18.489  24.518  1.00  0.00     0.044 A 
ATOM     26  C   UNL A   1      32.901  17.912  25.777  1.00  0.00     0.026 A 
ATOM     27  C   UNL A   1      32.897  17.714  23.361  1.00  0.00    -0.027 A 
ATOM     28  C   UNL A   1      33.289  16.576  25.894  1.00  0.00     0.002 A 
ATOM     29  C   UNL A   1      33.278  16.369  23.494  1.00  0.00     0.005 A 
ATOM     30  C   UNL A   1      32.787  18.305  21.980  1.00  0.00     0.046 C 
ATOM     31  C   UNL A   1      33.462  15.800  24.753  1.00  0.00     0.000 A 
ENDBRANCH  23  25
ENDBRANCH  14  23
ENDBRANCH   9  10
ENDBRANCH   8   9
ENDBRANCH   5   8
ENDBRANCH   3   4
ENDBRANCH   2   3
ENDBRANCH   1   2
BRANCH   1  32
ATOM     32  C   UNL A   1      33.779  29.497  26.993  1.00  0.00     0.002 C 
BRANCH  32  33
ATOM     33  C   UNL A   1      34.925  29.463  28.001  1.00  0.00     0.021 C 
BRANCH  33  34
ATOM     34  C   UNL A   1      36.124  30.307  27.614  1.00  0.00     0.116 C 
BRANCH  34  35
ATOM     35  N   UNL A   1      37.371  29.595  27.767  1.00  0.00    -0.352 N 
ATOM     36  C   UNL A   1      38.531  30.001  28.390  1.00  0.00     0.251 C 
ATOM     37  H   UNL A   1      37.394  28.694  27.372  1.00  0.00     0.163 HD
ATOM     38  O   UNL A   1      39.580  29.454  28.057  1.00  0.00    -0.269 OA
BRANCH  36  39
ATOM     39  C   UNL A   1      38.476  30.921  29.557  1.00  0.00     0.039 A 
ATOM     40  C   UNL A   1      38.385  32.290  29.264  1.00  0.00     0.014 A 
ATOM     41  C   UNL A   1      38.799  30.517  30.850  1.00  0.00     0.014 A 
ATOM     42  C   UNL A   1      38.898  33.226  30.158  1.00  0.00     0.010 A 
ATOM     43  C   UNL A   1      39.371  31.425  31.708  1.00  0.00     0.010 A 
ATOM     44  C   UNL A   1      39.502  32.757  31.315  1.00  0.00    -0.014 A 
BRANCH  44  45
ATOM     45  C   UNL A   1      40.353  33.541  32.185  1.00  0.00     0.031 A 
ATOM     46  C   UNL A   1      39.764  34.271  33.313  1.00  0.00     0.074 A 
ATOM     47  C   UNL A   1      41.686  33.347  32.072  1.00  0.00     0.049 A 
ATOM     48  N   UNL A   1      40.420  35.091  34.054  1.00  0.00    -0.248 NA
ATOM     49  C   UNL A   1      38.354  34.161  33.671  1.00  0.00     0.031 C 
ATOM     50  C   UNL A   1      42.718  33.602  33.068  1.00  0.00     0.029 A 
ATOM     51  N   UNL A   1      42.405  33.043  30.910  1.00  0.00    -0.354 N 
ATOM     52  C   UNL A   1      39.633  35.364  35.149  1.00  0.00     0.074 A 
ATOM     53  C   UNL A   1      38.320  34.895  34.788  1.00  0.00     0.031 C 
ATOM     54  C   UNL A   1      43.899  33.722  32.442  1.00  0.00     0.029 A 
ATOM     55  C   UNL A   1      43.613  33.753  31.017  1.00  0.00     0.049 A 
ATOM     56  H   UNL A   1      42.124  32.456  30.171  1.00  0.00     0.167 HD
ATOM     57  C   UNL A   1      40.242  35.808  36.282  1.00  0.00     0.034 A 
ATOM     58  C   UNL A   1      43.956  34.770  30.169  1.00  0.00     0.034 A 
ATOM     59  C   UNL A   1      41.633  36.194  35.995  1.00  0.00     0.049 A 
ATOM     60  C   UNL A   1      44.178  36.091  30.889  1.00  0.00     0.074 A 
ATOM     61  C   UNL A   1      42.857  35.588  36.219  1.00  0.00     0.029 A 
ATOM     62  N   UNL A   1      41.872  37.238  35.104  1.00  0.00    -0.354 N 
ATOM     63  N   UNL A   1      43.887  36.306  32.143  1.00  0.00    -0.248 NA
ATOM     64  C   UNL A   1      44.728  37.280  30.245  1.00  0.00     0.031 C 
ATOM     65  C   UNL A   1      43.810  36.199  35.352  1.00  0.00     0.029 A 
ATOM     66  C   UNL A   1      43.179  37.209  34.643  1.00  0.00     0.049 A 
ATOM     67  H   UNL A   1      41.201  37.907  34.837  1.00  0.00     0.167 HD
ATOM     68  C   UNL A   1      44.060  37.631  32.448  1.00  0.00     0.074 A 
ATOM     69  C   UNL A   1      44.673  38.177  31.247  1.00  0.00     0.031 C 
ATOM     70  C   UNL A   1      43.623  38.170  33.631  1.00  0.00     0.034 A 
BRANCH  57  71
ATOM     71  C   UNL A   1      39.686  35.716  37.698  1.00  0.00     0.023 A 
ATOM     72  C   UNL A   1      39.769  36.883  38.492  1.00  0.00     0.012 A 
ATOM     73  C   UNL A   1      39.193  34.560  38.358  1.00  0.00     0.148 A 
ATOM     74  C   UNL A   1      39.417  36.901  39.848  1.00  0.00     0.002 A 
ATOM     75  C   UNL A   1      38.792  34.590  39.698  1.00  0.00     0.091 A 
ATOM     76  F   UNL A   1      39.172  33.384  37.734  1.00  0.00    -0.205 F 
ATOM     77  C   UNL A   1      38.919  35.756  40.451  1.00  0.00     0.022 A 
BRANCH  75  78
ATOM     78  S   UNL A   1      38.107  33.146  40.537  1.00  0.00     0.127 S 
ATOM     79  O   UNL A   1      37.039  32.737  39.624  1.00  0.00    -0.237 OA
ATOM     80  O   UNL A   1      39.251  32.236  40.580  1.00  0.00    -0.237 OA
ATOM     81  O   UNL A   1      37.655  33.604  41.846  1.00  0.00    -0.744 OA
ENDBRANCH  75  78
ENDBRANCH  57  71
BRANCH  58  82
ATOM     82  C   UNL A   1      43.387  34.614  28.793  1.00  0.00     0.023 A 
ATOM     83  C   UNL A   1      42.356  35.513  28.426  1.00  0.00     0.012 A 
ATOM     84  C   UNL A   1      44.092  33.944  27.778  1.00  0.00     0.148 A 
ATOM     85  C   UNL A   1      42.146  35.858  27.090  1.00  0.00     0.002 A 
ATOM     86  C   UNL A   1      43.870  34.287  26.443  1.00  0.00     0.091 A 
ATOM     87  F   UNL A   1      45.020  33.044  28.125  1.00  0.00    -0.205 F 
ATOM     88  C   UNL A   1      42.932  35.277  26.102  1.00  0.00     0.022 A 
BRANCH  86  89
ATOM     89  S   UNL A   1      44.854  33.575  25.117  1.00  0.00     0.127 S 
ATOM     90  O   UNL A   1      44.829  32.158  25.464  1.00  0.00    -0.237 OA
ATOM     91  O   UNL A   1      44.087  33.927  23.923  1.00  0.00    -0.237 OA
ATOM     92  O   UNL A   1      46.143  34.243  25.213  1.00  0.00    -0.744 OA
ENDBRANCH  86  89
ENDBRANCH  58  82
BRANCH  70  93
ATOM     93  C   UNL A   1      43.537  39.659  33.943  1.00  0.00     0.023 A 
ATOM     94  C   UNL A   1      42.633  40.520  33.293  1.00  0.00     0.012 A 
ATOM     95  C   UNL A   1      44.272  40.221  35.023  1.00  0.00     0.148 A 
ATOM     96  C   UNL A   1      42.509  41.872  33.637  1.00  0.00     0.002 A 
ATOM     97  C   UNL A   1      44.053  41.534  35.442  1.00  0.00     0.091 A 
ATOM     98  F   UNL A   1      45.209  39.495  35.649  1.00  0.00    -0.205 F 
ATOM     99  C   UNL A   1      43.200  42.374  34.728  1.00  0.00     0.022 A 
BRANCH  97 100
ATOM    100  S   UNL A   1      44.723  42.128  37.003  1.00  0.00     0.127 S 
ATOM    101  O   UNL A   1      45.718  41.106  37.318  1.00  0.00    -0.237 OA
ATOM    102  O   UNL A   1      45.283  43.429  36.633  1.00  0.00    -0.237 OA
ATOM    103  O   UNL A   1      43.574  42.209  37.896  1.00  0.00    -0.744 OA
ENDBRANCH  97 100
ENDBRANCH  70  93
ENDBRANCH  44  45
ENDBRANCH  36  39
ENDBRANCH  34  35
ENDBRANCH  33  34
ENDBRANCH  32  33
ENDBRANCH   1  32
TORSDOF 21
ENDMDL
