MODEL 1
REMARK VINA RESULT:     -13.1      0.000      0.000
REMARK SMILES CCc1cc(S(F)(F)(F)(F)F)cc2c1O[C@@H](C(F)(F)F)C(C(=O)NCCCCCCNC(=O)c1ccc(-c3c4nc(c(-c5cccc(S(=O)(=O)[O-])c5F)c5ccc([nH]5)c(-c5cccc(S(=O)(=O)[O-])c5F)c5nc(c(-c6cccc(S(=O)(=O)[O-])c6F)c6ccc3[nH]6)C=C5)C=C4)cc1)=C2
REMARK SMILES IDX 28 1 27 2 26 3 25 4 24 5 22 6 23 7 21 9 3 10 4 11 14 12 5 13
REMARK SMILES IDX 13 14 15 15 12 16 97 17 16 18 2 19 1 20 6 21 7 22 8 23 9 24
REMARK SMILES IDX 10 25 11 26 17 27 18 28 19 29 20 30 29 31 30 32 31 33 32 34
REMARK SMILES IDX 33 36 34 37 35 38 96 39 36 40 95 41 37 42 38 43 39 44 89 45
REMARK SMILES IDX 40 46 94 47 88 48 90 49 41 50 93 51 87 52 86 53 42 55 74 56
REMARK SMILES IDX 54 57 73 58 55 59 58 60 72 61 91 62 56 63 57 64 71 66 92 67
REMARK SMILES IDX 59 68 43 69 44 70 52 71 45 72 47 73 53 74 46 75 48 76 49 77
REMARK SMILES IDX 50 78 51 79 75 80 76 81 84 82 77 83 79 84 85 85 78 86 80 87
REMARK SMILES IDX 81 88 82 89 83 90 60 91 61 92 69 93 62 94 64 95 70 96 63 97
REMARK SMILES IDX 65 98 66 99 67 100 68 101
REMARK H PARENT 24 8 31 35 90 54 58 65
REMARK Flexibility Score: inf
ROOT
ATOM      1  C   UNL A   1      31.994  27.694  27.047  1.00  0.00     0.002 C 
ENDROOT
BRANCH   1   2
ATOM      2  C   UNL A   1      31.483  26.308  26.692  1.00  0.00     0.002 C 
BRANCH   2   3
ATOM      3  C   UNL A   1      30.252  26.433  25.808  1.00  0.00     0.021 C 
BRANCH   3   4
ATOM      4  C   UNL A   1      30.123  25.191  24.941  1.00  0.00     0.116 C 
BRANCH   4   5
ATOM      5  N   UNL A   1      30.347  25.551  23.534  1.00  0.00    -0.352 N 
ATOM      6  C   UNL A   1      31.417  24.895  22.769  1.00  0.00     0.251 C 
ATOM      7  O   UNL A   1      31.611  25.206  21.552  1.00  0.00    -0.270 OA
ATOM      8  H   UNL A   1      29.782  26.232  23.104  1.00  0.00     0.163 HD
BRANCH   6   9
ATOM      9  C   UNL A   1      32.291  23.842  23.432  1.00  0.00     0.067 C 
ATOM     10  C   UNL A   1      35.035  21.051  24.890  1.00  0.00    -0.004 A 
ATOM     11  C   UNL A   1      34.745  19.701  24.827  1.00  0.00     0.032 A 
ATOM     12  C   UNL A   1      34.139  21.944  24.355  1.00  0.00     0.131 A 
ATOM     13  C   UNL A   1      33.591  19.254  24.239  1.00  0.00     0.108 A 
ATOM     14  C   UNL A   1      32.955  21.532  23.771  1.00  0.00     0.019 A 
ATOM     15  O   UNL A   1      34.492  23.271  24.323  1.00  0.00    -0.475 OA
ATOM     16  C   UNL A   1      32.696  20.167  23.720  1.00  0.00     0.036 A 
ATOM     17  C   UNL A   1      32.091  22.550  23.199  1.00  0.00     0.025 C 
ATOM     18  C   UNL A   1      33.413  24.246  24.379  1.00  0.00     0.314 C 
BRANCH  10  19
ATOM     19  C   UNL A   1      36.259  21.444  25.702  1.00  0.00     0.036 C 
ATOM     20  C   UNL A   1      37.517  21.060  24.940  1.00  0.00     0.009 C 
ENDBRANCH  10  19
BRANCH  13  21
ATOM     21  S   UNL A   1      33.242  17.480  24.146  1.00  0.00     0.310 S 
ATOM     22  F   UNL A   1      32.139  17.753  23.039  1.00  0.00    -0.094 F 
ATOM     23  F   UNL A   1      32.130  17.759  25.226  1.00  0.00    -0.094 F 
ATOM     24  F   UNL A   1      32.846  15.979  24.084  1.00  0.00    -0.094 F 
ATOM     25  F   UNL A   1      34.266  17.251  22.965  1.00  0.00    -0.094 F 
ATOM     26  F   UNL A   1      33.578  19.025  24.117  1.00  0.00    -0.094 F 
ENDBRANCH  13  21
BRANCH  18  27
ATOM     27  C   UNL A   1      33.950  25.605  23.959  1.00  0.00     0.429 C 
ATOM     28  F   UNL A   1      34.928  25.968  24.785  1.00  0.00    -0.167 F 
ATOM     29  F   UNL A   1      34.421  25.531  22.717  1.00  0.00    -0.167 F 
ATOM     30  F   UNL A   1      32.971  26.504  24.009  1.00  0.00    -0.167 F 
ENDBRANCH  18  27
ENDBRANCH   6   9
ENDBRANCH   4   5
ENDBRANCH   3   4
ENDBRANCH   2   3
ENDBRANCH   1   2
BRANCH   1  31
ATOM     31  C   UNL A   1      31.596  28.676  25.956  1.00  0.00     0.021 C 
BRANCH  31  32
ATOM     32  C   UNL A   1      32.693  29.714  25.784  1.00  0.00     0.116 C 
BRANCH  32  33
ATOM     33  N   UNL A   1      32.167  31.043  26.128  1.00  0.00    -0.352 N 
ATOM     34  C   UNL A   1      32.924  31.922  27.032  1.00  0.00     0.251 C 
ATOM     35  H   UNL A   1      31.307  31.346  25.754  1.00  0.00     0.163 HD
ATOM     36  O   UNL A   1      32.469  33.071  27.329  1.00  0.00    -0.269 OA
BRANCH  34  37
ATOM     37  C   UNL A   1      34.250  31.457  27.609  1.00  0.00     0.039 A 
ATOM     38  C   UNL A   1      34.463  30.129  27.941  1.00  0.00     0.014 A 
ATOM     39  C   UNL A   1      35.147  32.392  27.901  1.00  0.00     0.014 A 
ATOM     40  C   UNL A   1      35.532  29.928  28.845  1.00  0.00     0.010 A 
ATOM     41  C   UNL A   1      36.241  32.094  28.678  1.00  0.00     0.010 A 
ATOM     42  C   UNL A   1      36.482  30.813  29.091  1.00  0.00    -0.014 A 
BRANCH  42  43
ATOM     43  C   UNL A   1      37.773  30.428  29.796  1.00  0.00     0.031 A 
ATOM     44  C   UNL A   1      37.912  30.956  31.081  1.00  0.00     0.074 A 
ATOM     45  C   UNL A   1      38.676  29.555  29.216  1.00  0.00     0.049 A 
ATOM     46  N   UNL A   1      38.879  30.702  31.964  1.00  0.00    -0.248 NA
ATOM     47  C   UNL A   1      36.971  31.910  31.687  1.00  0.00     0.031 C 
ATOM     48  C   UNL A   1      38.538  29.011  27.923  1.00  0.00     0.029 A 
ATOM     49  N   UNL A   1      39.842  29.061  29.758  1.00  0.00    -0.354 N 
ATOM     50  C   UNL A   1      38.661  31.379  33.093  1.00  0.00     0.074 A 
ATOM     51  C   UNL A   1      37.434  32.171  32.928  1.00  0.00     0.031 C 
ATOM     52  C   UNL A   1      39.611  28.212  27.685  1.00  0.00     0.029 A 
ATOM     53  C   UNL A   1      40.436  28.240  28.825  1.00  0.00     0.049 A 
ATOM     54  H   UNL A   1      40.190  29.260  30.657  1.00  0.00     0.167 HD
ATOM     55  C   UNL A   1      39.436  31.366  34.254  1.00  0.00     0.034 A 
ATOM     56  C   UNL A   1      41.632  27.549  28.943  1.00  0.00     0.034 A 
ATOM     57  C   UNL A   1      40.609  30.640  34.387  1.00  0.00     0.049 A 
ATOM     58  C   UNL A   1      42.438  27.582  30.083  1.00  0.00     0.074 A 
ATOM     59  C   UNL A   1      41.398  30.610  35.553  1.00  0.00     0.029 A 
ATOM     60  N   UNL A   1      41.216  29.839  33.445  1.00  0.00    -0.354 N 
ATOM     61  N   UNL A   1      42.199  28.227  31.226  1.00  0.00    -0.248 NA
ATOM     62  C   UNL A   1      43.723  26.880  30.206  1.00  0.00     0.031 C 
ATOM     63  C   UNL A   1      42.471  29.810  35.314  1.00  0.00     0.029 A 
ATOM     64  C   UNL A   1      42.371  29.327  33.996  1.00  0.00     0.049 A 
ATOM     65  H   UNL A   1      40.883  29.663  32.536  1.00  0.00     0.167 HD
ATOM     66  C   UNL A   1      43.188  28.006  32.093  1.00  0.00     0.074 A 
ATOM     67  C   UNL A   1      44.186  27.142  31.447  1.00  0.00     0.031 C 
ATOM     68  C   UNL A   1      43.298  28.488  33.400  1.00  0.00     0.034 A 
BRANCH  55  69
ATOM     69  C   UNL A   1      38.966  32.194  35.439  1.00  0.00     0.023 A 
ATOM     70  C   UNL A   1      39.286  33.541  35.497  1.00  0.00     0.012 A 
ATOM     71  C   UNL A   1      38.256  31.614  36.399  1.00  0.00     0.148 A 
ATOM     72  C   UNL A   1      39.056  34.131  36.762  1.00  0.00     0.002 A 
ATOM     73  C   UNL A   1      37.949  32.294  37.552  1.00  0.00     0.091 A 
ATOM     74  F   UNL A   1      37.836  30.361  36.242  1.00  0.00    -0.205 F 
ATOM     75  C   UNL A   1      38.288  33.611  37.702  1.00  0.00     0.022 A 
BRANCH  73  76
ATOM     76  S   UNL A   1      37.086  31.437  38.892  1.00  0.00     0.127 S 
ATOM     77  O   UNL A   1      35.747  32.127  39.159  1.00  0.00    -0.237 OA
ATOM     78  O   UNL A   1      36.839  29.982  38.490  1.00  0.00    -0.237 OA
ATOM     79  O   UNL A   1      38.043  31.483  40.308  1.00  0.00    -0.744 OA
ENDBRANCH  73  76
ENDBRANCH  55  69
BRANCH  56  80
ATOM     80  C   UNL A   1      42.093  26.708  27.763  1.00  0.00     0.023 A 
ATOM     81  C   UNL A   1      42.739  27.321  26.703  1.00  0.00     0.012 A 
ATOM     82  C   UNL A   1      41.867  25.399  27.769  1.00  0.00     0.148 A 
ATOM     83  C   UNL A   1      42.854  26.504  25.553  1.00  0.00     0.002 A 
ATOM     84  C   UNL A   1      42.129  24.639  26.655  1.00  0.00     0.091 A 
ATOM     85  F   UNL A   1      41.382  24.819  28.863  1.00  0.00    -0.205 F 
ATOM     86  C   UNL A   1      42.713  25.191  25.549  1.00  0.00     0.022 A 
BRANCH  84  87
ATOM     87  S   UNL A   1      41.697  22.882  26.652  1.00  0.00     0.127 S 
ATOM     88  O   UNL A   1      42.106  22.258  25.316  1.00  0.00    -0.237 OA
ATOM     89  O   UNL A   1      42.433  22.173  27.793  1.00  0.00    -0.237 OA
ATOM     90  O   UNL A   1      40.010  22.709  26.869  1.00  0.00    -0.744 OA
ENDBRANCH  84  87
ENDBRANCH  56  80
BRANCH  68  91
ATOM     91  C   UNL A   1      44.508  28.064  34.217  1.00  0.00     0.023 A 
ATOM     92  C   UNL A   1      45.678  28.803  34.199  1.00  0.00     0.012 A 
ATOM     93  C   UNL A   1      44.416  26.935  34.909  1.00  0.00     0.148 A 
ATOM     94  C   UNL A   1      46.801  28.112  34.714  1.00  0.00     0.002 A 
ATOM     95  C   UNL A   1      45.528  26.386  35.501  1.00  0.00     0.091 A 
ATOM     96  F   UNL A   1      43.239  26.328  35.029  1.00  0.00    -0.205 F 
ATOM     97  C   UNL A   1      46.732  27.033  35.473  1.00  0.00     0.022 A 
BRANCH  95  98
ATOM     98  S   UNL A   1      45.396  24.784  36.333  1.00  0.00     0.127 S 
ATOM     99  O   UNL A   1      44.240  24.823  37.336  1.00  0.00    -0.237 OA
ATOM    100  O   UNL A   1      45.134  23.689  35.294  1.00  0.00    -0.237 OA
ATOM    101  O   UNL A   1      46.856  24.448  37.158  1.00  0.00    -0.744 OA
ENDBRANCH  95  98
ENDBRANCH  68  91
ENDBRANCH  42  43
ENDBRANCH  34  37
ENDBRANCH  32  33
ENDBRANCH  31  32
ENDBRANCH   1  31
TORSDOF 19
ENDMDL
MODEL 2
REMARK VINA RESULT:     -12.8      0.518      7.093
REMARK SMILES CCc1cc(S(F)(F)(F)(F)F)cc2c1O[C@@H](C(F)(F)F)C(C(=O)NCCCCCCNC(=O)c1ccc(-c3c4nc(c(-c5cccc(S(=O)(=O)[O-])c5F)c5ccc([nH]5)c(-c5cccc(S(=O)(=O)[O-])c5F)c5nc(c(-c6cccc(S(=O)(=O)[O-])c6F)c6ccc3[nH]6)C=C5)C=C4)cc1)=C2
REMARK SMILES IDX 28 1 27 2 26 3 25 4 24 5 22 6 23 7 21 9 3 10 4 11 14 12 5 13
REMARK SMILES IDX 13 14 15 15 12 16 97 17 16 18 2 19 1 20 6 21 7 22 8 23 9 24
REMARK SMILES IDX 10 25 11 26 17 27 18 28 19 29 20 30 29 31 30 32 31 33 32 34
REMARK SMILES IDX 33 36 34 37 35 38 96 39 36 40 95 41 37 42 38 43 39 44 89 45
REMARK SMILES IDX 40 46 94 47 88 48 90 49 41 50 93 51 87 52 86 53 42 55 74 56
REMARK SMILES IDX 54 57 73 58 55 59 58 60 72 61 91 62 56 63 57 64 71 66 92 67
REMARK SMILES IDX 59 68 43 69 44 70 52 71 45 72 47 73 53 74 46 75 48 76 49 77
REMARK SMILES IDX 50 78 51 79 75 80 76 81 84 82 77 83 79 84 85 85 78 86 80 87
REMARK SMILES IDX 81 88 82 89 83 90 60 91 61 92 69 93 62 94 64 95 70 96 63 97
REMARK SMILES IDX 65 98 66 99 67 100 68 101
REMARK H PARENT 24 8 31 35 90 54 58 65
REMARK Flexibility Score: inf
ROOT
ATOM      1  C   UNL A   1      31.495  27.811  26.884  1.00  0.00     0.002 C 
ENDROOT
BRANCH   1   2
ATOM      2  C   UNL A   1      31.444  26.315  26.622  1.00  0.00     0.002 C 
BRANCH   2   3
ATOM      3  C   UNL A   1      30.040  25.923  26.188  1.00  0.00     0.021 C 
BRANCH   3   4
ATOM      4  C   UNL A   1      30.112  24.708  25.279  1.00  0.00     0.116 C 
BRANCH   4   5
ATOM      5  N   UNL A   1      30.301  25.147  23.889  1.00  0.00    -0.352 N 
ATOM      6  C   UNL A   1      31.373  24.560  23.072  1.00  0.00     0.251 C 
ATOM      7  O   UNL A   1      31.536  24.940  21.870  1.00  0.00    -0.270 OA
ATOM      8  H   UNL A   1      29.709  25.833  23.504  1.00  0.00     0.163 HD
BRANCH   6   9
ATOM      9  C   UNL A   1      32.286  23.499  23.664  1.00  0.00     0.067 C 
ATOM     10  C   UNL A   1      35.109  20.678  24.899  1.00  0.00    -0.004 A 
ATOM     11  C   UNL A   1      34.799  19.332  24.864  1.00  0.00     0.032 A 
ATOM     12  C   UNL A   1      34.182  21.581  24.437  1.00  0.00     0.131 A 
ATOM     13  C   UNL A   1      33.594  18.898  24.375  1.00  0.00     0.108 A 
ATOM     14  C   UNL A   1      32.949  21.182  23.954  1.00  0.00     0.019 A 
ATOM     15  O   UNL A   1      34.547  22.903  24.372  1.00  0.00    -0.475 OA
ATOM     16  C   UNL A   1      32.671  19.819  23.929  1.00  0.00     0.036 A 
ATOM     17  C   UNL A   1      32.053  22.209  23.452  1.00  0.00     0.025 C 
ATOM     18  C   UNL A   1      33.487  23.891  24.513  1.00  0.00     0.314 C 
BRANCH  10  19
ATOM     19  C   UNL A   1      36.400  21.058  25.606  1.00  0.00     0.036 C 
ATOM     20  C   UNL A   1      37.584  20.507  24.828  1.00  0.00     0.009 C 
ENDBRANCH  10  19
BRANCH  13  21
ATOM     21  S   UNL A   1      33.218  17.128  24.317  1.00  0.00     0.310 S 
ATOM     22  F   UNL A   1      34.679  16.797  24.838  1.00  0.00    -0.094 F 
ATOM     23  F   UNL A   1      33.820  17.165  22.861  1.00  0.00    -0.094 F 
ATOM     24  F   UNL A   1      32.977  15.596  24.208  1.00  0.00    -0.094 F 
ATOM     25  F   UNL A   1      32.749  17.087  25.825  1.00  0.00    -0.094 F 
ATOM     26  F   UNL A   1      33.563  18.662  24.481  1.00  0.00    -0.094 F 
ENDBRANCH  13  21
BRANCH  18  27
ATOM     27  C   UNL A   1      34.004  25.243  24.047  1.00  0.00     0.429 C 
ATOM     28  F   UNL A   1      33.061  26.163  24.226  1.00  0.00    -0.167 F 
ATOM     29  F   UNL A   1      35.085  25.571  24.750  1.00  0.00    -0.167 F 
ATOM     30  F   UNL A   1      34.320  25.175  22.757  1.00  0.00    -0.167 F 
ENDBRANCH  18  27
ENDBRANCH   6   9
ENDBRANCH   4   5
ENDBRANCH   3   4
ENDBRANCH   2   3
ENDBRANCH   1   2
BRANCH   1  31
ATOM     31  C   UNL A   1      31.468  28.558  25.559  1.00  0.00     0.021 C 
BRANCH  31  32
ATOM     32  C   UNL A   1      32.568  29.607  25.548  1.00  0.00     0.116 C 
BRANCH  32  33
ATOM     33  N   UNL A   1      31.994  30.923  25.864  1.00  0.00    -0.352 N 
ATOM     34  C   UNL A   1      32.654  31.797  26.845  1.00  0.00     0.251 C 
ATOM     35  H   UNL A   1      31.166  31.220  25.420  1.00  0.00     0.163 HD
ATOM     36  O   UNL A   1      32.158  32.934  27.118  1.00  0.00    -0.269 OA
BRANCH  34  37
ATOM     37  C   UNL A   1      33.931  31.340  27.530  1.00  0.00     0.039 A 
ATOM     38  C   UNL A   1      34.153  30.004  27.820  1.00  0.00     0.014 A 
ATOM     39  C   UNL A   1      34.764  32.284  27.954  1.00  0.00     0.014 A 
ATOM     40  C   UNL A   1      35.134  29.788  28.816  1.00  0.00     0.010 A 
ATOM     41  C   UNL A   1      35.785  31.978  28.822  1.00  0.00     0.010 A 
ATOM     42  C   UNL A   1      36.026  30.686  29.197  1.00  0.00    -0.014 A 
BRANCH  42  43
ATOM     43  C   UNL A   1      37.252  30.303  30.009  1.00  0.00     0.031 A 
ATOM     44  C   UNL A   1      38.162  29.487  29.336  1.00  0.00     0.074 A 
ATOM     45  C   UNL A   1      37.459  30.809  31.280  1.00  0.00     0.049 A 
ATOM     46  N   UNL A   1      39.363  29.087  29.757  1.00  0.00    -0.248 NA
ATOM     47  C   UNL A   1      37.930  28.920  27.999  1.00  0.00     0.031 C 
ATOM     48  C   UNL A   1      36.550  31.641  31.963  1.00  0.00     0.029 A 
ATOM     49  N   UNL A   1      38.547  30.612  32.102  1.00  0.00    -0.354 N 
ATOM     50  C   UNL A   1      39.949  28.330  28.828  1.00  0.00     0.074 A 
ATOM     51  C   UNL A   1      39.033  28.206  27.686  1.00  0.00     0.031 C 
ATOM     52  C   UNL A   1      37.076  31.931  33.182  1.00  0.00     0.029 A 
ATOM     53  C   UNL A   1      38.324  31.287  33.281  1.00  0.00     0.049 A 
ATOM     54  H   UNL A   1      39.347  30.081  31.883  1.00  0.00     0.167 HD
ATOM     55  C   UNL A   1      41.213  27.740  28.886  1.00  0.00     0.034 A 
ATOM     56  C   UNL A   1      39.150  31.347  34.393  1.00  0.00     0.034 A 
ATOM     57  C   UNL A   1      42.057  27.837  29.982  1.00  0.00     0.049 A 
ATOM     58  C   UNL A   1      40.389  30.709  34.475  1.00  0.00     0.074 A 
ATOM     59  C   UNL A   1      43.336  27.254  30.055  1.00  0.00     0.029 A 
ATOM     60  N   UNL A   1      41.822  28.491  31.172  1.00  0.00    -0.354 N 
ATOM     61  N   UNL A   1      40.992  29.985  33.531  1.00  0.00    -0.248 NA
ATOM     62  C   UNL A   1      41.256  30.739  35.661  1.00  0.00     0.031 C 
ATOM     63  C   UNL A   1      43.863  27.544  31.274  1.00  0.00     0.029 A 
ATOM     64  C   UNL A   1      42.921  28.313  31.984  1.00  0.00     0.049 A 
ATOM     65  H   UNL A   1      41.011  28.998  31.401  1.00  0.00     0.167 HD
ATOM     66  C   UNL A   1      42.174  29.551  33.969  1.00  0.00     0.074 A 
ATOM     67  C   UNL A   1      42.359  30.024  35.348  1.00  0.00     0.031 C 
ATOM     68  C   UNL A   1      43.110  28.783  33.273  1.00  0.00     0.034 A 
BRANCH  55  69
ATOM     69  C   UNL A   1      41.691  26.947  27.681  1.00  0.00     0.023 A 
ATOM     70  C   UNL A   1      42.239  27.617  26.600  1.00  0.00     0.012 A 
ATOM     71  C   UNL A   1      41.576  25.624  27.684  1.00  0.00     0.148 A 
ATOM     72  C   UNL A   1      42.373  26.820  25.439  1.00  0.00     0.002 A 
ATOM     73  C   UNL A   1      41.855  24.894  26.554  1.00  0.00     0.091 A 
ATOM     74  F   UNL A   1      41.188  24.999  28.793  1.00  0.00    -0.205 F 
ATOM     75  C   UNL A   1      42.343  25.499  25.429  1.00  0.00     0.022 A 
BRANCH  73  76
ATOM     76  S   UNL A   1      41.572  23.107  26.554  1.00  0.00     0.127 S 
ATOM     77  O   UNL A   1      40.068  22.828  26.628  1.00  0.00    -0.237 OA
ATOM     78  O   UNL A   1      42.140  22.500  25.269  1.00  0.00    -0.237 OA
ATOM     79  O   UNL A   1      42.347  22.406  27.907  1.00  0.00    -0.744 OA
ENDBRANCH  73  76
ENDBRANCH  55  69
BRANCH  56  80
ATOM     80  C   UNL A   1      38.678  32.155  35.593  1.00  0.00     0.023 A 
ATOM     81  C   UNL A   1      38.890  33.523  35.615  1.00  0.00     0.012 A 
ATOM     82  C   UNL A   1      38.072  31.535  36.598  1.00  0.00     0.148 A 
ATOM     83  C   UNL A   1      38.681  34.114  36.884  1.00  0.00     0.002 A 
ATOM     84  C   UNL A   1      37.775  32.208  37.758  1.00  0.00     0.091 A 
ATOM     85  F   UNL A   1      37.749  30.250  36.481  1.00  0.00    -0.205 F 
ATOM     86  C   UNL A   1      38.011  33.550  37.872  1.00  0.00     0.022 A 
BRANCH  84  87
ATOM     87  S   UNL A   1      37.060  31.307  39.155  1.00  0.00     0.127 S 
ATOM     88  O   UNL A   1      37.032  29.810  38.835  1.00  0.00    -0.237 OA
ATOM     89  O   UNL A   1      37.910  31.546  40.406  1.00  0.00    -0.237 OA
ATOM     90  O   UNL A   1      35.466  31.860  39.435  1.00  0.00    -0.744 OA
ENDBRANCH  84  87
ENDBRANCH  56  80
BRANCH  68  91
ATOM     91  C   UNL A   1      44.416  28.442  33.973  1.00  0.00     0.023 A 
ATOM     92  C   UNL A   1      45.503  29.297  33.915  1.00  0.00     0.012 A 
ATOM     93  C   UNL A   1      44.491  27.274  34.600  1.00  0.00     0.148 A 
ATOM     94  C   UNL A   1      46.725  28.698  34.303  1.00  0.00     0.002 A 
ATOM     95  C   UNL A   1      45.694  26.811  35.075  1.00  0.00     0.091 A 
ATOM     96  F   UNL A   1      43.392  26.544  34.768  1.00  0.00    -0.205 F 
ATOM     97  C   UNL A   1      46.823  27.579  34.998  1.00  0.00     0.022 A 
BRANCH  95  98
ATOM     98  S   UNL A   1      45.786  25.162  35.815  1.00  0.00     0.127 S 
ATOM     99  O   UNL A   1      47.251  24.732  35.923  1.00  0.00    -0.237 OA
ATOM    100  O   UNL A   1      45.159  25.194  37.211  1.00  0.00    -0.237 OA
ATOM    101  O   UNL A   1      44.936  24.049  34.834  1.00  0.00    -0.744 OA
ENDBRANCH  95  98
ENDBRANCH  68  91
ENDBRANCH  42  43
ENDBRANCH  34  37
ENDBRANCH  32  33
ENDBRANCH  31  32
ENDBRANCH   1  31
TORSDOF 19
ENDMDL
MODEL 3
REMARK VINA RESULT:     -12.8      2.268      3.282
REMARK SMILES CCc1cc(S(F)(F)(F)(F)F)cc2c1O[C@@H](C(F)(F)F)C(C(=O)NCCCCCCNC(=O)c1ccc(-c3c4nc(c(-c5cccc(S(=O)(=O)[O-])c5F)c5ccc([nH]5)c(-c5cccc(S(=O)(=O)[O-])c5F)c5nc(c(-c6cccc(S(=O)(=O)[O-])c6F)c6ccc3[nH]6)C=C5)C=C4)cc1)=C2
REMARK SMILES IDX 28 1 27 2 26 3 25 4 24 5 22 6 23 7 21 9 3 10 4 11 14 12 5 13
REMARK SMILES IDX 13 14 15 15 12 16 97 17 16 18 2 19 1 20 6 21 7 22 8 23 9 24
REMARK SMILES IDX 10 25 11 26 17 27 18 28 19 29 20 30 29 31 30 32 31 33 32 34
REMARK SMILES IDX 33 36 34 37 35 38 96 39 36 40 95 41 37 42 38 43 39 44 89 45
REMARK SMILES IDX 40 46 94 47 88 48 90 49 41 50 93 51 87 52 86 53 42 55 74 56
REMARK SMILES IDX 54 57 73 58 55 59 58 60 72 61 91 62 56 63 57 64 71 66 92 67
REMARK SMILES IDX 59 68 43 69 44 70 52 71 45 72 47 73 53 74 46 75 48 76 49 77
REMARK SMILES IDX 50 78 51 79 75 80 76 81 84 82 77 83 79 84 85 85 78 86 80 87
REMARK SMILES IDX 81 88 82 89 83 90 60 91 61 92 69 93 62 94 64 95 70 96 63 97
REMARK SMILES IDX 65 98 66 99 67 100 68 101
REMARK H PARENT 24 8 31 35 90 54 58 65
REMARK Flexibility Score: inf
ROOT
ATOM      1  C   UNL A   1      32.462  30.474  27.220  1.00  0.00     0.002 C 
ENDROOT
BRANCH   1   2
ATOM      2  C   UNL A   1      33.899  30.639  27.689  1.00  0.00     0.002 C 
BRANCH   2   3
ATOM      3  C   UNL A   1      34.785  29.637  26.967  1.00  0.00     0.021 C 
BRANCH   3   4
ATOM      4  C   UNL A   1      33.919  28.673  26.174  1.00  0.00     0.116 C 
BRANCH   4   5
ATOM      5  N   UNL A   1      33.786  29.157  24.792  1.00  0.00    -0.352 N 
ATOM      6  C   UNL A   1      33.385  28.231  23.724  1.00  0.00     0.251 C 
ATOM      7  O   UNL A   1      33.271  28.649  22.529  1.00  0.00    -0.270 OA
ATOM      8  H   UNL A   1      33.967  30.101  24.582  1.00  0.00     0.163 HD
BRANCH   6   9
ATOM      9  C   UNL A   1      33.106  26.772  24.047  1.00  0.00     0.067 C 
ATOM     10  C   UNL A   1      32.243  22.919  25.412  1.00  0.00    -0.004 A 
ATOM     11  C   UNL A   1      33.246  21.971  25.480  1.00  0.00     0.032 A 
ATOM     12  C   UNL A   1      32.565  24.193  25.010  1.00  0.00     0.131 A 
ATOM     13  C   UNL A   1      34.540  22.289  25.159  1.00  0.00     0.108 A 
ATOM     14  C   UNL A   1      33.856  24.546  24.661  1.00  0.00     0.019 A 
ATOM     15  O   UNL A   1      31.582  25.151  25.057  1.00  0.00    -0.475 OA
ATOM     16  C   UNL A   1      34.842  23.569  24.745  1.00  0.00     0.036 A 
ATOM     17  C   UNL A   1      34.103  25.928  24.287  1.00  0.00     0.025 C 
ATOM     18  C   UNL A   1      31.678  26.246  24.102  1.00  0.00     0.314 C 
BRANCH  10  19
ATOM     19  C   UNL A   1      30.824  22.421  25.634  1.00  0.00     0.036 C 
ATOM     20  C   UNL A   1      30.261  23.042  26.902  1.00  0.00     0.009 C 
ENDBRANCH  10  19
BRANCH  13  21
ATOM     21  S   UNL A   1      35.843  21.037  25.278  1.00  0.00     0.310 S 
ATOM     22  F   UNL A   1      36.505  21.596  23.950  1.00  0.00    -0.094 F 
ATOM     23  F   UNL A   1      34.916  20.152  24.363  1.00  0.00    -0.094 F 
ATOM     24  F   UNL A   1      36.937  19.934  25.287  1.00  0.00    -0.094 F 
ATOM     25  F   UNL A   1      36.812  21.995  26.078  1.00  0.00    -0.094 F 
ATOM     26  F   UNL A   1      34.787  22.210  25.184  1.00  0.00    -0.094 F 
ENDBRANCH  13  21
BRANCH  18  27
ATOM     27  C   UNL A   1      30.752  27.369  24.542  1.00  0.00     0.429 C 
ATOM     28  F   UNL A   1      30.806  28.359  23.655  1.00  0.00    -0.167 F 
ATOM     29  F   UNL A   1      29.506  26.911  24.621  1.00  0.00    -0.167 F 
ATOM     30  F   UNL A   1      31.136  27.819  25.733  1.00  0.00    -0.167 F 
ENDBRANCH  18  27
ENDBRANCH   6   9
ENDBRANCH   4   5
ENDBRANCH   3   4
ENDBRANCH   2   3
ENDBRANCH   1   2
BRANCH   1  31
ATOM     31  C   UNL A   1      31.859  31.842  26.942  1.00  0.00     0.021 C 
BRANCH  31  32
ATOM     32  C   UNL A   1      32.937  32.906  27.075  1.00  0.00     0.116 C 
BRANCH  32  33
ATOM     33  N   UNL A   1      32.336  34.153  27.571  1.00  0.00    -0.352 N 
ATOM     34  C   UNL A   1      32.966  34.880  28.683  1.00  0.00     0.251 C 
ATOM     35  H   UNL A   1      31.511  34.501  27.160  1.00  0.00     0.163 HD
ATOM     36  O   UNL A   1      32.446  35.958  29.112  1.00  0.00    -0.269 OA
BRANCH  34  37
ATOM     37  C   UNL A   1      34.238  34.344  29.318  1.00  0.00     0.039 A 
ATOM     38  C   UNL A   1      35.485  34.656  28.802  1.00  0.00     0.014 A 
ATOM     39  C   UNL A   1      34.101  33.466  30.305  1.00  0.00     0.014 A 
ATOM     40  C   UNL A   1      36.509  33.766  29.201  1.00  0.00     0.010 A 
ATOM     41  C   UNL A   1      35.175  32.727  30.737  1.00  0.00     0.010 A 
ATOM     42  C   UNL A   1      36.426  32.940  30.229  1.00  0.00    -0.014 A 
BRANCH  42  43
ATOM     43  C   UNL A   1      37.655  32.264  30.815  1.00  0.00     0.031 A 
ATOM     44  C   UNL A   1      38.083  32.793  32.034  1.00  0.00     0.074 A 
ATOM     45  C   UNL A   1      38.228  31.161  30.206  1.00  0.00     0.049 A 
ATOM     46  N   UNL A   1      39.057  32.335  32.822  1.00  0.00    -0.248 NA
ATOM     47  C   UNL A   1      37.498  33.985  32.667  1.00  0.00     0.031 C 
ATOM     48  C   UNL A   1      37.796  30.616  28.981  1.00  0.00     0.029 A 
ATOM     49  N   UNL A   1      39.289  30.405  30.653  1.00  0.00    -0.354 N 
ATOM     50  C   UNL A   1      39.161  33.095  33.915  1.00  0.00     0.074 A 
ATOM     51  C   UNL A   1      38.164  34.171  33.827  1.00  0.00     0.031 C 
ATOM     52  C   UNL A   1      38.593  29.555  28.687  1.00  0.00     0.029 A 
ATOM     53  C   UNL A   1      39.534  29.417  29.724  1.00  0.00     0.049 A 
ATOM     54  H   UNL A   1      39.786  30.546  31.491  1.00  0.00     0.167 HD
ATOM     55  C   UNL A   1      40.046  32.931  34.982  1.00  0.00     0.034 A 
ATOM     56  C   UNL A   1      40.521  28.445  29.762  1.00  0.00     0.034 A 
ATOM     57  C   UNL A   1      41.004  31.931  35.039  1.00  0.00     0.049 A 
ATOM     58  C   UNL A   1      41.445  28.316  30.801  1.00  0.00     0.074 A 
ATOM     59  C   UNL A   1      41.900  31.748  36.110  1.00  0.00     0.029 A 
ATOM     60  N   UNL A   1      41.266  30.959  34.098  1.00  0.00    -0.354 N 
ATOM     61  N   UNL A   1      41.523  29.051  31.912  1.00  0.00    -0.248 NA
ATOM     62  C   UNL A   1      42.515  27.310  30.835  1.00  0.00     0.031 C 
ATOM     63  C   UNL A   1      42.696  30.686  35.816  1.00  0.00     0.029 A 
ATOM     64  C   UNL A   1      42.313  30.189  34.556  1.00  0.00     0.049 A 
ATOM     65  H   UNL A   1      40.788  30.836  33.247  1.00  0.00     0.167 HD
ATOM     66  C   UNL A   1      42.524  28.619  32.679  1.00  0.00     0.074 A 
ATOM     67  C   UNL A   1      43.181  27.497  31.994  1.00  0.00     0.031 C 
ATOM     68  C   UNL A   1      42.915  29.112  33.926  1.00  0.00     0.034 A 
BRANCH  55  69
ATOM     69  C   UNL A   1      39.954  33.904  36.145  1.00  0.00     0.023 A 
ATOM     70  C   UNL A   1      40.491  35.174  36.015  1.00  0.00     0.012 A 
ATOM     71  C   UNL A   1      39.358  33.521  37.269  1.00  0.00     0.148 A 
ATOM     72  C   UNL A   1      40.608  35.876  37.237  1.00  0.00     0.002 A 
ATOM     73  C   UNL A   1      39.394  34.319  38.387  1.00  0.00     0.091 A 
ATOM     74  F   UNL A   1      38.721  32.355  37.312  1.00  0.00    -0.205 F 
ATOM     75  C   UNL A   1      39.963  35.562  38.346  1.00  0.00     0.022 A 
BRANCH  73  76
ATOM     76  S   UNL A   1      38.680  33.715  39.937  1.00  0.00     0.127 S 
ATOM     77  O   UNL A   1      37.213  33.342  39.711  1.00  0.00    -0.237 OA
ATOM     78  O   UNL A   1      39.453  32.482  40.409  1.00  0.00    -0.237 OA
ATOM     79  O   UNL A   1      38.779  34.940  41.125  1.00  0.00    -0.744 OA
ENDBRANCH  73  76
ENDBRANCH  55  69
BRANCH  56  80
ATOM     80  C   UNL A   1      40.602  27.461  28.604  1.00  0.00     0.023 A 
ATOM     81  C   UNL A   1      39.728  26.387  28.564  1.00  0.00     0.012 A 
ATOM     82  C   UNL A   1      41.509  27.649  27.653  1.00  0.00     0.148 A 
ATOM     83  C   UNL A   1      40.084  25.396  27.619  1.00  0.00     0.002 A 
ATOM     84  C   UNL A   1      41.710  26.698  26.681  1.00  0.00     0.091 A 
ATOM     85  F   UNL A   1      42.229  28.767  27.640  1.00  0.00    -0.205 F 
ATOM     86  C   UNL A   1      40.922  25.582  26.615  1.00  0.00     0.022 A 
BRANCH  84  87
ATOM     87  S   UNL A   1      43.035  26.926  25.471  1.00  0.00     0.127 S 
ATOM     88  O   UNL A   1      42.610  27.975  24.441  1.00  0.00    -0.237 OA
ATOM     89  O   UNL A   1      44.305  27.398  26.186  1.00  0.00    -0.237 OA
ATOM     90  O   UNL A   1      43.346  25.443  24.679  1.00  0.00    -0.744 OA
ENDBRANCH  84  87
ENDBRANCH  56  80
BRANCH  68  91
ATOM     91  C   UNL A   1      44.070  28.424  34.636  1.00  0.00     0.023 A 
ATOM     92  C   UNL A   1      45.369  28.884  34.500  1.00  0.00     0.012 A 
ATOM     93  C   UNL A   1      43.795  27.338  35.348  1.00  0.00     0.148 A 
ATOM     94  C   UNL A   1      46.353  27.957  34.920  1.00  0.00     0.002 A 
ATOM     95  C   UNL A   1      44.807  26.552  35.843  1.00  0.00     0.091 A 
ATOM     96  F   UNL A   1      42.528  27.007  35.583  1.00  0.00    -0.205 F 
ATOM     97  C   UNL A   1      46.116  26.915  35.696  1.00  0.00     0.022 A 
BRANCH  95  98
ATOM     98  S   UNL A   1      44.400  25.013  36.706  1.00  0.00     0.127 S 
ATOM     99  O   UNL A   1      43.655  25.337  38.003  1.00  0.00    -0.237 OA
ATOM    100  O   UNL A   1      43.511  24.146  35.810  1.00  0.00    -0.237 OA
ATOM    101  O   UNL A   1      45.839  24.166  37.071  1.00  0.00    -0.744 OA
ENDBRANCH  95  98
ENDBRANCH  68  91
ENDBRANCH  42  43
ENDBRANCH  34  37
ENDBRANCH  32  33
ENDBRANCH  31  32
ENDBRANCH   1  31
TORSDOF 19
ENDMDL
