MODEL 1
REMARK VINA RESULT:     -11.4      0.000      0.000
REMARK SMILES CC(C)CN(C)c1cc2c(cc1Cl)C=C(C(=O)NCCCCCCNC(=O)c1ccc(-c3c4nc(c(-c5cccc(S(=O)(=O)[O-])c5F)c5ccc([nH]5)c(-c5cccc(S(=O)(=O)[O-])c5F)c5nc(c(-c6cccc(S(=O)(=O)[O-])c6F)c6ccc3[nH]6)C=C5)C=C4)cc1)[C@@H](C(F)(F)F)O2
REMARK SMILES IDX 21 1 20 2 19 3 18 4 16 5 17 6 15 8 7 9 8 10 12 11 9 12 11 13
REMARK SMILES IDX 13 14 10 15 96 16 14 17 91 18 5 19 6 20 4 21 2 22 1 23 3 24
REMARK SMILES IDX 92 25 93 26 94 27 95 28 22 29 23 30 24 31 25 32 26 33 27 35
REMARK SMILES IDX 28 36 29 37 90 38 30 39 89 40 31 41 32 42 33 43 83 44 34 45
REMARK SMILES IDX 88 46 82 47 84 48 35 49 87 50 81 51 80 52 36 54 68 55 48 56
REMARK SMILES IDX 67 57 49 58 52 59 66 60 85 61 50 62 51 63 65 65 86 66 53 67
REMARK SMILES IDX 37 68 38 69 46 70 39 71 41 72 47 73 40 74 42 75 43 76 44 77
REMARK SMILES IDX 45 78 69 79 70 80 78 81 71 82 73 83 79 84 72 85 74 86 75 87
REMARK SMILES IDX 76 88 77 89 54 90 55 91 63 92 56 93 58 94 64 95 57 96 59 97
REMARK SMILES IDX 60 98 61 99 62 100
REMARK H PARENT 18 7 25 34 84 53 52 64
REMARK Flexibility Score: inf
ROOT
ATOM      1  C   UNL A   1      33.235  28.444  26.263  1.00  0.00     0.002 C 
ENDROOT
BRANCH   1   2
ATOM      2  C   UNL A   1      31.730  28.577  26.006  1.00  0.00     0.021 C 
BRANCH   2   3
ATOM      3  C   UNL A   1      31.371  28.801  24.540  1.00  0.00     0.116 C 
BRANCH   3   4
ATOM      4  N   UNL A   1      30.139  28.117  24.191  1.00  0.00    -0.352 N 
ATOM      5  C   UNL A   1      29.746  26.845  23.962  1.00  0.00     0.251 C 
ATOM      6  O   UNL A   1      28.543  26.702  23.719  1.00  0.00    -0.270 OA
ATOM      7  H   UNL A   1      29.390  28.749  24.097  1.00  0.00     0.163 HD
BRANCH   5   8
ATOM      8  C   UNL A   1      30.637  25.652  23.975  1.00  0.00     0.067 C 
ATOM      9  C   UNL A   1      33.069  21.428  25.304  1.00  0.00     0.059 A 
ATOM     10  C   UNL A   1      32.582  21.948  24.093  1.00  0.00     0.074 A 
ATOM     11  C   UNL A   1      32.917  22.221  26.464  1.00  0.00     0.065 A 
ATOM     12  C   UNL A   1      31.924  23.174  24.062  1.00  0.00     0.130 A 
ATOM     13  C   UNL A   1      32.175  23.408  26.440  1.00  0.00     0.034 A 
ATOM     14  Cl  UNL A   1      33.637  21.782  27.976  1.00  0.00    -0.082 Cl
ATOM     15  C   UNL A   1      31.656  23.875  25.237  1.00  0.00     0.019 A 
ATOM     16  O   UNL A   1      31.530  23.642  22.839  1.00  0.00    -0.475 OA
ATOM     17  C   UNL A   1      30.808  25.059  25.172  1.00  0.00     0.025 C 
ATOM     18  C   UNL A   1      31.351  25.087  22.778  1.00  0.00     0.314 C 
BRANCH   9  19
ATOM     19  N   UNL A   1      33.633  20.142  25.341  1.00  0.00    -0.373 N 
ATOM     20  C   UNL A   1      34.990  20.046  24.802  1.00  0.00     0.143 C 
BRANCH  19  21
ATOM     21  C   UNL A   1      32.717  19.030  25.004  1.00  0.00     0.119 C 
BRANCH  21  22
ATOM     22  C   UNL A   1      33.292  18.096  23.917  1.00  0.00     0.002 C 
ATOM     23  C   UNL A   1      33.296  16.626  24.351  1.00  0.00     0.009 C 
ATOM     24  C   UNL A   1      32.501  18.217  22.611  1.00  0.00     0.009 C 
ENDBRANCH  21  22
ENDBRANCH  19  21
ENDBRANCH   9  19
BRANCH  18  25
ATOM     25  C   UNL A   1      32.698  25.801  22.531  1.00  0.00     0.429 C 
ATOM     26  F   UNL A   1      32.532  26.882  21.732  1.00  0.00    -0.167 F 
ATOM     27  F   UNL A   1      33.252  26.255  23.683  1.00  0.00    -0.167 F 
ATOM     28  F   UNL A   1      33.621  25.002  21.948  1.00  0.00    -0.167 F 
ENDBRANCH  18  25
ENDBRANCH   5   8
ENDBRANCH   3   4
ENDBRANCH   2   3
ENDBRANCH   1   2
BRANCH   1  29
ATOM     29  C   UNL A   1      33.866  29.590  27.063  1.00  0.00     0.002 C 
BRANCH  29  30
ATOM     30  C   UNL A   1      33.556  30.998  26.552  1.00  0.00     0.021 C 
BRANCH  30  31
ATOM     31  C   UNL A   1      32.494  31.745  27.349  1.00  0.00     0.116 C 
BRANCH  31  32
ATOM     32  N   UNL A   1      32.777  33.167  27.452  1.00  0.00    -0.352 N 
ATOM     33  C   UNL A   1      33.833  33.791  28.071  1.00  0.00     0.251 C 
ATOM     34  H   UNL A   1      32.123  33.763  27.020  1.00  0.00     0.163 HD
ATOM     35  O   UNL A   1      33.833  35.010  28.211  1.00  0.00    -0.269 OA
BRANCH  33  36
ATOM     36  C   UNL A   1      34.947  32.972  28.591  1.00  0.00     0.039 A 
ATOM     37  C   UNL A   1      34.722  32.049  29.615  1.00  0.00     0.014 A 
ATOM     38  C   UNL A   1      36.233  33.163  28.080  1.00  0.00     0.014 A 
ATOM     39  C   UNL A   1      35.804  31.435  30.235  1.00  0.00     0.010 A 
ATOM     40  C   UNL A   1      37.310  32.480  28.652  1.00  0.00     0.010 A 
ATOM     41  C   UNL A   1      37.111  31.645  29.764  1.00  0.00    -0.014 A 
BRANCH  41  42
ATOM     42  C   UNL A   1      38.249  30.967  30.434  1.00  0.00     0.031 A 
ATOM     43  C   UNL A   1      39.085  29.951  29.705  1.00  0.00     0.074 A 
ATOM     44  C   UNL A   1      38.546  31.299  31.706  1.00  0.00     0.049 A 
ATOM     45  N   UNL A   1      40.112  29.269  30.145  1.00  0.00    -0.248 NA
ATOM     46  C   UNL A   1      38.730  29.657  28.307  1.00  0.00     0.031 C 
ATOM     47  C   UNL A   1      37.799  32.261  32.521  1.00  0.00     0.029 A 
ATOM     48  N   UNL A   1      39.554  30.876  32.534  1.00  0.00    -0.354 N 
ATOM     49  C   UNL A   1      40.497  28.440  29.100  1.00  0.00     0.074 A 
ATOM     50  C   UNL A   1      39.597  28.700  27.999  1.00  0.00     0.031 C 
ATOM     51  C   UNL A   1      38.397  32.385  33.715  1.00  0.00     0.029 A 
ATOM     52  C   UNL A   1      39.533  31.471  33.772  1.00  0.00     0.049 A 
ATOM     53  H   UNL A   1      40.228  30.210  32.266  1.00  0.00     0.167 HD
ATOM     54  C   UNL A   1      41.520  27.553  29.057  1.00  0.00     0.034 A 
ATOM     55  C   UNL A   1      40.329  31.297  34.845  1.00  0.00     0.034 A 
ATOM     56  C   UNL A   1      42.446  27.333  30.134  1.00  0.00     0.049 A 
ATOM     57  C   UNL A   1      41.461  30.316  34.765  1.00  0.00     0.074 A 
ATOM     58  C   UNL A   1      43.540  26.483  30.163  1.00  0.00     0.029 A 
ATOM     59  N   UNL A   1      42.398  27.966  31.365  1.00  0.00    -0.354 N 
ATOM     60  N   UNL A   1      41.844  29.590  33.745  1.00  0.00    -0.248 NA
ATOM     61  C   UNL A   1      42.277  30.140  35.974  1.00  0.00     0.031 C 
ATOM     62  C   UNL A   1      44.150  26.600  31.415  1.00  0.00     0.029 A 
ATOM     63  C   UNL A   1      43.442  27.528  32.161  1.00  0.00     0.049 A 
ATOM     64  H   UNL A   1      41.720  28.628  31.634  1.00  0.00     0.167 HD
ATOM     65  C   UNL A   1      42.954  28.879  34.182  1.00  0.00     0.074 A 
ATOM     66  C   UNL A   1      43.194  29.277  35.554  1.00  0.00     0.031 C 
ATOM     67  C   UNL A   1      43.695  27.968  33.508  1.00  0.00     0.034 A 
BRANCH  54  68
ATOM     68  C   UNL A   1      41.738  26.778  27.787  1.00  0.00     0.023 A 
ATOM     69  C   UNL A   1      42.312  27.428  26.676  1.00  0.00     0.012 A 
ATOM     70  C   UNL A   1      41.490  25.393  27.732  1.00  0.00     0.148 A 
ATOM     71  C   UNL A   1      42.629  26.710  25.524  1.00  0.00     0.002 A 
ATOM     72  C   UNL A   1      41.836  24.680  26.590  1.00  0.00     0.091 A 
ATOM     73  F   UNL A   1      40.935  24.802  28.798  1.00  0.00    -0.205 F 
ATOM     74  C   UNL A   1      42.402  25.337  25.485  1.00  0.00     0.022 A 
BRANCH  72  75
ATOM     75  S   UNL A   1      41.640  22.899  26.456  1.00  0.00     0.127 S 
ATOM     76  O   UNL A   1      42.293  22.438  27.682  1.00  0.00    -0.237 OA
ATOM     77  O   UNL A   1      40.185  22.750  26.447  1.00  0.00    -0.237 OA
ATOM     78  O   UNL A   1      42.305  22.511  25.219  1.00  0.00    -0.744 OA
ENDBRANCH  72  75
ENDBRANCH  54  68
BRANCH  55  79
ATOM     79  C   UNL A   1      40.094  32.117  36.062  1.00  0.00     0.023 A 
ATOM     80  C   UNL A   1      40.835  33.299  36.248  1.00  0.00     0.012 A 
ATOM     81  C   UNL A   1      39.079  31.784  36.979  1.00  0.00     0.148 A 
ATOM     82  C   UNL A   1      40.571  34.137  37.331  1.00  0.00     0.002 A 
ATOM     83  C   UNL A   1      38.790  32.644  38.030  1.00  0.00     0.091 A 
ATOM     84  F   UNL A   1      38.391  30.651  36.777  1.00  0.00    -0.205 F 
ATOM     85  C   UNL A   1      39.541  33.816  38.214  1.00  0.00     0.022 A 
BRANCH  83  86
ATOM     86  S   UNL A   1      37.409  32.379  39.147  1.00  0.00     0.127 S 
ATOM     87  O   UNL A   1      37.778  33.223  40.282  1.00  0.00    -0.237 OA
ATOM     88  O   UNL A   1      36.284  32.872  38.351  1.00  0.00    -0.237 OA
ATOM     89  O   UNL A   1      37.382  30.948  39.413  1.00  0.00    -0.744 OA
ENDBRANCH  83  86
ENDBRANCH  55  79
BRANCH  67  90
ATOM     90  C   UNL A   1      44.854  27.335  34.226  1.00  0.00     0.023 A 
ATOM     91  C   UNL A   1      46.101  27.987  34.231  1.00  0.00     0.012 A 
ATOM     92  C   UNL A   1      44.671  26.166  34.991  1.00  0.00     0.148 A 
ATOM     93  C   UNL A   1      47.158  27.478  34.985  1.00  0.00     0.002 A 
ATOM     94  C   UNL A   1      45.719  25.685  35.765  1.00  0.00     0.091 A 
ATOM     95  F   UNL A   1      43.475  25.563  34.957  1.00  0.00    -0.205 F 
ATOM     96  C   UNL A   1      46.963  26.337  35.760  1.00  0.00     0.022 A 
BRANCH  94  97
ATOM     97  S   UNL A   1      45.545  24.266  36.852  1.00  0.00     0.127 S 
ATOM     98  O   UNL A   1      44.921  23.285  35.965  1.00  0.00    -0.237 OA
ATOM     99  O   UNL A   1      46.934  23.975  37.205  1.00  0.00    -0.237 OA
ATOM    100  O   UNL A   1      44.716  24.709  37.966  1.00  0.00    -0.744 OA
ENDBRANCH  94  97
ENDBRANCH  67  90
ENDBRANCH  41  42
ENDBRANCH  33  36
ENDBRANCH  31  32
ENDBRANCH  30  31
ENDBRANCH  29  30
ENDBRANCH   1  29
TORSDOF 20
ENDMDL
MODEL 2
REMARK VINA RESULT:     -11.4      1.635      7.544
REMARK SMILES CC(C)CN(C)c1cc2c(cc1Cl)C=C(C(=O)NCCCCCCNC(=O)c1ccc(-c3c4nc(c(-c5cccc(S(=O)(=O)[O-])c5F)c5ccc([nH]5)c(-c5cccc(S(=O)(=O)[O-])c5F)c5nc(c(-c6cccc(S(=O)(=O)[O-])c6F)c6ccc3[nH]6)C=C5)C=C4)cc1)[C@@H](C(F)(F)F)O2
REMARK SMILES IDX 21 1 20 2 19 3 18 4 16 5 17 6 15 8 7 9 8 10 12 11 9 12 11 13
REMARK SMILES IDX 13 14 10 15 96 16 14 17 91 18 5 19 6 20 4 21 2 22 1 23 3 24
REMARK SMILES IDX 92 25 93 26 94 27 95 28 22 29 23 30 24 31 25 32 26 33 27 35
REMARK SMILES IDX 28 36 29 37 90 38 30 39 89 40 31 41 32 42 33 43 83 44 34 45
REMARK SMILES IDX 88 46 82 47 84 48 35 49 87 50 81 51 80 52 36 54 68 55 48 56
REMARK SMILES IDX 67 57 49 58 52 59 66 60 85 61 50 62 51 63 65 65 86 66 53 67
REMARK SMILES IDX 37 68 38 69 46 70 39 71 41 72 47 73 40 74 42 75 43 76 44 77
REMARK SMILES IDX 45 78 69 79 70 80 78 81 71 82 73 83 79 84 72 85 74 86 75 87
REMARK SMILES IDX 76 88 77 89 54 90 55 91 63 92 56 93 58 94 64 95 57 96 59 97
REMARK SMILES IDX 60 98 61 99 62 100
REMARK H PARENT 18 7 25 34 84 53 52 64
REMARK Flexibility Score: inf
ROOT
ATOM      1  C   UNL A   1      32.787  29.256  26.191  1.00  0.00     0.002 C 
ENDROOT
BRANCH   1   2
ATOM      2  C   UNL A   1      31.425  29.603  25.582  1.00  0.00     0.021 C 
BRANCH   2   3
ATOM      3  C   UNL A   1      31.294  29.232  24.108  1.00  0.00     0.116 C 
BRANCH   3   4
ATOM      4  N   UNL A   1      30.094  28.452  23.868  1.00  0.00    -0.352 N 
ATOM      5  C   UNL A   1      29.773  27.145  23.744  1.00  0.00     0.251 C 
ATOM      6  O   UNL A   1      28.572  26.912  23.571  1.00  0.00    -0.270 OA
ATOM      7  H   UNL A   1      29.302  29.028  23.770  1.00  0.00     0.163 HD
BRANCH   5   8
ATOM      8  C   UNL A   1      30.740  26.013  23.791  1.00  0.00     0.067 C 
ATOM      9  C   UNL A   1      33.278  21.855  25.127  1.00  0.00     0.059 A 
ATOM     10  C   UNL A   1      32.916  22.440  23.903  1.00  0.00     0.074 A 
ATOM     11  C   UNL A   1      32.920  22.540  26.310  1.00  0.00     0.065 A 
ATOM     12  C   UNL A   1      32.180  23.621  23.872  1.00  0.00     0.130 A 
ATOM     13  C   UNL A   1      32.103  23.677  26.272  1.00  0.00     0.034 A 
ATOM     14  Cl  UNL A   1      33.468  22.025  27.870  1.00  0.00    -0.082 Cl
ATOM     15  C   UNL A   1      31.713  24.206  25.047  1.00  0.00     0.019 A 
ATOM     16  O   UNL A   1      31.915  24.161  22.643  1.00  0.00    -0.475 OA
ATOM     17  C   UNL A   1      30.796  25.336  24.954  1.00  0.00     0.025 C 
ATOM     18  C   UNL A   1      31.642  25.592  22.663  1.00  0.00     0.314 C 
BRANCH   9  19
ATOM     19  N   UNL A   1      33.924  20.607  25.148  1.00  0.00    -0.373 N 
ATOM     20  C   UNL A   1      35.384  20.666  25.073  1.00  0.00     0.143 C 
BRANCH  19  21
ATOM     21  C   UNL A   1      33.275  19.536  24.361  1.00  0.00     0.119 C 
BRANCH  21  22
ATOM     22  C   UNL A   1      33.745  18.125  24.776  1.00  0.00     0.002 C 
ATOM     23  C   UNL A   1      32.679  17.362  25.570  1.00  0.00     0.009 C 
ATOM     24  C   UNL A   1      34.132  17.290  23.552  1.00  0.00     0.009 C 
ENDBRANCH  21  22
ENDBRANCH  19  21
ENDBRANCH   9  19
BRANCH  18  25
ATOM     25  C   UNL A   1      32.954  26.407  22.652  1.00  0.00     0.429 C 
ATOM     26  F   UNL A   1      33.957  25.697  22.082  1.00  0.00    -0.167 F 
ATOM     27  F   UNL A   1      32.836  27.552  21.935  1.00  0.00    -0.167 F 
ATOM     28  F   UNL A   1      33.362  26.767  23.890  1.00  0.00    -0.167 F 
ENDBRANCH  18  25
ENDBRANCH   5   8
ENDBRANCH   3   4
ENDBRANCH   2   3
ENDBRANCH   1   2
BRANCH   1  29
ATOM     29  C   UNL A   1      33.288  30.225  27.270  1.00  0.00     0.002 C 
BRANCH  29  30
ATOM     30  C   UNL A   1      32.580  31.580  27.317  1.00  0.00     0.021 C 
BRANCH  30  31
ATOM     31  C   UNL A   1      33.508  32.785  27.229  1.00  0.00     0.116 C 
BRANCH  31  32
ATOM     32  N   UNL A   1      32.942  33.967  27.860  1.00  0.00    -0.352 N 
ATOM     33  C   UNL A   1      33.281  34.547  29.059  1.00  0.00     0.251 C 
ATOM     34  H   UNL A   1      32.219  34.410  27.361  1.00  0.00     0.163 HD
ATOM     35  O   UNL A   1      32.587  35.445  29.526  1.00  0.00    -0.269 OA
BRANCH  33  36
ATOM     36  C   UNL A   1      34.467  34.052  29.787  1.00  0.00     0.039 A 
ATOM     37  C   UNL A   1      35.747  34.461  29.406  1.00  0.00     0.014 A 
ATOM     38  C   UNL A   1      34.298  33.138  30.829  1.00  0.00     0.014 A 
ATOM     39  C   UNL A   1      36.859  33.837  29.958  1.00  0.00     0.010 A 
ATOM     40  C   UNL A   1      35.420  32.573  31.440  1.00  0.00     0.010 A 
ATOM     41  C   UNL A   1      36.710  32.884  30.979  1.00  0.00    -0.014 A 
BRANCH  41  42
ATOM     42  C   UNL A   1      37.914  32.241  31.563  1.00  0.00     0.031 A 
ATOM     43  C   UNL A   1      38.456  32.676  32.897  1.00  0.00     0.074 A 
ATOM     44  C   UNL A   1      38.503  31.232  30.891  1.00  0.00     0.049 A 
ATOM     45  N   UNL A   1      39.497  32.219  33.546  1.00  0.00    -0.248 NA
ATOM     46  C   UNL A   1      37.748  33.761  33.596  1.00  0.00     0.031 C 
ATOM     47  C   UNL A   1      38.076  30.731  29.582  1.00  0.00     0.029 A 
ATOM     48  N   UNL A   1      39.576  30.442  31.214  1.00  0.00    -0.354 N 
ATOM     49  C   UNL A   1      39.593  32.982  34.702  1.00  0.00     0.074 A 
ATOM     50  C   UNL A   1      38.506  33.935  34.672  1.00  0.00     0.031 C 
ATOM     51  C   UNL A   1      38.852  29.695  29.233  1.00  0.00     0.029 A 
ATOM     52  C   UNL A   1      39.866  29.493  30.263  1.00  0.00     0.049 A 
ATOM     53  H   UNL A   1      40.090  30.545  32.048  1.00  0.00     0.167 HD
ATOM     54  C   UNL A   1      40.497  32.886  35.706  1.00  0.00     0.034 A 
ATOM     55  C   UNL A   1      40.844  28.569  30.213  1.00  0.00     0.034 A 
ATOM     56  C   UNL A   1      41.546  31.905  35.760  1.00  0.00     0.049 A 
ATOM     57  C   UNL A   1      41.825  28.479  31.344  1.00  0.00     0.074 A 
ATOM     58  C   UNL A   1      42.483  31.707  36.760  1.00  0.00     0.029 A 
ATOM     59  N   UNL A   1      41.795  30.955  34.783  1.00  0.00    -0.354 N 
ATOM     60  N   UNL A   1      41.858  29.170  32.456  1.00  0.00    -0.248 NA
ATOM     61  C   UNL A   1      42.892  27.476  31.222  1.00  0.00     0.031 C 
ATOM     62  C   UNL A   1      43.302  30.638  36.385  1.00  0.00     0.029 A 
ATOM     63  C   UNL A   1      42.870  30.166  35.156  1.00  0.00     0.049 A 
ATOM     64  H   UNL A   1      41.285  30.856  33.947  1.00  0.00     0.167 HD
ATOM     65  C   UNL A   1      42.940  28.678  33.175  1.00  0.00     0.074 A 
ATOM     66  C   UNL A   1      43.524  27.618  32.381  1.00  0.00     0.031 C 
ATOM     67  C   UNL A   1      43.411  29.083  34.378  1.00  0.00     0.034 A 
BRANCH  54  68
ATOM     68  C   UNL A   1      40.375  33.833  36.868  1.00  0.00     0.023 A 
ATOM     69  C   UNL A   1      40.890  35.139  36.748  1.00  0.00     0.012 A 
ATOM     70  C   UNL A   1      39.651  33.474  38.022  1.00  0.00     0.148 A 
ATOM     71  C   UNL A   1      40.693  36.073  37.764  1.00  0.00     0.002 A 
ATOM     72  C   UNL A   1      39.434  34.419  39.017  1.00  0.00     0.091 A 
ATOM     73  F   UNL A   1      39.181  32.222  38.115  1.00  0.00    -0.205 F 
ATOM     74  C   UNL A   1      39.957  35.717  38.891  1.00  0.00     0.022 A 
BRANCH  72  75
ATOM     75  S   UNL A   1      38.452  34.084  40.483  1.00  0.00     0.127 S 
ATOM     76  O   UNL A   1      39.340  33.197  41.236  1.00  0.00    -0.237 OA
ATOM     77  O   UNL A   1      38.293  35.419  41.058  1.00  0.00    -0.237 OA
ATOM     78  O   UNL A   1      37.219  33.467  40.012  1.00  0.00    -0.744 OA
ENDBRANCH  72  75
ENDBRANCH  54  68
BRANCH  55  79
ATOM     79  C   UNL A   1      40.896  27.632  29.060  1.00  0.00     0.023 A 
ATOM     80  C   UNL A   1      39.935  26.609  28.963  1.00  0.00     0.012 A 
ATOM     81  C   UNL A   1      41.828  27.809  28.019  1.00  0.00     0.148 A 
ATOM     82  C   UNL A   1      39.901  25.774  27.846  1.00  0.00     0.002 A 
ATOM     83  C   UNL A   1      41.761  27.004  26.890  1.00  0.00     0.091 A 
ATOM     84  F   UNL A   1      42.734  28.790  28.141  1.00  0.00    -0.205 F 
ATOM     85  C   UNL A   1      40.805  25.979  26.806  1.00  0.00     0.022 A 
BRANCH  83  86
ATOM     86  S   UNL A   1      42.801  27.266  25.450  1.00  0.00     0.127 S 
ATOM     87  O   UNL A   1      44.093  27.560  26.065  1.00  0.00    -0.237 OA
ATOM     88  O   UNL A   1      42.717  25.967  24.782  1.00  0.00    -0.237 OA
ATOM     89  O   UNL A   1      42.192  28.365  24.715  1.00  0.00    -0.744 OA
ENDBRANCH  83  86
ENDBRANCH  55  79
BRANCH  67  90
ATOM     90  C   UNL A   1      44.615  28.378  34.935  1.00  0.00     0.023 A 
ATOM     91  C   UNL A   1      45.899  28.888  34.666  1.00  0.00     0.012 A 
ATOM     92  C   UNL A   1      44.464  27.291  35.818  1.00  0.00     0.148 A 
ATOM     93  C   UNL A   1      47.022  28.319  35.265  1.00  0.00     0.002 A 
ATOM     94  C   UNL A   1      45.585  26.751  36.437  1.00  0.00     0.091 A 
ATOM     95  F   UNL A   1      43.229  26.821  36.046  1.00  0.00    -0.205 F 
ATOM     96  C   UNL A   1      46.864  27.261  36.158  1.00  0.00     0.022 A 
BRANCH  94  97
ATOM     97  S   UNL A   1      45.477  25.437  37.656  1.00  0.00     0.127 S 
ATOM     98  O   UNL A   1      46.386  24.437  37.097  1.00  0.00    -0.237 OA
ATOM     99  O   UNL A   1      45.965  26.098  38.866  1.00  0.00    -0.237 OA
ATOM    100  O   UNL A   1      44.075  25.043  37.703  1.00  0.00    -0.744 OA
ENDBRANCH  94  97
ENDBRANCH  67  90
ENDBRANCH  41  42
ENDBRANCH  33  36
ENDBRANCH  31  32
ENDBRANCH  30  31
ENDBRANCH  29  30
ENDBRANCH   1  29
TORSDOF 20
ENDMDL
MODEL 3
REMARK VINA RESULT:     -11.0      5.321     10.102
REMARK SMILES CC(C)CN(C)c1cc2c(cc1Cl)C=C(C(=O)NCCCCCCNC(=O)c1ccc(-c3c4nc(c(-c5cccc(S(=O)(=O)[O-])c5F)c5ccc([nH]5)c(-c5cccc(S(=O)(=O)[O-])c5F)c5nc(c(-c6cccc(S(=O)(=O)[O-])c6F)c6ccc3[nH]6)C=C5)C=C4)cc1)[C@@H](C(F)(F)F)O2
REMARK SMILES IDX 21 1 20 2 19 3 18 4 16 5 17 6 15 8 7 9 8 10 12 11 9 12 11 13
REMARK SMILES IDX 13 14 10 15 96 16 14 17 91 18 5 19 6 20 4 21 2 22 1 23 3 24
REMARK SMILES IDX 92 25 93 26 94 27 95 28 22 29 23 30 24 31 25 32 26 33 27 35
REMARK SMILES IDX 28 36 29 37 90 38 30 39 89 40 31 41 32 42 33 43 83 44 34 45
REMARK SMILES IDX 88 46 82 47 84 48 35 49 87 50 81 51 80 52 36 54 68 55 48 56
REMARK SMILES IDX 67 57 49 58 52 59 66 60 85 61 50 62 51 63 65 65 86 66 53 67
REMARK SMILES IDX 37 68 38 69 46 70 39 71 41 72 47 73 40 74 42 75 43 76 44 77
REMARK SMILES IDX 45 78 69 79 70 80 78 81 71 82 73 83 79 84 72 85 74 86 75 87
REMARK SMILES IDX 76 88 77 89 54 90 55 91 63 92 56 93 58 94 64 95 57 96 59 97
REMARK SMILES IDX 60 98 61 99 62 100
REMARK H PARENT 18 7 25 34 84 53 52 64
REMARK Flexibility Score: inf
ROOT
ATOM      1  C   UNL A   1      36.395  23.098  25.066  1.00  0.00     0.002 C 
ENDROOT
BRANCH   1   2
ATOM      2  C   UNL A   1      36.049  21.671  24.629  1.00  0.00     0.021 C 
BRANCH   2   3
ATOM      3  C   UNL A   1      34.777  21.121  25.267  1.00  0.00     0.116 C 
BRANCH   3   4
ATOM      4  N   UNL A   1      33.766  20.842  24.263  1.00  0.00    -0.352 N 
ATOM      5  C   UNL A   1      32.750  21.509  23.671  1.00  0.00     0.251 C 
ATOM      6  O   UNL A   1      32.137  20.874  22.806  1.00  0.00    -0.270 OA
ATOM      7  H   UNL A   1      33.840  19.922  23.922  1.00  0.00     0.163 HD
BRANCH   5   8
ATOM      8  C   UNL A   1      32.334  22.903  23.990  1.00  0.00     0.067 C 
ATOM      9  C   UNL A   1      31.497  27.880  23.793  1.00  0.00     0.059 A 
ATOM     10  C   UNL A   1      30.803  26.783  24.327  1.00  0.00     0.074 A 
ATOM     11  C   UNL A   1      32.747  27.629  23.183  1.00  0.00     0.065 A 
ATOM     12  C   UNL A   1      31.310  25.493  24.200  1.00  0.00     0.130 A 
ATOM     13  C   UNL A   1      33.206  26.322  22.979  1.00  0.00     0.034 A 
ATOM     14  Cl  UNL A   1      33.786  28.910  22.657  1.00  0.00    -0.082 Cl
ATOM     15  C   UNL A   1      32.472  25.247  23.470  1.00  0.00     0.019 A 
ATOM     16  O   UNL A   1      30.606  24.483  24.795  1.00  0.00    -0.475 OA
ATOM     17  C   UNL A   1      32.862  23.867  23.212  1.00  0.00     0.025 C 
ATOM     18  C   UNL A   1      31.399  23.298  25.100  1.00  0.00     0.314 C 
BRANCH   9  19
ATOM     19  N   UNL A   1      30.924  29.163  23.830  1.00  0.00    -0.373 N 
ATOM     20  C   UNL A   1      31.292  29.971  24.993  1.00  0.00     0.143 C 
BRANCH  19  21
ATOM     21  C   UNL A   1      29.512  29.246  23.400  1.00  0.00     0.119 C 
BRANCH  21  22
ATOM     22  C   UNL A   1      29.172  30.595  22.731  1.00  0.00     0.002 C 
ATOM     23  C   UNL A   1      28.493  30.419  21.368  1.00  0.00     0.009 C 
ATOM     24  C   UNL A   1      28.260  31.440  23.625  1.00  0.00     0.009 C 
ENDBRANCH  21  22
ENDBRANCH  19  21
ENDBRANCH   9  19
BRANCH  18  25
ATOM     25  C   UNL A   1      32.147  23.463  26.441  1.00  0.00     0.429 C 
ATOM     26  F   UNL A   1      33.402  23.929  26.239  1.00  0.00    -0.167 F 
ATOM     27  F   UNL A   1      31.532  24.352  27.261  1.00  0.00    -0.167 F 
ATOM     28  F   UNL A   1      32.248  22.306  27.134  1.00  0.00    -0.167 F 
ENDBRANCH  18  25
ENDBRANCH   5   8
ENDBRANCH   3   4
ENDBRANCH   2   3
ENDBRANCH   1   2
BRANCH   1  29
ATOM     29  C   UNL A   1      37.696  23.241  25.867  1.00  0.00     0.002 C 
BRANCH  29  30
ATOM     30  C   UNL A   1      38.656  22.053  25.778  1.00  0.00     0.021 C 
BRANCH  30  31
ATOM     31  C   UNL A   1      39.882  22.159  26.676  1.00  0.00     0.116 C 
BRANCH  31  32
ATOM     32  N   UNL A   1      41.119  21.908  25.955  1.00  0.00    -0.352 N 
ATOM     33  C   UNL A   1      42.162  22.770  25.710  1.00  0.00     0.251 C 
ATOM     34  H   UNL A   1      41.225  20.999  25.594  1.00  0.00     0.163 HD
ATOM     35  O   UNL A   1      43.059  22.448  24.938  1.00  0.00    -0.269 OA
BRANCH  33  36
ATOM     36  C   UNL A   1      42.166  24.096  26.361  1.00  0.00     0.039 A 
ATOM     37  C   UNL A   1      41.835  25.239  25.630  1.00  0.00     0.014 A 
ATOM     38  C   UNL A   1      42.547  24.199  27.701  1.00  0.00     0.014 A 
ATOM     39  C   UNL A   1      42.040  26.495  26.190  1.00  0.00     0.010 A 
ATOM     40  C   UNL A   1      42.671  25.461  28.288  1.00  0.00     0.010 A 
ATOM     41  C   UNL A   1      42.462  26.621  27.524  1.00  0.00    -0.014 A 
BRANCH  41  42
ATOM     42  C   UNL A   1      42.660  27.973  28.105  1.00  0.00     0.031 A 
ATOM     43  C   UNL A   1      41.515  28.727  28.724  1.00  0.00     0.074 A 
ATOM     44  C   UNL A   1      43.896  28.509  28.098  1.00  0.00     0.049 A 
ATOM     45  N   UNL A   1      41.518  29.915  29.273  1.00  0.00    -0.248 NA
ATOM     46  C   UNL A   1      40.196  28.072  28.729  1.00  0.00     0.031 C 
ATOM     47  C   UNL A   1      45.084  27.880  27.515  1.00  0.00     0.029 A 
ATOM     48  N   UNL A   1      44.365  29.696  28.602  1.00  0.00    -0.354 N 
ATOM     49  C   UNL A   1      40.205  30.167  29.649  1.00  0.00     0.074 A 
ATOM     50  C   UNL A   1      39.426  29.010  29.269  1.00  0.00     0.031 C 
ATOM     51  C   UNL A   1      46.149  28.665  27.729  1.00  0.00     0.029 A 
ATOM     52  C   UNL A   1      45.713  29.879  28.413  1.00  0.00     0.049 A 
ATOM     53  H   UNL A   1      43.789  30.353  29.057  1.00  0.00     0.167 HD
ATOM     54  C   UNL A   1      39.699  31.258  30.271  1.00  0.00     0.034 A 
ATOM     55  C   UNL A   1      46.515  30.911  28.738  1.00  0.00     0.034 A 
ATOM     56  C   UNL A   1      40.483  32.385  30.696  1.00  0.00     0.049 A 
ATOM     57  C   UNL A   1      45.928  32.101  29.436  1.00  0.00     0.074 A 
ATOM     58  C   UNL A   1      40.060  33.517  31.372  1.00  0.00     0.029 A 
ATOM     59  N   UNL A   1      41.847  32.524  30.497  1.00  0.00    -0.354 N 
ATOM     60  N   UNL A   1      44.696  32.290  29.838  1.00  0.00    -0.248 NA
ATOM     61  C   UNL A   1      46.841  33.213  29.738  1.00  0.00     0.031 C 
ATOM     62  C   UNL A   1      41.169  34.343  31.577  1.00  0.00     0.029 A 
ATOM     63  C   UNL A   1      42.283  33.721  31.037  1.00  0.00     0.049 A 
ATOM     64  H   UNL A   1      42.421  31.868  30.038  1.00  0.00     0.167 HD
ATOM     65  C   UNL A   1      44.685  33.535  30.453  1.00  0.00     0.074 A 
ATOM     66  C   UNL A   1      46.038  34.048  30.388  1.00  0.00     0.031 C 
ATOM     67  C   UNL A   1      43.641  34.196  31.006  1.00  0.00     0.034 A 
BRANCH  54  68
ATOM     68  C   UNL A   1      38.228  31.281  30.585  1.00  0.00     0.023 A 
ATOM     69  C   UNL A   1      37.786  30.807  31.836  1.00  0.00     0.012 A 
ATOM     70  C   UNL A   1      37.307  31.875  29.700  1.00  0.00     0.148 A 
ATOM     71  C   UNL A   1      36.444  30.918  32.200  1.00  0.00     0.002 A 
ATOM     72  C   UNL A   1      35.978  32.008  30.083  1.00  0.00     0.091 A 
ATOM     73  F   UNL A   1      37.753  32.308  28.513  1.00  0.00    -0.205 F 
ATOM     74  C   UNL A   1      35.544  31.527  31.329  1.00  0.00     0.022 A 
BRANCH  72  75
ATOM     75  S   UNL A   1      34.747  32.829  29.062  1.00  0.00     0.127 S 
ATOM     76  O   UNL A   1      35.585  33.688  28.226  1.00  0.00    -0.237 OA
ATOM     77  O   UNL A   1      34.133  31.704  28.358  1.00  0.00    -0.237 OA
ATOM     78  O   UNL A   1      33.865  33.534  29.982  1.00  0.00    -0.744 OA
ENDBRANCH  72  75
ENDBRANCH  54  68
BRANCH  55  79
ATOM     79  C   UNL A   1      47.968  30.820  28.441  1.00  0.00     0.023 A 
ATOM     80  C   UNL A   1      48.457  31.355  27.234  1.00  0.00     0.012 A 
ATOM     81  C   UNL A   1      48.873  30.296  29.384  1.00  0.00     0.148 A 
ATOM     82  C   UNL A   1      49.827  31.369  26.970  1.00  0.00     0.002 A 
ATOM     83  C   UNL A   1      50.238  30.353  29.134  1.00  0.00     0.091 A 
ATOM     84  F   UNL A   1      48.378  29.791  30.522  1.00  0.00    -0.205 F 
ATOM     85  C   UNL A   1      50.717  30.879  27.924  1.00  0.00     0.022 A 
BRANCH  83  86
ATOM     86  S   UNL A   1      51.466  29.859  30.348  1.00  0.00     0.127 S 
ATOM     87  O   UNL A   1      52.713  30.098  29.626  1.00  0.00    -0.237 OA
ATOM     88  O   UNL A   1      51.196  30.795  31.441  1.00  0.00    -0.237 OA
ATOM     89  O   UNL A   1      51.179  28.466  30.659  1.00  0.00    -0.744 OA
ENDBRANCH  83  86
ENDBRANCH  55  79
BRANCH  67  90
ATOM     90  C   UNL A   1      43.904  35.549  31.606  1.00  0.00     0.023 A 
ATOM     91  C   UNL A   1      44.335  35.639  32.942  1.00  0.00     0.012 A 
ATOM     92  C   UNL A   1      43.843  36.710  30.810  1.00  0.00     0.148 A 
ATOM     93  C   UNL A   1      44.695  36.872  33.485  1.00  0.00     0.002 A 
ATOM     94  C   UNL A   1      44.236  37.929  31.348  1.00  0.00     0.091 A 
ATOM     95  F   UNL A   1      43.420  36.593  29.544  1.00  0.00    -0.205 F 
ATOM     96  C   UNL A   1      44.658  38.012  32.685  1.00  0.00     0.022 A 
BRANCH  94  97
ATOM     97  S   UNL A   1      44.293  39.440  30.378  1.00  0.00     0.127 S 
ATOM     98  O   UNL A   1      44.158  40.463  31.413  1.00  0.00    -0.237 OA
ATOM     99  O   UNL A   1      45.619  39.362  29.765  1.00  0.00    -0.237 OA
ATOM    100  O   UNL A   1      43.183  39.359  29.437  1.00  0.00    -0.744 OA
ENDBRANCH  94  97
ENDBRANCH  67  90
ENDBRANCH  41  42
ENDBRANCH  33  36
ENDBRANCH  31  32
ENDBRANCH  30  31
ENDBRANCH  29  30
ENDBRANCH   1  29
TORSDOF 20
ENDMDL
