MODEL 1
REMARK VINA RESULT:     -11.3      0.000      0.000
REMARK SMILES O=C(C[C@@H](C[NH+]1CCCCC1)C(=O)NCCCCCCNC(=O)c1ccc(-c2c3nc(c(-c4cccc(S(=O)(=O)[O-])c4F)c4ccc([nH]4)c(-c4cccc(S(=O)(=O)[O-])c4F)c4nc(c(-c5cccc(S(=O)(=O)[O-])c5F)c5ccc2[nH]5)C=C4)C=C3)cc1)Nc1ccccc1O
REMARK SMILES IDX 17 1 16 2 15 3 14 4 12 5 13 6 4 8 3 9 2 10 1 11 87 12 88 14
REMARK SMILES IDX 89 15 93 16 90 17 92 18 91 19 94 20 5 22 6 23 7 24 11 25
REMARK SMILES IDX 8 27 10 28 9 29 18 30 19 31 20 32 21 33 22 34 23 36 24 37
REMARK SMILES IDX 25 38 86 39 26 40 85 41 27 42 28 43 29 44 79 45 30 46 84 47
REMARK SMILES IDX 78 48 80 49 31 50 83 51 77 52 76 53 32 55 64 56 44 57 63 58
REMARK SMILES IDX 45 59 48 60 62 61 81 62 46 63 47 64 61 66 82 67 49 68 33 69
REMARK SMILES IDX 34 70 42 71 35 72 37 73 43 74 36 75 38 76 39 77 40 78 41 79
REMARK SMILES IDX 65 80 66 81 74 82 67 83 69 84 75 85 68 86 70 87 71 88 72 89
REMARK SMILES IDX 73 90 50 91 51 92 59 93 52 94 54 95 60 96 53 97 55 98 56 99
REMARK SMILES IDX 57 100 58 101
REMARK H PARENT 14 7 87 13 94 21 6 26 21 35 80 54 48 65
REMARK Flexibility Score: inf
ROOT
ATOM      1  C   UNL A   1      32.075  29.604  25.695  1.00  0.00     0.002 C 
ENDROOT
BRANCH   1   2
ATOM      2  C   UNL A   1      31.872  28.805  26.987  1.00  0.00     0.021 C 
BRANCH   2   3
ATOM      3  C   UNL A   1      31.617  27.309  26.811  1.00  0.00     0.116 C 
BRANCH   3   4
ATOM      4  N   UNL A   1      32.714  26.570  26.213  1.00  0.00    -0.356 N 
ATOM      5  C   UNL A   1      32.687  25.607  25.242  1.00  0.00     0.229 C 
ATOM      6  O   UNL A   1      33.760  25.327  24.695  1.00  0.00    -0.275 OA
ATOM      7  H   UNL A   1      33.608  26.793  26.557  1.00  0.00     0.163 HD
BRANCH   5   8
ATOM      8  C   UNL A   1      31.404  24.876  24.808  1.00  0.00     0.142 C 
BRANCH   8   9
ATOM      9  C   UNL A   1      31.183  25.000  23.296  1.00  0.00     0.119 C 
BRANCH   9  10
ATOM     10  C   UNL A   1      31.064  26.380  22.663  1.00  0.00     0.225 C 
ATOM     11  O   UNL A   1      31.449  26.562  21.508  1.00  0.00    -0.275 OA
ATOM     12  N   UNL A   1      30.374  27.320  23.385  1.00  0.00    -0.323 N 
ATOM     13  H   UNL A   1      30.400  27.206  24.362  1.00  0.00     0.170 HD
BRANCH  12  14
ATOM     14  C   UNL A   1      29.627  28.433  22.919  1.00  0.00     0.083 A 
ATOM     15  C   UNL A   1      28.246  28.384  23.190  1.00  0.00     0.030 A 
ATOM     16  C   UNL A   1      30.104  29.498  22.142  1.00  0.00     0.139 A 
ATOM     17  C   UNL A   1      27.375  29.366  22.708  1.00  0.00     0.002 A 
ATOM     18  C   UNL A   1      29.227  30.468  21.644  1.00  0.00     0.048 A 
ATOM     19  C   UNL A   1      27.866  30.407  21.929  1.00  0.00     0.004 A 
BRANCH  16  20
ATOM     20  O   UNL A   1      31.402  29.669  21.755  1.00  0.00    -0.506 OA
ATOM     21  H   UNL A   1      32.037  29.983  22.368  1.00  0.00     0.293 HD
ENDBRANCH  16  20
ENDBRANCH  12  14
ENDBRANCH   9  10
ENDBRANCH   8   9
BRANCH   8  22
ATOM     22  C   UNL A   1      31.308  23.491  25.489  1.00  0.00     0.276 C 
BRANCH  22  23
ATOM     23  N   UNL A   1      32.505  22.659  25.381  1.00  0.00    -0.334 N 
ATOM     24  C   UNL A   1      32.410  21.550  24.419  1.00  0.00     0.262 C 
ATOM     25  C   UNL A   1      33.018  22.224  26.682  1.00  0.00     0.262 C 
ATOM     26  H   UNL A   1      33.200  23.287  24.979  1.00  0.00     0.348 HD
ATOM     27  C   UNL A   1      33.593  20.577  24.470  1.00  0.00     0.062 C 
ATOM     28  C   UNL A   1      34.418  21.603  26.565  1.00  0.00     0.062 C 
ATOM     29  C   UNL A   1      34.793  21.228  25.132  1.00  0.00     0.012 C 
ENDBRANCH  22  23
ENDBRANCH   8  22
ENDBRANCH   5   8
ENDBRANCH   3   4
ENDBRANCH   2   3
ENDBRANCH   1   2
BRANCH   1  30
ATOM     30  C   UNL A   1      31.128  30.787  25.453  1.00  0.00     0.002 C 
BRANCH  30  31
ATOM     31  C   UNL A   1      31.123  31.892  26.511  1.00  0.00     0.021 C 
BRANCH  31  32
ATOM     32  C   UNL A   1      32.479  32.442  26.937  1.00  0.00     0.116 C 
BRANCH  32  33
ATOM     33  N   UNL A   1      32.414  33.826  27.367  1.00  0.00    -0.352 N 
ATOM     34  C   UNL A   1      33.159  34.501  28.303  1.00  0.00     0.251 C 
ATOM     35  H   UNL A   1      31.726  34.367  26.917  1.00  0.00     0.163 HD
ATOM     36  O   UNL A   1      32.829  35.644  28.615  1.00  0.00    -0.269 OA
BRANCH  34  37
ATOM     37  C   UNL A   1      34.337  33.874  28.953  1.00  0.00     0.039 A 
ATOM     38  C   UNL A   1      34.120  32.836  29.866  1.00  0.00     0.014 A 
ATOM     39  C   UNL A   1      35.640  34.322  28.717  1.00  0.00     0.014 A 
ATOM     40  C   UNL A   1      35.203  32.224  30.505  1.00  0.00     0.010 A 
ATOM     41  C   UNL A   1      36.724  33.660  29.298  1.00  0.00     0.010 A 
ATOM     42  C   UNL A   1      36.519  32.615  30.210  1.00  0.00    -0.014 A 
BRANCH  42  43
ATOM     43  C   UNL A   1      37.684  31.948  30.853  1.00  0.00     0.031 A 
ATOM     44  C   UNL A   1      38.446  30.872  30.122  1.00  0.00     0.074 A 
ATOM     45  C   UNL A   1      38.016  32.256  32.123  1.00  0.00     0.049 A 
ATOM     46  N   UNL A   1      39.458  30.152  30.534  1.00  0.00    -0.248 NA
ATOM     47  C   UNL A   1      37.999  30.545  28.757  1.00  0.00     0.031 C 
ATOM     48  C   UNL A   1      37.312  33.222  32.969  1.00  0.00     0.029 A 
ATOM     49  N   UNL A   1      39.011  31.769  32.935  1.00  0.00    -0.354 N 
ATOM     50  C   UNL A   1      39.742  29.265  29.502  1.00  0.00     0.074 A 
ATOM     51  C   UNL A   1      38.779  29.516  28.454  1.00  0.00     0.031 C 
ATOM     52  C   UNL A   1      37.896  33.257  34.178  1.00  0.00     0.029 A 
ATOM     53  C   UNL A   1      38.997  32.299  34.205  1.00  0.00     0.049 A 
ATOM     54  H   UNL A   1      39.673  31.105  32.636  1.00  0.00     0.167 HD
ATOM     55  C   UNL A   1      40.731  28.343  29.421  1.00  0.00     0.034 A 
ATOM     56  C   UNL A   1      39.775  32.037  35.275  1.00  0.00     0.034 A 
ATOM     57  C   UNL A   1      41.722  28.129  30.442  1.00  0.00     0.049 A 
ATOM     58  C   UNL A   1      40.900  31.045  35.137  1.00  0.00     0.074 A 
ATOM     59  C   UNL A   1      42.820  27.289  30.411  1.00  0.00     0.029 A 
ATOM     60  N   UNL A   1      41.731  28.754  31.678  1.00  0.00    -0.354 N 
ATOM     61  N   UNL A   1      41.254  30.338  34.092  1.00  0.00    -0.248 NA
ATOM     62  C   UNL A   1      41.758  30.843  36.315  1.00  0.00     0.031 C 
ATOM     63  C   UNL A   1      43.482  27.388  31.640  1.00  0.00     0.029 A 
ATOM     64  C   UNL A   1      42.810  28.312  32.424  1.00  0.00     0.049 A 
ATOM     65  H   UNL A   1      41.069  29.416  31.983  1.00  0.00     0.167 HD
ATOM     66  C   UNL A   1      42.394  29.638  34.472  1.00  0.00     0.074 A 
ATOM     67  C   UNL A   1      42.685  30.024  35.837  1.00  0.00     0.031 C 
ATOM     68  C   UNL A   1      43.124  28.746  33.760  1.00  0.00     0.034 A 
BRANCH  55  69
ATOM     69  C   UNL A   1      40.835  27.528  28.158  1.00  0.00     0.023 A 
ATOM     70  C   UNL A   1      41.472  28.075  27.026  1.00  0.00     0.012 A 
ATOM     71  C   UNL A   1      40.377  26.195  28.115  1.00  0.00     0.148 A 
ATOM     72  C   UNL A   1      41.625  27.322  25.863  1.00  0.00     0.002 A 
ATOM     73  C   UNL A   1      40.573  25.437  26.967  1.00  0.00     0.091 A 
ATOM     74  F   UNL A   1      39.757  25.697  29.195  1.00  0.00    -0.205 F 
ATOM     75  C   UNL A   1      41.187  26.001  25.838  1.00  0.00     0.022 A 
BRANCH  73  76
ATOM     76  S   UNL A   1      40.119  23.701  26.860  1.00  0.00     0.127 S 
ATOM     77  O   UNL A   1      38.699  23.789  26.522  1.00  0.00    -0.237 OA
ATOM     78  O   UNL A   1      40.976  23.227  25.773  1.00  0.00    -0.237 OA
ATOM     79  O   UNL A   1      40.415  23.126  28.164  1.00  0.00    -0.744 OA
ENDBRANCH  73  76
ENDBRANCH  55  69
BRANCH  56  80
ATOM     80  C   UNL A   1      39.559  32.771  36.554  1.00  0.00     0.023 A 
ATOM     81  C   UNL A   1      40.273  33.960  36.802  1.00  0.00     0.012 A 
ATOM     82  C   UNL A   1      38.638  32.311  37.515  1.00  0.00     0.148 A 
ATOM     83  C   UNL A   1      40.104  34.655  37.999  1.00  0.00     0.002 A 
ATOM     84  C   UNL A   1      38.432  33.040  38.681  1.00  0.00     0.091 A 
ATOM     85  F   UNL A   1      37.977  31.171  37.269  1.00  0.00    -0.205 F 
ATOM     86  C   UNL A   1      39.177  34.202  38.935  1.00  0.00     0.022 A 
BRANCH  84  87
ATOM     87  S   UNL A   1      37.162  32.602  39.874  1.00  0.00     0.127 S 
ATOM     88  O   UNL A   1      37.591  31.274  40.298  1.00  0.00    -0.237 OA
ATOM     89  O   UNL A   1      37.314  33.652  40.882  1.00  0.00    -0.237 OA
ATOM     90  O   UNL A   1      35.902  32.660  39.142  1.00  0.00    -0.744 OA
ENDBRANCH  84  87
ENDBRANCH  56  80
BRANCH  68  91
ATOM     91  C   UNL A   1      44.339  28.147  34.420  1.00  0.00     0.023 A 
ATOM     92  C   UNL A   1      45.584  28.800  34.325  1.00  0.00     0.012 A 
ATOM     93  C   UNL A   1      44.228  26.979  35.200  1.00  0.00     0.148 A 
ATOM     94  C   UNL A   1      46.707  28.282  34.971  1.00  0.00     0.002 A 
ATOM     95  C   UNL A   1      45.340  26.496  35.880  1.00  0.00     0.091 A 
ATOM     96  F   UNL A   1      43.039  26.362  35.263  1.00  0.00    -0.205 F 
ATOM     97  C   UNL A   1      46.582  27.139  35.757  1.00  0.00     0.022 A 
BRANCH  95  98
ATOM     98  S   UNL A   1      45.251  25.088  36.992  1.00  0.00     0.127 S 
ATOM     99  O   UNL A   1      45.014  23.987  36.060  1.00  0.00    -0.237 OA
ATOM    100  O   UNL A   1      46.579  25.092  37.606  1.00  0.00    -0.237 OA
ATOM    101  O   UNL A   1      44.160  25.372  37.914  1.00  0.00    -0.744 OA
ENDBRANCH  95  98
ENDBRANCH  68  91
ENDBRANCH  42  43
ENDBRANCH  34  37
ENDBRANCH  32  33
ENDBRANCH  31  32
ENDBRANCH  30  31
ENDBRANCH   1  30
TORSDOF 22
ENDMDL
MODEL 2
REMARK VINA RESULT:     -10.8      2.379      4.551
REMARK SMILES O=C(C[C@@H](C[NH+]1CCCCC1)C(=O)NCCCCCCNC(=O)c1ccc(-c2c3nc(c(-c4cccc(S(=O)(=O)[O-])c4F)c4ccc([nH]4)c(-c4cccc(S(=O)(=O)[O-])c4F)c4nc(c(-c5cccc(S(=O)(=O)[O-])c5F)c5ccc2[nH]5)C=C4)C=C3)cc1)Nc1ccccc1O
REMARK SMILES IDX 17 1 16 2 15 3 14 4 12 5 13 6 4 8 3 9 2 10 1 11 87 12 88 14
REMARK SMILES IDX 89 15 93 16 90 17 92 18 91 19 94 20 5 22 6 23 7 24 11 25
REMARK SMILES IDX 8 27 10 28 9 29 18 30 19 31 20 32 21 33 22 34 23 36 24 37
REMARK SMILES IDX 25 38 86 39 26 40 85 41 27 42 28 43 29 44 79 45 30 46 84 47
REMARK SMILES IDX 78 48 80 49 31 50 83 51 77 52 76 53 32 55 64 56 44 57 63 58
REMARK SMILES IDX 45 59 48 60 62 61 81 62 46 63 47 64 61 66 82 67 49 68 33 69
REMARK SMILES IDX 34 70 42 71 35 72 37 73 43 74 36 75 38 76 39 77 40 78 41 79
REMARK SMILES IDX 65 80 66 81 74 82 67 83 69 84 75 85 68 86 70 87 71 88 72 89
REMARK SMILES IDX 73 90 50 91 51 92 59 93 52 94 54 95 60 96 53 97 55 98 56 99
REMARK SMILES IDX 57 100 58 101
REMARK H PARENT 14 7 87 13 94 21 6 26 21 35 80 54 48 65
REMARK Flexibility Score: inf
ROOT
ATOM      1  C   UNL A   1      30.723  27.237  23.997  1.00  0.00     0.002 C 
ENDROOT
BRANCH   1   2
ATOM      2  C   UNL A   1      31.644  26.964  22.802  1.00  0.00     0.021 C 
BRANCH   2   3
ATOM      3  C   UNL A   1      33.120  26.757  23.134  1.00  0.00     0.116 C 
BRANCH   3   4
ATOM      4  N   UNL A   1      33.713  25.563  22.558  1.00  0.00    -0.356 N 
ATOM      5  C   UNL A   1      33.467  24.248  22.838  1.00  0.00     0.229 C 
ATOM      6  O   UNL A   1      33.882  23.411  22.027  1.00  0.00    -0.275 OA
ATOM      7  H   UNL A   1      34.392  25.724  21.864  1.00  0.00     0.163 HD
BRANCH   5   8
ATOM      8  C   UNL A   1      32.709  23.774  24.091  1.00  0.00     0.142 C 
BRANCH   8   9
ATOM      9  C   UNL A   1      31.875  22.524  23.791  1.00  0.00     0.119 C 
BRANCH   9  10
ATOM     10  C   UNL A   1      32.065  21.271  24.635  1.00  0.00     0.225 C 
ATOM     11  O   UNL A   1      31.253  20.995  25.518  1.00  0.00    -0.275 OA
ATOM     12  N   UNL A   1      33.070  20.425  24.242  1.00  0.00    -0.323 N 
ATOM     13  H   UNL A   1      33.828  20.852  23.782  1.00  0.00     0.170 HD
BRANCH  12  14
ATOM     14  C   UNL A   1      33.170  19.019  24.406  1.00  0.00     0.083 A 
ATOM     15  C   UNL A   1      33.286  18.282  23.213  1.00  0.00     0.030 A 
ATOM     16  C   UNL A   1      33.059  18.304  25.608  1.00  0.00     0.139 A 
ATOM     17  C   UNL A   1      33.297  16.884  23.217  1.00  0.00     0.002 A 
ATOM     18  C   UNL A   1      33.051  16.905  25.608  1.00  0.00     0.048 A 
ATOM     19  C   UNL A   1      33.174  16.194  24.418  1.00  0.00     0.004 A 
BRANCH  16  20
ATOM     20  O   UNL A   1      32.898  18.863  26.843  1.00  0.00    -0.506 OA
ATOM     21  H   UNL A   1      33.541  19.455  27.177  1.00  0.00     0.293 HD
ENDBRANCH  16  20
ENDBRANCH  12  14
ENDBRANCH   9  10
ENDBRANCH   8   9
BRANCH   8  22
ATOM     22  C   UNL A   1      33.632  23.805  25.331  1.00  0.00     0.276 C 
BRANCH  22  23
ATOM     23  N   UNL A   1      34.950  23.201  25.142  1.00  0.00    -0.334 N 
ATOM     24  C   UNL A   1      35.160  21.927  25.848  1.00  0.00     0.262 C 
ATOM     25  C   UNL A   1      36.048  24.145  25.361  1.00  0.00     0.262 C 
ATOM     26  H   UNL A   1      34.962  22.951  24.154  1.00  0.00     0.348 HD
ATOM     27  C   UNL A   1      36.605  21.419  25.801  1.00  0.00     0.062 C 
ATOM     28  C   UNL A   1      37.394  23.577  24.883  1.00  0.00     0.062 C 
ATOM     29  C   UNL A   1      37.363  22.066  24.657  1.00  0.00     0.012 C 
ENDBRANCH  22  23
ENDBRANCH   8  22
ENDBRANCH   5   8
ENDBRANCH   3   4
ENDBRANCH   2   3
ENDBRANCH   1   2
BRANCH   1  30
ATOM     30  C   UNL A   1      31.309  26.994  25.395  1.00  0.00     0.002 C 
BRANCH  30  31
ATOM     31  C   UNL A   1      31.566  28.231  26.257  1.00  0.00     0.021 C 
BRANCH  31  32
ATOM     32  C   UNL A   1      32.623  29.209  25.758  1.00  0.00     0.116 C 
BRANCH  32  33
ATOM     33  N   UNL A   1      32.296  30.590  26.058  1.00  0.00    -0.352 N 
ATOM     34  C   UNL A   1      32.899  31.479  26.915  1.00  0.00     0.251 C 
ATOM     35  H   UNL A   1      31.520  30.947  25.570  1.00  0.00     0.163 HD
ATOM     36  O   UNL A   1      32.358  32.564  27.124  1.00  0.00    -0.269 OA
BRANCH  34  37
ATOM     37  C   UNL A   1      34.172  31.149  27.603  1.00  0.00     0.039 A 
ATOM     38  C   UNL A   1      35.102  32.173  27.811  1.00  0.00     0.014 A 
ATOM     39  C   UNL A   1      34.483  29.845  27.999  1.00  0.00     0.014 A 
ATOM     40  C   UNL A   1      36.316  31.901  28.449  1.00  0.00     0.010 A 
ATOM     41  C   UNL A   1      35.662  29.590  28.703  1.00  0.00     0.010 A 
ATOM     42  C   UNL A   1      36.599  30.610  28.923  1.00  0.00    -0.014 A 
BRANCH  42  43
ATOM     43  C   UNL A   1      37.871  30.313  29.638  1.00  0.00     0.031 A 
ATOM     44  C   UNL A   1      38.896  29.396  29.021  1.00  0.00     0.074 A 
ATOM     45  C   UNL A   1      38.077  30.810  30.874  1.00  0.00     0.049 A 
ATOM     46  N   UNL A   1      40.040  28.989  29.510  1.00  0.00    -0.248 NA
ATOM     47  C   UNL A   1      38.587  28.844  27.691  1.00  0.00     0.031 C 
ATOM     48  C   UNL A   1      37.131  31.647  31.616  1.00  0.00     0.029 A 
ATOM     49  N   UNL A   1      39.134  30.662  31.737  1.00  0.00    -0.354 N 
ATOM     50  C   UNL A   1      40.565  28.108  28.571  1.00  0.00     0.074 A 
ATOM     51  C   UNL A   1      39.604  28.016  27.496  1.00  0.00     0.031 C 
ATOM     52  C   UNL A   1      37.651  31.936  32.820  1.00  0.00     0.029 A 
ATOM     53  C   UNL A   1      38.951  31.287  32.949  1.00  0.00     0.049 A 
ATOM     54  H   UNL A   1      39.949  30.157  31.510  1.00  0.00     0.167 HD
ATOM     55  C   UNL A   1      41.753  27.457  28.588  1.00  0.00     0.034 A 
ATOM     56  C   UNL A   1      39.736  31.326  34.045  1.00  0.00     0.034 A 
ATOM     57  C   UNL A   1      42.733  27.589  29.633  1.00  0.00     0.049 A 
ATOM     58  C   UNL A   1      41.073  30.634  34.015  1.00  0.00     0.074 A 
ATOM     59  C   UNL A   1      44.004  27.047  29.692  1.00  0.00     0.029 A 
ATOM     60  N   UNL A   1      42.549  28.309  30.802  1.00  0.00    -0.354 N 
ATOM     61  N   UNL A   1      41.623  29.943  33.046  1.00  0.00    -0.248 NA
ATOM     62  C   UNL A   1      41.916  30.760  35.213  1.00  0.00     0.031 C 
ATOM     63  C   UNL A   1      44.582  27.420  30.911  1.00  0.00     0.029 A 
ATOM     64  C   UNL A   1      43.680  28.218  31.596  1.00  0.00     0.049 A 
ATOM     65  H   UNL A   1      41.736  28.812  31.036  1.00  0.00     0.167 HD
ATOM     66  C   UNL A   1      42.886  29.584  33.501  1.00  0.00     0.074 A 
ATOM     67  C   UNL A   1      43.030  30.154  34.825  1.00  0.00     0.031 C 
ATOM     68  C   UNL A   1      43.835  28.838  32.886  1.00  0.00     0.034 A 
BRANCH  55  69
ATOM     69  C   UNL A   1      42.093  26.578  27.411  1.00  0.00     0.023 A 
ATOM     70  C   UNL A   1      42.760  27.131  26.300  1.00  0.00     0.012 A 
ATOM     71  C   UNL A   1      41.827  25.194  27.438  1.00  0.00     0.148 A 
ATOM     72  C   UNL A   1      43.130  26.329  25.221  1.00  0.00     0.002 A 
ATOM     73  C   UNL A   1      42.239  24.393  26.380  1.00  0.00     0.091 A 
ATOM     74  F   UNL A   1      41.176  24.688  28.496  1.00  0.00    -0.205 F 
ATOM     75  C   UNL A   1      42.881  24.961  25.267  1.00  0.00     0.022 A 
BRANCH  73  76
ATOM     76  S   UNL A   1      42.039  22.608  26.376  1.00  0.00     0.127 S 
ATOM     77  O   UNL A   1      40.587  22.474  26.266  1.00  0.00    -0.237 OA
ATOM     78  O   UNL A   1      42.779  22.219  25.176  1.00  0.00    -0.237 OA
ATOM     79  O   UNL A   1      42.616  22.135  27.627  1.00  0.00    -0.744 OA
ENDBRANCH  73  76
ENDBRANCH  55  69
BRANCH  56  80
ATOM     80  C   UNL A   1      39.305  32.099  35.245  1.00  0.00     0.023 A 
ATOM     81  C   UNL A   1      38.467  31.489  36.200  1.00  0.00     0.012 A 
ATOM     82  C   UNL A   1      39.735  33.423  35.456  1.00  0.00     0.148 A 
ATOM     83  C   UNL A   1      38.033  32.196  37.321  1.00  0.00     0.002 A 
ATOM     84  C   UNL A   1      39.345  34.103  36.606  1.00  0.00     0.091 A 
ATOM     85  F   UNL A   1      40.521  33.993  34.532  1.00  0.00    -0.205 F 
ATOM     86  C   UNL A   1      38.480  33.499  37.530  1.00  0.00     0.022 A 
BRANCH  84  87
ATOM     87  S   UNL A   1      39.983  35.731  37.019  1.00  0.00     0.127 S 
ATOM     88  O   UNL A   1      41.415  35.475  37.131  1.00  0.00    -0.237 OA
ATOM     89  O   UNL A   1      39.585  36.520  35.853  1.00  0.00    -0.237 OA
ATOM     90  O   UNL A   1      39.307  36.113  38.254  1.00  0.00    -0.744 OA
ENDBRANCH  84  87
ENDBRANCH  56  80
BRANCH  68  91
ATOM     91  C   UNL A   1      45.138  28.622  33.611  1.00  0.00     0.023 A 
ATOM     92  C   UNL A   1      46.186  29.552  33.464  1.00  0.00     0.012 A 
ATOM     93  C   UNL A   1      45.293  27.538  34.498  1.00  0.00     0.148 A 
ATOM     94  C   UNL A   1      47.381  29.388  34.166  1.00  0.00     0.002 A 
ATOM     95  C   UNL A   1      46.467  27.410  35.231  1.00  0.00     0.091 A 
ATOM     96  F   UNL A   1      44.291  26.654  34.610  1.00  0.00    -0.205 F 
ATOM     97  C   UNL A   1      47.516  28.326  35.057  1.00  0.00     0.022 A 
BRANCH  95  98
ATOM     98  S   UNL A   1      46.692  26.131  36.472  1.00  0.00     0.127 S 
ATOM     99  O   UNL A   1      48.015  26.457  37.000  1.00  0.00    -0.237 OA
ATOM    100  O   UNL A   1      45.586  26.392  37.393  1.00  0.00    -0.237 OA
ATOM    101  O   UNL A   1      46.598  24.862  35.762  1.00  0.00    -0.744 OA
ENDBRANCH  95  98
ENDBRANCH  68  91
ENDBRANCH  42  43
ENDBRANCH  34  37
ENDBRANCH  32  33
ENDBRANCH  31  32
ENDBRANCH  30  31
ENDBRANCH   1  30
TORSDOF 22
ENDMDL
MODEL 3
REMARK VINA RESULT:     -10.6      5.710     11.369
REMARK SMILES O=C(C[C@@H](C[NH+]1CCCCC1)C(=O)NCCCCCCNC(=O)c1ccc(-c2c3nc(c(-c4cccc(S(=O)(=O)[O-])c4F)c4ccc([nH]4)c(-c4cccc(S(=O)(=O)[O-])c4F)c4nc(c(-c5cccc(S(=O)(=O)[O-])c5F)c5ccc2[nH]5)C=C4)C=C3)cc1)Nc1ccccc1O
REMARK SMILES IDX 17 1 16 2 15 3 14 4 12 5 13 6 4 8 3 9 2 10 1 11 87 12 88 14
REMARK SMILES IDX 89 15 93 16 90 17 92 18 91 19 94 20 5 22 6 23 7 24 11 25
REMARK SMILES IDX 8 27 10 28 9 29 18 30 19 31 20 32 21 33 22 34 23 36 24 37
REMARK SMILES IDX 25 38 86 39 26 40 85 41 27 42 28 43 29 44 79 45 30 46 84 47
REMARK SMILES IDX 78 48 80 49 31 50 83 51 77 52 76 53 32 55 64 56 44 57 63 58
REMARK SMILES IDX 45 59 48 60 62 61 81 62 46 63 47 64 61 66 82 67 49 68 33 69
REMARK SMILES IDX 34 70 42 71 35 72 37 73 43 74 36 75 38 76 39 77 40 78 41 79
REMARK SMILES IDX 65 80 66 81 74 82 67 83 69 84 75 85 68 86 70 87 71 88 72 89
REMARK SMILES IDX 73 90 50 91 51 92 59 93 52 94 54 95 60 96 53 97 55 98 56 99
REMARK SMILES IDX 57 100 58 101
REMARK H PARENT 14 7 87 13 94 21 6 26 21 35 80 54 48 65
REMARK Flexibility Score: inf
ROOT
ATOM      1  C   UNL A   1      37.286  23.706  26.112  1.00  0.00     0.002 C 
ENDROOT
BRANCH   1   2
ATOM      2  C   UNL A   1      35.932  23.087  26.479  1.00  0.00     0.021 C 
BRANCH   2   3
ATOM      3  C   UNL A   1      34.754  23.492  25.596  1.00  0.00     0.116 C 
BRANCH   3   4
ATOM      4  N   UNL A   1      33.483  23.607  26.289  1.00  0.00    -0.356 N 
ATOM      5  C   UNL A   1      32.229  23.795  25.779  1.00  0.00     0.229 C 
ATOM      6  O   UNL A   1      31.275  23.578  26.535  1.00  0.00    -0.275 OA
ATOM      7  H   UNL A   1      33.532  23.540  27.269  1.00  0.00     0.163 HD
BRANCH   5   8
ATOM      8  C   UNL A   1      31.960  24.252  24.335  1.00  0.00     0.142 C 
BRANCH   8   9
ATOM      9  C   UNL A   1      31.265  23.150  23.528  1.00  0.00     0.119 C 
BRANCH   9  10
ATOM     10  C   UNL A   1      32.074  21.962  23.023  1.00  0.00     0.225 C 
ATOM     11  O   UNL A   1      32.948  22.130  22.172  1.00  0.00    -0.275 OA
ATOM     12  N   UNL A   1      31.878  20.774  23.678  1.00  0.00    -0.323 N 
ATOM     13  H   UNL A   1      30.987  20.654  24.079  1.00  0.00     0.170 HD
BRANCH  12  14
ATOM     14  C   UNL A   1      32.781  19.695  23.861  1.00  0.00     0.083 A 
ATOM     15  C   UNL A   1      33.896  19.977  24.672  1.00  0.00     0.030 A 
ATOM     16  C   UNL A   1      32.724  18.438  23.240  1.00  0.00     0.139 A 
ATOM     17  C   UNL A   1      34.915  19.038  24.861  1.00  0.00     0.002 A 
ATOM     18  C   UNL A   1      33.754  17.508  23.416  1.00  0.00     0.048 A 
ATOM     19  C   UNL A   1      34.845  17.803  24.227  1.00  0.00     0.004 A 
BRANCH  16  20
ATOM     20  O   UNL A   1      31.737  18.024  22.393  1.00  0.00    -0.506 OA
ATOM     21  H   UNL A   1      30.968  18.547  22.277  1.00  0.00     0.293 HD
ENDBRANCH  16  20
ENDBRANCH  12  14
ENDBRANCH   9  10
ENDBRANCH   8   9
BRANCH   8  22
ATOM     22  C   UNL A   1      31.397  25.693  24.314  1.00  0.00     0.276 C 
BRANCH  22  23
ATOM     23  N   UNL A   1      31.983  26.605  25.295  1.00  0.00    -0.334 N 
ATOM     24  C   UNL A   1      31.036  27.164  26.272  1.00  0.00     0.262 C 
ATOM     25  C   UNL A   1      32.825  27.636  24.684  1.00  0.00     0.262 C 
ATOM     26  H   UNL A   1      32.595  26.005  25.847  1.00  0.00     0.348 HD
ATOM     27  C   UNL A   1      31.630  28.266  27.156  1.00  0.00     0.062 C 
ATOM     28  C   UNL A   1      33.651  28.395  25.734  1.00  0.00     0.062 C 
ATOM     29  C   UNL A   1      33.146  28.189  27.162  1.00  0.00     0.012 C 
ENDBRANCH  22  23
ENDBRANCH   8  22
ENDBRANCH   5   8
ENDBRANCH   3   4
ENDBRANCH   2   3
ENDBRANCH   1   2
BRANCH   1  30
ATOM     30  C   UNL A   1      38.363  22.754  25.575  1.00  0.00     0.002 C 
BRANCH  30  31
ATOM     31  C   UNL A   1      38.325  21.313  26.086  1.00  0.00     0.021 C 
BRANCH  31  32
ATOM     32  C   UNL A   1      38.764  20.226  25.112  1.00  0.00     0.116 C 
BRANCH  32  33
ATOM     33  N   UNL A   1      39.702  19.290  25.702  1.00  0.00    -0.352 N 
ATOM     34  C   UNL A   1      40.912  19.511  26.313  1.00  0.00     0.251 C 
ATOM     35  H   UNL A   1      39.427  18.346  25.658  1.00  0.00     0.163 HD
ATOM     36  O   UNL A   1      41.615  18.546  26.610  1.00  0.00    -0.269 OA
BRANCH  34  37
ATOM     37  C   UNL A   1      41.394  20.885  26.602  1.00  0.00     0.039 A 
ATOM     38  C   UNL A   1      41.917  21.643  25.549  1.00  0.00     0.014 A 
ATOM     39  C   UNL A   1      41.384  21.417  27.894  1.00  0.00     0.014 A 
ATOM     40  C   UNL A   1      42.388  22.939  25.782  1.00  0.00     0.010 A 
ATOM     41  C   UNL A   1      41.783  22.738  28.111  1.00  0.00     0.010 A 
ATOM     42  C   UNL A   1      42.304  23.509  27.062  1.00  0.00    -0.014 A 
BRANCH  42  43
ATOM     43  C   UNL A   1      42.765  24.901  27.318  1.00  0.00     0.031 A 
ATOM     44  C   UNL A   1      41.855  25.894  27.995  1.00  0.00     0.074 A 
ATOM     45  C   UNL A   1      43.977  25.297  26.878  1.00  0.00     0.049 A 
ATOM     46  N   UNL A   1      42.066  27.157  28.264  1.00  0.00    -0.248 NA
ATOM     47  C   UNL A   1      40.524  25.412  28.403  1.00  0.00     0.031 C 
ATOM     48  C   UNL A   1      44.924  24.458  26.140  1.00  0.00     0.029 A 
ATOM     49  N   UNL A   1      44.610  26.513  26.961  1.00  0.00    -0.354 N 
ATOM     50  C   UNL A   1      40.889  27.629  28.833  1.00  0.00     0.074 A 
ATOM     51  C   UNL A   1      39.956  26.525  28.846  1.00  0.00     0.031 C 
ATOM     52  C   UNL A   1      46.013  25.183  25.839  1.00  0.00     0.029 A 
ATOM     53  C   UNL A   1      45.835  26.543  26.336  1.00  0.00     0.049 A 
ATOM     54  H   UNL A   1      44.223  27.291  27.426  1.00  0.00     0.167 HD
ATOM     55  C   UNL A   1      40.617  28.861  29.326  1.00  0.00     0.034 A 
ATOM     56  C   UNL A   1      46.713  27.553  26.172  1.00  0.00     0.034 A 
ATOM     57  C   UNL A   1      41.562  29.944  29.361  1.00  0.00     0.049 A 
ATOM     58  C   UNL A   1      46.405  28.898  26.777  1.00  0.00     0.074 A 
ATOM     59  C   UNL A   1      41.413  31.197  29.928  1.00  0.00     0.029 A 
ATOM     60  N   UNL A   1      42.830  29.906  28.802  1.00  0.00    -0.354 N 
ATOM     61  N   UNL A   1      45.351  29.274  27.460  1.00  0.00    -0.248 NA
ATOM     62  C   UNL A   1      47.424  29.947  26.623  1.00  0.00     0.031 C 
ATOM     63  C   UNL A   1      42.583  31.927  29.691  1.00  0.00     0.029 A 
ATOM     64  C   UNL A   1      43.471  31.117  29.001  1.00  0.00     0.049 A 
ATOM     65  H   UNL A   1      43.218  29.133  28.333  1.00  0.00     0.167 HD
ATOM     66  C   UNL A   1      45.596  30.586  27.848  1.00  0.00     0.074 A 
ATOM     67  C   UNL A   1      46.908  30.934  27.343  1.00  0.00     0.031 C 
ATOM     68  C   UNL A   1      44.800  31.432  28.546  1.00  0.00     0.034 A 
BRANCH  55  69
ATOM     69  C   UNL A   1      39.254  29.096  29.926  1.00  0.00     0.023 A 
ATOM     70  C   UNL A   1      38.938  28.533  31.179  1.00  0.00     0.012 A 
ATOM     71  C   UNL A   1      38.318  29.939  29.293  1.00  0.00     0.148 A 
ATOM     72  C   UNL A   1      37.703  28.777  31.777  1.00  0.00     0.002 A 
ATOM     73  C   UNL A   1      37.107  30.214  29.916  1.00  0.00     0.091 A 
ATOM     74  F   UNL A   1      38.629  30.452  28.093  1.00  0.00    -0.205 F 
ATOM     75  C   UNL A   1      36.794  29.626  31.153  1.00  0.00     0.022 A 
BRANCH  73  76
ATOM     76  S   UNL A   1      35.901  31.358  29.235  1.00  0.00     0.127 S 
ATOM     77  O   UNL A   1      35.120  31.705  30.422  1.00  0.00    -0.237 OA
ATOM     78  O   UNL A   1      36.751  32.435  28.729  1.00  0.00    -0.237 OA
ATOM     79  O   UNL A   1      35.180  30.619  28.209  1.00  0.00    -0.744 OA
ENDBRANCH  73  76
ENDBRANCH  55  69
BRANCH  56  80
ATOM     80  C   UNL A   1      47.998  27.317  25.455  1.00  0.00     0.023 A 
ATOM     81  C   UNL A   1      49.112  26.832  26.168  1.00  0.00     0.012 A 
ATOM     82  C   UNL A   1      48.118  27.552  24.071  1.00  0.00     0.148 A 
ATOM     83  C   UNL A   1      50.332  26.621  25.525  1.00  0.00     0.002 A 
ATOM     84  C   UNL A   1      49.321  27.285  23.426  1.00  0.00     0.091 A 
ATOM     85  F   UNL A   1      47.053  28.027  23.411  1.00  0.00    -0.205 F 
ATOM     86  C   UNL A   1      50.435  26.837  24.152  1.00  0.00     0.022 A 
BRANCH  84  87
ATOM     87  S   UNL A   1      49.499  27.406  21.642  1.00  0.00     0.127 S 
ATOM     88  O   UNL A   1      49.445  28.848  21.430  1.00  0.00    -0.237 OA
ATOM     89  O   UNL A   1      50.813  26.799  21.424  1.00  0.00    -0.237 OA
ATOM     90  O   UNL A   1      48.390  26.639  21.086  1.00  0.00    -0.744 OA
ENDBRANCH  84  87
ENDBRANCH  56  80
BRANCH  68  91
ATOM     91  C   UNL A   1      45.332  32.809  28.849  1.00  0.00     0.023 A 
ATOM     92  C   UNL A   1      46.093  33.027  30.014  1.00  0.00     0.012 A 
ATOM     93  C   UNL A   1      45.144  33.866  27.937  1.00  0.00     0.148 A 
ATOM     94  C   UNL A   1      46.631  34.285  30.283  1.00  0.00     0.002 A 
ATOM     95  C   UNL A   1      45.725  35.103  28.187  1.00  0.00     0.091 A 
ATOM     96  F   UNL A   1      44.401  33.643  26.843  1.00  0.00    -0.205 F 
ATOM     97  C   UNL A   1      46.458  35.319  29.365  1.00  0.00     0.022 A 
BRANCH  95  98
ATOM     98  S   UNL A   1      45.636  36.463  27.016  1.00  0.00     0.127 S 
ATOM     99  O   UNL A   1      46.248  35.873  25.827  1.00  0.00    -0.237 OA
ATOM    100  O   UNL A   1      44.195  36.691  26.912  1.00  0.00    -0.237 OA
ATOM    101  O   UNL A   1      46.378  37.562  27.620  1.00  0.00    -0.744 OA
ENDBRANCH  95  98
ENDBRANCH  68  91
ENDBRANCH  42  43
ENDBRANCH  34  37
ENDBRANCH  32  33
ENDBRANCH  31  32
ENDBRANCH  30  31
ENDBRANCH   1  30
TORSDOF 22
ENDMDL
