MODEL 1
REMARK VINA RESULT:     -10.5      0.000      0.000
REMARK SMILES O=C(NCCCCCCNC(=O)[C@H](CO)NC(=O)[C@H]1CC(=O)N(CC(F)(F)F)C1)c1ccc(-c2c3nc(c(-c4cccc(S(=O)(=O)[O-])c4F)c4ccc([nH]4)c(-c4cccc(S(=O)(=O)[O-])c4F)c4nc(c(-c5cccc(S(=O)(=O)[O-])c5F)c5ccc2[nH]5)C=C4)C=C3)cc1
REMARK SMILES IDX 7 1 6 2 5 3 4 4 3 5 1 6 2 7 30 9 31 10 92 11 32 12 91 13
REMARK SMILES IDX 33 14 34 15 35 16 85 17 36 18 90 19 84 20 86 21 37 22 89 23
REMARK SMILES IDX 83 24 82 25 38 27 70 28 50 29 69 30 51 31 54 32 68 33 87 34
REMARK SMILES IDX 52 35 53 36 67 38 88 39 55 40 39 41 40 42 48 43 41 44 43 45
REMARK SMILES IDX 49 46 42 47 44 48 45 49 46 50 47 51 71 52 72 53 80 54 73 55
REMARK SMILES IDX 75 56 81 57 74 58 76 59 77 60 78 61 79 62 56 63 57 64 65 65
REMARK SMILES IDX 58 66 60 67 66 68 59 69 61 70 62 71 63 72 64 73 8 74 9 75
REMARK SMILES IDX 10 76 11 77 12 79 13 80 16 81 17 82 18 84 19 85 20 86 29 87
REMARK SMILES IDX 21 88 23 89 22 90 24 91 25 92 26 93 27 94 28 95 14 96 15 97
REMARK H PARENT 3 8 86 26 54 37 10 78 16 83 15 98
REMARK Flexibility Score: inf
ROOT
ATOM      1  C   UNL A   1      33.817  26.266  26.058  1.00  0.00     0.002 C 
ENDROOT
BRANCH   1   2
ATOM      2  C   UNL A   1      32.318  26.586  26.061  1.00  0.00     0.002 C 
BRANCH   2   3
ATOM      3  C   UNL A   1      31.982  28.056  26.324  1.00  0.00     0.021 C 
BRANCH   3   4
ATOM      4  C   UNL A   1      33.078  29.022  25.902  1.00  0.00     0.116 C 
BRANCH   4   5
ATOM      5  N   UNL A   1      32.672  30.401  26.107  1.00  0.00    -0.352 N 
ATOM      6  O   UNL A   1      32.548  32.342  27.242  1.00  0.00    -0.269 OA
ATOM      7  C   UNL A   1      33.171  31.313  27.002  1.00  0.00     0.251 C 
ATOM      8  H   UNL A   1      31.945  30.724  25.528  1.00  0.00     0.163 HD
BRANCH   7   9
ATOM      9  C   UNL A   1      34.455  31.028  27.674  1.00  0.00     0.039 A 
ATOM     10  C   UNL A   1      35.414  32.037  27.812  1.00  0.00     0.014 A 
ATOM     11  C   UNL A   1      34.698  29.747  28.169  1.00  0.00     0.014 A 
ATOM     12  C   UNL A   1      36.663  31.735  28.337  1.00  0.00     0.010 A 
ATOM     13  C   UNL A   1      35.922  29.470  28.779  1.00  0.00     0.010 A 
ATOM     14  C   UNL A   1      36.919  30.456  28.850  1.00  0.00    -0.014 A 
BRANCH  14  15
ATOM     15  C   UNL A   1      38.199  30.188  29.549  1.00  0.00     0.031 A 
ATOM     16  C   UNL A   1      39.222  29.259  28.965  1.00  0.00     0.074 A 
ATOM     17  C   UNL A   1      38.399  30.752  30.755  1.00  0.00     0.049 A 
ATOM     18  N   UNL A   1      40.355  28.860  29.479  1.00  0.00    -0.248 NA
ATOM     19  C   UNL A   1      38.929  28.696  27.638  1.00  0.00     0.031 C 
ATOM     20  C   UNL A   1      37.451  31.636  31.437  1.00  0.00     0.029 A 
ATOM     21  N   UNL A   1      39.445  30.642  31.636  1.00  0.00    -0.354 N 
ATOM     22  C   UNL A   1      40.892  27.962  28.566  1.00  0.00     0.074 A 
ATOM     23  C   UNL A   1      39.956  27.874  27.465  1.00  0.00     0.031 C 
ATOM     24  C   UNL A   1      37.949  31.979  32.632  1.00  0.00     0.029 A 
ATOM     25  C   UNL A   1      39.218  31.290  32.827  1.00  0.00     0.049 A 
ATOM     26  H   UNL A   1      40.274  30.151  31.435  1.00  0.00     0.167 HD
ATOM     27  C   UNL A   1      42.059  27.278  28.640  1.00  0.00     0.034 A 
ATOM     28  C   UNL A   1      39.924  31.290  33.974  1.00  0.00     0.034 A 
ATOM     29  C   UNL A   1      42.983  27.385  29.739  1.00  0.00     0.049 A 
ATOM     30  C   UNL A   1      41.214  30.526  34.034  1.00  0.00     0.074 A 
ATOM     31  C   UNL A   1      44.229  26.798  29.873  1.00  0.00     0.029 A 
ATOM     32  N   UNL A   1      42.751  28.101  30.904  1.00  0.00    -0.354 N 
ATOM     33  N   UNL A   1      41.774  29.790  33.106  1.00  0.00    -0.248 NA
ATOM     34  C   UNL A   1      41.982  30.614  35.282  1.00  0.00     0.031 C 
ATOM     35  C   UNL A   1      44.728  27.121  31.140  1.00  0.00     0.029 A 
ATOM     36  C   UNL A   1      43.817  27.951  31.774  1.00  0.00     0.049 A 
ATOM     37  H   UNL A   1      41.946  28.637  31.086  1.00  0.00     0.167 HD
ATOM     38  C   UNL A   1      42.976  29.350  33.643  1.00  0.00     0.074 A 
ATOM     39  C   UNL A   1      43.067  29.914  34.976  1.00  0.00     0.031 C 
ATOM     40  C   UNL A   1      43.915  28.550  33.083  1.00  0.00     0.034 A 
BRANCH  27  41
ATOM     41  C   UNL A   1      42.401  26.351  27.501  1.00  0.00     0.023 A 
ATOM     42  C   UNL A   1      43.201  26.809  26.434  1.00  0.00     0.012 A 
ATOM     43  C   UNL A   1      41.959  25.013  27.506  1.00  0.00     0.148 A 
ATOM     44  C   UNL A   1      43.512  25.966  25.366  1.00  0.00     0.002 A 
ATOM     45  C   UNL A   1      42.314  24.166  26.463  1.00  0.00     0.091 A 
ATOM     46  F   UNL A   1      41.185  24.598  28.518  1.00  0.00    -0.205 F 
ATOM     47  C   UNL A   1      43.077  24.645  25.385  1.00  0.00     0.022 A 
BRANCH  45  48
ATOM     48  S   UNL A   1      41.870  22.426  26.439  1.00  0.00     0.127 S 
ATOM     49  O   UNL A   1      40.411  22.495  26.386  1.00  0.00    -0.237 OA
ATOM     50  O   UNL A   1      42.504  21.962  25.204  1.00  0.00    -0.237 OA
ATOM     51  O   UNL A   1      42.428  21.854  27.657  1.00  0.00    -0.744 OA
ENDBRANCH  45  48
ENDBRANCH  27  41
BRANCH  28  52
ATOM     52  C   UNL A   1      39.407  32.054  35.141  1.00  0.00     0.023 A 
ATOM     53  C   UNL A   1      38.615  31.407  36.107  1.00  0.00     0.012 A 
ATOM     54  C   UNL A   1      39.778  33.399  35.339  1.00  0.00     0.148 A 
ATOM     55  C   UNL A   1      38.187  32.091  37.244  1.00  0.00     0.002 A 
ATOM     56  C   UNL A   1      39.399  34.056  36.502  1.00  0.00     0.091 A 
ATOM     57  F   UNL A   1      40.533  33.993  34.404  1.00  0.00    -0.205 F 
ATOM     58  C   UNL A   1      38.589  33.410  37.448  1.00  0.00     0.022 A 
BRANCH  56  59
ATOM     59  S   UNL A   1      39.990  35.701  36.920  1.00  0.00     0.127 S 
ATOM     60  O   UNL A   1      41.429  35.480  37.033  1.00  0.00    -0.237 OA
ATOM     61  O   UNL A   1      39.574  36.472  35.749  1.00  0.00    -0.237 OA
ATOM     62  O   UNL A   1      39.310  36.065  38.156  1.00  0.00    -0.744 OA
ENDBRANCH  56  59
ENDBRANCH  28  52
BRANCH  40  63
ATOM     63  C   UNL A   1      45.158  28.262  33.881  1.00  0.00     0.023 A 
ATOM     64  C   UNL A   1      46.238  29.166  33.865  1.00  0.00     0.012 A 
ATOM     65  C   UNL A   1      45.207  27.138  34.731  1.00  0.00     0.148 A 
ATOM     66  C   UNL A   1      47.356  28.946  34.669  1.00  0.00     0.002 A 
ATOM     67  C   UNL A   1      46.300  26.954  35.568  1.00  0.00     0.091 A 
ATOM     68  F   UNL A   1      44.177  26.281  34.713  1.00  0.00    -0.205 F 
ATOM     69  C   UNL A   1      47.380  27.850  35.530  1.00  0.00     0.022 A 
BRANCH  67  70
ATOM     70  S   UNL A   1      46.375  25.632  36.780  1.00  0.00     0.127 S 
ATOM     71  O   UNL A   1      46.342  24.444  35.928  1.00  0.00    -0.237 OA
ATOM     72  O   UNL A   1      47.662  25.882  37.429  1.00  0.00    -0.237 OA
ATOM     73  O   UNL A   1      45.215  25.807  37.643  1.00  0.00    -0.744 OA
ENDBRANCH  67  70
ENDBRANCH  40  63
ENDBRANCH  14  15
ENDBRANCH   7   9
ENDBRANCH   4   5
ENDBRANCH   3   4
ENDBRANCH   2   3
ENDBRANCH   1   2
BRANCH   1  74
ATOM     74  C   UNL A   1      34.154  24.772  26.132  1.00  0.00     0.021 C 
BRANCH  74  75
ATOM     75  C   UNL A   1      35.277  24.346  25.192  1.00  0.00     0.116 C 
BRANCH  75  76
ATOM     76  N   UNL A   1      35.367  22.904  25.131  1.00  0.00    -0.354 N 
ATOM     77  C   UNL A   1      34.521  21.933  24.732  1.00  0.00     0.244 C 
ATOM     78  H   UNL A   1      36.232  22.557  25.447  1.00  0.00     0.163 HD
ATOM     79  O   UNL A   1      34.904  20.778  24.961  1.00  0.00    -0.273 OA
BRANCH  77  80
ATOM     80  C   UNL A   1      33.191  22.163  23.982  1.00  0.00     0.197 C 
BRANCH  80  81
ATOM     81  N   UNL A   1      33.240  22.683  22.609  1.00  0.00    -0.342 N 
ATOM     82  C   UNL A   1      33.063  23.896  22.032  1.00  0.00     0.226 C 
ATOM     83  H   UNL A   1      33.450  21.982  21.949  1.00  0.00     0.164 HD
ATOM     84  O   UNL A   1      33.344  23.962  20.831  1.00  0.00    -0.275 OA
BRANCH  82  85
ATOM     85  C   UNL A   1      32.643  25.137  22.794  1.00  0.00     0.107 C 
ATOM     86  C   UNL A   1      33.644  26.288  22.559  1.00  0.00     0.115 C 
ATOM     87  C   UNL A   1      31.324  25.714  22.339  1.00  0.00     0.133 C 
ATOM     88  C   UNL A   1      32.793  27.523  22.425  1.00  0.00     0.223 C 
ATOM     89  N   UNL A   1      31.476  27.134  22.344  1.00  0.00    -0.333 N 
ATOM     90  O   UNL A   1      33.203  28.672  22.364  1.00  0.00    -0.275 OA
BRANCH  89  91
ATOM     91  C   UNL A   1      30.340  28.023  22.085  1.00  0.00     0.234 C 
BRANCH  91  92
ATOM     92  C   UNL A   1      29.671  28.593  23.339  1.00  0.00     0.406 C 
ATOM     93  F   UNL A   1      28.528  29.251  23.024  1.00  0.00    -0.169 F 
ATOM     94  F   UNL A   1      29.337  27.609  24.202  1.00  0.00    -0.169 F 
ATOM     95  F   UNL A   1      30.474  29.462  23.990  1.00  0.00    -0.169 F 
ENDBRANCH  91  92
ENDBRANCH  89  91
ENDBRANCH  82  85
ENDBRANCH  80  81
BRANCH  80  96
ATOM     96  C   UNL A   1      32.307  20.887  23.978  1.00  0.00     0.191 C 
BRANCH  96  97
ATOM     97  O   UNL A   1      32.119  20.220  25.215  1.00  0.00    -0.394 OA
ATOM     98  H   UNL A   1      32.678  20.632  25.892  1.00  0.00     0.210 HD
ENDBRANCH  96  97
ENDBRANCH  80  96
ENDBRANCH  77  80
ENDBRANCH  75  76
ENDBRANCH  74  75
ENDBRANCH   1  74
TORSDOF 22
ENDMDL
MODEL 2
REMARK VINA RESULT:     -10.2      2.749      8.529
REMARK SMILES O=C(NCCCCCCNC(=O)[C@H](CO)NC(=O)[C@H]1CC(=O)N(CC(F)(F)F)C1)c1ccc(-c2c3nc(c(-c4cccc(S(=O)(=O)[O-])c4F)c4ccc([nH]4)c(-c4cccc(S(=O)(=O)[O-])c4F)c4nc(c(-c5cccc(S(=O)(=O)[O-])c5F)c5ccc2[nH]5)C=C4)C=C3)cc1
REMARK SMILES IDX 7 1 6 2 5 3 4 4 3 5 1 6 2 7 30 9 31 10 92 11 32 12 91 13
REMARK SMILES IDX 33 14 34 15 35 16 85 17 36 18 90 19 84 20 86 21 37 22 89 23
REMARK SMILES IDX 83 24 82 25 38 27 70 28 50 29 69 30 51 31 54 32 68 33 87 34
REMARK SMILES IDX 52 35 53 36 67 38 88 39 55 40 39 41 40 42 48 43 41 44 43 45
REMARK SMILES IDX 49 46 42 47 44 48 45 49 46 50 47 51 71 52 72 53 80 54 73 55
REMARK SMILES IDX 75 56 81 57 74 58 76 59 77 60 78 61 79 62 56 63 57 64 65 65
REMARK SMILES IDX 58 66 60 67 66 68 59 69 61 70 62 71 63 72 64 73 8 74 9 75
REMARK SMILES IDX 10 76 11 77 12 79 13 80 16 81 17 82 18 84 19 85 20 86 29 87
REMARK SMILES IDX 21 88 23 89 22 90 24 91 25 92 26 93 27 94 28 95 14 96 15 97
REMARK H PARENT 3 8 86 26 54 37 10 78 16 83 15 98
REMARK Flexibility Score: inf
ROOT
ATOM      1  C   UNL A   1      31.028  29.209  24.423  1.00  0.00     0.002 C 
ENDROOT
BRANCH   1   2
ATOM      2  C   UNL A   1      32.524  29.507  24.583  1.00  0.00     0.002 C 
BRANCH   2   3
ATOM      3  C   UNL A   1      33.348  28.345  25.141  1.00  0.00     0.021 C 
BRANCH   3   4
ATOM      4  C   UNL A   1      34.170  28.708  26.369  1.00  0.00     0.116 C 
BRANCH   4   5
ATOM      5  N   UNL A   1      33.986  30.101  26.734  1.00  0.00    -0.352 N 
ATOM      6  O   UNL A   1      34.222  31.911  28.052  1.00  0.00    -0.269 OA
ATOM      7  C   UNL A   1      34.670  30.836  27.668  1.00  0.00     0.251 C 
ATOM      8  H   UNL A   1      33.278  30.581  26.247  1.00  0.00     0.163 HD
BRANCH   7   9
ATOM      9  C   UNL A   1      35.939  30.305  28.206  1.00  0.00     0.039 A 
ATOM     10  C   UNL A   1      35.955  29.633  29.434  1.00  0.00     0.014 A 
ATOM     11  C   UNL A   1      37.116  30.478  27.478  1.00  0.00     0.014 A 
ATOM     12  C   UNL A   1      37.164  29.240  29.989  1.00  0.00     0.010 A 
ATOM     13  C   UNL A   1      38.320  30.002  27.999  1.00  0.00     0.010 A 
ATOM     14  C   UNL A   1      38.355  29.396  29.266  1.00  0.00    -0.014 A 
BRANCH  14  15
ATOM     15  C   UNL A   1      39.618  28.833  29.800  1.00  0.00     0.031 A 
ATOM     16  C   UNL A   1      40.354  29.507  30.920  1.00  0.00     0.074 A 
ATOM     17  C   UNL A   1      40.125  27.731  29.215  1.00  0.00     0.049 A 
ATOM     18  N   UNL A   1      41.504  29.189  31.453  1.00  0.00    -0.248 NA
ATOM     19  C   UNL A   1      39.724  30.697  31.511  1.00  0.00     0.031 C 
ATOM     20  C   UNL A   1      39.514  27.021  28.089  1.00  0.00     0.029 A 
ATOM     21  N   UNL A   1      41.281  27.036  29.461  1.00  0.00    -0.354 N 
ATOM     22  C   UNL A   1      41.764  30.164  32.407  1.00  0.00     0.074 A 
ATOM     23  C   UNL A   1      40.650  31.087  32.378  1.00  0.00     0.031 C 
ATOM     24  C   UNL A   1      40.303  26.000  27.732  1.00  0.00     0.029 A 
ATOM     25  C   UNL A   1      41.503  26.022  28.559  1.00  0.00     0.049 A 
ATOM     26  H   UNL A   1      41.890  27.240  30.207  1.00  0.00     0.167 HD
ATOM     27  C   UNL A   1      42.833  30.275  33.231  1.00  0.00     0.034 A 
ATOM     28  C   UNL A   1      42.575  25.228  28.378  1.00  0.00     0.034 A 
ATOM     29  C   UNL A   1      43.929  29.342  33.255  1.00  0.00     0.049 A 
ATOM     30  C   UNL A   1      43.748  25.367  29.303  1.00  0.00     0.074 A 
ATOM     31  C   UNL A   1      45.020  29.318  34.106  1.00  0.00     0.029 A 
ATOM     32  N   UNL A   1      44.092  28.287  32.368  1.00  0.00    -0.354 N 
ATOM     33  N   UNL A   1      43.915  26.211  30.292  1.00  0.00    -0.248 NA
ATOM     34  C   UNL A   1      44.863  24.432  29.110  1.00  0.00     0.031 C 
ATOM     35  C   UNL A   1      45.865  28.278  33.704  1.00  0.00     0.029 A 
ATOM     36  C   UNL A   1      45.276  27.621  32.634  1.00  0.00     0.049 A 
ATOM     37  H   UNL A   1      43.459  28.047  31.654  1.00  0.00     0.167 HD
ATOM     38  C   UNL A   1      45.141  25.891  30.861  1.00  0.00     0.074 A 
ATOM     39  C   UNL A   1      45.667  24.767  30.111  1.00  0.00     0.031 C 
ATOM     40  C   UNL A   1      45.771  26.478  31.906  1.00  0.00     0.034 A 
BRANCH  27  41
ATOM     41  C   UNL A   1      42.869  31.449  34.177  1.00  0.00     0.023 A 
ATOM     42  C   UNL A   1      43.531  32.637  33.804  1.00  0.00     0.012 A 
ATOM     43  C   UNL A   1      42.216  31.387  35.425  1.00  0.00     0.148 A 
ATOM     44  C   UNL A   1      43.586  33.724  34.676  1.00  0.00     0.002 A 
ATOM     45  C   UNL A   1      42.234  32.492  36.267  1.00  0.00     0.091 A 
ATOM     46  F   UNL A   1      41.607  30.245  35.773  1.00  0.00    -0.205 F 
ATOM     47  C   UNL A   1      42.931  33.655  35.902  1.00  0.00     0.022 A 
BRANCH  45  48
ATOM     48  S   UNL A   1      41.350  32.527  37.830  1.00  0.00     0.127 S 
ATOM     49  O   UNL A   1      42.151  31.614  38.643  1.00  0.00    -0.237 OA
ATOM     50  O   UNL A   1      41.455  33.936  38.213  1.00  0.00    -0.237 OA
ATOM     51  O   UNL A   1      39.995  32.081  37.534  1.00  0.00    -0.744 OA
ENDBRANCH  45  48
ENDBRANCH  27  41
BRANCH  28  52
ATOM     52  C   UNL A   1      42.559  24.233  27.272  1.00  0.00     0.023 A 
ATOM     53  C   UNL A   1      43.207  24.524  26.058  1.00  0.00     0.012 A 
ATOM     54  C   UNL A   1      41.981  22.961  27.460  1.00  0.00     0.148 A 
ATOM     55  C   UNL A   1      43.264  23.572  25.041  1.00  0.00     0.002 A 
ATOM     56  C   UNL A   1      42.094  21.997  26.467  1.00  0.00     0.091 A 
ATOM     57  F   UNL A   1      41.369  22.709  28.626  1.00  0.00    -0.205 F 
ATOM     58  C   UNL A   1      42.721  22.305  25.250  1.00  0.00     0.022 A 
BRANCH  56  59
ATOM     59  S   UNL A   1      41.557  20.299  26.702  1.00  0.00     0.127 S 
ATOM     60  O   UNL A   1      41.877  19.704  25.408  1.00  0.00    -0.237 OA
ATOM     61  O   UNL A   1      42.410  19.868  27.808  1.00  0.00    -0.237 OA
ATOM     62  O   UNL A   1      40.138  20.373  27.027  1.00  0.00    -0.744 OA
ENDBRANCH  56  59
ENDBRANCH  28  52
BRANCH  40  63
ATOM     63  C   UNL A   1      47.088  25.897  32.349  1.00  0.00     0.023 A 
ATOM     64  C   UNL A   1      48.294  26.381  31.807  1.00  0.00     0.012 A 
ATOM     65  C   UNL A   1      47.126  24.940  33.383  1.00  0.00     0.148 A 
ATOM     66  C   UNL A   1      49.519  25.906  32.275  1.00  0.00     0.002 A 
ATOM     67  C   UNL A   1      48.350  24.512  33.880  1.00  0.00     0.091 A 
ATOM     68  F   UNL A   1      45.965  24.480  33.868  1.00  0.00    -0.205 F 
ATOM     69  C   UNL A   1      49.547  24.985  33.320  1.00  0.00     0.022 A 
BRANCH  67  70
ATOM     70  S   UNL A   1      48.485  23.409  35.290  1.00  0.00     0.127 S 
ATOM     71  O   UNL A   1      47.911  22.173  34.758  1.00  0.00    -0.237 OA
ATOM     72  O   UNL A   1      49.931  23.365  35.508  1.00  0.00    -0.237 OA
ATOM     73  O   UNL A   1      47.726  24.030  36.367  1.00  0.00    -0.744 OA
ENDBRANCH  67  70
ENDBRANCH  40  63
ENDBRANCH  14  15
ENDBRANCH   7   9
ENDBRANCH   4   5
ENDBRANCH   3   4
ENDBRANCH   2   3
ENDBRANCH   1   2
BRANCH   1  74
ATOM     74  C   UNL A   1      30.556  29.059  22.973  1.00  0.00     0.021 C 
BRANCH  74  75
ATOM     75  C   UNL A   1      30.428  27.610  22.513  1.00  0.00     0.116 C 
BRANCH  75  76
ATOM     76  N   UNL A   1      31.681  27.139  21.966  1.00  0.00    -0.354 N 
ATOM     77  C   UNL A   1      32.524  26.139  22.293  1.00  0.00     0.244 C 
ATOM     78  H   UNL A   1      31.983  27.660  21.188  1.00  0.00     0.163 HD
ATOM     79  O   UNL A   1      33.593  26.129  21.668  1.00  0.00    -0.273 OA
BRANCH  77  80
ATOM     80  C   UNL A   1      32.223  25.017  23.311  1.00  0.00     0.197 C 
BRANCH  80  81
ATOM     81  N   UNL A   1      31.810  25.394  24.670  1.00  0.00    -0.342 N 
ATOM     82  C   UNL A   1      32.158  25.013  25.923  1.00  0.00     0.226 C 
ATOM     83  H   UNL A   1      31.113  26.090  24.670  1.00  0.00     0.164 HD
ATOM     84  O   UNL A   1      31.679  25.688  26.839  1.00  0.00    -0.275 OA
BRANCH  82  85
ATOM     85  C   UNL A   1      33.140  23.898  26.221  1.00  0.00     0.107 C 
ATOM     86  C   UNL A   1      32.459  22.520  26.088  1.00  0.00     0.115 C 
ATOM     87  C   UNL A   1      34.290  23.823  25.245  1.00  0.00     0.133 C 
ATOM     88  C   UNL A   1      33.485  21.641  25.421  1.00  0.00     0.223 C 
ATOM     89  N   UNL A   1      34.524  22.436  24.996  1.00  0.00    -0.333 N 
ATOM     90  O   UNL A   1      33.394  20.434  25.254  1.00  0.00    -0.275 OA
BRANCH  89  91
ATOM     91  C   UNL A   1      35.666  21.988  24.193  1.00  0.00     0.234 C 
BRANCH  91  92
ATOM     92  C   UNL A   1      36.922  21.644  24.999  1.00  0.00     0.406 C 
ATOM     93  F   UNL A   1      37.896  22.566  24.798  1.00  0.00    -0.169 F 
ATOM     94  F   UNL A   1      36.660  21.629  26.325  1.00  0.00    -0.169 F 
ATOM     95  F   UNL A   1      37.427  20.439  24.661  1.00  0.00    -0.169 F 
ENDBRANCH  91  92
ENDBRANCH  89  91
ENDBRANCH  82  85
ENDBRANCH  80  81
BRANCH  80  96
ATOM     96  C   UNL A   1      31.184  24.005  22.759  1.00  0.00     0.191 C 
BRANCH  96  97
ATOM     97  O   UNL A   1      31.592  22.653  22.636  1.00  0.00    -0.394 OA
ATOM     98  H   UNL A   1      30.832  22.109  22.376  1.00  0.00     0.210 HD
ENDBRANCH  96  97
ENDBRANCH  80  96
ENDBRANCH  77  80
ENDBRANCH  75  76
ENDBRANCH  74  75
ENDBRANCH   1  74
TORSDOF 22
ENDMDL
MODEL 3
REMARK VINA RESULT:     -10.1      2.759      4.274
REMARK SMILES O=C(NCCCCCCNC(=O)[C@H](CO)NC(=O)[C@H]1CC(=O)N(CC(F)(F)F)C1)c1ccc(-c2c3nc(c(-c4cccc(S(=O)(=O)[O-])c4F)c4ccc([nH]4)c(-c4cccc(S(=O)(=O)[O-])c4F)c4nc(c(-c5cccc(S(=O)(=O)[O-])c5F)c5ccc2[nH]5)C=C4)C=C3)cc1
REMARK SMILES IDX 7 1 6 2 5 3 4 4 3 5 1 6 2 7 30 9 31 10 92 11 32 12 91 13
REMARK SMILES IDX 33 14 34 15 35 16 85 17 36 18 90 19 84 20 86 21 37 22 89 23
REMARK SMILES IDX 83 24 82 25 38 27 70 28 50 29 69 30 51 31 54 32 68 33 87 34
REMARK SMILES IDX 52 35 53 36 67 38 88 39 55 40 39 41 40 42 48 43 41 44 43 45
REMARK SMILES IDX 49 46 42 47 44 48 45 49 46 50 47 51 71 52 72 53 80 54 73 55
REMARK SMILES IDX 75 56 81 57 74 58 76 59 77 60 78 61 79 62 56 63 57 64 65 65
REMARK SMILES IDX 58 66 60 67 66 68 59 69 61 70 62 71 63 72 64 73 8 74 9 75
REMARK SMILES IDX 10 76 11 77 12 79 13 80 16 81 17 82 18 84 19 85 20 86 29 87
REMARK SMILES IDX 21 88 23 89 22 90 24 91 25 92 26 93 27 94 28 95 14 96 15 97
REMARK H PARENT 3 8 86 26 54 37 10 78 16 83 15 98
REMARK Flexibility Score: inf
ROOT
ATOM      1  C   UNL A   1      32.430  30.028  25.884  1.00  0.00     0.002 C 
ENDROOT
BRANCH   1   2
ATOM      2  C   UNL A   1      31.359  30.839  26.623  1.00  0.00     0.002 C 
BRANCH   2   3
ATOM      3  C   UNL A   1      31.538  32.357  26.535  1.00  0.00     0.021 C 
BRANCH   3   4
ATOM      4  C   UNL A   1      32.767  32.875  27.265  1.00  0.00     0.116 C 
BRANCH   4   5
ATOM      5  N   UNL A   1      32.567  34.234  27.734  1.00  0.00    -0.352 N 
ATOM      6  O   UNL A   1      32.681  35.910  29.234  1.00  0.00    -0.269 OA
ATOM      7  C   UNL A   1      33.151  34.862  28.806  1.00  0.00     0.251 C 
ATOM      8  H   UNL A   1      31.930  34.777  27.216  1.00  0.00     0.163 HD
BRANCH   7   9
ATOM      9  C   UNL A   1      34.339  34.248  29.433  1.00  0.00     0.039 A 
ATOM     10  C   UNL A   1      34.196  33.448  30.573  1.00  0.00     0.014 A 
ATOM     11  C   UNL A   1      35.599  34.472  28.878  1.00  0.00     0.014 A 
ATOM     12  C   UNL A   1      35.324  32.970  31.226  1.00  0.00     0.010 A 
ATOM     13  C   UNL A   1      36.724  33.916  29.487  1.00  0.00     0.010 A 
ATOM     14  C   UNL A   1      36.596  33.177  30.674  1.00  0.00    -0.014 A 
BRANCH  14  15
ATOM     15  C   UNL A   1      37.779  32.532  31.294  1.00  0.00     0.031 A 
ATOM     16  C   UNL A   1      38.477  31.386  30.625  1.00  0.00     0.074 A 
ATOM     17  C   UNL A   1      38.178  32.961  32.507  1.00  0.00     0.049 A 
ATOM     18  N   UNL A   1      39.475  30.665  31.064  1.00  0.00    -0.248 NA
ATOM     19  C   UNL A   1      37.985  30.990  29.297  1.00  0.00     0.031 C 
ATOM     20  C   UNL A   1      37.542  34.039  33.268  1.00  0.00     0.029 A 
ATOM     21  N   UNL A   1      39.187  32.524  33.326  1.00  0.00    -0.354 N 
ATOM     22  C   UNL A   1      39.702  29.698  30.093  1.00  0.00     0.074 A 
ATOM     23  C   UNL A   1      38.734  29.925  29.041  1.00  0.00     0.031 C 
ATOM     24  C   UNL A   1      38.165  34.172  34.446  1.00  0.00     0.029 A 
ATOM     25  C   UNL A   1      39.199  33.150  34.550  1.00  0.00     0.049 A 
ATOM     26  H   UNL A   1      39.837  31.832  33.066  1.00  0.00     0.167 HD
ATOM     27  C   UNL A   1      40.634  28.715  30.082  1.00  0.00     0.034 A 
ATOM     28  C   UNL A   1      39.924  32.900  35.657  1.00  0.00     0.034 A 
ATOM     29  C   UNL A   1      41.596  28.509  31.133  1.00  0.00     0.049 A 
ATOM     30  C   UNL A   1      40.951  31.808  35.622  1.00  0.00     0.074 A 
ATOM     31  C   UNL A   1      42.634  27.595  31.181  1.00  0.00     0.029 A 
ATOM     32  N   UNL A   1      41.621  29.205  32.333  1.00  0.00    -0.354 N 
ATOM     33  N   UNL A   1      41.245  30.991  34.641  1.00  0.00    -0.248 NA
ATOM     34  C   UNL A   1      41.764  31.620  36.830  1.00  0.00     0.031 C 
ATOM     35  C   UNL A   1      43.255  27.706  32.430  1.00  0.00     0.029 A 
ATOM     36  C   UNL A   1      42.638  28.724  33.140  1.00  0.00     0.049 A 
ATOM     37  H   UNL A   1      41.005  29.934  32.576  1.00  0.00     0.167 HD
ATOM     38  C   UNL A   1      42.298  30.210  35.098  1.00  0.00     0.074 A 
ATOM     39  C   UNL A   1      42.597  30.662  36.443  1.00  0.00     0.031 C 
ATOM     40  C   UNL A   1      42.953  29.210  34.462  1.00  0.00     0.034 A 
BRANCH  27  41
ATOM     41  C   UNL A   1      40.657  27.785  28.895  1.00  0.00     0.023 A 
ATOM     42  C   UNL A   1      39.691  26.765  28.778  1.00  0.00     0.012 A 
ATOM     43  C   UNL A   1      41.618  27.945  27.876  1.00  0.00     0.148 A 
ATOM     44  C   UNL A   1      39.711  25.888  27.693  1.00  0.00     0.002 A 
ATOM     45  C   UNL A   1      41.600  27.098  26.774  1.00  0.00     0.091 A 
ATOM     46  F   UNL A   1      42.540  28.907  28.010  1.00  0.00    -0.205 F 
ATOM     47  C   UNL A   1      40.659  26.060  26.689  1.00  0.00     0.022 A 
BRANCH  45  48
ATOM     48  S   UNL A   1      42.729  27.292  25.391  1.00  0.00     0.127 S 
ATOM     49  O   UNL A   1      42.515  26.045  24.659  1.00  0.00    -0.237 OA
ATOM     50  O   UNL A   1      42.202  28.486  24.728  1.00  0.00    -0.237 OA
ATOM     51  O   UNL A   1      44.053  27.459  25.975  1.00  0.00    -0.744 OA
ENDBRANCH  45  48
ENDBRANCH  27  41
BRANCH  28  52
ATOM     52  C   UNL A   1      39.688  33.721  36.875  1.00  0.00     0.023 A 
ATOM     53  C   UNL A   1      38.707  33.330  37.804  1.00  0.00     0.012 A 
ATOM     54  C   UNL A   1      40.503  34.836  37.158  1.00  0.00     0.148 A 
ATOM     55  C   UNL A   1      38.527  34.047  38.986  1.00  0.00     0.002 A 
ATOM     56  C   UNL A   1      40.359  35.509  38.364  1.00  0.00     0.091 A 
ATOM     57  F   UNL A   1      41.431  35.188  36.256  1.00  0.00    -0.205 F 
ATOM     58  C   UNL A   1      39.361  35.127  39.273  1.00  0.00     0.022 A 
BRANCH  56  59
ATOM     59  S   UNL A   1      41.480  36.813  38.882  1.00  0.00     0.127 S 
ATOM     60  O   UNL A   1      40.551  37.893  39.206  1.00  0.00    -0.237 OA
ATOM     61  O   UNL A   1      42.139  36.199  40.034  1.00  0.00    -0.237 OA
ATOM     62  O   UNL A   1      42.357  37.058  37.745  1.00  0.00    -0.744 OA
ENDBRANCH  56  59
ENDBRANCH  28  52
BRANCH  40  63
ATOM     63  C   UNL A   1      44.098  28.550  35.183  1.00  0.00     0.023 A 
ATOM     64  C   UNL A   1      45.417  29.004  34.984  1.00  0.00     0.012 A 
ATOM     65  C   UNL A   1      43.847  27.545  36.138  1.00  0.00     0.148 A 
ATOM     66  C   UNL A   1      46.470  28.454  35.714  1.00  0.00     0.002 A 
ATOM     67  C   UNL A   1      44.894  27.040  36.899  1.00  0.00     0.091 A 
ATOM     68  F   UNL A   1      42.587  27.115  36.295  1.00  0.00    -0.205 F 
ATOM     69  C   UNL A   1      46.207  27.485  36.680  1.00  0.00     0.022 A 
BRANCH  67  70
ATOM     70  S   UNL A   1      44.637  25.867  38.233  1.00  0.00     0.127 S 
ATOM     71  O   UNL A   1      46.009  25.611  38.673  1.00  0.00    -0.237 OA
ATOM     72  O   UNL A   1      43.829  26.643  39.174  1.00  0.00    -0.237 OA
ATOM     73  O   UNL A   1      43.954  24.724  37.644  1.00  0.00    -0.744 OA
ENDBRANCH  67  70
ENDBRANCH  40  63
ENDBRANCH  14  15
ENDBRANCH   7   9
ENDBRANCH   4   5
ENDBRANCH   3   4
ENDBRANCH   2   3
ENDBRANCH   1   2
BRANCH   1  74
ATOM     74  C   UNL A   1      33.153  28.986  26.746  1.00  0.00     0.021 C 
BRANCH  74  75
ATOM     75  C   UNL A   1      34.006  28.009  25.943  1.00  0.00     0.116 C 
BRANCH  75  76
ATOM     76  N   UNL A   1      34.021  28.378  24.545  1.00  0.00    -0.354 N 
ATOM     77  C   UNL A   1      33.582  27.781  23.419  1.00  0.00     0.244 C 
ATOM     78  H   UNL A   1      34.440  29.253  24.381  1.00  0.00     0.163 HD
ATOM     79  O   UNL A   1      33.902  28.349  22.366  1.00  0.00    -0.273 OA
BRANCH  77  80
ATOM     80  C   UNL A   1      32.690  26.522  23.367  1.00  0.00     0.197 C 
BRANCH  80  81
ATOM     81  N   UNL A   1      31.497  26.470  24.225  1.00  0.00    -0.342 N 
ATOM     82  C   UNL A   1      30.891  25.519  24.976  1.00  0.00     0.226 C 
ATOM     83  H   UNL A   1      31.025  27.334  24.262  1.00  0.00     0.164 HD
ATOM     84  O   UNL A   1      29.967  25.913  25.692  1.00  0.00    -0.275 OA
BRANCH  82  85
ATOM     85  C   UNL A   1      31.349  24.075  25.033  1.00  0.00     0.107 C 
ATOM     86  C   UNL A   1      30.963  23.329  23.738  1.00  0.00     0.115 C 
ATOM     87  C   UNL A   1      32.848  23.914  25.106  1.00  0.00     0.133 C 
ATOM     88  C   UNL A   1      32.149  22.453  23.427  1.00  0.00     0.223 C 
ATOM     89  N   UNL A   1      33.180  22.807  24.266  1.00  0.00    -0.333 N 
ATOM     90  O   UNL A   1      32.199  21.598  22.556  1.00  0.00    -0.275 OA
BRANCH  89  91
ATOM     91  C   UNL A   1      34.547  22.279  24.205  1.00  0.00     0.234 C 
BRANCH  91  92
ATOM     92  C   UNL A   1      34.773  20.991  25.003  1.00  0.00     0.406 C 
ATOM     93  F   UNL A   1      36.097  20.757  25.181  1.00  0.00    -0.169 F 
ATOM     94  F   UNL A   1      34.217  21.076  26.231  1.00  0.00    -0.169 F 
ATOM     95  F   UNL A   1      34.251  19.913  24.382  1.00  0.00    -0.169 F 
ENDBRANCH  91  92
ENDBRANCH  89  91
ENDBRANCH  82  85
ENDBRANCH  80  81
BRANCH  80  96
ATOM     96  C   UNL A   1      32.249  26.190  21.916  1.00  0.00     0.191 C 
BRANCH  96  97
ATOM     97  O   UNL A   1      31.319  27.067  21.301  1.00  0.00    -0.394 OA
ATOM     98  H   UNL A   1      31.470  27.076  20.343  1.00  0.00     0.210 HD
ENDBRANCH  96  97
ENDBRANCH  80  96
ENDBRANCH  77  80
ENDBRANCH  75  76
ENDBRANCH  74  75
ENDBRANCH   1  74
TORSDOF 22
ENDMDL
