MODEL 1
REMARK VINA RESULT:      -9.9      0.000      0.000
REMARK SMILES CCn1nc(C(C)C)cc1C(=O)N[C@@H](CC(N)=O)C(=O)NCCCCCCNC(=O)c1ccc(-c2c3nc(c(-c4cccc(S(=O)(=O)[O-])c4F)c4ccc([nH]4)c(-c4cccc(S(=O)(=O)[O-])c4F)c4nc(c(-c5cccc(S(=O)(=O)[O-])c5F)c5ccc2[nH]5)C=C4)C=C3)cc1
REMARK SMILES IDX 24 1 23 2 22 3 21 4 19 5 20 6 14 8 13 9 11 10 12 11 10 13
REMARK SMILES IDX 3 14 4 15 5 16 9 17 2 18 1 19 6 20 7 21 8 22 15 23 16 24
REMARK SMILES IDX 17 25 18 26 25 29 26 30 27 31 28 32 29 33 30 35 31 36 32 37
REMARK SMILES IDX 93 38 33 39 92 40 34 41 35 42 36 43 86 44 37 45 91 46 85 47
REMARK SMILES IDX 87 48 38 49 90 50 84 51 83 52 39 54 71 55 51 56 70 57 52 58
REMARK SMILES IDX 55 59 69 60 88 61 53 62 54 63 68 65 89 66 56 67 40 68 41 69
REMARK SMILES IDX 49 70 42 71 44 72 50 73 43 74 45 75 46 76 47 77 48 78 72 79
REMARK SMILES IDX 73 80 81 81 74 82 76 83 82 84 75 85 77 86 78 87 79 88 80 89
REMARK SMILES IDX 57 90 58 91 66 92 59 93 61 94 67 95 60 96 62 97 63 98 64 99
REMARK SMILES IDX 65 100
REMARK H PARENT 21 7 13 12 17 27 17 28 28 34 87 53 55 64
REMARK Flexibility Score: inf
ROOT
ATOM      1  C   UNL A   1      34.881  31.588  27.772  1.00  0.00     0.002 C 
ENDROOT
BRANCH   1   2
ATOM      2  C   UNL A   1      35.577  30.226  27.774  1.00  0.00     0.021 C 
BRANCH   2   3
ATOM      3  C   UNL A   1      34.781  29.090  27.153  1.00  0.00     0.116 C 
BRANCH   3   4
ATOM      4  N   UNL A   1      33.491  28.853  27.773  1.00  0.00    -0.354 N 
ATOM      5  C   UNL A   1      32.286  28.581  27.199  1.00  0.00     0.243 C 
ATOM      6  O   UNL A   1      31.438  28.019  27.905  1.00  0.00    -0.273 OA
ATOM      7  H   UNL A   1      33.486  28.897  28.757  1.00  0.00     0.163 HD
BRANCH   5   8
ATOM      8  C   UNL A   1      31.994  28.824  25.703  1.00  0.00     0.181 C 
BRANCH   8   9
ATOM      9  N   UNL A   1      33.215  29.059  24.940  1.00  0.00    -0.338 N 
ATOM     10  C   UNL A   1      33.915  28.231  24.104  1.00  0.00     0.270 C 
ATOM     11  O   UNL A   1      34.616  28.792  23.252  1.00  0.00    -0.268 OA
ATOM     12  H   UNL A   1      33.597  29.960  25.041  1.00  0.00     0.164 HD
BRANCH  10  13
ATOM     13  C   UNL A   1      33.926  26.806  24.288  1.00  0.00     0.126 A 
ATOM     14  N   UNL A   1      33.761  25.889  23.264  1.00  0.00    -0.260 N 
ATOM     15  N   UNL A   1      34.035  24.611  23.648  1.00  0.00    -0.177 NA
ATOM     16  C   UNL A   1      34.194  24.696  24.971  1.00  0.00     0.066 A 
ATOM     17  C   UNL A   1      34.034  26.020  25.421  1.00  0.00     0.059 A 
BRANCH  14  18
ATOM     18  C   UNL A   1      33.250  26.117  21.918  1.00  0.00     0.142 C 
ATOM     19  C   UNL A   1      31.813  25.683  21.673  1.00  0.00     0.029 C 
ENDBRANCH  14  18
BRANCH  16  20
ATOM     20  C   UNL A   1      34.488  23.508  25.837  1.00  0.00     0.034 C 
ATOM     21  C   UNL A   1      33.532  22.353  25.545  1.00  0.00     0.014 C 
ATOM     22  C   UNL A   1      35.946  23.056  25.764  1.00  0.00     0.014 C 
ENDBRANCH  16  20
ENDBRANCH  10  13
ENDBRANCH   8   9
BRANCH   8  23
ATOM     23  C   UNL A   1      30.974  27.868  25.092  1.00  0.00     0.134 C 
BRANCH  23  24
ATOM     24  C   UNL A   1      30.287  28.335  23.842  1.00  0.00     0.220 C 
ATOM     25  N   UNL A   1      29.136  27.681  23.516  1.00  0.00    -0.370 N 
ATOM     26  O   UNL A   1      30.708  29.242  23.137  1.00  0.00    -0.275 OA
ATOM     27  H   UNL A   1      28.805  26.952  24.088  1.00  0.00     0.159 HD
ATOM     28  H   UNL A   1      28.638  27.938  22.706  1.00  0.00     0.159 HD
ENDBRANCH  23  24
ENDBRANCH   8  23
ENDBRANCH   5   8
ENDBRANCH   3   4
ENDBRANCH   2   3
ENDBRANCH   1   2
BRANCH   1  29
ATOM     29  C   UNL A   1      35.763  32.824  28.005  1.00  0.00     0.002 C 
BRANCH  29  30
ATOM     30  C   UNL A   1      35.115  34.063  28.642  1.00  0.00     0.021 C 
BRANCH  30  31
ATOM     31  C   UNL A   1      33.897  33.782  29.506  1.00  0.00     0.116 C 
BRANCH  31  32
ATOM     32  N   UNL A   1      33.986  34.418  30.820  1.00  0.00    -0.352 N 
ATOM     33  C   UNL A   1      34.851  34.134  31.857  1.00  0.00     0.251 C 
ATOM     34  H   UNL A   1      33.344  35.145  30.986  1.00  0.00     0.163 HD
ATOM     35  O   UNL A   1      34.590  34.492  33.001  1.00  0.00    -0.269 OA
BRANCH  33  36
ATOM     36  C   UNL A   1      36.092  33.394  31.572  1.00  0.00     0.039 A 
ATOM     37  C   UNL A   1      37.279  34.061  31.250  1.00  0.00     0.014 A 
ATOM     38  C   UNL A   1      36.057  32.008  31.657  1.00  0.00     0.014 A 
ATOM     39  C   UNL A   1      38.448  33.319  31.090  1.00  0.00     0.010 A 
ATOM     40  C   UNL A   1      37.229  31.301  31.670  1.00  0.00     0.010 A 
ATOM     41  C   UNL A   1      38.416  31.938  31.316  1.00  0.00    -0.014 A 
BRANCH  41  42
ATOM     42  C   UNL A   1      39.633  31.132  31.296  1.00  0.00     0.031 A 
ATOM     43  C   UNL A   1      40.314  30.995  32.615  1.00  0.00     0.074 A 
ATOM     44  C   UNL A   1      39.930  30.341  30.241  1.00  0.00     0.049 A 
ATOM     45  N   UNL A   1      41.510  31.364  32.940  1.00  0.00    -0.248 NA
ATOM     46  C   UNL A   1      39.516  30.505  33.751  1.00  0.00     0.031 C 
ATOM     47  C   UNL A   1      39.126  30.141  29.025  1.00  0.00     0.029 A 
ATOM     48  N   UNL A   1      40.904  29.399  30.110  1.00  0.00    -0.354 N 
ATOM     49  C   UNL A   1      41.693  30.919  34.251  1.00  0.00     0.074 A 
ATOM     50  C   UNL A   1      40.381  30.630  34.758  1.00  0.00     0.031 C 
ATOM     51  C   UNL A   1      39.466  28.971  28.449  1.00  0.00     0.029 A 
ATOM     52  C   UNL A   1      40.623  28.437  29.140  1.00  0.00     0.049 A 
ATOM     53  H   UNL A   1      41.727  29.395  30.650  1.00  0.00     0.167 HD
ATOM     54  C   UNL A   1      42.923  30.546  34.706  1.00  0.00     0.034 A 
ATOM     55  C   UNL A   1      41.258  27.256  28.953  1.00  0.00     0.034 A 
ATOM     56  C   UNL A   1      43.966  31.026  33.831  1.00  0.00     0.049 A 
ATOM     57  C   UNL A   1      42.565  27.353  29.634  1.00  0.00     0.074 A 
ATOM     58  C   UNL A   1      44.363  32.260  33.356  1.00  0.00     0.029 A 
ATOM     59  N   UNL A   1      44.557  30.098  33.011  1.00  0.00    -0.354 N 
ATOM     60  N   UNL A   1      43.518  28.159  29.259  1.00  0.00    -0.248 NA
ATOM     61  C   UNL A   1      42.668  26.847  30.992  1.00  0.00     0.031 C 
ATOM     62  C   UNL A   1      44.779  32.019  32.013  1.00  0.00     0.029 A 
ATOM     63  C   UNL A   1      44.673  30.649  31.766  1.00  0.00     0.049 A 
ATOM     64  H   UNL A   1      44.845  29.193  33.273  1.00  0.00     0.167 HD
ATOM     65  C   UNL A   1      44.061  28.623  30.449  1.00  0.00     0.074 A 
ATOM     66  C   UNL A   1      43.598  27.681  31.467  1.00  0.00     0.031 C 
ATOM     67  C   UNL A   1      44.576  29.885  30.539  1.00  0.00     0.034 A 
BRANCH  54  68
ATOM     68  C   UNL A   1      43.193  29.408  35.683  1.00  0.00     0.023 A 
ATOM     69  C   UNL A   1      44.109  29.672  36.731  1.00  0.00     0.012 A 
ATOM     70  C   UNL A   1      42.854  28.051  35.474  1.00  0.00     0.148 A 
ATOM     71  C   UNL A   1      44.730  28.645  37.452  1.00  0.00     0.002 A 
ATOM     72  C   UNL A   1      43.418  27.037  36.244  1.00  0.00     0.091 A 
ATOM     73  F   UNL A   1      42.081  27.693  34.450  1.00  0.00    -0.205 F 
ATOM     74  C   UNL A   1      44.385  27.324  37.206  1.00  0.00     0.022 A 
BRANCH  72  75
ATOM     75  S   UNL A   1      42.968  25.312  35.998  1.00  0.00     0.127 S 
ATOM     76  O   UNL A   1      43.753  24.657  37.039  1.00  0.00    -0.237 OA
ATOM     77  O   UNL A   1      41.524  25.344  36.233  1.00  0.00    -0.237 OA
ATOM     78  O   UNL A   1      43.339  25.004  34.622  1.00  0.00    -0.744 OA
ENDBRANCH  72  75
ENDBRANCH  54  68
BRANCH  55  79
ATOM     79  C   UNL A   1      40.748  25.975  28.414  1.00  0.00     0.023 A 
ATOM     80  C   UNL A   1      39.367  25.815  28.190  1.00  0.00     0.012 A 
ATOM     81  C   UNL A   1      41.628  25.014  27.869  1.00  0.00     0.148 A 
ATOM     82  C   UNL A   1      38.879  24.754  27.419  1.00  0.00     0.002 A 
ATOM     83  C   UNL A   1      41.137  23.954  27.111  1.00  0.00     0.091 A 
ATOM     84  F   UNL A   1      42.948  25.192  28.015  1.00  0.00    -0.205 F 
ATOM     85  C   UNL A   1      39.763  23.828  26.872  1.00  0.00     0.022 A 
BRANCH  83  86
ATOM     86  S   UNL A   1      42.222  22.729  26.363  1.00  0.00     0.127 S 
ATOM     87  O   UNL A   1      42.786  22.067  27.540  1.00  0.00    -0.237 OA
ATOM     88  O   UNL A   1      41.278  21.918  25.599  1.00  0.00    -0.237 OA
ATOM     89  O   UNL A   1      43.188  23.494  25.586  1.00  0.00    -0.744 OA
ENDBRANCH  83  86
ENDBRANCH  55  79
BRANCH  67  90
ATOM     90  C   UNL A   1      44.810  30.653  29.262  1.00  0.00     0.023 A 
ATOM     91  C   UNL A   1      43.817  31.465  28.675  1.00  0.00     0.012 A 
ATOM     92  C   UNL A   1      46.115  30.699  28.745  1.00  0.00     0.148 A 
ATOM     93  C   UNL A   1      44.114  32.287  27.584  1.00  0.00     0.002 A 
ATOM     94  C   UNL A   1      46.419  31.554  27.693  1.00  0.00     0.091 A 
ATOM     95  F   UNL A   1      47.051  29.924  29.316  1.00  0.00    -0.205 F 
ATOM     96  C   UNL A   1      45.420  32.343  27.102  1.00  0.00     0.022 A 
BRANCH  94  97
ATOM     97  S   UNL A   1      48.106  31.768  27.122  1.00  0.00     0.127 S 
ATOM     98  O   UNL A   1      47.949  32.778  26.077  1.00  0.00    -0.237 OA
ATOM     99  O   UNL A   1      48.792  32.237  28.327  1.00  0.00    -0.237 OA
ATOM    100  O   UNL A   1      48.542  30.454  26.665  1.00  0.00    -0.744 OA
ENDBRANCH  94  97
ENDBRANCH  67  90
ENDBRANCH  41  42
ENDBRANCH  33  36
ENDBRANCH  31  32
ENDBRANCH  30  31
ENDBRANCH  29  30
ENDBRANCH   1  29
TORSDOF 22
ENDMDL
MODEL 2
REMARK VINA RESULT:      -9.7      4.379     11.672
REMARK SMILES CCn1nc(C(C)C)cc1C(=O)N[C@@H](CC(N)=O)C(=O)NCCCCCCNC(=O)c1ccc(-c2c3nc(c(-c4cccc(S(=O)(=O)[O-])c4F)c4ccc([nH]4)c(-c4cccc(S(=O)(=O)[O-])c4F)c4nc(c(-c5cccc(S(=O)(=O)[O-])c5F)c5ccc2[nH]5)C=C4)C=C3)cc1
REMARK SMILES IDX 24 1 23 2 22 3 21 4 19 5 20 6 14 8 13 9 11 10 12 11 10 13
REMARK SMILES IDX 3 14 4 15 5 16 9 17 2 18 1 19 6 20 7 21 8 22 15 23 16 24
REMARK SMILES IDX 17 25 18 26 25 29 26 30 27 31 28 32 29 33 30 35 31 36 32 37
REMARK SMILES IDX 93 38 33 39 92 40 34 41 35 42 36 43 86 44 37 45 91 46 85 47
REMARK SMILES IDX 87 48 38 49 90 50 84 51 83 52 39 54 71 55 51 56 70 57 52 58
REMARK SMILES IDX 55 59 69 60 88 61 53 62 54 63 68 65 89 66 56 67 40 68 41 69
REMARK SMILES IDX 49 70 42 71 44 72 50 73 43 74 45 75 46 76 47 77 48 78 72 79
REMARK SMILES IDX 73 80 81 81 74 82 76 83 82 84 75 85 77 86 78 87 79 88 80 89
REMARK SMILES IDX 57 90 58 91 66 92 59 93 61 94 67 95 60 96 62 97 63 98 64 99
REMARK SMILES IDX 65 100
REMARK H PARENT 21 7 13 12 17 27 17 28 28 34 87 53 55 64
REMARK Flexibility Score: inf
ROOT
ATOM      1  C   UNL A   1      44.285  26.460  25.385  1.00  0.00     0.002 C 
ENDROOT
BRANCH   1   2
ATOM      2  C   UNL A   1      45.255  27.180  26.325  1.00  0.00     0.021 C 
BRANCH   2   3
ATOM      3  C   UNL A   1      46.051  28.311  25.694  1.00  0.00     0.116 C 
BRANCH   3   4
ATOM      4  N   UNL A   1      47.144  27.873  24.847  1.00  0.00    -0.354 N 
ATOM      5  C   UNL A   1      48.375  27.399  25.188  1.00  0.00     0.243 C 
ATOM      6  O   UNL A   1      48.970  26.713  24.345  1.00  0.00    -0.273 OA
ATOM      7  H   UNL A   1      46.971  27.927  23.879  1.00  0.00     0.163 HD
BRANCH   5   8
ATOM      8  C   UNL A   1      48.980  27.571  26.597  1.00  0.00     0.181 C 
BRANCH   8   9
ATOM      9  N   UNL A   1      49.748  26.401  27.009  1.00  0.00    -0.338 N 
ATOM     10  C   UNL A   1      49.392  25.332  27.787  1.00  0.00     0.270 C 
ATOM     11  O   UNL A   1      50.040  24.294  27.604  1.00  0.00    -0.268 OA
ATOM     12  H   UNL A   1      50.672  26.376  26.671  1.00  0.00     0.164 HD
BRANCH  10  13
ATOM     13  C   UNL A   1      48.412  25.450  28.830  1.00  0.00     0.126 A 
ATOM     14  N   UNL A   1      48.703  25.808  30.135  1.00  0.00    -0.260 N 
ATOM     15  N   UNL A   1      47.589  26.070  30.874  1.00  0.00    -0.177 NA
ATOM     16  C   UNL A   1      46.580  25.695  30.085  1.00  0.00     0.066 A 
ATOM     17  C   UNL A   1      47.049  25.210  28.851  1.00  0.00     0.059 A 
BRANCH  14  18
ATOM     18  C   UNL A   1      50.002  25.831  30.799  1.00  0.00     0.142 C 
ATOM     19  C   UNL A   1      49.966  25.875  32.318  1.00  0.00     0.029 C 
ENDBRANCH  14  18
BRANCH  16  20
ATOM     20  C   UNL A   1      45.142  25.779  30.502  1.00  0.00     0.034 C 
ATOM     21  C   UNL A   1      44.766  24.638  31.444  1.00  0.00     0.014 C 
ATOM     22  C   UNL A   1      44.765  27.137  31.094  1.00  0.00     0.014 C 
ENDBRANCH  16  20
ENDBRANCH  10  13
ENDBRANCH   8   9
BRANCH   8  23
ATOM     23  C   UNL A   1      49.615  28.935  26.853  1.00  0.00     0.134 C 
BRANCH  23  24
ATOM     24  C   UNL A   1      50.963  29.169  26.237  1.00  0.00     0.220 C 
ATOM     25  N   UNL A   1      52.034  28.997  27.063  1.00  0.00    -0.370 N 
ATOM     26  O   UNL A   1      51.126  29.496  25.068  1.00  0.00    -0.275 OA
ATOM     27  H   UNL A   1      51.894  28.735  28.001  1.00  0.00     0.159 HD
ATOM     28  H   UNL A   1      52.946  29.138  26.721  1.00  0.00     0.159 HD
ENDBRANCH  23  24
ENDBRANCH   8  23
ENDBRANCH   5   8
ENDBRANCH   3   4
ENDBRANCH   2   3
ENDBRANCH   1   2
BRANCH   1  29
ATOM     29  C   UNL A   1      44.573  24.982  25.082  1.00  0.00     0.002 C 
BRANCH  29  30
ATOM     30  C   UNL A   1      43.379  24.057  24.805  1.00  0.00     0.021 C 
BRANCH  30  31
ATOM     31  C   UNL A   1      43.204  22.916  25.794  1.00  0.00     0.116 C 
BRANCH  31  32
ATOM     32  N   UNL A   1      41.800  22.558  25.992  1.00  0.00    -0.352 N 
ATOM     33  C   UNL A   1      40.868  23.155  26.816  1.00  0.00     0.251 C 
ATOM     34  H   UNL A   1      41.478  21.791  25.467  1.00  0.00     0.163 HD
ATOM     35  O   UNL A   1      39.851  22.551  27.146  1.00  0.00    -0.269 OA
BRANCH  33  36
ATOM     36  C   UNL A   1      41.109  24.526  27.295  1.00  0.00     0.039 A 
ATOM     37  C   UNL A   1      40.504  25.628  26.682  1.00  0.00     0.014 A 
ATOM     38  C   UNL A   1      41.940  24.694  28.396  1.00  0.00     0.014 A 
ATOM     39  C   UNL A   1      40.684  26.893  27.238  1.00  0.00     0.010 A 
ATOM     40  C   UNL A   1      41.977  25.902  29.038  1.00  0.00     0.010 A 
ATOM     41  C   UNL A   1      41.413  27.019  28.426  1.00  0.00    -0.014 A 
BRANCH  41  42
ATOM     42  C   UNL A   1      41.521  28.296  29.126  1.00  0.00     0.031 A 
ATOM     43  C   UNL A   1      42.544  29.227  28.573  1.00  0.00     0.074 A 
ATOM     44  C   UNL A   1      40.567  28.700  29.995  1.00  0.00     0.049 A 
ATOM     45  N   UNL A   1      43.584  29.717  29.166  1.00  0.00    -0.248 NA
ATOM     46  C   UNL A   1      42.474  29.550  27.138  1.00  0.00     0.031 C 
ATOM     47  C   UNL A   1      39.325  27.992  30.344  1.00  0.00     0.029 A 
ATOM     48  N   UNL A   1      40.399  29.908  30.598  1.00  0.00    -0.354 N 
ATOM     49  C   UNL A   1      44.151  30.606  28.250  1.00  0.00     0.074 A 
ATOM     50  C   UNL A   1      43.580  30.277  26.973  1.00  0.00     0.031 C 
ATOM     51  C   UNL A   1      38.428  28.872  30.831  1.00  0.00     0.029 A 
ATOM     52  C   UNL A   1      39.086  30.152  31.002  1.00  0.00     0.049 A 
ATOM     53  H   UNL A   1      41.133  30.550  30.736  1.00  0.00     0.167 HD
ATOM     54  C   UNL A   1      44.813  31.723  28.665  1.00  0.00     0.034 A 
ATOM     55  C   UNL A   1      38.559  31.337  31.392  1.00  0.00     0.034 A 
ATOM     56  C   UNL A   1      45.155  31.632  30.065  1.00  0.00     0.049 A 
ATOM     57  C   UNL A   1      39.689  32.217  31.755  1.00  0.00     0.074 A 
ATOM     58  C   UNL A   1      45.868  30.749  30.850  1.00  0.00     0.029 A 
ATOM     59  N   UNL A   1      44.400  32.383  30.932  1.00  0.00    -0.354 N 
ATOM     60  N   UNL A   1      40.477  32.000  32.770  1.00  0.00    -0.248 NA
ATOM     61  C   UNL A   1      40.202  33.124  30.744  1.00  0.00     0.031 C 
ATOM     62  C   UNL A   1      45.159  30.701  32.086  1.00  0.00     0.029 A 
ATOM     63  C   UNL A   1      44.094  31.601  32.010  1.00  0.00     0.049 A 
ATOM     64  H   UNL A   1      44.127  33.320  30.800  1.00  0.00     0.167 HD
ATOM     65  C   UNL A   1      41.737  32.354  32.305  1.00  0.00     0.074 A 
ATOM     66  C   UNL A   1      41.485  33.164  31.115  1.00  0.00     0.031 C 
ATOM     67  C   UNL A   1      42.855  31.708  32.751  1.00  0.00     0.034 A 
BRANCH  54  68
ATOM     68  C   UNL A   1      44.793  33.073  27.957  1.00  0.00     0.023 A 
ATOM     69  C   UNL A   1      43.576  33.447  27.335  1.00  0.00     0.012 A 
ATOM     70  C   UNL A   1      45.933  33.835  27.613  1.00  0.00     0.148 A 
ATOM     71  C   UNL A   1      43.519  34.444  26.354  1.00  0.00     0.002 A 
ATOM     72  C   UNL A   1      45.857  34.876  26.691  1.00  0.00     0.091 A 
ATOM     73  F   UNL A   1      47.140  33.497  28.066  1.00  0.00    -0.205 F 
ATOM     74  C   UNL A   1      44.663  35.159  26.029  1.00  0.00     0.022 A 
BRANCH  72  75
ATOM     75  S   UNL A   1      47.301  35.864  26.271  1.00  0.00     0.127 S 
ATOM     76  O   UNL A   1      47.853  36.147  27.592  1.00  0.00    -0.237 OA
ATOM     77  O   UNL A   1      48.078  34.926  25.460  1.00  0.00    -0.237 OA
ATOM     78  O   UNL A   1      46.789  37.009  25.528  1.00  0.00    -0.744 OA
ENDBRANCH  72  75
ENDBRANCH  54  68
BRANCH  55  79
ATOM     79  C   UNL A   1      37.174  31.846  31.281  1.00  0.00     0.023 A 
ATOM     80  C   UNL A   1      36.531  32.370  32.418  1.00  0.00     0.012 A 
ATOM     81  C   UNL A   1      36.580  32.066  30.018  1.00  0.00     0.148 A 
ATOM     82  C   UNL A   1      35.356  33.121  32.302  1.00  0.00     0.002 A 
ATOM     83  C   UNL A   1      35.405  32.805  29.908  1.00  0.00     0.091 A 
ATOM     84  F   UNL A   1      37.216  31.632  28.921  1.00  0.00    -0.205 F 
ATOM     85  C   UNL A   1      34.796  33.346  31.048  1.00  0.00     0.022 A 
BRANCH  83  86
ATOM     86  S   UNL A   1      34.634  33.147  28.318  1.00  0.00     0.127 S 
ATOM     87  O   UNL A   1      35.742  33.739  27.567  1.00  0.00    -0.237 OA
ATOM     88  O   UNL A   1      34.244  31.810  27.880  1.00  0.00    -0.237 OA
ATOM     89  O   UNL A   1      33.546  34.071  28.609  1.00  0.00    -0.744 OA
ENDBRANCH  83  86
ENDBRANCH  55  79
BRANCH  67  90
ATOM     90  C   UNL A   1      42.728  30.814  33.960  1.00  0.00     0.023 A 
ATOM     91  C   UNL A   1      42.745  31.318  35.278  1.00  0.00     0.012 A 
ATOM     92  C   UNL A   1      42.403  29.463  33.756  1.00  0.00     0.148 A 
ATOM     93  C   UNL A   1      42.465  30.487  36.367  1.00  0.00     0.002 A 
ATOM     94  C   UNL A   1      42.077  28.653  34.835  1.00  0.00     0.091 A 
ATOM     95  F   UNL A   1      42.388  28.999  32.496  1.00  0.00    -0.205 F 
ATOM     96  C   UNL A   1      42.116  29.157  36.144  1.00  0.00     0.022 A 
BRANCH  94  97
ATOM     97  S   UNL A   1      41.490  26.974  34.599  1.00  0.00     0.127 S 
ATOM     98  O   UNL A   1      42.671  26.312  34.049  1.00  0.00    -0.237 OA
ATOM     99  O   UNL A   1      41.139  26.567  35.961  1.00  0.00    -0.237 OA
ATOM    100  O   UNL A   1      40.348  27.074  33.698  1.00  0.00    -0.744 OA
ENDBRANCH  94  97
ENDBRANCH  67  90
ENDBRANCH  41  42
ENDBRANCH  33  36
ENDBRANCH  31  32
ENDBRANCH  30  31
ENDBRANCH  29  30
ENDBRANCH   1  29
TORSDOF 22
ENDMDL
MODEL 3
REMARK VINA RESULT:      -9.7      4.141     10.502
REMARK SMILES CCn1nc(C(C)C)cc1C(=O)N[C@@H](CC(N)=O)C(=O)NCCCCCCNC(=O)c1ccc(-c2c3nc(c(-c4cccc(S(=O)(=O)[O-])c4F)c4ccc([nH]4)c(-c4cccc(S(=O)(=O)[O-])c4F)c4nc(c(-c5cccc(S(=O)(=O)[O-])c5F)c5ccc2[nH]5)C=C4)C=C3)cc1
REMARK SMILES IDX 24 1 23 2 22 3 21 4 19 5 20 6 14 8 13 9 11 10 12 11 10 13
REMARK SMILES IDX 3 14 4 15 5 16 9 17 2 18 1 19 6 20 7 21 8 22 15 23 16 24
REMARK SMILES IDX 17 25 18 26 25 29 26 30 27 31 28 32 29 33 30 35 31 36 32 37
REMARK SMILES IDX 93 38 33 39 92 40 34 41 35 42 36 43 86 44 37 45 91 46 85 47
REMARK SMILES IDX 87 48 38 49 90 50 84 51 83 52 39 54 71 55 51 56 70 57 52 58
REMARK SMILES IDX 55 59 69 60 88 61 53 62 54 63 68 65 89 66 56 67 40 68 41 69
REMARK SMILES IDX 49 70 42 71 44 72 50 73 43 74 45 75 46 76 47 77 48 78 72 79
REMARK SMILES IDX 73 80 81 81 74 82 76 83 82 84 75 85 77 86 78 87 79 88 80 89
REMARK SMILES IDX 57 90 58 91 66 92 59 93 61 94 67 95 60 96 62 97 63 98 64 99
REMARK SMILES IDX 65 100
REMARK H PARENT 21 7 13 12 17 27 17 28 28 34 87 53 55 64
REMARK Flexibility Score: inf
ROOT
ATOM      1  C   UNL A   1      38.354  30.387  33.133  1.00  0.00     0.002 C 
ENDROOT
BRANCH   1   2
ATOM      2  C   UNL A   1      38.381  30.744  34.621  1.00  0.00     0.021 C 
BRANCH   2   3
ATOM      3  C   UNL A   1      39.724  31.219  35.151  1.00  0.00     0.116 C 
BRANCH   3   4
ATOM      4  N   UNL A   1      39.701  31.654  36.534  1.00  0.00    -0.354 N 
ATOM      5  C   UNL A   1      40.301  32.729  37.119  1.00  0.00     0.243 C 
ATOM      6  O   UNL A   1      39.820  33.132  38.188  1.00  0.00    -0.273 OA
ATOM      7  H   UNL A   1      39.173  31.087  37.143  1.00  0.00     0.163 HD
BRANCH   5   8
ATOM      8  C   UNL A   1      41.443  33.521  36.449  1.00  0.00     0.181 C 
BRANCH   8   9
ATOM      9  N   UNL A   1      41.092  34.923  36.249  1.00  0.00    -0.338 N 
ATOM     10  C   UNL A   1      40.129  35.496  35.462  1.00  0.00     0.270 C 
ATOM     11  O   UNL A   1      39.741  36.617  35.815  1.00  0.00    -0.268 OA
ATOM     12  H   UNL A   1      41.635  35.561  36.766  1.00  0.00     0.164 HD
BRANCH  10  13
ATOM     13  C   UNL A   1      39.689  34.883  34.240  1.00  0.00     0.126 A 
ATOM     14  N   UNL A   1      38.406  34.407  34.027  1.00  0.00    -0.260 N 
ATOM     15  N   UNL A   1      38.172  34.081  32.725  1.00  0.00    -0.177 NA
ATOM     16  C   UNL A   1      39.371  34.175  32.146  1.00  0.00     0.066 A 
ATOM     17  C   UNL A   1      40.356  34.569  33.070  1.00  0.00     0.059 A 
BRANCH  14  18
ATOM     18  C   UNL A   1      37.367  34.132  35.012  1.00  0.00     0.142 C 
ATOM     19  C   UNL A   1      35.969  33.914  34.455  1.00  0.00     0.029 C 
ENDBRANCH  14  18
BRANCH  16  20
ATOM     20  C   UNL A   1      39.604  33.875  30.695  1.00  0.00     0.034 C 
ATOM     21  C   UNL A   1      38.466  34.404  29.825  1.00  0.00     0.014 C 
ATOM     22  C   UNL A   1      40.963  34.358  30.190  1.00  0.00     0.014 C 
ENDBRANCH  16  20
ENDBRANCH  10  13
ENDBRANCH   8   9
BRANCH   8  23
ATOM     23  C   UNL A   1      42.831  33.234  37.013  1.00  0.00     0.134 C 
BRANCH  23  24
ATOM     24  C   UNL A   1      43.983  33.400  36.066  1.00  0.00     0.220 C 
ATOM     25  N   UNL A   1      44.266  34.679  35.691  1.00  0.00    -0.370 N 
ATOM     26  O   UNL A   1      44.647  32.465  35.637  1.00  0.00    -0.275 OA
ATOM     27  H   UNL A   1      43.727  35.425  36.040  1.00  0.00     0.159 HD
ATOM     28  H   UNL A   1      45.009  34.856  35.070  1.00  0.00     0.159 HD
ENDBRANCH  23  24
ENDBRANCH   8  23
ENDBRANCH   5   8
ENDBRANCH   3   4
ENDBRANCH   2   3
ENDBRANCH   1   2
BRANCH   1  29
ATOM     29  C   UNL A   1      36.984  30.074  32.514  1.00  0.00     0.002 C 
BRANCH  29  30
ATOM     30  C   UNL A   1      36.137  31.250  32.004  1.00  0.00     0.021 C 
BRANCH  30  31
ATOM     31  C   UNL A   1      36.292  31.563  30.525  1.00  0.00     0.116 C 
BRANCH  31  32
ATOM     32  N   UNL A   1      35.456  30.709  29.682  1.00  0.00    -0.352 N 
ATOM     33  C   UNL A   1      35.842  29.846  28.678  1.00  0.00     0.251 C 
ATOM     34  H   UNL A   1      34.488  30.756  29.856  1.00  0.00     0.163 HD
ATOM     35  O   UNL A   1      35.034  29.470  27.835  1.00  0.00    -0.269 OA
BRANCH  33  36
ATOM     36  C   UNL A   1      37.239  29.383  28.631  1.00  0.00     0.039 A 
ATOM     37  C   UNL A   1      38.127  29.846  27.653  1.00  0.00     0.014 A 
ATOM     38  C   UNL A   1      37.662  28.489  29.606  1.00  0.00     0.014 A 
ATOM     39  C   UNL A   1      39.463  29.456  27.716  1.00  0.00     0.010 A 
ATOM     40  C   UNL A   1      38.999  28.244  29.768  1.00  0.00     0.010 A 
ATOM     41  C   UNL A   1      39.894  28.664  28.787  1.00  0.00    -0.014 A 
BRANCH  41  42
ATOM     42  C   UNL A   1      41.304  28.338  28.978  1.00  0.00     0.031 A 
ATOM     43  C   UNL A   1      41.822  27.260  28.089  1.00  0.00     0.074 A 
ATOM     44  C   UNL A   1      42.121  29.154  29.681  1.00  0.00     0.049 A 
ATOM     45  N   UNL A   1      42.329  26.119  28.426  1.00  0.00    -0.248 NA
ATOM     46  C   UNL A   1      41.630  27.417  26.637  1.00  0.00     0.031 C 
ATOM     47  C   UNL A   1      41.770  30.438  30.308  1.00  0.00     0.029 A 
ATOM     48  N   UNL A   1      43.475  29.117  29.818  1.00  0.00    -0.354 N 
ATOM     49  C   UNL A   1      42.749  25.531  27.231  1.00  0.00     0.074 A 
ATOM     50  C   UNL A   1      42.083  26.249  26.181  1.00  0.00     0.031 C 
ATOM     51  C   UNL A   1      42.887  31.172  30.483  1.00  0.00     0.029 A 
ATOM     52  C   UNL A   1      44.034  30.349  30.158  1.00  0.00     0.049 A 
ATOM     53  H   UNL A   1      44.009  28.300  29.688  1.00  0.00     0.167 HD
ATOM     54  C   UNL A   1      43.830  24.701  27.193  1.00  0.00     0.034 A 
ATOM     55  C   UNL A   1      45.345  30.688  30.118  1.00  0.00     0.034 A 
ATOM     56  C   UNL A   1      44.185  24.251  28.518  1.00  0.00     0.049 A 
ATOM     57  C   UNL A   1      46.120  29.431  30.098  1.00  0.00     0.074 A 
ATOM     58  C   UNL A   1      43.536  23.585  29.539  1.00  0.00     0.029 A 
ATOM     59  N   UNL A   1      45.293  24.827  29.087  1.00  0.00    -0.354 N 
ATOM     60  N   UNL A   1      46.157  28.589  31.092  1.00  0.00    -0.248 NA
ATOM     61  C   UNL A   1      46.531  28.902  28.810  1.00  0.00     0.031 C 
ATOM     62  C   UNL A   1      44.028  24.182  30.737  1.00  0.00     0.029 A 
ATOM     63  C   UNL A   1      44.990  25.131  30.385  1.00  0.00     0.049 A 
ATOM     64  H   UNL A   1      46.155  24.993  28.640  1.00  0.00     0.167 HD
ATOM     65  C   UNL A   1      46.138  27.341  30.483  1.00  0.00     0.074 A 
ATOM     66  C   UNL A   1      46.509  27.596  29.092  1.00  0.00     0.031 C 
ATOM     67  C   UNL A   1      45.531  26.276  31.086  1.00  0.00     0.034 A 
BRANCH  54  68
ATOM     68  C   UNL A   1      44.836  24.617  26.050  1.00  0.00     0.023 A 
ATOM     69  C   UNL A   1      45.230  23.318  25.644  1.00  0.00     0.012 A 
ATOM     70  C   UNL A   1      45.621  25.690  25.569  1.00  0.00     0.148 A 
ATOM     71  C   UNL A   1      46.393  23.095  24.898  1.00  0.00     0.002 A 
ATOM     72  C   UNL A   1      46.735  25.468  24.763  1.00  0.00     0.091 A 
ATOM     73  F   UNL A   1      45.391  26.937  25.977  1.00  0.00    -0.205 F 
ATOM     74  C   UNL A   1      47.149  24.172  24.458  1.00  0.00     0.022 A 
BRANCH  72  75
ATOM     75  S   UNL A   1      47.721  26.832  24.129  1.00  0.00     0.127 S 
ATOM     76  O   UNL A   1      48.509  26.165  23.097  1.00  0.00    -0.237 OA
ATOM     77  O   UNL A   1      46.686  27.741  23.631  1.00  0.00    -0.237 OA
ATOM     78  O   UNL A   1      48.462  27.346  25.274  1.00  0.00    -0.744 OA
ENDBRANCH  72  75
ENDBRANCH  54  68
BRANCH  55  79
ATOM     79  C   UNL A   1      45.980  32.005  29.886  1.00  0.00     0.023 A 
ATOM     80  C   UNL A   1      46.988  32.455  30.760  1.00  0.00     0.012 A 
ATOM     81  C   UNL A   1      45.796  32.696  28.668  1.00  0.00     0.148 A 
ATOM     82  C   UNL A   1      47.811  33.535  30.419  1.00  0.00     0.002 A 
ATOM     83  C   UNL A   1      46.610  33.776  28.337  1.00  0.00     0.091 A 
ATOM     84  F   UNL A   1      44.888  32.236  27.797  1.00  0.00    -0.205 F 
ATOM     85  C   UNL A   1      47.628  34.191  29.205  1.00  0.00     0.022 A 
BRANCH  83  86
ATOM     86  S   UNL A   1      46.440  34.662  26.779  1.00  0.00     0.127 S 
ATOM     87  O   UNL A   1      45.103  35.245  26.909  1.00  0.00    -0.237 OA
ATOM     88  O   UNL A   1      47.536  35.623  26.859  1.00  0.00    -0.237 OA
ATOM     89  O   UNL A   1      46.551  33.643  25.744  1.00  0.00    -0.744 OA
ENDBRANCH  83  86
ENDBRANCH  55  79
BRANCH  67  90
ATOM     90  C   UNL A   1      45.145  26.405  32.539  1.00  0.00     0.023 A 
ATOM     91  C   UNL A   1      46.064  26.195  33.588  1.00  0.00     0.012 A 
ATOM     92  C   UNL A   1      43.876  26.926  32.845  1.00  0.00     0.148 A 
ATOM     93  C   UNL A   1      45.719  26.478  34.913  1.00  0.00     0.002 A 
ATOM     94  C   UNL A   1      43.554  27.252  34.155  1.00  0.00     0.091 A 
ATOM     95  F   UNL A   1      43.012  27.123  31.837  1.00  0.00    -0.205 F 
ATOM     96  C   UNL A   1      44.468  27.021  35.195  1.00  0.00     0.022 A 
BRANCH  94  97
ATOM     97  S   UNL A   1      42.013  28.078  34.560  1.00  0.00     0.127 S 
ATOM     98  O   UNL A   1      41.031  27.019  34.339  1.00  0.00    -0.237 OA
ATOM     99  O   UNL A   1      42.211  28.446  35.964  1.00  0.00    -0.237 OA
ATOM    100  O   UNL A   1      41.923  29.218  33.656  1.00  0.00    -0.744 OA
ENDBRANCH  94  97
ENDBRANCH  67  90
ENDBRANCH  41  42
ENDBRANCH  33  36
ENDBRANCH  31  32
ENDBRANCH  30  31
ENDBRANCH  29  30
ENDBRANCH   1  29
TORSDOF 22
ENDMDL
