MODEL 1
REMARK VINA RESULT:     -12.0      0.000      0.000
REMARK SMILES Cc1nn(C)c(=O)c(C(=O)N2CCCC[C@H]2C(=O)NCCCCCCNC(=O)c2ccc(-c3c4nc(c(-c5cccc(S(=O)(=O)[O-])c5F)c5ccc([nH]5)c(-c5cccc(S(=O)(=O)[O-])c5F)c5nc(c(-c6cccc(S(=O)(=O)[O-])c6F)c6ccc3[nH]6)C=C5)C=C4)cc2)c1C
REMARK SMILES IDX 23 1 22 2 21 3 20 4 19 5 17 6 18 7 16 9 11 10 12 11 13 12
REMARK SMILES IDX 15 13 14 14 9 15 10 16 8 17 1 18 2 19 3 20 92 21 4 22 93 23
REMARK SMILES IDX 5 24 6 25 7 26 24 27 25 28 26 29 27 30 28 32 29 33 30 34
REMARK SMILES IDX 91 35 31 36 90 37 32 38 33 39 34 40 84 41 35 42 89 43 83 44
REMARK SMILES IDX 85 45 36 46 88 47 82 48 81 49 37 51 69 52 49 53 68 54 50 55
REMARK SMILES IDX 53 56 67 57 86 58 51 59 52 60 66 62 87 63 54 64 38 65 39 66
REMARK SMILES IDX 47 67 40 68 42 69 48 70 41 71 43 72 44 73 45 74 46 75 70 76
REMARK SMILES IDX 71 77 79 78 72 79 74 80 80 81 73 82 75 83 76 84 77 85 78 86
REMARK SMILES IDX 55 87 56 88 64 89 57 90 59 91 65 92 58 93 60 94 61 95 62 96
REMARK SMILES IDX 63 97
REMARK H PARENT 19 8 26 31 85 50 53 61
REMARK Flexibility Score: inf
ROOT
ATOM      1  C   UNL A   1      31.563  30.858  26.086  1.00  0.00     0.002 C 
ENDROOT
BRANCH   1   2
ATOM      2  C   UNL A   1      31.967  29.755  27.064  1.00  0.00     0.002 C 
BRANCH   2   3
ATOM      3  C   UNL A   1      33.468  29.550  27.219  1.00  0.00     0.021 C 
BRANCH   3   4
ATOM      4  C   UNL A   1      34.082  28.508  26.290  1.00  0.00     0.116 C 
BRANCH   4   5
ATOM      5  N   UNL A   1      33.603  27.155  26.498  1.00  0.00    -0.354 N 
ATOM      6  C   UNL A   1      33.326  26.133  25.634  1.00  0.00     0.242 C 
ATOM      7  O   UNL A   1      32.897  25.097  26.163  1.00  0.00    -0.273 OA
ATOM      8  H   UNL A   1      33.446  26.930  27.443  1.00  0.00     0.163 HD
BRANCH   6   9
ATOM      9  C   UNL A   1      33.366  26.244  24.055  1.00  0.00     0.174 C 
ATOM     10  N   UNL A   1      32.842  25.135  23.247  1.00  0.00    -0.326 N 
ATOM     11  C   UNL A   1      31.354  25.015  23.279  1.00  0.00     0.120 C 
ATOM     12  C   UNL A   1      30.580  26.321  23.108  1.00  0.00     0.022 C 
ATOM     13  C   UNL A   1      32.646  27.560  23.685  1.00  0.00     0.035 C 
ATOM     14  C   UNL A   1      31.150  27.448  23.950  1.00  0.00     0.004 C 
BRANCH  10  15
ATOM     15  C   UNL A   1      33.541  24.086  22.622  1.00  0.00     0.260 C 
ATOM     16  O   UNL A   1      33.570  24.106  21.380  1.00  0.00    -0.269 OA
BRANCH  15  17
ATOM     17  C   UNL A   1      34.192  22.821  23.229  1.00  0.00     0.111 A 
ATOM     18  C   UNL A   1      37.069  21.201  25.185  1.00  0.00     0.069 C 
ATOM     19  C   UNL A   1      35.681  21.456  24.620  1.00  0.00     0.062 A 
ATOM     20  N   UNL A   1      34.748  20.750  25.156  1.00  0.00    -0.175 NA
ATOM     21  C   UNL A   1      35.468  22.546  23.602  1.00  0.00    -0.010 A 
ATOM     22  N   UNL A   1      33.486  20.932  24.702  1.00  0.00    -0.232 N 
ATOM     23  C   UNL A   1      36.709  23.299  23.306  1.00  0.00     0.047 C 
ATOM     24  C   UNL A   1      32.495  20.065  25.320  1.00  0.00     0.178 C 
ATOM     25  C   UNL A   1      33.158  21.773  23.646  1.00  0.00     0.279 A 
ATOM     26  O   UNL A   1      32.093  21.663  23.037  1.00  0.00    -0.267 OA
ENDBRANCH  15  17
ENDBRANCH  10  15
ENDBRANCH   6   9
ENDBRANCH   4   5
ENDBRANCH   3   4
ENDBRANCH   2   3
ENDBRANCH   1   2
BRANCH   1  27
ATOM     27  C   UNL A   1      31.450  32.265  26.681  1.00  0.00     0.021 C 
BRANCH  27  28
ATOM     28  C   UNL A   1      32.749  32.842  27.226  1.00  0.00     0.116 C 
BRANCH  28  29
ATOM     29  N   UNL A   1      32.571  34.190  27.733  1.00  0.00    -0.352 N 
ATOM     30  C   UNL A   1      33.165  34.789  28.815  1.00  0.00     0.251 C 
ATOM     31  H   UNL A   1      31.938  34.752  27.231  1.00  0.00     0.163 HD
ATOM     32  O   UNL A   1      32.746  35.860  29.234  1.00  0.00    -0.269 OA
BRANCH  30  33
ATOM     33  C   UNL A   1      34.305  34.118  29.474  1.00  0.00     0.039 A 
ATOM     34  C   UNL A   1      35.601  34.447  29.075  1.00  0.00     0.014 A 
ATOM     35  C   UNL A   1      34.088  33.175  30.483  1.00  0.00     0.014 A 
ATOM     36  C   UNL A   1      36.687  33.856  29.722  1.00  0.00     0.010 A 
ATOM     37  C   UNL A   1      35.171  32.649  31.179  1.00  0.00     0.010 A 
ATOM     38  C   UNL A   1      36.481  32.970  30.793  1.00  0.00    -0.014 A 
BRANCH  38  39
ATOM     39  C   UNL A   1      37.627  32.355  31.506  1.00  0.00     0.031 A 
ATOM     40  C   UNL A   1      38.387  31.223  30.870  1.00  0.00     0.074 A 
ATOM     41  C   UNL A   1      37.950  32.782  32.742  1.00  0.00     0.049 A 
ATOM     42  N   UNL A   1      39.406  30.552  31.339  1.00  0.00    -0.248 NA
ATOM     43  C   UNL A   1      37.933  30.773  29.543  1.00  0.00     0.031 C 
ATOM     44  C   UNL A   1      37.245  33.829  33.484  1.00  0.00     0.029 A 
ATOM     45  N   UNL A   1      38.945  32.380  33.598  1.00  0.00    -0.354 N 
ATOM     46  C   UNL A   1      39.700  29.591  30.380  1.00  0.00     0.074 A 
ATOM     47  C   UNL A   1      38.724  29.733  29.323  1.00  0.00     0.031 C 
ATOM     48  C   UNL A   1      37.841  33.999  34.675  1.00  0.00     0.029 A 
ATOM     49  C   UNL A   1      38.946  33.054  34.797  1.00  0.00     0.049 A 
ATOM     50  H   UNL A   1      39.595  31.676  33.375  1.00  0.00     0.167 HD
ATOM     51  C   UNL A   1      40.714  28.695  30.364  1.00  0.00     0.034 A 
ATOM     52  C   UNL A   1      39.748  32.925  35.873  1.00  0.00     0.034 A 
ATOM     53  C   UNL A   1      41.702  28.585  31.402  1.00  0.00     0.049 A 
ATOM     54  C   UNL A   1      40.874  31.927  35.826  1.00  0.00     0.074 A 
ATOM     55  C   UNL A   1      42.810  27.758  31.446  1.00  0.00     0.029 A 
ATOM     56  N   UNL A   1      41.700  29.317  32.580  1.00  0.00    -0.354 N 
ATOM     57  N   UNL A   1      41.226  31.127  34.849  1.00  0.00    -0.248 NA
ATOM     58  C   UNL A   1      41.733  31.833  37.015  1.00  0.00     0.031 C 
ATOM     59  C   UNL A   1      43.460  27.967  32.665  1.00  0.00     0.029 A 
ATOM     60  C   UNL A   1      42.778  28.950  33.365  1.00  0.00     0.049 A 
ATOM     61  H   UNL A   1      41.030  29.997  32.821  1.00  0.00     0.167 HD
ATOM     62  C   UNL A   1      42.361  30.456  35.291  1.00  0.00     0.074 A 
ATOM     63  C   UNL A   1      42.653  30.963  36.616  1.00  0.00     0.031 C 
ATOM     64  C   UNL A   1      43.085  29.496  34.663  1.00  0.00     0.034 A 
BRANCH  51  65
ATOM     65  C   UNL A   1      40.849  27.802  29.157  1.00  0.00     0.023 A 
ATOM     66  C   UNL A   1      40.044  26.650  29.053  1.00  0.00     0.012 A 
ATOM     67  C   UNL A   1      41.703  28.147  28.090  1.00  0.00     0.148 A 
ATOM     68  C   UNL A   1      40.103  25.840  27.921  1.00  0.00     0.002 A 
ATOM     69  C   UNL A   1      41.719  27.362  26.943  1.00  0.00     0.091 A 
ATOM     70  F   UNL A   1      42.475  29.235  28.215  1.00  0.00    -0.205 F 
ATOM     71  C   UNL A   1      40.929  26.202  26.861  1.00  0.00     0.022 A 
BRANCH  69  72
ATOM     72  S   UNL A   1      42.679  27.788  25.486  1.00  0.00     0.127 S 
ATOM     73  O   UNL A   1      42.496  26.599  24.655  1.00  0.00    -0.237 OA
ATOM     74  O   UNL A   1      41.984  28.981  25.001  1.00  0.00    -0.237 OA
ATOM     75  O   UNL A   1      44.039  28.019  25.950  1.00  0.00    -0.744 OA
ENDBRANCH  69  72
ENDBRANCH  51  65
BRANCH  52  76
ATOM     76  C   UNL A   1      39.557  33.823  37.049  1.00  0.00     0.023 A 
ATOM     77  C   UNL A   1      39.922  35.179  36.947  1.00  0.00     0.012 A 
ATOM     78  C   UNL A   1      38.963  33.361  38.241  1.00  0.00     0.148 A 
ATOM     79  C   UNL A   1      39.721  36.055  38.016  1.00  0.00     0.002 A 
ATOM     80  C   UNL A   1      38.710  34.250  39.279  1.00  0.00     0.091 A 
ATOM     81  F   UNL A   1      38.632  32.065  38.323  1.00  0.00    -0.205 F 
ATOM     82  C   UNL A   1      39.105  35.593  39.175  1.00  0.00     0.022 A 
BRANCH  80  83
ATOM     83  S   UNL A   1      37.790  33.785  40.750  1.00  0.00     0.127 S 
ATOM     84  O   UNL A   1      38.733  32.895  41.424  1.00  0.00    -0.237 OA
ATOM     85  O   UNL A   1      37.592  35.080  41.401  1.00  0.00    -0.237 OA
ATOM     86  O   UNL A   1      36.566  33.160  40.270  1.00  0.00    -0.744 OA
ENDBRANCH  80  83
ENDBRANCH  52  76
BRANCH  64  87
ATOM     87  C   UNL A   1      44.279  28.922  35.384  1.00  0.00     0.023 A 
ATOM     88  C   UNL A   1      45.544  29.521  35.222  1.00  0.00     0.012 A 
ATOM     89  C   UNL A   1      44.122  27.876  36.314  1.00  0.00     0.148 A 
ATOM     90  C   UNL A   1      46.638  29.073  35.960  1.00  0.00     0.002 A 
ATOM     91  C   UNL A   1      45.206  27.471  37.086  1.00  0.00     0.091 A 
ATOM     92  F   UNL A   1      42.913  27.310  36.444  1.00  0.00    -0.205 F 
ATOM     93  C   UNL A   1      46.467  28.062  36.900  1.00  0.00     0.022 A 
BRANCH  91  94
ATOM     94  S   UNL A   1      45.060  26.255  38.400  1.00  0.00     0.127 S 
ATOM     95  O   UNL A   1      43.726  26.544  38.925  1.00  0.00    -0.237 OA
ATOM     96  O   UNL A   1      45.167  24.994  37.667  1.00  0.00    -0.237 OA
ATOM     97  O   UNL A   1      46.158  26.520  39.319  1.00  0.00    -0.744 OA
ENDBRANCH  91  94
ENDBRANCH  64  87
ENDBRANCH  38  39
ENDBRANCH  30  33
ENDBRANCH  28  29
ENDBRANCH  27  28
ENDBRANCH   1  27
TORSDOF 18
ENDMDL
MODEL 2
REMARK VINA RESULT:     -11.6      1.858      8.038
REMARK SMILES Cc1nn(C)c(=O)c(C(=O)N2CCCC[C@H]2C(=O)NCCCCCCNC(=O)c2ccc(-c3c4nc(c(-c5cccc(S(=O)(=O)[O-])c5F)c5ccc([nH]5)c(-c5cccc(S(=O)(=O)[O-])c5F)c5nc(c(-c6cccc(S(=O)(=O)[O-])c6F)c6ccc3[nH]6)C=C5)C=C4)cc2)c1C
REMARK SMILES IDX 23 1 22 2 21 3 20 4 19 5 17 6 18 7 16 9 11 10 12 11 13 12
REMARK SMILES IDX 15 13 14 14 9 15 10 16 8 17 1 18 2 19 3 20 92 21 4 22 93 23
REMARK SMILES IDX 5 24 6 25 7 26 24 27 25 28 26 29 27 30 28 32 29 33 30 34
REMARK SMILES IDX 91 35 31 36 90 37 32 38 33 39 34 40 84 41 35 42 89 43 83 44
REMARK SMILES IDX 85 45 36 46 88 47 82 48 81 49 37 51 69 52 49 53 68 54 50 55
REMARK SMILES IDX 53 56 67 57 86 58 51 59 52 60 66 62 87 63 54 64 38 65 39 66
REMARK SMILES IDX 47 67 40 68 42 69 48 70 41 71 43 72 44 73 45 74 46 75 70 76
REMARK SMILES IDX 71 77 79 78 72 79 74 80 80 81 73 82 75 83 76 84 77 85 78 86
REMARK SMILES IDX 55 87 56 88 64 89 57 90 59 91 65 92 58 93 60 94 61 95 62 96
REMARK SMILES IDX 63 97
REMARK H PARENT 19 8 26 31 85 50 53 61
REMARK Flexibility Score: inf
ROOT
ATOM      1  C   UNL A   1      31.633  30.585  26.532  1.00  0.00     0.002 C 
ENDROOT
BRANCH   1   2
ATOM      2  C   UNL A   1      32.788  29.859  27.223  1.00  0.00     0.002 C 
BRANCH   2   3
ATOM      3  C   UNL A   1      32.675  28.341  27.243  1.00  0.00     0.021 C 
BRANCH   3   4
ATOM      4  C   UNL A   1      32.992  27.647  25.923  1.00  0.00     0.116 C 
BRANCH   4   5
ATOM      5  N   UNL A   1      33.886  26.510  26.037  1.00  0.00    -0.354 N 
ATOM      6  C   UNL A   1      33.674  25.161  25.969  1.00  0.00     0.242 C 
ATOM      7  O   UNL A   1      34.681  24.460  26.142  1.00  0.00    -0.273 OA
ATOM      8  H   UNL A   1      34.825  26.757  26.195  1.00  0.00     0.163 HD
BRANCH   6   9
ATOM      9  C   UNL A   1      32.254  24.471  25.849  1.00  0.00     0.174 C 
ATOM     10  N   UNL A   1      31.803  23.988  24.537  1.00  0.00    -0.326 N 
ATOM     11  C   UNL A   1      32.522  22.768  24.064  1.00  0.00     0.120 C 
ATOM     12  C   UNL A   1      32.702  21.660  25.101  1.00  0.00     0.022 C 
ATOM     13  C   UNL A   1      32.231  23.320  26.879  1.00  0.00     0.035 C 
ATOM     14  C   UNL A   1      33.161  22.192  26.446  1.00  0.00     0.004 C 
BRANCH  10  15
ATOM     15  C   UNL A   1      30.947  24.609  23.610  1.00  0.00     0.260 C 
ATOM     16  O   UNL A   1      30.130  23.872  23.033  1.00  0.00    -0.269 OA
BRANCH  15  17
ATOM     17  C   UNL A   1      30.932  26.065  23.089  1.00  0.00     0.111 A 
ATOM     18  C   UNL A   1      29.595  29.653  23.351  1.00  0.00     0.069 C 
ATOM     19  C   UNL A   1      30.523  28.484  23.065  1.00  0.00     0.062 A 
ATOM     20  N   UNL A   1      31.735  28.817  22.788  1.00  0.00    -0.175 NA
ATOM     21  C   UNL A   1      30.029  27.070  23.227  1.00  0.00    -0.010 A 
ATOM     22  N   UNL A   1      32.615  27.822  22.528  1.00  0.00    -0.232 N 
ATOM     23  C   UNL A   1      28.633  27.008  23.719  1.00  0.00     0.047 C 
ATOM     24  C   UNL A   1      33.950  28.279  22.176  1.00  0.00     0.178 C 
ATOM     25  C   UNL A   1      32.267  26.479  22.466  1.00  0.00     0.279 A 
ATOM     26  O   UNL A   1      32.981  25.650  21.901  1.00  0.00    -0.267 OA
ENDBRANCH  15  17
ENDBRANCH  10  15
ENDBRANCH   6   9
ENDBRANCH   4   5
ENDBRANCH   3   4
ENDBRANCH   2   3
ENDBRANCH   1   2
BRANCH   1  27
ATOM     27  C   UNL A   1      31.648  32.113  26.640  1.00  0.00     0.021 C 
BRANCH  27  28
ATOM     28  C   UNL A   1      32.887  32.701  27.300  1.00  0.00     0.116 C 
BRANCH  28  29
ATOM     29  N   UNL A   1      32.659  34.057  27.765  1.00  0.00    -0.352 N 
ATOM     30  C   UNL A   1      33.233  34.711  28.826  1.00  0.00     0.251 C 
ATOM     31  H   UNL A   1      32.004  34.578  27.248  1.00  0.00     0.163 HD
ATOM     32  O   UNL A   1      32.774  35.778  29.213  1.00  0.00    -0.269 OA
BRANCH  30  33
ATOM     33  C   UNL A   1      34.398  34.104  29.501  1.00  0.00     0.039 A 
ATOM     34  C   UNL A   1      34.178  33.216  30.555  1.00  0.00     0.014 A 
ATOM     35  C   UNL A   1      35.699  34.409  29.087  1.00  0.00     0.014 A 
ATOM     36  C   UNL A   1      35.268  32.599  31.170  1.00  0.00     0.010 A 
ATOM     37  C   UNL A   1      36.777  33.732  29.648  1.00  0.00     0.010 A 
ATOM     38  C   UNL A   1      36.573  32.835  30.706  1.00  0.00    -0.014 A 
BRANCH  38  39
ATOM     39  C   UNL A   1      37.738  32.166  31.335  1.00  0.00     0.031 A 
ATOM     40  C   UNL A   1      38.271  32.663  32.651  1.00  0.00     0.074 A 
ATOM     41  C   UNL A   1      38.344  31.145  30.698  1.00  0.00     0.049 A 
ATOM     42  N   UNL A   1      39.282  32.219  33.348  1.00  0.00    -0.248 NA
ATOM     43  C   UNL A   1      37.592  33.823  33.254  1.00  0.00     0.031 C 
ATOM     44  C   UNL A   1      37.955  30.618  29.389  1.00  0.00     0.029 A 
ATOM     45  N   UNL A   1      39.423  30.377  31.058  1.00  0.00    -0.354 N 
ATOM     46  C   UNL A   1      39.376  33.053  34.455  1.00  0.00     0.074 A 
ATOM     47  C   UNL A   1      38.348  34.060  34.315  1.00  0.00     0.031 C 
ATOM     48  C   UNL A   1      38.770  29.602  29.065  1.00  0.00     0.029 A 
ATOM     49  C   UNL A   1      39.759  29.426  30.123  1.00  0.00     0.049 A 
ATOM     50  H   UNL A   1      39.910  30.496  31.905  1.00  0.00     0.167 HD
ATOM     51  C   UNL A   1      40.216  32.967  35.512  1.00  0.00     0.034 A 
ATOM     52  C   UNL A   1      40.753  28.514  30.120  1.00  0.00     0.034 A 
ATOM     53  C   UNL A   1      41.211  31.940  35.660  1.00  0.00     0.049 A 
ATOM     54  C   UNL A   1      41.670  28.433  31.311  1.00  0.00     0.074 A 
ATOM     55  C   UNL A   1      42.065  31.723  36.727  1.00  0.00     0.029 A 
ATOM     56  N   UNL A   1      41.492  30.964  34.716  1.00  0.00    -0.354 N 
ATOM     57  N   UNL A   1      41.649  29.137  32.417  1.00  0.00    -0.248 NA
ATOM     58  C   UNL A   1      42.727  27.413  31.271  1.00  0.00     0.031 C 
ATOM     59  C   UNL A   1      42.884  30.635  36.413  1.00  0.00     0.029 A 
ATOM     60  C   UNL A   1      42.517  30.152  35.168  1.00  0.00     0.049 A 
ATOM     61  H   UNL A   1      41.030  30.865  33.853  1.00  0.00     0.167 HD
ATOM     62  C   UNL A   1      42.668  28.630  33.215  1.00  0.00     0.074 A 
ATOM     63  C   UNL A   1      43.270  27.540  32.475  1.00  0.00     0.031 C 
ATOM     64  C   UNL A   1      43.077  29.040  34.442  1.00  0.00     0.034 A 
BRANCH  51  65
ATOM     65  C   UNL A   1      40.058  33.969  36.625  1.00  0.00     0.023 A 
ATOM     66  C   UNL A   1      38.942  33.884  37.482  1.00  0.00     0.012 A 
ATOM     67  C   UNL A   1      41.052  34.935  36.880  1.00  0.00     0.148 A 
ATOM     68  C   UNL A   1      38.801  34.759  38.557  1.00  0.00     0.002 A 
ATOM     69  C   UNL A   1      40.930  35.771  37.984  1.00  0.00     0.091 A 
ATOM     70  F   UNL A   1      42.096  35.015  36.044  1.00  0.00    -0.205 F 
ATOM     71  C   UNL A   1      39.800  35.693  38.817  1.00  0.00     0.022 A 
BRANCH  69  72
ATOM     72  S   UNL A   1      42.202  36.947  38.460  1.00  0.00     0.127 S 
ATOM     73  O   UNL A   1      41.421  37.949  39.183  1.00  0.00    -0.237 OA
ATOM     74  O   UNL A   1      43.073  36.129  39.304  1.00  0.00    -0.237 OA
ATOM     75  O   UNL A   1      42.810  37.409  37.220  1.00  0.00    -0.744 OA
ENDBRANCH  69  72
ENDBRANCH  51  65
BRANCH  52  76
ATOM     76  C   UNL A   1      40.874  27.558  28.982  1.00  0.00     0.023 A 
ATOM     77  C   UNL A   1      40.009  26.449  28.918  1.00  0.00     0.012 A 
ATOM     78  C   UNL A   1      41.794  27.770  27.935  1.00  0.00     0.148 A 
ATOM     79  C   UNL A   1      40.070  25.556  27.847  1.00  0.00     0.002 A 
ATOM     80  C   UNL A   1      41.810  26.911  26.842  1.00  0.00     0.091 A 
ATOM     81  F   UNL A   1      42.617  28.824  28.018  1.00  0.00    -0.205 F 
ATOM     82  C   UNL A   1      40.961  25.794  26.804  1.00  0.00     0.022 A 
BRANCH  80  83
ATOM     83  S   UNL A   1      42.815  27.217  25.385  1.00  0.00     0.127 S 
ATOM     84  O   UNL A   1      44.141  27.400  25.970  1.00  0.00    -0.237 OA
ATOM     85  O   UNL A   1      42.639  25.974  24.634  1.00  0.00    -0.237 OA
ATOM     86  O   UNL A   1      42.240  28.392  24.746  1.00  0.00    -0.744 OA
ENDBRANCH  80  83
ENDBRANCH  52  76
BRANCH  64  87
ATOM     87  C   UNL A   1      44.229  28.311  35.086  1.00  0.00     0.023 A 
ATOM     88  C   UNL A   1      45.551  28.651  34.738  1.00  0.00     0.012 A 
ATOM     89  C   UNL A   1      44.003  27.384  36.123  1.00  0.00     0.148 A 
ATOM     90  C   UNL A   1      46.630  28.065  35.397  1.00  0.00     0.002 A 
ATOM     91  C   UNL A   1      45.083  26.844  36.813  1.00  0.00     0.091 A 
ATOM     92  F   UNL A   1      42.738  27.063  36.430  1.00  0.00    -0.205 F 
ATOM     93  C   UNL A   1      46.397  27.175  36.443  1.00  0.00     0.022 A 
BRANCH  91  94
ATOM     94  S   UNL A   1      44.883  25.778  38.245  1.00  0.00     0.127 S 
ATOM     95  O   UNL A   1      44.329  24.567  37.640  1.00  0.00    -0.237 OA
ATOM     96  O   UNL A   1      46.259  25.645  38.724  1.00  0.00    -0.237 OA
ATOM     97  O   UNL A   1      43.989  26.483  39.152  1.00  0.00    -0.744 OA
ENDBRANCH  91  94
ENDBRANCH  64  87
ENDBRANCH  38  39
ENDBRANCH  30  33
ENDBRANCH  28  29
ENDBRANCH  27  28
ENDBRANCH   1  27
TORSDOF 18
ENDMDL
MODEL 3
REMARK VINA RESULT:     -11.5      5.578     11.897
REMARK SMILES Cc1nn(C)c(=O)c(C(=O)N2CCCC[C@H]2C(=O)NCCCCCCNC(=O)c2ccc(-c3c4nc(c(-c5cccc(S(=O)(=O)[O-])c5F)c5ccc([nH]5)c(-c5cccc(S(=O)(=O)[O-])c5F)c5nc(c(-c6cccc(S(=O)(=O)[O-])c6F)c6ccc3[nH]6)C=C5)C=C4)cc2)c1C
REMARK SMILES IDX 23 1 22 2 21 3 20 4 19 5 17 6 18 7 16 9 11 10 12 11 13 12
REMARK SMILES IDX 15 13 14 14 9 15 10 16 8 17 1 18 2 19 3 20 92 21 4 22 93 23
REMARK SMILES IDX 5 24 6 25 7 26 24 27 25 28 26 29 27 30 28 32 29 33 30 34
REMARK SMILES IDX 91 35 31 36 90 37 32 38 33 39 34 40 84 41 35 42 89 43 83 44
REMARK SMILES IDX 85 45 36 46 88 47 82 48 81 49 37 51 69 52 49 53 68 54 50 55
REMARK SMILES IDX 53 56 67 57 86 58 51 59 52 60 66 62 87 63 54 64 38 65 39 66
REMARK SMILES IDX 47 67 40 68 42 69 48 70 41 71 43 72 44 73 45 74 46 75 70 76
REMARK SMILES IDX 71 77 79 78 72 79 74 80 80 81 73 82 75 83 76 84 77 85 78 86
REMARK SMILES IDX 55 87 56 88 64 89 57 90 59 91 65 92 58 93 60 94 61 95 62 96
REMARK SMILES IDX 63 97
REMARK H PARENT 19 8 26 31 85 50 53 61
REMARK Flexibility Score: inf
ROOT
ATOM      1  C   UNL A   1      37.131  20.046  24.991  1.00  0.00     0.002 C 
ENDROOT
BRANCH   1   2
ATOM      2  C   UNL A   1      36.550  21.326  25.594  1.00  0.00     0.002 C 
BRANCH   2   3
ATOM      3  C   UNL A   1      37.314  22.600  25.259  1.00  0.00     0.021 C 
BRANCH   3   4
ATOM      4  C   UNL A   1      36.520  23.893  25.410  1.00  0.00     0.116 C 
BRANCH   4   5
ATOM      5  N   UNL A   1      35.505  24.101  24.394  1.00  0.00    -0.354 N 
ATOM      6  C   UNL A   1      34.161  24.334  24.469  1.00  0.00     0.242 C 
ATOM      7  O   UNL A   1      33.583  24.439  23.377  1.00  0.00    -0.273 OA
ATOM      8  H   UNL A   1      35.853  24.068  23.473  1.00  0.00     0.163 HD
BRANCH   6   9
ATOM      9  C   UNL A   1      33.310  24.317  25.804  1.00  0.00     0.174 C 
ATOM     10  N   UNL A   1      31.876  24.628  25.742  1.00  0.00    -0.326 N 
ATOM     11  C   UNL A   1      31.052  23.555  25.111  1.00  0.00     0.120 C 
ATOM     12  C   UNL A   1      31.354  22.130  25.573  1.00  0.00     0.022 C 
ATOM     13  C   UNL A   1      33.528  22.931  26.451  1.00  0.00     0.035 C 
ATOM     14  C   UNL A   1      32.843  21.842  25.634  1.00  0.00     0.004 C 
BRANCH  10  15
ATOM     15  C   UNL A   1      31.220  25.843  26.012  1.00  0.00     0.260 C 
ATOM     16  O   UNL A   1      30.324  25.806  26.872  1.00  0.00    -0.269 OA
BRANCH  15  17
ATOM     17  C   UNL A   1      31.348  27.220  25.319  1.00  0.00     0.111 A 
ATOM     18  C   UNL A   1      29.858  29.917  23.031  1.00  0.00     0.069 C 
ATOM     19  C   UNL A   1      30.670  29.258  24.134  1.00  0.00     0.062 A 
ATOM     20  N   UNL A   1      31.192  30.078  24.978  1.00  0.00    -0.175 NA
ATOM     21  C   UNL A   1      30.720  27.756  24.241  1.00  0.00    -0.010 A 
ATOM     22  N   UNL A   1      31.923  29.556  25.989  1.00  0.00    -0.232 N 
ATOM     23  C   UNL A   1      29.881  27.084  23.221  1.00  0.00     0.047 C 
ATOM     24  C   UNL A   1      32.520  30.546  26.872  1.00  0.00     0.178 C 
ATOM     25  C   UNL A   1      32.206  28.202  26.120  1.00  0.00     0.279 A 
ATOM     26  O   UNL A   1      33.134  27.798  26.822  1.00  0.00    -0.267 OA
ENDBRANCH  15  17
ENDBRANCH  10  15
ENDBRANCH   6   9
ENDBRANCH   4   5
ENDBRANCH   3   4
ENDBRANCH   2   3
ENDBRANCH   1   2
BRANCH   1  27
ATOM     27  C   UNL A   1      38.655  20.018  24.835  1.00  0.00     0.021 C 
BRANCH  27  28
ATOM     28  C   UNL A   1      39.439  20.072  26.138  1.00  0.00     0.116 C 
BRANCH  28  29
ATOM     29  N   UNL A   1      40.570  19.163  26.127  1.00  0.00    -0.352 N 
ATOM     30  C   UNL A   1      41.910  19.455  26.115  1.00  0.00     0.251 C 
ATOM     31  H   UNL A   1      40.344  18.205  26.130  1.00  0.00     0.163 HD
ATOM     32  O   UNL A   1      42.731  18.576  25.890  1.00  0.00    -0.269 OA
BRANCH  30  33
ATOM     33  C   UNL A   1      42.346  20.846  26.361  1.00  0.00     0.039 A 
ATOM     34  C   UNL A   1      42.547  21.264  27.678  1.00  0.00     0.014 A 
ATOM     35  C   UNL A   1      42.560  21.724  25.295  1.00  0.00     0.014 A 
ATOM     36  C   UNL A   1      43.004  22.560  27.922  1.00  0.00     0.010 A 
ATOM     37  C   UNL A   1      43.092  22.986  25.537  1.00  0.00     0.010 A 
ATOM     38  C   UNL A   1      43.301  23.422  26.853  1.00  0.00    -0.014 A 
BRANCH  38  39
ATOM     39  C   UNL A   1      43.812  24.793  27.099  1.00  0.00     0.031 A 
ATOM     40  C   UNL A   1      42.892  25.852  27.642  1.00  0.00     0.074 A 
ATOM     41  C   UNL A   1      45.088  25.094  26.787  1.00  0.00     0.049 A 
ATOM     42  N   UNL A   1      43.149  27.104  27.911  1.00  0.00    -0.248 NA
ATOM     43  C   UNL A   1      41.496  25.459  27.900  1.00  0.00     0.031 C 
ATOM     44  C   UNL A   1      46.053  24.167  26.196  1.00  0.00     0.029 A 
ATOM     45  N   UNL A   1      45.787  26.269  26.910  1.00  0.00    -0.354 N 
ATOM     46  C   UNL A   1      41.949  27.653  28.346  1.00  0.00     0.074 A 
ATOM     47  C   UNL A   1      40.951  26.611  28.262  1.00  0.00     0.031 C 
ATOM     48  C   UNL A   1      47.224  24.801  26.026  1.00  0.00     0.029 A 
ATOM     49  C   UNL A   1      47.085  26.187  26.463  1.00  0.00     0.049 A 
ATOM     50  H   UNL A   1      45.397  27.092  27.284  1.00  0.00     0.167 HD
ATOM     51  C   UNL A   1      41.708  28.901  28.810  1.00  0.00     0.034 A 
ATOM     52  C   UNL A   1      48.054  27.124  26.410  1.00  0.00     0.034 A 
ATOM     53  C   UNL A   1      42.715  29.920  28.925  1.00  0.00     0.049 A 
ATOM     54  C   UNL A   1      47.763  28.502  26.940  1.00  0.00     0.074 A 
ATOM     55  C   UNL A   1      42.588  31.194  29.449  1.00  0.00     0.029 A 
ATOM     56  N   UNL A   1      44.031  29.787  28.506  1.00  0.00    -0.354 N 
ATOM     57  N   UNL A   1      46.661  28.960  27.485  1.00  0.00    -0.248 NA
ATOM     58  C   UNL A   1      48.854  29.485  26.879  1.00  0.00     0.031 C 
ATOM     59  C   UNL A   1      43.819  31.843  29.316  1.00  0.00     0.029 A 
ATOM     60  C   UNL A   1      44.722  30.961  28.744  1.00  0.00     0.049 A 
ATOM     61  H   UNL A   1      44.414  28.977  28.100  1.00  0.00     0.167 HD
ATOM     62  C   UNL A   1      46.934  30.272  27.856  1.00  0.00     0.074 A 
ATOM     63  C   UNL A   1      48.313  30.527  27.497  1.00  0.00     0.031 C 
ATOM     64  C   UNL A   1      46.110  31.187  28.426  1.00  0.00     0.034 A 
BRANCH  51  65
ATOM     65  C   UNL A   1      40.316  29.221  29.290  1.00  0.00     0.023 A 
ATOM     66  C   UNL A   1      39.338  29.626  28.359  1.00  0.00     0.012 A 
ATOM     67  C   UNL A   1      39.952  29.036  30.638  1.00  0.00     0.148 A 
ATOM     68  C   UNL A   1      38.027  29.869  28.764  1.00  0.00     0.002 A 
ATOM     69  C   UNL A   1      38.631  29.231  31.025  1.00  0.00     0.091 A 
ATOM     70  F   UNL A   1      40.899  28.670  31.512  1.00  0.00    -0.205 F 
ATOM     71  C   UNL A   1      37.670  29.658  30.093  1.00  0.00     0.022 A 
BRANCH  69  72
ATOM     72  S   UNL A   1      38.046  28.901  32.692  1.00  0.00     0.127 S 
ATOM     73  O   UNL A   1      36.653  29.333  32.606  1.00  0.00    -0.237 OA
ATOM     74  O   UNL A   1      38.230  27.453  32.799  1.00  0.00    -0.237 OA
ATOM     75  O   UNL A   1      38.888  29.690  33.580  1.00  0.00    -0.744 OA
ENDBRANCH  69  72
ENDBRANCH  51  65
BRANCH  52  76
ATOM     76  C   UNL A   1      49.410  26.756  25.908  1.00  0.00     0.023 A 
ATOM     77  C   UNL A   1      50.230  25.919  26.688  1.00  0.00     0.012 A 
ATOM     78  C   UNL A   1      49.867  27.179  24.644  1.00  0.00     0.148 A 
ATOM     79  C   UNL A   1      51.489  25.525  26.230  1.00  0.00     0.002 A 
ATOM     80  C   UNL A   1      51.095  26.735  24.167  1.00  0.00     0.091 A 
ATOM     81  F   UNL A   1      49.077  27.984  23.921  1.00  0.00    -0.205 F 
ATOM     82  C   UNL A   1      51.915  25.923  24.966  1.00  0.00     0.022 A 
BRANCH  80  83
ATOM     83  S   UNL A   1      51.664  27.072  22.497  1.00  0.00     0.127 S 
ATOM     84  O   UNL A   1      51.966  28.500  22.565  1.00  0.00    -0.237 OA
ATOM     85  O   UNL A   1      52.834  26.199  22.398  1.00  0.00    -0.237 OA
ATOM     86  O   UNL A   1      50.562  26.702  21.620  1.00  0.00    -0.744 OA
ENDBRANCH  80  83
ENDBRANCH  52  76
BRANCH  64  87
ATOM     87  C   UNL A   1      46.666  32.559  28.717  1.00  0.00     0.023 A 
ATOM     88  C   UNL A   1      47.226  32.829  29.981  1.00  0.00     0.012 A 
ATOM     89  C   UNL A   1      46.747  33.532  27.701  1.00  0.00     0.148 A 
ATOM     90  C   UNL A   1      47.840  34.054  30.236  1.00  0.00     0.002 A 
ATOM     91  C   UNL A   1      47.408  34.730  27.946  1.00  0.00     0.091 A 
ATOM     92  F   UNL A   1      46.196  33.260  26.510  1.00  0.00    -0.205 F 
ATOM     93  C   UNL A   1      47.945  34.997  29.216  1.00  0.00     0.022 A 
BRANCH  91  94
ATOM     94  S   UNL A   1      47.694  35.958  26.666  1.00  0.00     0.127 S 
ATOM     95  O   UNL A   1      48.348  37.027  27.420  1.00  0.00    -0.237 OA
ATOM     96  O   UNL A   1      48.568  35.241  25.739  1.00  0.00    -0.237 OA
ATOM     97  O   UNL A   1      46.382  36.293  26.128  1.00  0.00    -0.744 OA
ENDBRANCH  91  94
ENDBRANCH  64  87
ENDBRANCH  38  39
ENDBRANCH  30  33
ENDBRANCH  28  29
ENDBRANCH  27  28
ENDBRANCH   1  27
TORSDOF 18
ENDMDL
