MODEL 1
REMARK VINA RESULT:     -10.3      0.000      0.000
REMARK SMILES CCN(CC(C)C)C(=O)N[C@](C)(CC)C(=O)NCCCCCCNC(=O)c1ccc(-c2c3nc(c(-c4cccc(S(=O)(=O)[O-])c4F)c4ccc([nH]4)c(-c4cccc(S(=O)(=O)[O-])c4F)c4nc(c(-c5cccc(S(=O)(=O)[O-])c5F)c5ccc2[nH]5)C=C4)C=C3)cc1
REMARK SMILES IDX 20 1 19 2 18 3 17 4 15 5 16 6 11 8 12 9 10 10 8 11 9 12 3 14
REMARK SMILES IDX 2 15 1 16 4 17 5 18 6 19 7 20 13 21 14 22 21 23 22 24 23 25
REMARK SMILES IDX 24 26 25 27 26 29 27 30 28 31 89 32 29 33 88 34 30 35 31 36
REMARK SMILES IDX 32 37 82 38 33 39 87 40 81 41 83 42 34 43 86 44 80 45 79 46
REMARK SMILES IDX 35 48 67 49 47 50 66 51 48 52 51 53 65 54 84 55 49 56 50 57
REMARK SMILES IDX 64 59 85 60 52 61 36 62 37 63 45 64 38 65 40 66 46 67 39 68
REMARK SMILES IDX 41 69 42 70 43 71 44 72 68 73 69 74 77 75 70 76 72 77 78 78
REMARK SMILES IDX 71 79 73 80 74 81 75 82 76 83 53 84 54 85 62 86 55 87 57 88
REMARK SMILES IDX 63 89 56 90 58 91 59 92 60 93 61 94
REMARK H PARENT 17 7 10 13 24 28 83 47 51 58
REMARK Flexibility Score: inf
ROOT
ATOM      1  C   UNL A   1      36.070  21.684  25.783  1.00  0.00     0.002 C 
ENDROOT
BRANCH   1   2
ATOM      2  C   UNL A   1      34.652  21.133  25.584  1.00  0.00     0.021 C 
BRANCH   2   3
ATOM      3  C   UNL A   1      34.009  21.471  24.232  1.00  0.00     0.116 C 
BRANCH   3   4
ATOM      4  N   UNL A   1      32.586  21.487  24.370  1.00  0.00    -0.354 N 
ATOM      5  C   UNL A   1      31.854  22.595  24.584  1.00  0.00     0.245 C 
ATOM      6  O   UNL A   1      30.982  22.493  25.462  1.00  0.00    -0.272 OA
ATOM      7  H   UNL A   1      32.108  20.628  24.303  1.00  0.00     0.163 HD
BRANCH   5   8
ATOM      8  C   UNL A   1      32.126  23.956  23.882  1.00  0.00     0.117 C 
ATOM      9  C   UNL A   1      30.741  24.016  23.185  1.00  0.00     0.045 C 
BRANCH   8  10
ATOM     10  N   UNL A   1      32.856  24.284  22.669  1.00  0.00    -0.324 N 
ATOM     11  C   UNL A   1      32.810  25.519  22.082  1.00  0.00     0.318 C 
ATOM     12  O   UNL A   1      33.214  25.563  20.915  1.00  0.00    -0.249 OA
ATOM     13  H   UNL A   1      33.410  23.586  22.250  1.00  0.00     0.166 HD
BRANCH  11  14
ATOM     14  N   UNL A   1      32.426  26.683  22.776  1.00  0.00    -0.325 N 
BRANCH  14  15
ATOM     15  C   UNL A   1      33.661  27.347  23.287  1.00  0.00     0.118 C 
ATOM     16  C   UNL A   1      33.888  28.800  22.831  1.00  0.00     0.027 C 
ENDBRANCH  14  15
BRANCH  14  17
ATOM     17  C   UNL A   1      31.167  27.362  23.381  1.00  0.00     0.124 C 
BRANCH  17  18
ATOM     18  C   UNL A   1      29.557  27.473  23.199  1.00  0.00     0.002 C 
ATOM     19  C   UNL A   1      28.430  26.712  23.896  1.00  0.00     0.009 C 
ATOM     20  C   UNL A   1      29.045  28.921  23.065  1.00  0.00     0.009 C 
ENDBRANCH  17  18
ENDBRANCH  14  17
ENDBRANCH  11  14
ENDBRANCH   8  10
BRANCH   8  21
ATOM     21  C   UNL A   1      33.036  24.742  24.902  1.00  0.00     0.035 C 
ATOM     22  C   UNL A   1      32.656  25.302  26.255  1.00  0.00     0.007 C 
ENDBRANCH   8  21
ENDBRANCH   5   8
ENDBRANCH   3   4
ENDBRANCH   2   3
ENDBRANCH   1   2
BRANCH   1  23
ATOM     23  C   UNL A   1      37.045  21.301  24.674  1.00  0.00     0.002 C 
BRANCH  23  24
ATOM     24  C   UNL A   1      37.934  20.110  25.025  1.00  0.00     0.021 C 
BRANCH  24  25
ATOM     25  C   UNL A   1      39.108  20.476  25.917  1.00  0.00     0.116 C 
BRANCH  25  26
ATOM     26  N   UNL A   1      40.035  19.365  26.034  1.00  0.00    -0.352 N 
ATOM     27  C   UNL A   1      41.400  19.439  26.129  1.00  0.00     0.251 C 
ATOM     28  H   UNL A   1      39.641  18.462  26.045  1.00  0.00     0.163 HD
ATOM     29  O   UNL A   1      42.104  18.447  25.951  1.00  0.00    -0.269 OA
BRANCH  27  30
ATOM     30  C   UNL A   1      41.999  20.751  26.439  1.00  0.00     0.039 A 
ATOM     31  C   UNL A   1      42.179  21.683  25.418  1.00  0.00     0.014 A 
ATOM     32  C   UNL A   1      42.294  21.073  27.768  1.00  0.00     0.014 A 
ATOM     33  C   UNL A   1      42.624  22.967  25.738  1.00  0.00     0.010 A 
ATOM     34  C   UNL A   1      42.655  22.374  28.090  1.00  0.00     0.010 A 
ATOM     35  C   UNL A   1      42.841  23.329  27.078  1.00  0.00    -0.014 A 
BRANCH  35  36
ATOM     36  C   UNL A   1      43.292  24.689  27.463  1.00  0.00     0.031 A 
ATOM     37  C   UNL A   1      42.297  25.646  28.066  1.00  0.00     0.074 A 
ATOM     38  C   UNL A   1      44.540  25.101  27.165  1.00  0.00     0.049 A 
ATOM     39  N   UNL A   1      42.433  26.918  28.331  1.00  0.00    -0.248 NA
ATOM     40  C   UNL A   1      40.961  25.110  28.383  1.00  0.00     0.031 C 
ATOM     41  C   UNL A   1      45.574  24.285  26.524  1.00  0.00     0.029 A 
ATOM     42  N   UNL A   1      45.138  26.328  27.323  1.00  0.00    -0.354 N 
ATOM     43  C   UNL A   1      41.190  27.345  28.781  1.00  0.00     0.074 A 
ATOM     44  C   UNL A   1      40.307  26.203  28.747  1.00  0.00     0.031 C 
ATOM     45  C   UNL A   1      46.671  25.036  26.329  1.00  0.00     0.029 A 
ATOM     46  C   UNL A   1      46.407  26.395  26.790  1.00  0.00     0.049 A 
ATOM     47  H   UNL A   1      44.702  27.086  27.774  1.00  0.00     0.167 HD
ATOM     48  C   UNL A   1      40.825  28.577  29.203  1.00  0.00     0.034 A 
ATOM     49  C   UNL A   1      47.246  27.443  26.660  1.00  0.00     0.034 A 
ATOM     50  C   UNL A   1      41.724  29.692  29.297  1.00  0.00     0.049 A 
ATOM     51  C   UNL A   1      46.819  28.791  27.179  1.00  0.00     0.074 A 
ATOM     52  C   UNL A   1      41.477  30.948  29.822  1.00  0.00     0.029 A 
ATOM     53  N   UNL A   1      43.033  29.692  28.848  1.00  0.00    -0.354 N 
ATOM     54  N   UNL A   1      45.693  29.135  27.755  1.00  0.00    -0.248 NA
ATOM     55  C   UNL A   1      47.787  29.893  27.057  1.00  0.00     0.031 C 
ATOM     56  C   UNL A   1      42.627  31.721  29.653  1.00  0.00     0.029 A 
ATOM     57  C   UNL A   1      43.603  30.932  29.066  1.00  0.00     0.049 A 
ATOM     58  H   UNL A   1      43.490  28.924  28.435  1.00  0.00     0.167 HD
ATOM     59  C   UNL A   1      45.838  30.472  28.111  1.00  0.00     0.074 A 
ATOM     60  C   UNL A   1      47.164  30.874  27.694  1.00  0.00     0.031 C 
ATOM     61  C   UNL A   1      44.950  31.295  28.717  1.00  0.00     0.034 A 
BRANCH  48  62
ATOM     62  C   UNL A   1      39.399  28.794  29.630  1.00  0.00     0.023 A 
ATOM     63  C   UNL A   1      39.000  28.472  30.941  1.00  0.00     0.012 A 
ATOM     64  C   UNL A   1      38.486  29.424  28.761  1.00  0.00     0.148 A 
ATOM     65  C   UNL A   1      37.707  28.759  31.378  1.00  0.00     0.002 A 
ATOM     66  C   UNL A   1      37.216  29.751  29.217  1.00  0.00     0.091 A 
ATOM     67  F   UNL A   1      38.883  29.702  27.511  1.00  0.00    -0.205 F 
ATOM     68  C   UNL A   1      36.823  29.411  30.523  1.00  0.00     0.022 A 
BRANCH  66  69
ATOM     69  S   UNL A   1      36.034  30.669  28.226  1.00  0.00     0.127 S 
ATOM     70  O   UNL A   1      36.824  31.836  27.832  1.00  0.00    -0.237 OA
ATOM     71  O   UNL A   1      35.750  29.729  27.142  1.00  0.00    -0.237 OA
ATOM     72  O   UNL A   1      34.906  30.954  29.101  1.00  0.00    -0.744 OA
ENDBRANCH  66  69
ENDBRANCH  48  62
BRANCH  49  73
ATOM     73  C   UNL A   1      48.588  27.267  26.033  1.00  0.00     0.023 A 
ATOM     74  C   UNL A   1      49.693  26.923  26.838  1.00  0.00     0.012 A 
ATOM     75  C   UNL A   1      48.784  27.467  24.653  1.00  0.00     0.148 A 
ATOM     76  C   UNL A   1      50.973  26.835  26.291  1.00  0.00     0.002 A 
ATOM     77  C   UNL A   1      50.052  27.317  24.103  1.00  0.00     0.091 A 
ATOM     78  F   UNL A   1      47.725  27.805  23.903  1.00  0.00    -0.205 F 
ATOM     79  C   UNL A   1      51.152  27.025  24.923  1.00  0.00     0.022 A 
BRANCH  77  80
ATOM     80  S   UNL A   1      50.344  27.413  22.335  1.00  0.00     0.127 S 
ATOM     81  O   UNL A   1      50.149  28.836  22.077  1.00  0.00    -0.237 OA
ATOM     82  O   UNL A   1      51.730  26.951  22.231  1.00  0.00    -0.237 OA
ATOM     83  O   UNL A   1      49.370  26.515  21.731  1.00  0.00    -0.744 OA
ENDBRANCH  77  80
ENDBRANCH  49  73
BRANCH  61  84
ATOM     84  C   UNL A   1      45.390  32.694  29.051  1.00  0.00     0.023 A 
ATOM     85  C   UNL A   1      46.157  32.940  30.207  1.00  0.00     0.012 A 
ATOM     86  C   UNL A   1      45.139  33.746  28.147  1.00  0.00     0.148 A 
ATOM     87  C   UNL A   1      46.648  34.219  30.467  1.00  0.00     0.002 A 
ATOM     88  C   UNL A   1      45.678  35.002  28.384  1.00  0.00     0.091 A 
ATOM     89  F   UNL A   1      44.395  33.489  27.060  1.00  0.00    -0.205 F 
ATOM     90  C   UNL A   1      46.423  35.244  29.550  1.00  0.00     0.022 A 
BRANCH  88  91
ATOM     91  S   UNL A   1      45.534  36.352  27.209  1.00  0.00     0.127 S 
ATOM     92  O   UNL A   1      46.524  37.298  27.720  1.00  0.00    -0.237 OA
ATOM     93  O   UNL A   1      45.901  35.705  25.950  1.00  0.00    -0.237 OA
ATOM     94  O   UNL A   1      44.151  36.804  27.278  1.00  0.00    -0.744 OA
ENDBRANCH  88  91
ENDBRANCH  61  84
ENDBRANCH  35  36
ENDBRANCH  27  30
ENDBRANCH  25  26
ENDBRANCH  24  25
ENDBRANCH  23  24
ENDBRANCH   1  23
TORSDOF 22
ENDMDL
MODEL 2
REMARK VINA RESULT:     -10.1      6.391     11.496
REMARK SMILES CCN(CC(C)C)C(=O)N[C@](C)(CC)C(=O)NCCCCCCNC(=O)c1ccc(-c2c3nc(c(-c4cccc(S(=O)(=O)[O-])c4F)c4ccc([nH]4)c(-c4cccc(S(=O)(=O)[O-])c4F)c4nc(c(-c5cccc(S(=O)(=O)[O-])c5F)c5ccc2[nH]5)C=C4)C=C3)cc1
REMARK SMILES IDX 20 1 19 2 18 3 17 4 15 5 16 6 11 8 12 9 10 10 8 11 9 12 3 14
REMARK SMILES IDX 2 15 1 16 4 17 5 18 6 19 7 20 13 21 14 22 21 23 22 24 23 25
REMARK SMILES IDX 24 26 25 27 26 29 27 30 28 31 89 32 29 33 88 34 30 35 31 36
REMARK SMILES IDX 32 37 82 38 33 39 87 40 81 41 83 42 34 43 86 44 80 45 79 46
REMARK SMILES IDX 35 48 67 49 47 50 66 51 48 52 51 53 65 54 84 55 49 56 50 57
REMARK SMILES IDX 64 59 85 60 52 61 36 62 37 63 45 64 38 65 40 66 46 67 39 68
REMARK SMILES IDX 41 69 42 70 43 71 44 72 68 73 69 74 77 75 70 76 72 77 78 78
REMARK SMILES IDX 71 79 73 80 74 81 75 82 76 83 53 84 54 85 62 86 55 87 57 88
REMARK SMILES IDX 63 89 56 90 58 91 59 92 60 93 61 94
REMARK H PARENT 17 7 10 13 24 28 83 47 51 58
REMARK Flexibility Score: inf
ROOT
ATOM      1  C   UNL A   1      32.237  29.521  26.273  1.00  0.00     0.002 C 
ENDROOT
BRANCH   1   2
ATOM      2  C   UNL A   1      33.276  29.006  25.267  1.00  0.00     0.021 C 
BRANCH   2   3
ATOM      3  C   UNL A   1      33.500  27.488  25.287  1.00  0.00     0.116 C 
BRANCH   3   4
ATOM      4  N   UNL A   1      32.650  26.891  26.271  1.00  0.00    -0.354 N 
ATOM      5  C   UNL A   1      31.908  25.789  26.067  1.00  0.00     0.245 C 
ATOM      6  O   UNL A   1      30.739  25.853  26.480  1.00  0.00    -0.272 OA
ATOM      7  H   UNL A   1      32.606  27.317  27.157  1.00  0.00     0.163 HD
BRANCH   5   8
ATOM      8  C   UNL A   1      32.410  24.546  25.277  1.00  0.00     0.117 C 
ATOM      9  C   UNL A   1      33.844  24.593  25.868  1.00  0.00     0.045 C 
BRANCH   8  10
ATOM     10  N   UNL A   1      32.877  24.400  23.909  1.00  0.00    -0.324 N 
ATOM     11  C   UNL A   1      33.786  23.451  23.529  1.00  0.00     0.318 C 
ATOM     12  O   UNL A   1      34.317  23.640  22.429  1.00  0.00    -0.249 OA
ATOM     13  H   UNL A   1      32.523  25.012  23.224  1.00  0.00     0.166 HD
BRANCH  11  14
ATOM     14  N   UNL A   1      34.035  22.285  24.279  1.00  0.00    -0.325 N 
BRANCH  14  15
ATOM     15  C   UNL A   1      35.507  22.184  24.506  1.00  0.00     0.118 C 
ATOM     16  C   UNL A   1      35.953  21.287  25.676  1.00  0.00     0.027 C 
ENDBRANCH  14  15
BRANCH  14  17
ATOM     17  C   UNL A   1      33.335  20.974  24.731  1.00  0.00     0.124 C 
BRANCH  17  18
ATOM     18  C   UNL A   1      32.999  19.464  24.239  1.00  0.00     0.002 C 
ATOM     19  C   UNL A   1      32.198  18.972  23.033  1.00  0.00     0.009 C 
ATOM     20  C   UNL A   1      34.191  18.492  24.356  1.00  0.00     0.009 C 
ENDBRANCH  17  18
ENDBRANCH  14  17
ENDBRANCH  11  14
ENDBRANCH   8  10
BRANCH   8  21
ATOM     21  C   UNL A   1      31.142  23.615  25.174  1.00  0.00     0.035 C 
ATOM     22  C   UNL A   1      30.601  22.652  26.208  1.00  0.00     0.007 C 
ENDBRANCH   8  21
ENDBRANCH   5   8
ENDBRANCH   3   4
ENDBRANCH   2   3
ENDBRANCH   1   2
BRANCH   1  23
ATOM     23  C   UNL A   1      31.487  30.764  25.805  1.00  0.00     0.002 C 
BRANCH  23  24
ATOM     24  C   UNL A   1      31.417  31.869  26.858  1.00  0.00     0.021 C 
BRANCH  24  25
ATOM     25  C   UNL A   1      32.739  32.586  27.069  1.00  0.00     0.116 C 
BRANCH  25  26
ATOM     26  N   UNL A   1      32.523  33.947  27.524  1.00  0.00    -0.352 N 
ATOM     27  C   UNL A   1      33.137  34.569  28.579  1.00  0.00     0.251 C 
ATOM     28  H   UNL A   1      31.864  34.480  27.021  1.00  0.00     0.163 HD
ATOM     29  O   UNL A   1      32.692  35.616  29.045  1.00  0.00    -0.269 OA
BRANCH  27  30
ATOM     30  C   UNL A   1      34.341  33.935  29.147  1.00  0.00     0.039 A 
ATOM     31  C   UNL A   1      35.603  34.336  28.707  1.00  0.00     0.014 A 
ATOM     32  C   UNL A   1      34.203  33.005  30.183  1.00  0.00     0.014 A 
ATOM     33  C   UNL A   1      36.739  33.828  29.340  1.00  0.00     0.010 A 
ATOM     34  C   UNL A   1      35.332  32.568  30.863  1.00  0.00     0.010 A 
ATOM     35  C   UNL A   1      36.612  32.960  30.437  1.00  0.00    -0.014 A 
BRANCH  35  36
ATOM     36  C   UNL A   1      37.792  32.416  31.152  1.00  0.00     0.031 A 
ATOM     37  C   UNL A   1      38.557  31.273  30.538  1.00  0.00     0.074 A 
ATOM     38  C   UNL A   1      38.101  32.858  32.387  1.00  0.00     0.049 A 
ATOM     39  N   UNL A   1      39.515  30.550  31.054  1.00  0.00    -0.248 NA
ATOM     40  C   UNL A   1      38.171  30.867  29.174  1.00  0.00     0.031 C 
ATOM     41  C   UNL A   1      37.396  33.918  33.112  1.00  0.00     0.029 A 
ATOM     42  N   UNL A   1      39.065  32.438  33.271  1.00  0.00    -0.354 N 
ATOM     43  C   UNL A   1      39.799  29.571  30.111  1.00  0.00     0.074 A 
ATOM     44  C   UNL A   1      38.909  29.781  28.993  1.00  0.00     0.031 C 
ATOM     45  C   UNL A   1      37.939  34.053  34.334  1.00  0.00     0.029 A 
ATOM     46  C   UNL A   1      39.000  33.065  34.496  1.00  0.00     0.049 A 
ATOM     47  H   UNL A   1      39.738  31.755  33.051  1.00  0.00     0.167 HD
ATOM     48  C   UNL A   1      40.732  28.593  30.167  1.00  0.00     0.034 A 
ATOM     49  C   UNL A   1      39.696  32.844  35.630  1.00  0.00     0.034 A 
ATOM     50  C   UNL A   1      41.658  28.430  31.251  1.00  0.00     0.049 A 
ATOM     51  C   UNL A   1      40.756  31.773  35.640  1.00  0.00     0.074 A 
ATOM     52  C   UNL A   1      42.717  27.543  31.346  1.00  0.00     0.029 A 
ATOM     53  N   UNL A   1      41.631  29.155  32.430  1.00  0.00    -0.354 N 
ATOM     54  N   UNL A   1      41.122  30.965  34.675  1.00  0.00    -0.248 NA
ATOM     55  C   UNL A   1      41.522  31.601  36.886  1.00  0.00     0.031 C 
ATOM     56  C   UNL A   1      43.305  27.706  32.602  1.00  0.00     0.029 A 
ATOM     57  C   UNL A   1      42.643  28.724  33.268  1.00  0.00     0.049 A 
ATOM     58  H   UNL A   1      40.988  29.870  32.640  1.00  0.00     0.167 HD
ATOM     59  C   UNL A   1      42.190  30.229  35.178  1.00  0.00     0.074 A 
ATOM     60  C   UNL A   1      42.420  30.693  36.529  1.00  0.00     0.031 C 
ATOM     61  C   UNL A   1      42.909  29.250  34.579  1.00  0.00     0.034 A 
BRANCH  48  62
ATOM     62  C   UNL A   1      40.834  27.635  29.013  1.00  0.00     0.023 A 
ATOM     63  C   UNL A   1      39.932  26.558  28.910  1.00  0.00     0.012 A 
ATOM     64  C   UNL A   1      41.753  27.873  27.971  1.00  0.00     0.148 A 
ATOM     65  C   UNL A   1      39.954  25.721  27.795  1.00  0.00     0.002 A 
ATOM     66  C   UNL A   1      41.737  27.065  26.842  1.00  0.00     0.091 A 
ATOM     67  F   UNL A   1      42.615  28.891  28.102  1.00  0.00    -0.205 F 
ATOM     68  C   UNL A   1      40.843  25.984  26.756  1.00  0.00     0.022 A 
BRANCH  66  69
ATOM     69  S   UNL A   1      42.779  27.372  25.414  1.00  0.00     0.127 S 
ATOM     70  O   UNL A   1      42.126  28.538  24.818  1.00  0.00    -0.237 OA
ATOM     71  O   UNL A   1      44.075  27.648  26.034  1.00  0.00    -0.237 OA
ATOM     72  O   UNL A   1      42.732  26.160  24.608  1.00  0.00    -0.744 OA
ENDBRANCH  66  69
ENDBRANCH  48  62
BRANCH  49  73
ATOM     73  C   UNL A   1      39.439  33.661  36.851  1.00  0.00     0.023 A 
ATOM     74  C   UNL A   1      39.881  34.999  36.899  1.00  0.00     0.012 A 
ATOM     75  C   UNL A   1      38.787  33.116  37.973  1.00  0.00     0.148 A 
ATOM     76  C   UNL A   1      39.728  35.758  38.060  1.00  0.00     0.002 A 
ATOM     77  C   UNL A   1      38.582  33.898  39.105  1.00  0.00     0.091 A 
ATOM     78  F   UNL A   1      38.382  31.839  37.916  1.00  0.00    -0.205 F 
ATOM     79  C   UNL A   1      39.073  35.212  39.159  1.00  0.00     0.022 A 
BRANCH  77  80
ATOM     80  S   UNL A   1      37.632  33.314  40.511  1.00  0.00     0.127 S 
ATOM     81  O   UNL A   1      36.312  33.117  39.919  1.00  0.00    -0.237 OA
ATOM     82  O   UNL A   1      38.339  32.083  40.865  1.00  0.00    -0.237 OA
ATOM     83  O   UNL A   1      37.732  34.368  41.512  1.00  0.00    -0.744 OA
ENDBRANCH  77  80
ENDBRANCH  49  73
BRANCH  61  84
ATOM     84  C   UNL A   1      44.069  28.657  35.332  1.00  0.00     0.023 A 
ATOM     85  C   UNL A   1      45.353  29.224  35.219  1.00  0.00     0.012 A 
ATOM     86  C   UNL A   1      43.852  27.606  36.246  1.00  0.00     0.148 A 
ATOM     87  C   UNL A   1      46.409  28.738  35.989  1.00  0.00     0.002 A 
ATOM     88  C   UNL A   1      44.894  27.165  37.049  1.00  0.00     0.091 A 
ATOM     89  F   UNL A   1      42.623  27.073  36.325  1.00  0.00    -0.205 F 
ATOM     90  C   UNL A   1      46.176  27.721  36.914  1.00  0.00     0.022 A 
BRANCH  88  91
ATOM     91  S   UNL A   1      44.664  25.939  38.341  1.00  0.00     0.127 S 
ATOM     92  O   UNL A   1      44.088  24.823  37.592  1.00  0.00    -0.237 OA
ATOM     93  O   UNL A   1      46.032  25.720  38.806  1.00  0.00    -0.237 OA
ATOM     94  O   UNL A   1      43.778  26.548  39.324  1.00  0.00    -0.744 OA
ENDBRANCH  88  91
ENDBRANCH  61  84
ENDBRANCH  35  36
ENDBRANCH  27  30
ENDBRANCH  25  26
ENDBRANCH  24  25
ENDBRANCH  23  24
ENDBRANCH   1  23
TORSDOF 22
ENDMDL
MODEL 3
REMARK VINA RESULT:      -9.9      5.614     10.917
REMARK SMILES CCN(CC(C)C)C(=O)N[C@](C)(CC)C(=O)NCCCCCCNC(=O)c1ccc(-c2c3nc(c(-c4cccc(S(=O)(=O)[O-])c4F)c4ccc([nH]4)c(-c4cccc(S(=O)(=O)[O-])c4F)c4nc(c(-c5cccc(S(=O)(=O)[O-])c5F)c5ccc2[nH]5)C=C4)C=C3)cc1
REMARK SMILES IDX 20 1 19 2 18 3 17 4 15 5 16 6 11 8 12 9 10 10 8 11 9 12 3 14
REMARK SMILES IDX 2 15 1 16 4 17 5 18 6 19 7 20 13 21 14 22 21 23 22 24 23 25
REMARK SMILES IDX 24 26 25 27 26 29 27 30 28 31 89 32 29 33 88 34 30 35 31 36
REMARK SMILES IDX 32 37 82 38 33 39 87 40 81 41 83 42 34 43 86 44 80 45 79 46
REMARK SMILES IDX 35 48 67 49 47 50 66 51 48 52 51 53 65 54 84 55 49 56 50 57
REMARK SMILES IDX 64 59 85 60 52 61 36 62 37 63 45 64 38 65 40 66 46 67 39 68
REMARK SMILES IDX 41 69 42 70 43 71 44 72 68 73 69 74 77 75 70 76 72 77 78 78
REMARK SMILES IDX 71 79 73 80 74 81 75 82 76 83 53 84 54 85 62 86 55 87 57 88
REMARK SMILES IDX 63 89 56 90 58 91 59 92 60 93 61 94
REMARK H PARENT 17 7 10 13 24 28 83 47 51 58
REMARK Flexibility Score: inf
ROOT
ATOM      1  C   UNL A   1      32.077  29.167  25.844  1.00  0.00     0.002 C 
ENDROOT
BRANCH   1   2
ATOM      2  C   UNL A   1      33.134  28.755  24.810  1.00  0.00     0.021 C 
BRANCH   2   3
ATOM      3  C   UNL A   1      33.530  27.273  24.844  1.00  0.00     0.116 C 
BRANCH   3   4
ATOM      4  N   UNL A   1      32.999  26.663  26.024  1.00  0.00    -0.354 N 
ATOM      5  C   UNL A   1      32.480  25.423  26.072  1.00  0.00     0.245 C 
ATOM      6  O   UNL A   1      31.409  25.321  26.691  1.00  0.00    -0.272 OA
ATOM      7  H   UNL A   1      33.016  27.185  26.858  1.00  0.00     0.163 HD
BRANCH   5   8
ATOM      8  C   UNL A   1      33.091  24.203  25.324  1.00  0.00     0.117 C 
ATOM      9  C   UNL A   1      34.228  23.980  26.356  1.00  0.00     0.045 C 
BRANCH   8  10
ATOM     10  N   UNL A   1      33.984  24.125  24.181  1.00  0.00    -0.324 N 
ATOM     11  C   UNL A   1      34.871  23.099  23.997  1.00  0.00     0.318 C 
ATOM     12  O   UNL A   1      35.764  23.317  23.172  1.00  0.00    -0.249 OA
ATOM     13  H   UNL A   1      33.950  24.843  23.507  1.00  0.00     0.166 HD
BRANCH  11  14
ATOM     14  N   UNL A   1      34.731  21.845  24.621  1.00  0.00    -0.325 N 
BRANCH  14  15
ATOM     15  C   UNL A   1      36.029  21.502  25.272  1.00  0.00     0.118 C 
ATOM     16  C   UNL A   1      36.638  20.139  24.895  1.00  0.00     0.027 C 
ENDBRANCH  14  15
BRANCH  14  17
ATOM     17  C   UNL A   1      33.778  20.618  24.652  1.00  0.00     0.124 C 
BRANCH  17  18
ATOM     18  C   UNL A   1      32.573  19.908  23.828  1.00  0.00     0.002 C 
ATOM     19  C   UNL A   1      32.081  20.142  22.399  1.00  0.00     0.009 C 
ATOM     20  C   UNL A   1      32.487  18.383  24.041  1.00  0.00     0.009 C 
ENDBRANCH  17  18
ENDBRANCH  14  17
ENDBRANCH  11  14
ENDBRANCH   8  10
BRANCH   8  21
ATOM     21  C   UNL A   1      31.846  23.485  24.676  1.00  0.00     0.035 C 
ATOM     22  C   UNL A   1      30.911  24.012  23.610  1.00  0.00     0.007 C 
ENDBRANCH   8  21
ENDBRANCH   5   8
ENDBRANCH   3   4
ENDBRANCH   2   3
ENDBRANCH   1   2
BRANCH   1  23
ATOM     23  C   UNL A   1      31.325  30.444  25.483  1.00  0.00     0.002 C 
BRANCH  23  24
ATOM     24  C   UNL A   1      31.312  31.484  26.602  1.00  0.00     0.021 C 
BRANCH  24  25
ATOM     25  C   UNL A   1      32.639  32.201  26.776  1.00  0.00     0.116 C 
BRANCH  25  26
ATOM     26  N   UNL A   1      32.438  33.552  27.265  1.00  0.00    -0.352 N 
ATOM     27  C   UNL A   1      33.109  34.163  28.292  1.00  0.00     0.251 C 
ATOM     28  H   UNL A   1      31.745  34.086  26.813  1.00  0.00     0.163 HD
ATOM     29  O   UNL A   1      32.683  35.197  28.802  1.00  0.00    -0.269 OA
BRANCH  27  30
ATOM     30  C   UNL A   1      34.351  33.532  28.775  1.00  0.00     0.039 A 
ATOM     31  C   UNL A   1      35.577  34.153  28.532  1.00  0.00     0.014 A 
ATOM     32  C   UNL A   1      34.275  32.369  29.548  1.00  0.00     0.014 A 
ATOM     33  C   UNL A   1      36.735  33.621  29.103  1.00  0.00     0.010 A 
ATOM     34  C   UNL A   1      35.416  31.894  30.180  1.00  0.00     0.010 A 
ATOM     35  C   UNL A   1      36.660  32.504  29.950  1.00  0.00    -0.014 A 
BRANCH  35  36
ATOM     36  C   UNL A   1      37.863  31.922  30.595  1.00  0.00     0.031 A 
ATOM     37  C   UNL A   1      38.643  30.861  29.866  1.00  0.00     0.074 A 
ATOM     38  C   UNL A   1      38.179  32.252  31.863  1.00  0.00     0.049 A 
ATOM     39  N   UNL A   1      39.624  30.115  30.299  1.00  0.00    -0.248 NA
ATOM     40  C   UNL A   1      38.246  30.577  28.474  1.00  0.00     0.031 C 
ATOM     41  C   UNL A   1      37.462  33.221  32.695  1.00  0.00     0.029 A 
ATOM     42  N   UNL A   1      39.165  31.772  32.692  1.00  0.00    -0.354 N 
ATOM     43  C   UNL A   1      39.917  29.236  29.264  1.00  0.00     0.074 A 
ATOM     44  C   UNL A   1      39.006  29.531  28.182  1.00  0.00     0.031 C 
ATOM     45  C   UNL A   1      38.019  33.252  33.917  1.00  0.00     0.029 A 
ATOM     46  C   UNL A   1      39.104  32.278  33.971  1.00  0.00     0.049 A 
ATOM     47  H   UNL A   1      39.849  31.129  32.398  1.00  0.00     0.167 HD
ATOM     48  C   UNL A   1      40.872  28.280  29.214  1.00  0.00     0.034 A 
ATOM     49  C   UNL A   1      39.821  31.967  35.070  1.00  0.00     0.034 A 
ATOM     50  C   UNL A   1      41.817  28.036  30.267  1.00  0.00     0.049 A 
ATOM     51  C   UNL A   1      40.905  30.925  34.965  1.00  0.00     0.074 A 
ATOM     52  C   UNL A   1      42.896  27.170  30.264  1.00  0.00     0.029 A 
ATOM     53  N   UNL A   1      41.791  28.645  31.509  1.00  0.00    -0.354 N 
ATOM     54  N   UNL A   1      41.275  30.221  33.923  1.00  0.00    -0.248 NA
ATOM     55  C   UNL A   1      41.692  30.653  36.179  1.00  0.00     0.031 C 
ATOM     56  C   UNL A   1      43.499  27.226  31.521  1.00  0.00     0.029 A 
ATOM     57  C   UNL A   1      42.824  28.160  32.289  1.00  0.00     0.049 A 
ATOM     58  H   UNL A   1      41.136  29.321  31.794  1.00  0.00     0.167 HD
ATOM     59  C   UNL A   1      42.366  29.466  34.340  1.00  0.00     0.074 A 
ATOM     60  C   UNL A   1      42.605  29.805  35.727  1.00  0.00     0.031 C 
ATOM     61  C   UNL A   1      43.098  28.565  33.642  1.00  0.00     0.034 A 
BRANCH  48  62
ATOM     62  C   UNL A   1      40.978  27.438  27.973  1.00  0.00     0.023 A 
ATOM     63  C   UNL A   1      41.588  27.962  26.816  1.00  0.00     0.012 A 
ATOM     64  C   UNL A   1      40.575  26.088  27.994  1.00  0.00     0.148 A 
ATOM     65  C   UNL A   1      41.779  27.159  25.693  1.00  0.00     0.002 A 
ATOM     66  C   UNL A   1      40.812  25.282  26.890  1.00  0.00     0.091 A 
ATOM     67  F   UNL A   1      39.978  25.619  29.099  1.00  0.00    -0.205 F 
ATOM     68  C   UNL A   1      41.407  25.818  25.735  1.00  0.00     0.022 A 
BRANCH  66  69
ATOM     69  S   UNL A   1      40.452  23.523  26.876  1.00  0.00     0.127 S 
ATOM     70  O   UNL A   1      41.341  23.049  25.815  1.00  0.00    -0.237 OA
ATOM     71  O   UNL A   1      40.842  23.120  28.226  1.00  0.00    -0.237 OA
ATOM     72  O   UNL A   1      39.029  23.403  26.588  1.00  0.00    -0.744 OA
ENDBRANCH  66  69
ENDBRANCH  48  62
BRANCH  49  73
ATOM     73  C   UNL A   1      39.564  32.658  36.366  1.00  0.00     0.023 A 
ATOM     74  C   UNL A   1      40.324  33.793  36.713  1.00  0.00     0.012 A 
ATOM     75  C   UNL A   1      38.594  32.184  37.270  1.00  0.00     0.148 A 
ATOM     76  C   UNL A   1      40.161  34.408  37.955  1.00  0.00     0.002 A 
ATOM     77  C   UNL A   1      38.394  32.839  38.480  1.00  0.00     0.091 A 
ATOM     78  F   UNL A   1      37.887  31.096  36.930  1.00  0.00    -0.205 F 
ATOM     79  C   UNL A   1      39.192  33.936  38.835  1.00  0.00     0.022 A 
BRANCH  77  80
ATOM     80  S   UNL A   1      37.078  32.376  39.610  1.00  0.00     0.127 S 
ATOM     81  O   UNL A   1      37.553  31.090  40.111  1.00  0.00    -0.237 OA
ATOM     82  O   UNL A   1      37.115  33.469  40.583  1.00  0.00    -0.237 OA
ATOM     83  O   UNL A   1      35.867  32.339  38.802  1.00  0.00    -0.744 OA
ENDBRANCH  77  80
ENDBRANCH  49  73
BRANCH  61  84
ATOM     84  C   UNL A   1      44.281  27.931  34.320  1.00  0.00     0.023 A 
ATOM     85  C   UNL A   1      44.128  26.728  35.036  1.00  0.00     0.012 A 
ATOM     86  C   UNL A   1      45.569  28.474  34.142  1.00  0.00     0.148 A 
ATOM     87  C   UNL A   1      45.239  26.087  35.582  1.00  0.00     0.002 A 
ATOM     88  C   UNL A   1      46.676  27.802  34.641  1.00  0.00     0.091 A 
ATOM     89  F   UNL A   1      45.687  29.628  33.468  1.00  0.00    -0.205 F 
ATOM     90  C   UNL A   1      46.512  26.614  35.372  1.00  0.00     0.022 A 
BRANCH  88  91
ATOM     91  S   UNL A   1      48.358  28.346  34.326  1.00  0.00     0.127 S 
ATOM     92  O   UNL A   1      48.327  29.717  34.834  1.00  0.00    -0.237 OA
ATOM     93  O   UNL A   1      49.141  27.413  35.135  1.00  0.00    -0.237 OA
ATOM     94  O   UNL A   1      48.562  28.222  32.889  1.00  0.00    -0.744 OA
ENDBRANCH  88  91
ENDBRANCH  61  84
ENDBRANCH  35  36
ENDBRANCH  27  30
ENDBRANCH  25  26
ENDBRANCH  24  25
ENDBRANCH  23  24
ENDBRANCH   1  23
TORSDOF 22
ENDMDL
