MODEL 1
REMARK VINA RESULT:     -11.8      0.000      0.000
REMARK SMILES O=C(NCCCCCCNC(=O)c1ccc2c(c1)[C@@H](C1CCOCC1)C(=O)N2)c1ccc(-c2c3nc(c(-c4cccc(S(=O)(=O)[O-])c4F)c4ccc([nH]4)c(-c4cccc(S(=O)(=O)[O-])c4F)c4nc(c(-c5cccc(S(=O)(=O)[O-])c5F)c5ccc2[nH]5)C=C4)C=C3)cc1
REMARK SMILES IDX 5 1 4 2 3 3 1 4 2 5 29 7 30 8 91 9 31 10 90 11 32 12 33 13
REMARK SMILES IDX 34 14 84 15 35 16 89 17 83 18 85 19 36 20 88 21 82 22 81 23
REMARK SMILES IDX 37 25 69 26 49 27 68 28 50 29 53 30 67 31 86 32 51 33 52 34
REMARK SMILES IDX 66 36 87 37 54 38 38 39 39 40 47 41 40 42 42 43 48 44 41 45
REMARK SMILES IDX 43 46 44 47 45 48 46 49 70 50 71 51 79 52 72 53 74 54 80 55
REMARK SMILES IDX 73 56 75 57 76 58 77 59 78 60 55 61 56 62 64 63 57 64 59 65
REMARK SMILES IDX 65 66 58 67 60 68 61 69 62 70 63 71 6 72 7 73 8 74 9 75
REMARK SMILES IDX 10 76 11 77 12 79 13 80 14 81 18 82 15 83 17 84 16 85 19 86
REMARK SMILES IDX 28 87 26 88 27 90 20 91 21 92 25 93 22 94 24 95 23 96
REMARK H PARENT 3 6 85 24 53 35 10 78 28 89
REMARK Flexibility Score: inf
ROOT
ATOM      1  C   UNL A   1      36.044  23.520  24.364  1.00  0.00     0.021 C 
ENDROOT
BRANCH   1   2
ATOM      2  C   UNL A   1      36.666  23.665  25.746  1.00  0.00     0.116 C 
BRANCH   2   3
ATOM      3  N   UNL A   1      37.684  22.660  26.003  1.00  0.00    -0.352 N 
ATOM      4  O   UNL A   1      39.760  21.891  26.432  1.00  0.00    -0.269 OA
ATOM      5  C   UNL A   1      38.973  22.832  26.452  1.00  0.00     0.251 C 
ATOM      6  H   UNL A   1      37.415  21.729  25.833  1.00  0.00     0.163 HD
BRANCH   5   7
ATOM      7  C   UNL A   1      39.403  24.164  26.930  1.00  0.00     0.039 A 
ATOM      8  C   UNL A   1      39.971  25.080  26.041  1.00  0.00     0.014 A 
ATOM      9  C   UNL A   1      39.249  24.494  28.277  1.00  0.00     0.014 A 
ATOM     10  C   UNL A   1      40.520  26.261  26.524  1.00  0.00     0.010 A 
ATOM     11  C   UNL A   1      39.712  25.728  28.744  1.00  0.00     0.010 A 
ATOM     12  C   UNL A   1      40.376  26.610  27.877  1.00  0.00    -0.014 A 
BRANCH  12  13
ATOM     13  C   UNL A   1      40.842  27.944  28.334  1.00  0.00     0.031 A 
ATOM     14  C   UNL A   1      42.300  28.314  28.328  1.00  0.00     0.074 A 
ATOM     15  C   UNL A   1      39.920  28.829  28.762  1.00  0.00     0.049 A 
ATOM     16  N   UNL A   1      42.862  29.438  28.691  1.00  0.00    -0.248 NA
ATOM     17  C   UNL A   1      43.252  27.294  27.863  1.00  0.00     0.031 C 
ATOM     18  C   UNL A   1      38.480  28.570  28.846  1.00  0.00     0.029 A 
ATOM     19  N   UNL A   1      40.049  30.118  29.211  1.00  0.00    -0.354 N 
ATOM     20  C   UNL A   1      44.229  29.254  28.535  1.00  0.00     0.074 A 
ATOM     21  C   UNL A   1      44.416  27.901  28.051  1.00  0.00     0.031 C 
ATOM     22  C   UNL A   1      37.857  29.668  29.289  1.00  0.00     0.029 A 
ATOM     23  C   UNL A   1      38.855  30.687  29.588  1.00  0.00     0.049 A 
ATOM     24  H   UNL A   1      40.911  30.590  29.259  1.00  0.00     0.167 HD
ATOM     25  C   UNL A   1      45.235  30.134  28.762  1.00  0.00     0.034 A 
ATOM     26  C   UNL A   1      38.590  31.885  30.142  1.00  0.00     0.034 A 
ATOM     27  C   UNL A   1      45.037  31.481  29.231  1.00  0.00     0.049 A 
ATOM     28  C   UNL A   1      39.726  32.833  30.395  1.00  0.00     0.074 A 
ATOM     29  C   UNL A   1      45.986  32.467  29.444  1.00  0.00     0.029 A 
ATOM     30  N   UNL A   1      43.811  32.030  29.579  1.00  0.00    -0.354 N 
ATOM     31  N   UNL A   1      41.001  32.679  30.131  1.00  0.00    -0.248 NA
ATOM     32  C   UNL A   1      39.384  34.127  30.998  1.00  0.00     0.031 C 
ATOM     33  C   UNL A   1      45.340  33.596  29.955  1.00  0.00     0.029 A 
ATOM     34  C   UNL A   1      43.981  33.334  30.020  1.00  0.00     0.049 A 
ATOM     35  H   UNL A   1      42.947  31.562  29.522  1.00  0.00     0.167 HD
ATOM     36  C   UNL A   1      41.611  33.870  30.505  1.00  0.00     0.074 A 
ATOM     37  C   UNL A   1      40.560  34.741  30.991  1.00  0.00     0.031 C 
ATOM     38  C   UNL A   1      42.923  34.205  30.461  1.00  0.00     0.034 A 
BRANCH  25  39
ATOM     39  C   UNL A   1      46.647  29.681  28.487  1.00  0.00     0.023 A 
ATOM     40  C   UNL A   1      47.237  29.948  27.234  1.00  0.00     0.012 A 
ATOM     41  C   UNL A   1      47.415  29.055  29.490  1.00  0.00     0.148 A 
ATOM     42  C   UNL A   1      48.555  29.571  26.973  1.00  0.00     0.002 A 
ATOM     43  C   UNL A   1      48.741  28.722  29.237  1.00  0.00     0.091 A 
ATOM     44  F   UNL A   1      46.834  28.794  30.670  1.00  0.00    -0.205 F 
ATOM     45  C   UNL A   1      49.308  28.968  27.976  1.00  0.00     0.022 A 
BRANCH  43  46
ATOM     46  S   UNL A   1      49.822  28.017  30.487  1.00  0.00     0.127 S 
ATOM     47  O   UNL A   1      51.104  27.988  29.782  1.00  0.00    -0.237 OA
ATOM     48  O   UNL A   1      49.738  29.007  31.560  1.00  0.00    -0.237 OA
ATOM     49  O   UNL A   1      49.262  26.713  30.814  1.00  0.00    -0.744 OA
ENDBRANCH  43  46
ENDBRANCH  25  39
BRANCH  26  50
ATOM     50  C   UNL A   1      37.185  32.257  30.466  1.00  0.00     0.023 A 
ATOM     51  C   UNL A   1      36.666  31.968  31.741  1.00  0.00     0.012 A 
ATOM     52  C   UNL A   1      36.374  32.926  29.528  1.00  0.00     0.148 A 
ATOM     53  C   UNL A   1      35.354  32.311  32.068  1.00  0.00     0.002 A 
ATOM     54  C   UNL A   1      35.090  33.319  29.879  1.00  0.00     0.091 A 
ATOM     55  F   UNL A   1      36.887  33.184  28.316  1.00  0.00    -0.205 F 
ATOM     56  C   UNL A   1      34.570  32.995  31.141  1.00  0.00     0.022 A 
BRANCH  54  57
ATOM     57  S   UNL A   1      34.060  34.321  28.802  1.00  0.00     0.127 S 
ATOM     58  O   UNL A   1      34.935  35.457  28.527  1.00  0.00    -0.237 OA
ATOM     59  O   UNL A   1      33.844  33.420  27.670  1.00  0.00    -0.237 OA
ATOM     60  O   UNL A   1      32.860  34.620  29.571  1.00  0.00    -0.744 OA
ENDBRANCH  54  57
ENDBRANCH  26  50
BRANCH  38  61
ATOM     61  C   UNL A   1      43.298  35.594  30.910  1.00  0.00     0.023 A 
ATOM     62  C   UNL A   1      43.634  35.835  32.258  1.00  0.00     0.012 A 
ATOM     63  C   UNL A   1      43.374  36.648  29.979  1.00  0.00     0.148 A 
ATOM     64  C   UNL A   1      44.003  37.112  32.677  1.00  0.00     0.002 A 
ATOM     65  C   UNL A   1      43.795  37.905  30.393  1.00  0.00     0.091 A 
ATOM     66  F   UNL A   1      43.031  36.402  28.706  1.00  0.00    -0.205 F 
ATOM     67  C   UNL A   1      44.096  38.142  31.744  1.00  0.00     0.022 A 
BRANCH  65  68
ATOM     68  S   UNL A   1      44.038  39.267  29.249  1.00  0.00     0.127 S 
ATOM     69  O   UNL A   1      42.705  39.408  28.666  1.00  0.00    -0.237 OA
ATOM     70  O   UNL A   1      44.432  40.354  30.144  1.00  0.00    -0.237 OA
ATOM     71  O   UNL A   1      45.079  38.836  28.324  1.00  0.00    -0.744 OA
ENDBRANCH  65  68
ENDBRANCH  38  61
ENDBRANCH  12  13
ENDBRANCH   5   7
ENDBRANCH   2   3
ENDBRANCH   1   2
BRANCH   1  72
ATOM     72  C   UNL A   1      34.540  23.249  24.368  1.00  0.00     0.002 C 
BRANCH  72  73
ATOM     73  C   UNL A   1      34.144  21.771  24.430  1.00  0.00     0.002 C 
BRANCH  73  74
ATOM     74  C   UNL A   1      33.457  21.328  25.725  1.00  0.00     0.021 C 
BRANCH  74  75
ATOM     75  C   UNL A   1      33.134  22.457  26.701  1.00  0.00     0.116 C 
BRANCH  75  76
ATOM     76  N   UNL A   1      31.771  22.372  27.201  1.00  0.00    -0.352 N 
ATOM     77  C   UNL A   1      30.671  23.112  26.851  1.00  0.00     0.251 C 
ATOM     78  H   UNL A   1      31.616  21.686  27.891  1.00  0.00     0.163 HD
ATOM     79  O   UNL A   1      29.635  23.042  27.502  1.00  0.00    -0.269 OA
BRANCH  77  80
ATOM     80  C   UNL A   1      30.748  24.028  25.695  1.00  0.00     0.040 A 
ATOM     81  C   UNL A   1      30.885  23.520  24.383  1.00  0.00     0.016 A 
ATOM     82  C   UNL A   1      30.688  25.407  25.938  1.00  0.00     0.020 A 
ATOM     83  C   UNL A   1      31.049  24.389  23.303  1.00  0.00     0.027 A 
ATOM     84  C   UNL A   1      30.856  26.255  24.858  1.00  0.00    -0.011 A 
ATOM     85  C   UNL A   1      31.045  25.740  23.574  1.00  0.00     0.045 A 
ATOM     86  C   UNL A   1      30.918  27.764  24.806  1.00  0.00     0.114 C 
ATOM     87  N   UNL A   1      31.243  26.773  22.676  1.00  0.00    -0.325 N 
ATOM     88  C   UNL A   1      31.196  28.011  23.304  1.00  0.00     0.232 C 
ATOM     89  H   UNL A   1      31.398  26.647  21.713  1.00  0.00     0.169 HD
ATOM     90  O   UNL A   1      31.309  29.087  22.738  1.00  0.00    -0.274 OA
BRANCH  86  91
ATOM     91  C   UNL A   1      31.933  28.380  25.787  1.00  0.00     0.010 C 
ATOM     92  C   UNL A   1      31.704  29.883  26.019  1.00  0.00     0.033 C 
ATOM     93  C   UNL A   1      33.408  28.157  25.413  1.00  0.00     0.033 C 
ATOM     94  C   UNL A   1      32.704  30.428  27.033  1.00  0.00     0.160 C 
ATOM     95  C   UNL A   1      34.316  28.782  26.468  1.00  0.00     0.160 C 
ATOM     96  O   UNL A   1      34.043  30.175  26.613  1.00  0.00    -0.381 OA
ENDBRANCH  86  91
ENDBRANCH  77  80
ENDBRANCH  75  76
ENDBRANCH  74  75
ENDBRANCH  73  74
ENDBRANCH  72  73
ENDBRANCH   1  72
TORSDOF 17
ENDMDL
MODEL 2
REMARK VINA RESULT:     -11.6      3.684      9.241
REMARK SMILES O=C(NCCCCCCNC(=O)c1ccc2c(c1)[C@@H](C1CCOCC1)C(=O)N2)c1ccc(-c2c3nc(c(-c4cccc(S(=O)(=O)[O-])c4F)c4ccc([nH]4)c(-c4cccc(S(=O)(=O)[O-])c4F)c4nc(c(-c5cccc(S(=O)(=O)[O-])c5F)c5ccc2[nH]5)C=C4)C=C3)cc1
REMARK SMILES IDX 5 1 4 2 3 3 1 4 2 5 29 7 30 8 91 9 31 10 90 11 32 12 33 13
REMARK SMILES IDX 34 14 84 15 35 16 89 17 83 18 85 19 36 20 88 21 82 22 81 23
REMARK SMILES IDX 37 25 69 26 49 27 68 28 50 29 53 30 67 31 86 32 51 33 52 34
REMARK SMILES IDX 66 36 87 37 54 38 38 39 39 40 47 41 40 42 42 43 48 44 41 45
REMARK SMILES IDX 43 46 44 47 45 48 46 49 70 50 71 51 79 52 72 53 74 54 80 55
REMARK SMILES IDX 73 56 75 57 76 58 77 59 78 60 55 61 56 62 64 63 57 64 59 65
REMARK SMILES IDX 65 66 58 67 60 68 61 69 62 70 63 71 6 72 7 73 8 74 9 75
REMARK SMILES IDX 10 76 11 77 12 79 13 80 14 81 18 82 15 83 17 84 16 85 19 86
REMARK SMILES IDX 28 87 26 88 27 90 20 91 21 92 25 93 22 94 24 95 23 96
REMARK H PARENT 3 6 85 24 53 35 10 78 28 89
REMARK Flexibility Score: inf
ROOT
ATOM      1  C   UNL A   1      38.247  19.740  24.951  1.00  0.00     0.021 C 
ENDROOT
BRANCH   1   2
ATOM      2  C   UNL A   1      39.184  19.933  26.134  1.00  0.00     0.116 C 
BRANCH   2   3
ATOM      3  N   UNL A   1      40.381  19.114  26.032  1.00  0.00    -0.352 N 
ATOM      4  O   UNL A   1      42.581  18.704  25.755  1.00  0.00    -0.269 OA
ATOM      5  C   UNL A   1      41.700  19.506  26.043  1.00  0.00     0.251 C 
ATOM      6  H   UNL A   1      40.227  18.146  25.943  1.00  0.00     0.163 HD
BRANCH   5   7
ATOM      7  C   UNL A   1      42.037  20.906  26.379  1.00  0.00     0.039 A 
ATOM      8  C   UNL A   1      42.096  21.876  25.375  1.00  0.00     0.014 A 
ATOM      9  C   UNL A   1      42.308  21.250  27.705  1.00  0.00     0.014 A 
ATOM     10  C   UNL A   1      42.570  23.147  25.671  1.00  0.00     0.010 A 
ATOM     11  C   UNL A   1      42.687  22.559  28.017  1.00  0.00     0.010 A 
ATOM     12  C   UNL A   1      42.849  23.512  26.998  1.00  0.00    -0.014 A 
BRANCH  12  13
ATOM     13  C   UNL A   1      43.212  24.919  27.302  1.00  0.00     0.031 A 
ATOM     14  C   UNL A   1      42.240  25.859  27.960  1.00  0.00     0.074 A 
ATOM     15  C   UNL A   1      44.448  25.344  26.971  1.00  0.00     0.049 A 
ATOM     16  N   UNL A   1      42.411  27.113  28.294  1.00  0.00    -0.248 NA
ATOM     17  C   UNL A   1      40.904  25.333  28.279  1.00  0.00     0.031 C 
ATOM     18  C   UNL A   1      45.464  24.531  26.297  1.00  0.00     0.029 A 
ATOM     19  N   UNL A   1      45.060  26.557  27.147  1.00  0.00    -0.354 N 
ATOM     20  C   UNL A   1      41.201  27.537  28.828  1.00  0.00     0.074 A 
ATOM     21  C   UNL A   1      40.297  26.408  28.765  1.00  0.00     0.031 C 
ATOM     22  C   UNL A   1      46.579  25.256  26.141  1.00  0.00     0.029 A 
ATOM     23  C   UNL A   1      46.338  26.603  26.639  1.00  0.00     0.049 A 
ATOM     24  H   UNL A   1      44.629  27.321  27.594  1.00  0.00     0.167 HD
ATOM     25  C   UNL A   1      40.878  28.753  29.334  1.00  0.00     0.034 A 
ATOM     26  C   UNL A   1      47.212  27.624  26.554  1.00  0.00     0.034 A 
ATOM     27  C   UNL A   1      41.789  29.866  29.403  1.00  0.00     0.049 A 
ATOM     28  C   UNL A   1      46.820  28.961  27.110  1.00  0.00     0.074 A 
ATOM     29  C   UNL A   1      41.573  31.122  29.944  1.00  0.00     0.029 A 
ATOM     30  N   UNL A   1      43.082  29.868  28.901  1.00  0.00    -0.354 N 
ATOM     31  N   UNL A   1      45.710  29.308  27.715  1.00  0.00    -0.248 NA
ATOM     32  C   UNL A   1      47.809  30.040  26.994  1.00  0.00     0.031 C 
ATOM     33  C   UNL A   1      42.721  31.894  29.735  1.00  0.00     0.029 A 
ATOM     34  C   UNL A   1      43.670  31.107  29.104  1.00  0.00     0.049 A 
ATOM     35  H   UNL A   1      43.518  29.102  28.463  1.00  0.00     0.167 HD
ATOM     36  C   UNL A   1      45.879  30.637  28.083  1.00  0.00     0.074 A 
ATOM     37  C   UNL A   1      47.208  31.022  27.653  1.00  0.00     0.031 C 
ATOM     38  C   UNL A   1      45.008  31.465  28.709  1.00  0.00     0.034 A 
BRANCH  25  39
ATOM     39  C   UNL A   1      39.484  28.944  29.877  1.00  0.00     0.023 A 
ATOM     40  C   UNL A   1      39.174  28.508  31.182  1.00  0.00     0.012 A 
ATOM     41  C   UNL A   1      38.500  29.619  29.126  1.00  0.00     0.148 A 
ATOM     42  C   UNL A   1      37.901  28.710  31.717  1.00  0.00     0.002 A 
ATOM     43  C   UNL A   1      37.248  29.856  29.682  1.00  0.00     0.091 A 
ATOM     44  F   UNL A   1      38.806  30.014  27.882  1.00  0.00    -0.205 F 
ATOM     45  C   UNL A   1      36.943  29.391  30.972  1.00  0.00     0.022 A 
BRANCH  43  46
ATOM     46  S   UNL A   1      35.970  30.796  28.838  1.00  0.00     0.127 S 
ATOM     47  O   UNL A   1      35.221  31.349  29.966  1.00  0.00    -0.237 OA
ATOM     48  O   UNL A   1      36.755  31.776  28.088  1.00  0.00    -0.237 OA
ATOM     49  O   UNL A   1      35.243  29.838  28.017  1.00  0.00    -0.744 OA
ENDBRANCH  43  46
ENDBRANCH  25  39
BRANCH  26  50
ATOM     50  C   UNL A   1      48.550  27.403  25.939  1.00  0.00     0.023 A 
ATOM     51  C   UNL A   1      49.621  26.969  26.742  1.00  0.00     0.012 A 
ATOM     52  C   UNL A   1      48.755  27.586  24.557  1.00  0.00     0.148 A 
ATOM     53  C   UNL A   1      50.882  26.752  26.187  1.00  0.00     0.002 A 
ATOM     54  C   UNL A   1      49.996  27.310  24.000  1.00  0.00     0.091 A 
ATOM     55  F   UNL A   1      47.723  28.007  23.813  1.00  0.00    -0.205 F 
ATOM     56  C   UNL A   1      51.066  26.911  24.815  1.00  0.00     0.022 A 
BRANCH  54  57
ATOM     57  S   UNL A   1      50.289  27.356  22.229  1.00  0.00     0.127 S 
ATOM     58  O   UNL A   1      51.659  26.860  22.141  1.00  0.00    -0.237 OA
ATOM     59  O   UNL A   1      49.266  26.435  21.732  1.00  0.00    -0.237 OA
ATOM     60  O   UNL A   1      50.092  28.744  21.832  1.00  0.00    -0.744 OA
ENDBRANCH  54  57
ENDBRANCH  26  50
BRANCH  38  61
ATOM     61  C   UNL A   1      45.478  32.865  29.011  1.00  0.00     0.023 A 
ATOM     62  C   UNL A   1      46.225  33.124  30.177  1.00  0.00     0.012 A 
ATOM     63  C   UNL A   1      45.226  33.913  28.103  1.00  0.00     0.148 A 
ATOM     64  C   UNL A   1      46.682  34.412  30.453  1.00  0.00     0.002 A 
ATOM     65  C   UNL A   1      45.731  35.180  28.357  1.00  0.00     0.091 A 
ATOM     66  F   UNL A   1      44.495  33.648  27.010  1.00  0.00    -0.205 F 
ATOM     67  C   UNL A   1      46.446  35.436  29.538  1.00  0.00     0.022 A 
BRANCH  65  68
ATOM     68  S   UNL A   1      45.562  36.537  27.192  1.00  0.00     0.127 S 
ATOM     69  O   UNL A   1      46.247  37.620  27.896  1.00  0.00    -0.237 OA
ATOM     70  O   UNL A   1      46.271  36.026  26.020  1.00  0.00    -0.237 OA
ATOM     71  O   UNL A   1      44.131  36.728  27.000  1.00  0.00    -0.744 OA
ENDBRANCH  65  68
ENDBRANCH  38  61
ENDBRANCH  12  13
ENDBRANCH   5   7
ENDBRANCH   2   3
ENDBRANCH   1   2
BRANCH   1  72
ATOM     72  C   UNL A   1      37.426  20.976  24.582  1.00  0.00     0.002 C 
BRANCH  72  73
ATOM     73  C   UNL A   1      37.510  22.135  25.578  1.00  0.00     0.002 C 
BRANCH  73  74
ATOM     74  C   UNL A   1      37.122  23.509  25.023  1.00  0.00     0.021 C 
BRANCH  74  75
ATOM     75  C   UNL A   1      35.789  24.055  25.530  1.00  0.00     0.116 C 
BRANCH  75  76
ATOM     76  N   UNL A   1      35.367  23.409  26.761  1.00  0.00    -0.352 N 
ATOM     77  C   UNL A   1      34.371  22.487  26.960  1.00  0.00     0.251 C 
ATOM     78  H   UNL A   1      35.867  23.670  27.569  1.00  0.00     0.163 HD
ATOM     79  O   UNL A   1      34.019  22.179  28.094  1.00  0.00    -0.269 OA
BRANCH  77  80
ATOM     80  C   UNL A   1      33.694  21.884  25.795  1.00  0.00     0.040 A 
ATOM     81  C   UNL A   1      32.602  22.536  25.180  1.00  0.00     0.016 A 
ATOM     82  C   UNL A   1      34.159  20.648  25.326  1.00  0.00     0.020 A 
ATOM     83  C   UNL A   1      31.906  21.921  24.138  1.00  0.00     0.027 A 
ATOM     84  C   UNL A   1      33.457  20.048  24.296  1.00  0.00    -0.011 A 
ATOM     85  C   UNL A   1      32.347  20.680  23.733  1.00  0.00     0.045 A 
ATOM     86  C   UNL A   1      33.659  18.705  23.633  1.00  0.00     0.114 C 
ATOM     87  N   UNL A   1      31.783  19.868  22.765  1.00  0.00    -0.325 N 
ATOM     88  C   UNL A   1      32.477  18.673  22.634  1.00  0.00     0.232 C 
ATOM     89  H   UNL A   1      30.989  20.107  22.236  1.00  0.00     0.169 HD
ATOM     90  O   UNL A   1      32.209  17.792  21.832  1.00  0.00    -0.274 OA
BRANCH  86  91
ATOM     91  C   UNL A   1      33.734  17.527  24.623  1.00  0.00     0.010 C 
ATOM     92  C   UNL A   1      34.879  16.551  24.303  1.00  0.00     0.033 C 
ATOM     93  C   UNL A   1      32.429  16.727  24.774  1.00  0.00     0.033 C 
ATOM     94  C   UNL A   1      34.937  15.435  25.340  1.00  0.00     0.160 C 
ATOM     95  C   UNL A   1      32.615  15.610  25.796  1.00  0.00     0.160 C 
ATOM     96  O   UNL A   1      33.688  14.749  25.419  1.00  0.00    -0.381 OA
ENDBRANCH  86  91
ENDBRANCH  77  80
ENDBRANCH  75  76
ENDBRANCH  74  75
ENDBRANCH  73  74
ENDBRANCH  72  73
ENDBRANCH   1  72
TORSDOF 17
ENDMDL
MODEL 3
REMARK VINA RESULT:     -11.6      3.057      8.131
REMARK SMILES O=C(NCCCCCCNC(=O)c1ccc2c(c1)[C@@H](C1CCOCC1)C(=O)N2)c1ccc(-c2c3nc(c(-c4cccc(S(=O)(=O)[O-])c4F)c4ccc([nH]4)c(-c4cccc(S(=O)(=O)[O-])c4F)c4nc(c(-c5cccc(S(=O)(=O)[O-])c5F)c5ccc2[nH]5)C=C4)C=C3)cc1
REMARK SMILES IDX 5 1 4 2 3 3 1 4 2 5 29 7 30 8 91 9 31 10 90 11 32 12 33 13
REMARK SMILES IDX 34 14 84 15 35 16 89 17 83 18 85 19 36 20 88 21 82 22 81 23
REMARK SMILES IDX 37 25 69 26 49 27 68 28 50 29 53 30 67 31 86 32 51 33 52 34
REMARK SMILES IDX 66 36 87 37 54 38 38 39 39 40 47 41 40 42 42 43 48 44 41 45
REMARK SMILES IDX 43 46 44 47 45 48 46 49 70 50 71 51 79 52 72 53 74 54 80 55
REMARK SMILES IDX 73 56 75 57 76 58 77 59 78 60 55 61 56 62 64 63 57 64 59 65
REMARK SMILES IDX 65 66 58 67 60 68 61 69 62 70 63 71 6 72 7 73 8 74 9 75
REMARK SMILES IDX 10 76 11 77 12 79 13 80 14 81 18 82 15 83 17 84 16 85 19 86
REMARK SMILES IDX 28 87 26 88 27 90 20 91 21 92 25 93 22 94 24 95 23 96
REMARK H PARENT 3 6 85 24 53 35 10 78 28 89
REMARK Flexibility Score: inf
ROOT
ATOM      1  C   UNL A   1      37.885  19.816  24.872  1.00  0.00     0.021 C 
ENDROOT
BRANCH   1   2
ATOM      2  C   UNL A   1      39.013  20.480  25.649  1.00  0.00     0.116 C 
BRANCH   2   3
ATOM      3  N   UNL A   1      40.034  19.532  26.062  1.00  0.00    -0.352 N 
ATOM      4  O   UNL A   1      42.113  18.844  26.598  1.00  0.00    -0.269 OA
ATOM      5  C   UNL A   1      41.326  19.775  26.466  1.00  0.00     0.251 C 
ATOM      6  H   UNL A   1      39.763  18.585  26.053  1.00  0.00     0.163 HD
BRANCH   5   7
ATOM      7  C   UNL A   1      41.759  21.168  26.711  1.00  0.00     0.039 A 
ATOM      8  C   UNL A   1      42.161  21.564  27.989  1.00  0.00     0.014 A 
ATOM      9  C   UNL A   1      41.751  22.086  25.660  1.00  0.00     0.014 A 
ATOM     10  C   UNL A   1      42.409  22.906  28.249  1.00  0.00     0.010 A 
ATOM     11  C   UNL A   1      42.099  23.418  25.902  1.00  0.00     0.010 A 
ATOM     12  C   UNL A   1      42.404  23.845  27.204  1.00  0.00    -0.014 A 
BRANCH  12  13
ATOM     13  C   UNL A   1      42.817  25.244  27.486  1.00  0.00     0.031 A 
ATOM     14  C   UNL A   1      41.901  26.210  28.185  1.00  0.00     0.074 A 
ATOM     15  C   UNL A   1      44.046  25.637  27.094  1.00  0.00     0.049 A 
ATOM     16  N   UNL A   1      42.119  27.459  28.506  1.00  0.00    -0.248 NA
ATOM     17  C   UNL A   1      40.570  25.718  28.570  1.00  0.00     0.031 C 
ATOM     18  C   UNL A   1      45.008  24.797  26.376  1.00  0.00     0.029 A 
ATOM     19  N   UNL A   1      44.696  26.835  27.237  1.00  0.00    -0.354 N 
ATOM     20  C   UNL A   1      40.947  27.915  29.096  1.00  0.00     0.074 A 
ATOM     21  C   UNL A   1      40.013  26.809  29.080  1.00  0.00     0.031 C 
ATOM     22  C   UNL A   1      46.132  25.493  26.164  1.00  0.00     0.029 A 
ATOM     23  C   UNL A   1      45.948  26.847  26.668  1.00  0.00     0.049 A 
ATOM     24  H   UNL A   1      44.306  27.610  27.700  1.00  0.00     0.167 HD
ATOM     25  C   UNL A   1      40.679  29.140  29.613  1.00  0.00     0.034 A 
ATOM     26  C   UNL A   1      46.843  27.845  26.538  1.00  0.00     0.034 A 
ATOM     27  C   UNL A   1      41.620  30.230  29.634  1.00  0.00     0.049 A 
ATOM     28  C   UNL A   1      46.511  29.194  27.107  1.00  0.00     0.074 A 
ATOM     29  C   UNL A   1      41.461  31.492  30.180  1.00  0.00     0.029 A 
ATOM     30  N   UNL A   1      42.887  30.198  29.070  1.00  0.00    -0.354 N 
ATOM     31  N   UNL A   1      45.441  29.570  27.763  1.00  0.00    -0.248 NA
ATOM     32  C   UNL A   1      47.520  30.247  26.940  1.00  0.00     0.031 C 
ATOM     33  C   UNL A   1      42.616  32.234  29.913  1.00  0.00     0.029 A 
ATOM     34  C   UNL A   1      43.515  31.422  29.241  1.00  0.00     0.049 A 
ATOM     35  H   UNL A   1      43.282  29.420  28.615  1.00  0.00     0.167 HD
ATOM     36  C   UNL A   1      45.660  30.895  28.117  1.00  0.00     0.074 A 
ATOM     37  C   UNL A   1      46.976  31.245  27.623  1.00  0.00     0.031 C 
ATOM     38  C   UNL A   1      44.841  31.746  28.781  1.00  0.00     0.034 A 
BRANCH  25  39
ATOM     39  C   UNL A   1      39.318  29.367  30.221  1.00  0.00     0.023 A 
ATOM     40  C   UNL A   1      39.012  28.816  31.482  1.00  0.00     0.012 A 
ATOM     41  C   UNL A   1      38.366  30.186  29.580  1.00  0.00     0.148 A 
ATOM     42  C   UNL A   1      37.772  29.046  32.079  1.00  0.00     0.002 A 
ATOM     43  C   UNL A   1      37.150  30.448  30.201  1.00  0.00     0.091 A 
ATOM     44  F   UNL A   1      38.665  30.691  28.374  1.00  0.00    -0.205 F 
ATOM     45  C   UNL A   1      36.847  29.869  31.444  1.00  0.00     0.022 A 
BRANCH  43  46
ATOM     46  S   UNL A   1      35.921  31.560  29.506  1.00  0.00     0.127 S 
ATOM     47  O   UNL A   1      36.747  32.701  29.113  1.00  0.00    -0.237 OA
ATOM     48  O   UNL A   1      35.395  30.775  28.389  1.00  0.00    -0.237 OA
ATOM     49  O   UNL A   1      34.965  31.820  30.572  1.00  0.00    -0.744 OA
ENDBRANCH  43  46
ENDBRANCH  25  39
BRANCH  26  50
ATOM     50  C   UNL A   1      48.144  27.589  25.861  1.00  0.00     0.023 A 
ATOM     51  C   UNL A   1      49.267  27.225  26.627  1.00  0.00     0.012 A 
ATOM     52  C   UNL A   1      48.264  27.671  24.459  1.00  0.00     0.148 A 
ATOM     53  C   UNL A   1      50.495  26.976  26.013  1.00  0.00     0.002 A 
ATOM     54  C   UNL A   1      49.472  27.363  23.849  1.00  0.00     0.091 A 
ATOM     55  F   UNL A   1      47.184  28.028  23.750  1.00  0.00    -0.205 F 
ATOM     56  C   UNL A   1      50.594  27.035  24.625  1.00  0.00     0.022 A 
BRANCH  54  57
ATOM     57  S   UNL A   1      49.657  27.280  22.065  1.00  0.00     0.127 S 
ATOM     58  O   UNL A   1      51.062  26.906  21.929  1.00  0.00    -0.237 OA
ATOM     59  O   UNL A   1      48.702  26.229  21.714  1.00  0.00    -0.237 OA
ATOM     60  O   UNL A   1      49.305  28.604  21.570  1.00  0.00    -0.744 OA
ENDBRANCH  54  57
ENDBRANCH  26  50
BRANCH  38  61
ATOM     61  C   UNL A   1      45.359  33.134  29.055  1.00  0.00     0.023 A 
ATOM     62  C   UNL A   1      46.097  33.396  30.227  1.00  0.00     0.012 A 
ATOM     63  C   UNL A   1      45.162  34.167  28.116  1.00  0.00     0.148 A 
ATOM     64  C   UNL A   1      46.599  34.672  30.477  1.00  0.00     0.002 A 
ATOM     65  C   UNL A   1      45.712  35.421  28.347  1.00  0.00     0.091 A 
ATOM     66  F   UNL A   1      44.440  33.902  27.018  1.00  0.00    -0.205 F 
ATOM     67  C   UNL A   1      46.417  35.680  29.533  1.00  0.00     0.022 A 
BRANCH  65  68
ATOM     68  S   UNL A   1      45.613  36.752  27.145  1.00  0.00     0.127 S 
ATOM     69  O   UNL A   1      46.350  37.819  27.821  1.00  0.00    -0.237 OA
ATOM     70  O   UNL A   1      46.299  36.174  25.990  1.00  0.00    -0.237 OA
ATOM     71  O   UNL A   1      44.194  37.009  26.943  1.00  0.00    -0.744 OA
ENDBRANCH  65  68
ENDBRANCH  38  61
ENDBRANCH  12  13
ENDBRANCH   5   7
ENDBRANCH   2   3
ENDBRANCH   1   2
BRANCH   1  72
ATOM     72  C   UNL A   1      36.527  20.504  25.008  1.00  0.00     0.002 C 
BRANCH  72  73
ATOM     73  C   UNL A   1      36.413  21.863  24.312  1.00  0.00     0.002 C 
BRANCH  73  74
ATOM     74  C   UNL A   1      36.799  23.074  25.167  1.00  0.00     0.021 C 
BRANCH  74  75
ATOM     75  C   UNL A   1      35.628  23.788  25.838  1.00  0.00     0.116 C 
BRANCH  75  76
ATOM     76  N   UNL A   1      35.043  22.993  26.906  1.00  0.00    -0.352 N 
ATOM     77  C   UNL A   1      33.723  22.778  27.204  1.00  0.00     0.251 C 
ATOM     78  H   UNL A   1      35.688  22.546  27.502  1.00  0.00     0.163 HD
ATOM     79  O   UNL A   1      33.397  22.232  28.252  1.00  0.00    -0.269 OA
BRANCH  77  80
ATOM     80  C   UNL A   1      32.680  23.238  26.264  1.00  0.00     0.040 A 
ATOM     81  C   UNL A   1      32.338  22.463  25.133  1.00  0.00     0.016 A 
ATOM     82  C   UNL A   1      32.050  24.463  26.523  1.00  0.00     0.020 A 
ATOM     83  C   UNL A   1      31.419  22.943  24.199  1.00  0.00     0.027 A 
ATOM     84  C   UNL A   1      31.144  24.927  25.586  1.00  0.00    -0.011 A 
ATOM     85  C   UNL A   1      30.855  24.176  24.446  1.00  0.00     0.045 A 
ATOM     86  C   UNL A   1      30.370  26.224  25.541  1.00  0.00     0.114 C 
ATOM     87  N   UNL A   1      29.970  24.866  23.638  1.00  0.00    -0.325 N 
ATOM     88  C   UNL A   1      29.627  26.093  24.189  1.00  0.00     0.232 C 
ATOM     89  H   UNL A   1      29.626  24.530  22.780  1.00  0.00     0.169 HD
ATOM     90  O   UNL A   1      28.839  26.887  23.697  1.00  0.00    -0.274 OA
BRANCH  86  91
ATOM     91  C   UNL A   1      31.248  27.479  25.706  1.00  0.00     0.010 C 
ATOM     92  C   UNL A   1      32.541  27.417  24.877  1.00  0.00     0.033 C 
ATOM     93  C   UNL A   1      31.609  27.826  27.161  1.00  0.00     0.033 C 
ATOM     94  C   UNL A   1      33.345  28.703  25.041  1.00  0.00     0.160 C 
ATOM     95  C   UNL A   1      32.451  29.098  27.202  1.00  0.00     0.160 C 
ATOM     96  O   UNL A   1      33.632  28.951  26.416  1.00  0.00    -0.381 OA
ENDBRANCH  86  91
ENDBRANCH  77  80
ENDBRANCH  75  76
ENDBRANCH  74  75
ENDBRANCH  73  74
ENDBRANCH  72  73
ENDBRANCH   1  72
TORSDOF 17
ENDMDL
