MODEL 1
REMARK VINA RESULT:     -10.8      0.000      0.000
REMARK SMILES O=C(NCCCCCCNC(=O)[C@H](CO)NC(=O)[C@H](CS)NC(=O)[C@H](Cc1c[nH]c2ccccc12)NC(=O)c1ccc(F)cc1)c1ccc(-c2c3nc(c(-c4cccc(S(=O)(=O)[O-])c4F)c4ccc([nH]4)c(-c4cccc(S(=O)(=O)[O-])c4F)c4nc(c(-c5cccc(S(=O)(=O)[O-])c5F)c5ccc2[nH]5)C=C4)C=C3)cc1
REMARK SMILES IDX 8 1 7 2 6 3 5 4 4 5 3 6 1 7 2 8 46 10 47 11 108 12 48 13
REMARK SMILES IDX 107 14 49 15 50 16 51 17 101 18 52 19 106 20 100 21 102 22
REMARK SMILES IDX 53 23 105 24 99 25 98 26 54 28 86 29 66 30 85 31 67 32 70 33
REMARK SMILES IDX 84 34 103 35 68 36 69 37 83 39 104 40 71 41 55 42 56 43
REMARK SMILES IDX 64 44 57 45 59 46 65 47 58 48 60 49 61 50 62 51 63 52 87 53
REMARK SMILES IDX 88 54 96 55 89 56 91 57 97 58 90 59 92 60 93 61 94 62 95 63
REMARK SMILES IDX 72 64 73 65 81 66 74 67 76 68 82 69 75 70 77 71 78 72 79 73
REMARK SMILES IDX 80 74 9 75 10 76 11 77 12 79 13 80 16 81 17 82 18 84 19 85
REMARK SMILES IDX 22 86 23 87 24 89 25 90 36 91 37 92 38 94 39 95 40 96 45 97
REMARK SMILES IDX 41 98 44 99 42 100 43 101 26 102 27 103 28 104 35 105 29 106
REMARK SMILES IDX 30 107 34 108 31 110 33 111 32 112 20 113 21 114 14 116
REMARK SMILES IDX 15 117
REMARK H PARENT 3 9 102 27 70 38 10 78 16 83 22 88 36 93 29 109 21 115 15 118
REMARK Flexibility Score: inf
ROOT
ATOM      1  C   UNL A   1      38.165  24.096  26.665  1.00  0.00     0.021 C 
ENDROOT
BRANCH   1   2
ATOM      2  C   UNL A   1      39.576  23.622  26.308  1.00  0.00     0.002 C 
BRANCH   2   3
ATOM      3  C   UNL A   1      40.150  22.506  27.185  1.00  0.00     0.002 C 
BRANCH   3   4
ATOM      4  C   UNL A   1      40.125  21.102  26.581  1.00  0.00     0.021 C 
BRANCH   4   5
ATOM      5  C   UNL A   1      41.077  20.098  27.219  1.00  0.00     0.116 C 
BRANCH   5   6
ATOM      6  N   UNL A   1      41.961  19.466  26.255  1.00  0.00    -0.352 N 
ATOM      7  O   UNL A   1      43.564  19.357  24.677  1.00  0.00    -0.269 OA
ATOM      8  C   UNL A   1      43.011  20.010  25.552  1.00  0.00     0.251 C 
ATOM      9  H   UNL A   1      41.784  18.514  26.081  1.00  0.00     0.163 HD
BRANCH   8  10
ATOM     10  C   UNL A   1      43.438  21.399  25.840  1.00  0.00     0.039 A 
ATOM     11  C   UNL A   1      44.051  21.718  27.053  1.00  0.00     0.014 A 
ATOM     12  C   UNL A   1      43.200  22.394  24.890  1.00  0.00     0.014 A 
ATOM     13  C   UNL A   1      44.278  23.050  27.379  1.00  0.00     0.010 A 
ATOM     14  C   UNL A   1      43.514  23.725  25.185  1.00  0.00     0.010 A 
ATOM     15  C   UNL A   1      44.018  24.070  26.449  1.00  0.00    -0.014 A 
BRANCH  15  16
ATOM     16  C   UNL A   1      44.334  25.478  26.809  1.00  0.00     0.031 A 
ATOM     17  C   UNL A   1      43.300  26.378  27.430  1.00  0.00     0.074 A 
ATOM     18  C   UNL A   1      45.583  25.934  26.589  1.00  0.00     0.049 A 
ATOM     19  N   UNL A   1      43.437  27.610  27.850  1.00  0.00    -0.248 NA
ATOM     20  C   UNL A   1      41.942  25.838  27.603  1.00  0.00     0.031 C 
ATOM     21  C   UNL A   1      46.655  25.165  25.951  1.00  0.00     0.029 A 
ATOM     22  N   UNL A   1      46.169  27.139  26.882  1.00  0.00    -0.354 N 
ATOM     23  C   UNL A   1      42.182  28.005  28.298  1.00  0.00     0.074 A 
ATOM     24  C   UNL A   1      41.290  26.885  28.094  1.00  0.00     0.031 C 
ATOM     25  C   UNL A   1      47.775  25.901  25.936  1.00  0.00     0.029 A 
ATOM     26  C   UNL A   1      47.492  27.210  26.512  1.00  0.00     0.049 A 
ATOM     27  H   UNL A   1      45.689  27.882  27.315  1.00  0.00     0.167 HD
ATOM     28  C   UNL A   1      41.815  29.187  28.846  1.00  0.00     0.034 A 
ATOM     29  C   UNL A   1      48.382  28.217  26.615  1.00  0.00     0.034 A 
ATOM     30  C   UNL A   1      42.718  30.279  29.094  1.00  0.00     0.049 A 
ATOM     31  C   UNL A   1      47.950  29.505  27.255  1.00  0.00     0.074 A 
ATOM     32  C   UNL A   1      42.451  31.487  29.715  1.00  0.00     0.029 A 
ATOM     33  N   UNL A   1      44.056  30.302  28.733  1.00  0.00    -0.354 N 
ATOM     34  N   UNL A   1      46.792  29.808  27.790  1.00  0.00    -0.248 NA
ATOM     35  C   UNL A   1      48.947  30.583  27.325  1.00  0.00     0.031 C 
ATOM     36  C   UNL A   1      43.623  32.247  29.713  1.00  0.00     0.029 A 
ATOM     37  C   UNL A   1      44.625  31.507  29.108  1.00  0.00     0.049 A 
ATOM     38  H   UNL A   1      44.531  29.569  28.278  1.00  0.00     0.167 HD
ATOM     39  C   UNL A   1      46.923  31.105  28.271  1.00  0.00     0.074 A 
ATOM     40  C   UNL A   1      48.284  31.519  27.994  1.00  0.00     0.031 C 
ATOM     41  C   UNL A   1      45.993  31.888  28.868  1.00  0.00     0.034 A 
BRANCH  28  42
ATOM     42  C   UNL A   1      40.383  29.363  29.281  1.00  0.00     0.023 A 
ATOM     43  C   UNL A   1      39.394  29.613  28.309  1.00  0.00     0.012 A 
ATOM     44  C   UNL A   1      40.000  29.149  30.620  1.00  0.00     0.148 A 
ATOM     45  C   UNL A   1      38.046  29.659  28.665  1.00  0.00     0.002 A 
ATOM     46  C   UNL A   1      38.652  29.159  30.960  1.00  0.00     0.091 A 
ATOM     47  F   UNL A   1      40.959  28.926  31.530  1.00  0.00    -0.205 F 
ATOM     48  C   UNL A   1      37.675  29.419  29.986  1.00  0.00     0.022 A 
BRANCH  46  49
ATOM     49  S   UNL A   1      38.062  28.783  32.616  1.00  0.00     0.127 S 
ATOM     50  O   UNL A   1      36.675  29.242  32.544  1.00  0.00    -0.237 OA
ATOM     51  O   UNL A   1      38.222  27.330  32.675  1.00  0.00    -0.237 OA
ATOM     52  O   UNL A   1      38.916  29.530  33.528  1.00  0.00    -0.744 OA
ENDBRANCH  46  49
ENDBRANCH  28  42
BRANCH  29  53
ATOM     53  C   UNL A   1      49.780  28.010  26.145  1.00  0.00     0.023 A 
ATOM     54  C   UNL A   1      50.081  28.167  24.780  1.00  0.00     0.012 A 
ATOM     55  C   UNL A   1      50.823  27.739  27.053  1.00  0.00     0.148 A 
ATOM     56  C   UNL A   1      51.395  28.047  24.325  1.00  0.00     0.002 A 
ATOM     57  C   UNL A   1      52.136  27.685  26.603  1.00  0.00     0.091 A 
ATOM     58  F   UNL A   1      50.513  27.572  28.347  1.00  0.00    -0.205 F 
ATOM     59  C   UNL A   1      52.424  27.823  25.237  1.00  0.00     0.022 A 
BRANCH  57  60
ATOM     60  S   UNL A   1      53.527  27.564  27.733  1.00  0.00     0.127 S 
ATOM     61  O   UNL A   1      53.253  26.301  28.413  1.00  0.00    -0.237 OA
ATOM     62  O   UNL A   1      54.666  27.534  26.813  1.00  0.00    -0.237 OA
ATOM     63  O   UNL A   1      53.461  28.762  28.559  1.00  0.00    -0.744 OA
ENDBRANCH  57  60
ENDBRANCH  29  53
BRANCH  41  64
ATOM     64  C   UNL A   1      46.397  33.280  29.272  1.00  0.00     0.023 A 
ATOM     65  C   UNL A   1      47.031  33.481  30.514  1.00  0.00     0.012 A 
ATOM     66  C   UNL A   1      46.265  34.359  28.376  1.00  0.00     0.148 A 
ATOM     67  C   UNL A   1      47.516  34.740  30.864  1.00  0.00     0.002 A 
ATOM     68  C   UNL A   1      46.791  35.600  28.712  1.00  0.00     0.091 A 
ATOM     69  F   UNL A   1      45.645  34.145  27.207  1.00  0.00    -0.205 F 
ATOM     70  C   UNL A   1      47.410  35.794  29.959  1.00  0.00     0.022 A 
BRANCH  68  71
ATOM     71  S   UNL A   1      46.790  36.990  27.575  1.00  0.00     0.127 S 
ATOM     72  O   UNL A   1      47.479  36.427  26.416  1.00  0.00    -0.237 OA
ATOM     73  O   UNL A   1      45.359  37.228  27.379  1.00  0.00    -0.237 OA
ATOM     74  O   UNL A   1      47.496  38.068  28.254  1.00  0.00    -0.744 OA
ENDBRANCH  68  71
ENDBRANCH  41  64
ENDBRANCH  15  16
ENDBRANCH   8  10
ENDBRANCH   5   6
ENDBRANCH   4   5
ENDBRANCH   3   4
ENDBRANCH   2   3
ENDBRANCH   1   2
BRANCH   1  75
ATOM     75  C   UNL A   1      37.051  23.535  25.790  1.00  0.00     0.116 C 
BRANCH  75  76
ATOM     76  N   UNL A   1      37.134  22.092  25.639  1.00  0.00    -0.354 N 
ATOM     77  C   UNL A   1      36.127  21.196  25.418  1.00  0.00     0.244 C 
ATOM     78  H   UNL A   1      38.039  21.710  25.704  1.00  0.00     0.163 HD
ATOM     79  O   UNL A   1      36.424  20.020  25.189  1.00  0.00    -0.273 OA
BRANCH  77  80
ATOM     80  C   UNL A   1      34.664  21.638  25.575  1.00  0.00     0.197 C 
BRANCH  80  81
ATOM     81  N   UNL A   1      33.788  20.603  25.030  1.00  0.00    -0.340 N 
ATOM     82  C   UNL A   1      32.486  20.592  24.659  1.00  0.00     0.244 C 
ATOM     83  H   UNL A   1      34.237  19.736  24.909  1.00  0.00     0.164 HD
ATOM     84  O   UNL A   1      32.076  19.525  24.184  1.00  0.00    -0.273 OA
BRANCH  82  85
ATOM     85  C   UNL A   1      31.555  21.832  24.629  1.00  0.00     0.181 C 
BRANCH  85  86
ATOM     86  N   UNL A   1      30.859  22.259  25.849  1.00  0.00    -0.342 N 
ATOM     87  C   UNL A   1      30.385  23.415  26.380  1.00  0.00     0.243 C 
ATOM     88  H   UNL A   1      30.689  21.497  26.448  1.00  0.00     0.164 HD
ATOM     89  O   UNL A   1      29.905  23.255  27.510  1.00  0.00    -0.273 OA
BRANCH  87  90
ATOM     90  C   UNL A   1      30.575  24.848  25.782  1.00  0.00     0.176 C 
BRANCH  90  91
ATOM     91  N   UNL A   1      29.428  25.366  25.031  1.00  0.00    -0.340 N 
ATOM     92  C   UNL A   1      29.317  26.385  24.124  1.00  0.00     0.251 C 
ATOM     93  H   UNL A   1      28.583  24.895  25.212  1.00  0.00     0.164 HD
ATOM     94  O   UNL A   1      28.188  26.693  23.744  1.00  0.00    -0.269 OA
BRANCH  92  95
ATOM     95  C   UNL A   1      30.488  27.108  23.562  1.00  0.00     0.040 A 
ATOM     96  C   UNL A   1      30.719  28.477  23.746  1.00  0.00     0.017 A 
ATOM     97  C   UNL A   1      31.461  26.335  22.909  1.00  0.00     0.017 A 
ATOM     98  C   UNL A   1      31.881  29.072  23.248  1.00  0.00     0.040 A 
ATOM     99  C   UNL A   1      32.626  26.929  22.420  1.00  0.00     0.040 A 
ATOM    100  C   UNL A   1      32.822  28.293  22.590  1.00  0.00     0.123 A 
ATOM    101  F   UNL A   1      33.945  28.862  22.134  1.00  0.00    -0.207 F 
ENDBRANCH  92  95
ENDBRANCH  90  91
BRANCH  90 102
ATOM    102  C   UNL A   1      31.047  25.955  26.761  1.00  0.00     0.072 C 
BRANCH 102 103
ATOM    103  C   UNL A   1      32.364  26.598  26.498  1.00  0.00    -0.020 A 
ATOM    104  C   UNL A   1      33.511  25.998  26.015  1.00  0.00     0.087 A 
ATOM    105  C   UNL A   1      32.674  27.980  26.707  1.00  0.00     0.003 A 
ATOM    106  N   UNL A   1      34.508  26.940  25.991  1.00  0.00    -0.361 N 
ATOM    107  C   UNL A   1      34.026  28.154  26.418  1.00  0.00     0.046 A 
ATOM    108  C   UNL A   1      31.926  29.090  27.148  1.00  0.00     0.010 A 
ATOM    109  H   UNL A   1      35.436  26.769  25.709  1.00  0.00     0.166 HD
ATOM    110  C   UNL A   1      34.680  29.382  26.583  1.00  0.00     0.026 A 
ATOM    111  C   UNL A   1      32.560  30.325  27.301  1.00  0.00     0.001 A 
ATOM    112  C   UNL A   1      33.920  30.463  27.036  1.00  0.00     0.002 A 
ENDBRANCH 102 103
ENDBRANCH  90 102
ENDBRANCH  87  90
ENDBRANCH  85  86
BRANCH  85 113
ATOM    113  C   UNL A   1      32.335  23.008  23.998  1.00  0.00     0.101 C 
BRANCH 113 114
ATOM    114  S   UNL A   1      32.848  22.725  22.267  1.00  0.00    -0.177 SA
ATOM    115  H   UNL A   1      32.608  23.846  21.535  1.00  0.00     0.102 HD
ENDBRANCH 113 114
ENDBRANCH  85 113
ENDBRANCH  82  85
ENDBRANCH  80  81
BRANCH  80 116
ATOM    116  C   UNL A   1      34.408  21.845  27.072  1.00  0.00     0.191 C 
BRANCH 116 117
ATOM    117  O   UNL A   1      33.762  20.720  27.661  1.00  0.00    -0.394 OA
ATOM    118  H   UNL A   1      34.295  19.924  27.507  1.00  0.00     0.210 HD
ENDBRANCH 116 117
ENDBRANCH  80 116
ENDBRANCH  77  80
ENDBRANCH  75  76
ENDBRANCH   1  75
TORSDOF 28
ENDMDL
MODEL 2
REMARK VINA RESULT:     -10.4      2.806      7.624
REMARK SMILES O=C(NCCCCCCNC(=O)[C@H](CO)NC(=O)[C@H](CS)NC(=O)[C@H](Cc1c[nH]c2ccccc12)NC(=O)c1ccc(F)cc1)c1ccc(-c2c3nc(c(-c4cccc(S(=O)(=O)[O-])c4F)c4ccc([nH]4)c(-c4cccc(S(=O)(=O)[O-])c4F)c4nc(c(-c5cccc(S(=O)(=O)[O-])c5F)c5ccc2[nH]5)C=C4)C=C3)cc1
REMARK SMILES IDX 8 1 7 2 6 3 5 4 4 5 3 6 1 7 2 8 46 10 47 11 108 12 48 13
REMARK SMILES IDX 107 14 49 15 50 16 51 17 101 18 52 19 106 20 100 21 102 22
REMARK SMILES IDX 53 23 105 24 99 25 98 26 54 28 86 29 66 30 85 31 67 32 70 33
REMARK SMILES IDX 84 34 103 35 68 36 69 37 83 39 104 40 71 41 55 42 56 43
REMARK SMILES IDX 64 44 57 45 59 46 65 47 58 48 60 49 61 50 62 51 63 52 87 53
REMARK SMILES IDX 88 54 96 55 89 56 91 57 97 58 90 59 92 60 93 61 94 62 95 63
REMARK SMILES IDX 72 64 73 65 81 66 74 67 76 68 82 69 75 70 77 71 78 72 79 73
REMARK SMILES IDX 80 74 9 75 10 76 11 77 12 79 13 80 16 81 17 82 18 84 19 85
REMARK SMILES IDX 22 86 23 87 24 89 25 90 36 91 37 92 38 94 39 95 40 96 45 97
REMARK SMILES IDX 41 98 44 99 42 100 43 101 26 102 27 103 28 104 35 105 29 106
REMARK SMILES IDX 30 107 34 108 31 110 33 111 32 112 20 113 21 114 14 116
REMARK SMILES IDX 15 117
REMARK H PARENT 3 9 102 27 70 38 10 78 16 83 22 88 36 93 29 109 21 115 15 118
REMARK Flexibility Score: inf
ROOT
ATOM      1  C   UNL A   1      37.567  23.968  26.325  1.00  0.00     0.021 C 
ENDROOT
BRANCH   1   2
ATOM      2  C   UNL A   1      39.045  24.321  26.504  1.00  0.00     0.002 C 
BRANCH   2   3
ATOM      3  C   UNL A   1      39.860  23.369  27.383  1.00  0.00     0.002 C 
BRANCH   3   4
ATOM      4  C   UNL A   1      40.114  21.977  26.805  1.00  0.00     0.021 C 
BRANCH   4   5
ATOM      5  C   UNL A   1      41.530  21.445  26.977  1.00  0.00     0.116 C 
BRANCH   5   6
ATOM      6  N   UNL A   1      42.325  21.549  25.765  1.00  0.00    -0.352 N 
ATOM      7  O   UNL A   1      43.474  22.579  24.125  1.00  0.00    -0.269 OA
ATOM      8  C   UNL A   1      42.958  22.648  25.232  1.00  0.00     0.251 C 
ATOM      9  H   UNL A   1      42.425  20.714  25.253  1.00  0.00     0.163 HD
BRANCH   8  10
ATOM     10  C   UNL A   1      42.975  23.918  25.994  1.00  0.00     0.039 A 
ATOM     11  C   UNL A   1      42.579  25.114  25.391  1.00  0.00     0.014 A 
ATOM     12  C   UNL A   1      43.414  23.911  27.319  1.00  0.00     0.014 A 
ATOM     13  C   UNL A   1      42.773  26.318  26.059  1.00  0.00     0.010 A 
ATOM     14  C   UNL A   1      43.521  25.117  28.021  1.00  0.00     0.010 A 
ATOM     15  C   UNL A   1      43.241  26.335  27.384  1.00  0.00    -0.014 A 
BRANCH  15  16
ATOM     16  C   UNL A   1      43.375  27.637  28.089  1.00  0.00     0.031 A 
ATOM     17  C   UNL A   1      44.715  28.296  28.270  1.00  0.00     0.074 A 
ATOM     18  C   UNL A   1      42.259  28.238  28.549  1.00  0.00     0.049 A 
ATOM     19  N   UNL A   1      44.990  29.454  28.813  1.00  0.00    -0.248 NA
ATOM     20  C   UNL A   1      45.902  27.569  27.788  1.00  0.00     0.031 C 
ATOM     21  C   UNL A   1      40.910  27.672  28.470  1.00  0.00     0.029 A 
ATOM     22  N   UNL A   1      42.073  29.452  29.160  1.00  0.00    -0.354 N 
ATOM     23  C   UNL A   1      46.373  29.580  28.774  1.00  0.00     0.074 A 
ATOM     24  C   UNL A   1      46.888  28.376  28.160  1.00  0.00     0.031 C 
ATOM     25  C   UNL A   1      40.033  28.552  28.974  1.00  0.00     0.029 A 
ATOM     26  C   UNL A   1      40.759  29.719  29.462  1.00  0.00     0.049 A 
ATOM     27  H   UNL A   1      42.811  30.072  29.363  1.00  0.00     0.167 HD
ATOM     28  C   UNL A   1      47.140  30.614  29.195  1.00  0.00     0.034 A 
ATOM     29  C   UNL A   1      40.193  30.781  30.071  1.00  0.00     0.034 A 
ATOM     30  C   UNL A   1      46.617  31.830  29.757  1.00  0.00     0.049 A 
ATOM     31  C   UNL A   1      41.068  31.923  30.499  1.00  0.00     0.074 A 
ATOM     32  C   UNL A   1      47.314  32.964  30.141  1.00  0.00     0.029 A 
ATOM     33  N   UNL A   1      45.279  32.076  30.020  1.00  0.00    -0.354 N 
ATOM     34  N   UNL A   1      42.359  32.075  30.333  1.00  0.00    -0.248 NA
ATOM     35  C   UNL A   1      40.411  33.048  31.179  1.00  0.00     0.031 C 
ATOM     36  C   UNL A   1      46.398  33.886  30.654  1.00  0.00     0.029 A 
ATOM     37  C   UNL A   1      45.130  33.336  30.572  1.00  0.00     0.049 A 
ATOM     38  H   UNL A   1      44.543  31.446  29.840  1.00  0.00     0.167 HD
ATOM     39  C   UNL A   1      42.669  33.316  30.876  1.00  0.00     0.074 A 
ATOM     40  C   UNL A   1      41.426  33.890  31.347  1.00  0.00     0.031 C 
ATOM     41  C   UNL A   1      43.880  33.914  30.992  1.00  0.00     0.034 A 
BRANCH  28  42
ATOM     42  C   UNL A   1      48.633  30.520  29.017  1.00  0.00     0.023 A 
ATOM     43  C   UNL A   1      49.421  30.007  30.066  1.00  0.00     0.012 A 
ATOM     44  C   UNL A   1      49.234  30.809  27.776  1.00  0.00     0.148 A 
ATOM     45  C   UNL A   1      50.787  29.794  29.888  1.00  0.00     0.002 A 
ATOM     46  C   UNL A   1      50.590  30.558  27.594  1.00  0.00     0.091 A 
ATOM     47  F   UNL A   1      48.468  31.308  26.795  1.00  0.00    -0.205 F 
ATOM     48  C   UNL A   1      51.369  30.057  28.650  1.00  0.00     0.022 A 
BRANCH  46  49
ATOM     49  S   UNL A   1      51.419  30.786  26.015  1.00  0.00     0.127 S 
ATOM     50  O   UNL A   1      52.825  30.686  26.407  1.00  0.00    -0.237 OA
ATOM     51  O   UNL A   1      50.920  29.650  25.241  1.00  0.00    -0.237 OA
ATOM     52  O   UNL A   1      51.003  32.091  25.525  1.00  0.00    -0.744 OA
ENDBRANCH  46  49
ENDBRANCH  28  42
BRANCH  29  53
ATOM     53  C   UNL A   1      38.715  30.818  30.253  1.00  0.00     0.023 A 
ATOM     54  C   UNL A   1      38.118  30.003  31.232  1.00  0.00     0.012 A 
ATOM     55  C   UNL A   1      37.912  31.715  29.521  1.00  0.00     0.148 A 
ATOM     56  C   UNL A   1      36.745  30.071  31.470  1.00  0.00     0.002 A 
ATOM     57  C   UNL A   1      36.558  31.824  29.808  1.00  0.00     0.091 A 
ATOM     58  F   UNL A   1      38.497  32.468  28.579  1.00  0.00    -0.205 F 
ATOM     59  C   UNL A   1      35.967  30.992  30.772  1.00  0.00     0.022 A 
BRANCH  57  60
ATOM     60  S   UNL A   1      35.525  33.095  29.070  1.00  0.00     0.127 S 
ATOM     61  O   UNL A   1      34.200  32.728  29.561  1.00  0.00    -0.237 OA
ATOM     62  O   UNL A   1      36.082  34.317  29.653  1.00  0.00    -0.237 OA
ATOM     63  O   UNL A   1      35.729  32.975  27.633  1.00  0.00    -0.744 OA
ENDBRANCH  57  60
ENDBRANCH  29  53
BRANCH  41  64
ATOM     64  C   UNL A   1      43.937  35.264  31.654  1.00  0.00     0.023 A 
ATOM     65  C   UNL A   1      43.837  36.425  30.862  1.00  0.00     0.012 A 
ATOM     66  C   UNL A   1      43.963  35.380  33.058  1.00  0.00     0.148 A 
ATOM     67  C   UNL A   1      43.774  37.683  31.458  1.00  0.00     0.002 A 
ATOM     68  C   UNL A   1      43.855  36.634  33.646  1.00  0.00     0.091 A 
ATOM     69  F   UNL A   1      44.073  34.262  33.789  1.00  0.00    -0.205 F 
ATOM     70  C   UNL A   1      43.768  37.788  32.847  1.00  0.00     0.022 A 
BRANCH  68  71
ATOM     71  S   UNL A   1      43.740  36.861  35.424  1.00  0.00     0.127 S 
ATOM     72  O   UNL A   1      44.950  36.185  35.888  1.00  0.00    -0.237 OA
ATOM     73  O   UNL A   1      43.768  38.318  35.553  1.00  0.00    -0.237 OA
ATOM     74  O   UNL A   1      42.487  36.240  35.830  1.00  0.00    -0.744 OA
ENDBRANCH  68  71
ENDBRANCH  41  64
ENDBRANCH  15  16
ENDBRANCH   8  10
ENDBRANCH   5   6
ENDBRANCH   4   5
ENDBRANCH   3   4
ENDBRANCH   2   3
ENDBRANCH   1   2
BRANCH   1  75
ATOM     75  C   UNL A   1      37.212  23.307  25.000  1.00  0.00     0.116 C 
BRANCH  75  76
ATOM     76  N   UNL A   1      37.295  21.858  25.060  1.00  0.00    -0.354 N 
ATOM     77  C   UNL A   1      36.281  20.943  25.081  1.00  0.00     0.244 C 
ATOM     78  H   UNL A   1      38.206  21.485  25.090  1.00  0.00     0.163 HD
ATOM     79  O   UNL A   1      36.566  19.745  25.003  1.00  0.00    -0.273 OA
BRANCH  77  80
ATOM     80  C   UNL A   1      34.836  21.411  25.318  1.00  0.00     0.197 C 
BRANCH  80  81
ATOM     81  N   UNL A   1      33.916  20.462  24.695  1.00  0.00    -0.340 N 
ATOM     82  C   UNL A   1      32.611  20.533  24.341  1.00  0.00     0.244 C 
ATOM     83  H   UNL A   1      34.330  19.592  24.492  1.00  0.00     0.164 HD
ATOM     84  O   UNL A   1      32.155  19.528  23.779  1.00  0.00    -0.273 OA
BRANCH  82  85
ATOM     85  C   UNL A   1      31.728  21.804  24.433  1.00  0.00     0.181 C 
BRANCH  85  86
ATOM     86  N   UNL A   1      31.057  22.145  25.693  1.00  0.00    -0.342 N 
ATOM     87  C   UNL A   1      30.551  23.254  26.291  1.00  0.00     0.243 C 
ATOM     88  H   UNL A   1      30.942  21.351  26.261  1.00  0.00     0.164 HD
ATOM     89  O   UNL A   1      30.118  23.022  27.428  1.00  0.00    -0.273 OA
BRANCH  87  90
ATOM     90  C   UNL A   1      30.657  24.718  25.754  1.00  0.00     0.176 C 
BRANCH  90  91
ATOM     91  N   UNL A   1      29.465  25.215  25.060  1.00  0.00    -0.340 N 
ATOM     92  C   UNL A   1      29.278  26.270  24.209  1.00  0.00     0.251 C 
ATOM     93  H   UNL A   1      28.650  24.693  25.238  1.00  0.00     0.164 HD
ATOM     94  O   UNL A   1      28.124  26.539  23.875  1.00  0.00    -0.269 OA
BRANCH  92  95
ATOM     95  C   UNL A   1      30.394  27.078  23.654  1.00  0.00     0.040 A 
ATOM     96  C   UNL A   1      30.532  28.458  23.853  1.00  0.00     0.017 A 
ATOM     97  C   UNL A   1      31.417  26.382  22.991  1.00  0.00     0.017 A 
ATOM     98  C   UNL A   1      31.648  29.137  23.361  1.00  0.00     0.040 A 
ATOM     99  C   UNL A   1      32.538  27.060  22.508  1.00  0.00     0.040 A 
ATOM    100  C   UNL A   1      32.640  28.433  22.693  1.00  0.00     0.123 A 
ATOM    101  F   UNL A   1      33.720  29.082  22.242  1.00  0.00    -0.207 F 
ENDBRANCH  92  95
ENDBRANCH  90  91
BRANCH  90 102
ATOM    102  C   UNL A   1      31.108  25.803  26.767  1.00  0.00     0.072 C 
BRANCH 102 103
ATOM    103  C   UNL A   1      32.375  26.532  26.485  1.00  0.00    -0.020 A 
ATOM    104  C   UNL A   1      33.556  26.007  25.997  1.00  0.00     0.087 A 
ATOM    105  C   UNL A   1      32.592  27.934  26.679  1.00  0.00     0.003 A 
ATOM    106  N   UNL A   1      34.486  27.015  25.954  1.00  0.00    -0.361 N 
ATOM    107  C   UNL A   1      33.926  28.198  26.375  1.00  0.00     0.046 A 
ATOM    108  C   UNL A   1      31.773  28.994  27.116  1.00  0.00     0.010 A 
ATOM    109  H   UNL A   1      35.421  26.905  25.665  1.00  0.00     0.166 HD
ATOM    110  C   UNL A   1      34.496  29.469  26.521  1.00  0.00     0.026 A 
ATOM    111  C   UNL A   1      32.322  30.272  27.251  1.00  0.00     0.001 A 
ATOM    112  C   UNL A   1      33.667  30.500  26.971  1.00  0.00     0.002 A 
ENDBRANCH 102 103
ENDBRANCH  90 102
ENDBRANCH  87  90
ENDBRANCH  85  86
BRANCH  85 113
ATOM    113  C   UNL A   1      32.549  23.002  23.903  1.00  0.00     0.101 C 
BRANCH 113 114
ATOM    114  S   UNL A   1      32.906  22.934  22.112  1.00  0.00    -0.177 SA
ATOM    115  H   UNL A   1      33.297  21.676  21.775  1.00  0.00     0.102 HD
ENDBRANCH 113 114
ENDBRANCH  85 113
ENDBRANCH  82  85
ENDBRANCH  80  81
BRANCH  80 116
ATOM    116  C   UNL A   1      34.619  21.475  26.834  1.00  0.00     0.191 C 
BRANCH 116 117
ATOM    117  O   UNL A   1      33.521  20.667  27.248  1.00  0.00    -0.394 OA
ATOM    118  H   UNL A   1      33.803  19.740  27.297  1.00  0.00     0.210 HD
ENDBRANCH 116 117
ENDBRANCH  80 116
ENDBRANCH  77  80
ENDBRANCH  75  76
ENDBRANCH   1  75
TORSDOF 28
ENDMDL
MODEL 3
REMARK VINA RESULT:      -9.9      1.734      2.097
REMARK SMILES O=C(NCCCCCCNC(=O)[C@H](CO)NC(=O)[C@H](CS)NC(=O)[C@H](Cc1c[nH]c2ccccc12)NC(=O)c1ccc(F)cc1)c1ccc(-c2c3nc(c(-c4cccc(S(=O)(=O)[O-])c4F)c4ccc([nH]4)c(-c4cccc(S(=O)(=O)[O-])c4F)c4nc(c(-c5cccc(S(=O)(=O)[O-])c5F)c5ccc2[nH]5)C=C4)C=C3)cc1
REMARK SMILES IDX 8 1 7 2 6 3 5 4 4 5 3 6 1 7 2 8 46 10 47 11 108 12 48 13
REMARK SMILES IDX 107 14 49 15 50 16 51 17 101 18 52 19 106 20 100 21 102 22
REMARK SMILES IDX 53 23 105 24 99 25 98 26 54 28 86 29 66 30 85 31 67 32 70 33
REMARK SMILES IDX 84 34 103 35 68 36 69 37 83 39 104 40 71 41 55 42 56 43
REMARK SMILES IDX 64 44 57 45 59 46 65 47 58 48 60 49 61 50 62 51 63 52 87 53
REMARK SMILES IDX 88 54 96 55 89 56 91 57 97 58 90 59 92 60 93 61 94 62 95 63
REMARK SMILES IDX 72 64 73 65 81 66 74 67 76 68 82 69 75 70 77 71 78 72 79 73
REMARK SMILES IDX 80 74 9 75 10 76 11 77 12 79 13 80 16 81 17 82 18 84 19 85
REMARK SMILES IDX 22 86 23 87 24 89 25 90 36 91 37 92 38 94 39 95 40 96 45 97
REMARK SMILES IDX 41 98 44 99 42 100 43 101 26 102 27 103 28 104 35 105 29 106
REMARK SMILES IDX 30 107 34 108 31 110 33 111 32 112 20 113 21 114 14 116
REMARK SMILES IDX 15 117
REMARK H PARENT 3 9 102 27 70 38 10 78 16 83 22 88 36 93 29 109 21 115 15 118
REMARK Flexibility Score: inf
ROOT
ATOM      1  C   UNL A   1      38.142  20.251  25.141  1.00  0.00     0.021 C 
ENDROOT
BRANCH   1   2
ATOM      2  C   UNL A   1      38.965  21.417  25.694  1.00  0.00     0.002 C 
BRANCH   2   3
ATOM      3  C   UNL A   1      40.221  21.036  26.482  1.00  0.00     0.002 C 
BRANCH   3   4
ATOM      4  C   UNL A   1      40.994  19.823  25.963  1.00  0.00     0.021 C 
BRANCH   4   5
ATOM      5  C   UNL A   1      42.436  19.713  26.439  1.00  0.00     0.116 C 
BRANCH   5   6
ATOM      6  N   UNL A   1      43.310  19.094  25.458  1.00  0.00    -0.352 N 
ATOM      7  O   UNL A   1      44.876  19.009  23.841  1.00  0.00    -0.269 OA
ATOM      8  C   UNL A   1      44.330  19.656  24.725  1.00  0.00     0.251 C 
ATOM      9  H   UNL A   1      43.150  18.137  25.295  1.00  0.00     0.163 HD
BRANCH   8  10
ATOM     10  C   UNL A   1      44.733  21.055  24.993  1.00  0.00     0.039 A 
ATOM     11  C   UNL A   1      45.337  21.403  26.203  1.00  0.00     0.014 A 
ATOM     12  C   UNL A   1      44.482  22.033  24.027  1.00  0.00     0.014 A 
ATOM     13  C   UNL A   1      45.541  22.744  26.510  1.00  0.00     0.010 A 
ATOM     14  C   UNL A   1      44.773  23.373  24.303  1.00  0.00     0.010 A 
ATOM     15  C   UNL A   1      45.267  23.745  25.563  1.00  0.00    -0.014 A 
BRANCH  15  16
ATOM     16  C   UNL A   1      45.558  25.163  25.902  1.00  0.00     0.031 A 
ATOM     17  C   UNL A   1      44.479  26.088  26.396  1.00  0.00     0.074 A 
ATOM     18  C   UNL A   1      46.826  25.607  25.782  1.00  0.00     0.049 A 
ATOM     19  N   UNL A   1      44.584  27.333  26.784  1.00  0.00    -0.248 NA
ATOM     20  C   UNL A   1      43.106  25.559  26.462  1.00  0.00     0.031 C 
ATOM     21  C   UNL A   1      47.945  24.813  25.271  1.00  0.00     0.029 A 
ATOM     22  N   UNL A   1      47.391  26.819  26.087  1.00  0.00    -0.354 N 
ATOM     23  C   UNL A   1      43.297  27.748  27.102  1.00  0.00     0.074 A 
ATOM     24  C   UNL A   1      42.419  26.625  26.856  1.00  0.00     0.031 C 
ATOM     25  C   UNL A   1      49.068  25.543  25.335  1.00  0.00     0.029 A 
ATOM     26  C   UNL A   1      48.742  26.873  25.837  1.00  0.00     0.049 A 
ATOM     27  H   UNL A   1      46.878  27.578  26.449  1.00  0.00     0.167 HD
ATOM     28  C   UNL A   1      42.889  28.950  27.575  1.00  0.00     0.034 A 
ATOM     29  C   UNL A   1      49.626  27.879  25.987  1.00  0.00     0.034 A 
ATOM     30  C   UNL A   1      43.774  30.046  27.866  1.00  0.00     0.049 A 
ATOM     31  C   UNL A   1      49.146  29.190  26.541  1.00  0.00     0.074 A 
ATOM     32  C   UNL A   1      43.459  31.275  28.420  1.00  0.00     0.029 A 
ATOM     33  N   UNL A   1      45.139  30.052  27.629  1.00  0.00    -0.354 N 
ATOM     34  N   UNL A   1      47.947  29.516  26.957  1.00  0.00    -0.248 NA
ATOM     35  C   UNL A   1      50.140  30.266  26.665  1.00  0.00     0.031 C 
ATOM     36  C   UNL A   1      44.631  32.031  28.499  1.00  0.00     0.029 A 
ATOM     37  C   UNL A   1      45.679  31.266  28.013  1.00  0.00     0.049 A 
ATOM     38  H   UNL A   1      45.649  29.302  27.244  1.00  0.00     0.167 HD
ATOM     39  C   UNL A   1      48.042  30.827  27.404  1.00  0.00     0.074 A 
ATOM     40  C   UNL A   1      49.425  31.227  27.239  1.00  0.00     0.031 C 
ATOM     41  C   UNL A   1      47.066  31.634  27.887  1.00  0.00     0.034 A 
BRANCH  28  42
ATOM     42  C   UNL A   1      41.425  29.146  27.870  1.00  0.00     0.023 A 
ATOM     43  C   UNL A   1      40.509  29.213  26.802  1.00  0.00     0.012 A 
ATOM     44  C   UNL A   1      40.944  29.128  29.195  1.00  0.00     0.148 A 
ATOM     45  C   UNL A   1      39.137  29.271  27.046  1.00  0.00     0.002 A 
ATOM     46  C   UNL A   1      39.573  29.148  29.429  1.00  0.00     0.091 A 
ATOM     47  F   UNL A   1      41.834  29.076  30.196  1.00  0.00    -0.205 F 
ATOM     48  C   UNL A   1      38.669  29.226  28.357  1.00  0.00     0.022 A 
BRANCH  46  49
ATOM     49  S   UNL A   1      38.864  29.012  31.075  1.00  0.00     0.127 S 
ATOM     50  O   UNL A   1      37.504  28.569  30.772  1.00  0.00    -0.237 OA
ATOM     51  O   UNL A   1      39.715  27.994  31.692  1.00  0.00    -0.237 OA
ATOM     52  O   UNL A   1      38.967  30.337  31.670  1.00  0.00    -0.744 OA
ENDBRANCH  46  49
ENDBRANCH  28  42
BRANCH  29  53
ATOM     53  C   UNL A   1      51.059  27.650  25.654  1.00  0.00     0.023 A 
ATOM     54  C   UNL A   1      51.956  27.280  26.673  1.00  0.00     0.012 A 
ATOM     55  C   UNL A   1      51.519  27.717  24.324  1.00  0.00     0.148 A 
ATOM     56  C   UNL A   1      53.288  26.991  26.375  1.00  0.00     0.002 A 
ATOM     57  C   UNL A   1      52.830  27.367  24.026  1.00  0.00     0.091 A 
ATOM     58  F   UNL A   1      50.655  28.092  23.370  1.00  0.00    -0.205 F 
ATOM     59  C   UNL A   1      53.721  27.018  25.052  1.00  0.00     0.022 A 
BRANCH  57  60
ATOM     60  S   UNL A   1      53.417  27.218  22.335  1.00  0.00     0.127 S 
ATOM     61  O   UNL A   1      53.295  28.591  21.853  1.00  0.00    -0.237 OA
ATOM     62  O   UNL A   1      54.791  26.751  22.528  1.00  0.00    -0.237 OA
ATOM     63  O   UNL A   1      52.540  26.240  21.704  1.00  0.00    -0.744 OA
ENDBRANCH  57  60
ENDBRANCH  29  53
BRANCH  41  64
ATOM     64  C   UNL A   1      47.441  33.037  28.278  1.00  0.00     0.023 A 
ATOM     65  C   UNL A   1      47.909  33.288  29.584  1.00  0.00     0.012 A 
ATOM     66  C   UNL A   1      47.451  34.075  27.326  1.00  0.00     0.148 A 
ATOM     67  C   UNL A   1      48.369  34.554  29.938  1.00  0.00     0.002 A 
ATOM     68  C   UNL A   1      47.953  35.323  27.674  1.00  0.00     0.091 A 
ATOM     69  F   UNL A   1      46.987  33.816  26.095  1.00  0.00    -0.205 F 
ATOM     70  C   UNL A   1      48.405  35.567  28.982  1.00  0.00     0.022 A 
BRANCH  68  71
ATOM     71  S   UNL A   1      48.130  36.659  26.486  1.00  0.00     0.127 S 
ATOM     72  O   UNL A   1      48.735  37.707  27.306  1.00  0.00    -0.237 OA
ATOM     73  O   UNL A   1      49.025  36.070  25.489  1.00  0.00    -0.237 OA
ATOM     74  O   UNL A   1      46.788  36.948  26.001  1.00  0.00    -0.744 OA
ENDBRANCH  68  71
ENDBRANCH  41  64
ENDBRANCH  15  16
ENDBRANCH   8  10
ENDBRANCH   5   6
ENDBRANCH   4   5
ENDBRANCH   3   4
ENDBRANCH   2   3
ENDBRANCH   1   2
BRANCH   1  75
ATOM     75  C   UNL A   1      36.643  20.502  25.046  1.00  0.00     0.116 C 
BRANCH  75  76
ATOM     76  N   UNL A   1      36.328  21.728  24.332  1.00  0.00    -0.354 N 
ATOM     77  C   UNL A   1      35.416  22.694  24.651  1.00  0.00     0.244 C 
ATOM     78  H   UNL A   1      36.841  21.883  23.506  1.00  0.00     0.163 HD
ATOM     79  O   UNL A   1      35.392  23.728  23.978  1.00  0.00    -0.273 OA
BRANCH  77  80
ATOM     80  C   UNL A   1      34.375  22.427  25.750  1.00  0.00     0.197 C 
BRANCH  80  81
ATOM     81  N   UNL A   1      33.783  21.108  25.540  1.00  0.00    -0.340 N 
ATOM     82  C   UNL A   1      32.522  20.689  25.281  1.00  0.00     0.244 C 
ATOM     83  H   UNL A   1      34.435  20.373  25.601  1.00  0.00     0.164 HD
ATOM     84  O   UNL A   1      32.389  19.469  25.112  1.00  0.00    -0.273 OA
BRANCH  82  85
ATOM     85  C   UNL A   1      31.307  21.617  25.020  1.00  0.00     0.181 C 
BRANCH  85  86
ATOM     86  N   UNL A   1      30.553  22.176  26.148  1.00  0.00    -0.342 N 
ATOM     87  C   UNL A   1      30.138  23.399  26.569  1.00  0.00     0.243 C 
ATOM     88  H   UNL A   1      30.268  21.470  26.771  1.00  0.00     0.164 HD
ATOM     89  O   UNL A   1      29.554  23.350  27.659  1.00  0.00    -0.273 OA
BRANCH  87  90
ATOM     90  C   UNL A   1      30.502  24.770  25.910  1.00  0.00     0.176 C 
BRANCH  90  91
ATOM     91  N   UNL A   1      29.457  25.348  25.060  1.00  0.00    -0.340 N 
ATOM     92  C   UNL A   1      29.507  26.283  24.062  1.00  0.00     0.251 C 
ATOM     93  H   UNL A   1      28.554  25.000  25.239  1.00  0.00     0.164 HD
ATOM     94  O   UNL A   1      28.439  26.686  23.601  1.00  0.00    -0.269 OA
BRANCH  92  95
ATOM     95  C   UNL A   1      30.778  26.807  23.498  1.00  0.00     0.040 A 
ATOM     96  C   UNL A   1      31.690  26.026  22.776  1.00  0.00     0.017 A 
ATOM     97  C   UNL A   1      31.003  28.188  23.609  1.00  0.00     0.017 A 
ATOM     98  C   UNL A   1      32.829  26.606  22.213  1.00  0.00     0.040 A 
ATOM     99  C   UNL A   1      32.137  28.768  23.037  1.00  0.00     0.040 A 
ATOM    100  C   UNL A   1      33.042  27.971  22.349  1.00  0.00     0.123 A 
ATOM    101  F   UNL A   1      34.122  28.528  21.789  1.00  0.00    -0.207 F 
ENDBRANCH  92  95
ENDBRANCH  90  91
BRANCH  90 102
ATOM    102  C   UNL A   1      31.019  25.884  26.858  1.00  0.00     0.072 C 
BRANCH 102 103
ATOM    103  C   UNL A   1      32.310  26.542  26.515  1.00  0.00    -0.020 A 
ATOM    104  C   UNL A   1      33.428  25.958  25.953  1.00  0.00     0.087 A 
ATOM    105  C   UNL A   1      32.620  27.925  26.717  1.00  0.00     0.003 A 
ATOM    106  N   UNL A   1      34.412  26.909  25.872  1.00  0.00    -0.361 N 
ATOM    107  C   UNL A   1      33.948  28.115  26.341  1.00  0.00     0.046 A 
ATOM    108  C   UNL A   1      31.892  29.023  27.216  1.00  0.00     0.010 A 
ATOM    109  H   UNL A   1      35.321  26.751  25.528  1.00  0.00     0.166 HD
ATOM    110  C   UNL A   1      34.600  29.348  26.474  1.00  0.00     0.026 A 
ATOM    111  C   UNL A   1      32.523  30.264  27.338  1.00  0.00     0.001 A 
ATOM    112  C   UNL A   1      33.861  30.418  26.986  1.00  0.00     0.002 A 
ENDBRANCH 102 103
ENDBRANCH  90 102
ENDBRANCH  87  90
ENDBRANCH  85  86
BRANCH  85 113
ATOM    113  C   UNL A   1      31.752  22.732  24.046  1.00  0.00     0.101 C 
BRANCH 113 114
ATOM    114  S   UNL A   1      32.414  22.120  22.456  1.00  0.00    -0.177 SA
ATOM    115  H   UNL A   1      33.178  23.087  21.881  1.00  0.00     0.102 HD
ENDBRANCH 113 114
ENDBRANCH  85 113
ENDBRANCH  82  85
ENDBRANCH  80  81
BRANCH  80 116
ATOM    116  C   UNL A   1      35.104  22.496  27.097  1.00  0.00     0.191 C 
BRANCH 116 117
ATOM    117  O   UNL A   1      34.197  22.652  28.184  1.00  0.00    -0.394 OA
ATOM    118  H   UNL A   1      34.601  23.216  28.863  1.00  0.00     0.210 HD
ENDBRANCH 116 117
ENDBRANCH  80 116
ENDBRANCH  77  80
ENDBRANCH  75  76
ENDBRANCH   1  75
TORSDOF 28
ENDMDL
