MODEL 1
REMARK VINA RESULT:     -12.1      0.000      0.000
REMARK SMILES O=C(NCCCCCCNC(=O)c1ccc([C@H]2CCC[N@@H+](CCN3CCCC3=O)C2)cc1)c1ccc(-c2c3nc(c(-c4cccc(S(=O)(=O)[O-])c4F)c4ccc([nH]4)c(-c4cccc(S(=O)(=O)[O-])c4F)c4nc(c(-c5cccc(S(=O)(=O)[O-])c5F)c5ccc2[nH]5)C=C4)C=C3)cc1
REMARK SMILES IDX 7 1 6 2 5 3 4 4 3 5 1 6 2 7 33 9 34 10 95 11 35 12 94 13
REMARK SMILES IDX 36 14 37 15 38 16 88 17 39 18 93 19 87 20 89 21 40 22 92 23
REMARK SMILES IDX 86 24 85 25 41 27 73 28 53 29 72 30 54 31 57 32 71 33 90 34
REMARK SMILES IDX 55 35 56 36 70 38 91 39 58 40 42 41 43 42 51 43 44 44 46 45
REMARK SMILES IDX 52 46 45 47 47 48 48 49 49 50 50 51 74 52 75 53 83 54 76 55
REMARK SMILES IDX 78 56 84 57 77 58 79 59 80 60 81 61 82 62 59 63 60 64 68 65
REMARK SMILES IDX 61 66 63 67 69 68 62 69 64 70 65 71 66 72 67 73 8 74 9 75
REMARK SMILES IDX 10 76 11 77 12 79 13 80 14 81 32 82 15 83 31 84 16 85 17 86
REMARK SMILES IDX 18 87 30 88 19 89 21 90 20 91 22 93 23 94 24 95 25 96 28 97
REMARK SMILES IDX 26 98 27 99 29 100
REMARK H PARENT 3 8 89 26 57 37 10 78 21 92
REMARK Flexibility Score: inf
ROOT
ATOM      1  C   UNL A   1      32.066  30.456  27.028  1.00  0.00     0.002 C 
ENDROOT
BRANCH   1   2
ATOM      2  C   UNL A   1      31.101  31.543  26.544  1.00  0.00     0.002 C 
BRANCH   2   3
ATOM      3  C   UNL A   1      31.702  32.941  26.417  1.00  0.00     0.021 C 
BRANCH   3   4
ATOM      4  C   UNL A   1      32.699  33.313  27.509  1.00  0.00     0.116 C 
BRANCH   4   5
ATOM      5  N   UNL A   1      32.545  34.685  27.969  1.00  0.00    -0.352 N 
ATOM      6  O   UNL A   1      32.803  36.441  29.361  1.00  0.00    -0.269 OA
ATOM      7  C   UNL A   1      33.178  35.328  29.009  1.00  0.00     0.251 C 
ATOM      8  H   UNL A   1      31.899  35.231  27.464  1.00  0.00     0.163 HD
BRANCH   7   9
ATOM      9  C   UNL A   1      34.292  34.652  29.713  1.00  0.00     0.039 A 
ATOM     10  C   UNL A   1      35.581  34.677  29.176  1.00  0.00     0.014 A 
ATOM     11  C   UNL A   1      34.045  33.977  30.911  1.00  0.00     0.014 A 
ATOM     12  C   UNL A   1      36.581  33.899  29.745  1.00  0.00     0.010 A 
ATOM     13  C   UNL A   1      35.082  33.278  31.540  1.00  0.00     0.010 A 
ATOM     14  C   UNL A   1      36.352  33.209  30.947  1.00  0.00    -0.014 A 
BRANCH  14  15
ATOM     15  C   UNL A   1      37.488  32.511  31.603  1.00  0.00     0.031 A 
ATOM     16  C   UNL A   1      38.226  31.387  30.926  1.00  0.00     0.074 A 
ATOM     17  C   UNL A   1      37.858  32.916  32.834  1.00  0.00     0.049 A 
ATOM     18  N   UNL A   1      39.253  30.704  31.361  1.00  0.00    -0.248 NA
ATOM     19  C   UNL A   1      37.751  30.971  29.597  1.00  0.00     0.031 C 
ATOM     20  C   UNL A   1      37.189  33.967  33.608  1.00  0.00     0.029 A 
ATOM     21  N   UNL A   1      38.876  32.502  33.653  1.00  0.00    -0.354 N 
ATOM     22  C   UNL A   1      39.528  29.754  30.383  1.00  0.00     0.074 A 
ATOM     23  C   UNL A   1      38.551  29.945  29.332  1.00  0.00     0.031 C 
ATOM     24  C   UNL A   1      37.830  34.134  34.773  1.00  0.00     0.029 A 
ATOM     25  C   UNL A   1      38.909  33.160  34.860  1.00  0.00     0.049 A 
ATOM     26  H   UNL A   1      39.520  31.802  33.402  1.00  0.00     0.167 HD
ATOM     27  C   UNL A   1      40.507  28.818  30.362  1.00  0.00     0.034 A 
ATOM     28  C   UNL A   1      39.700  32.985  35.935  1.00  0.00     0.034 A 
ATOM     29  C   UNL A   1      41.485  28.647  31.407  1.00  0.00     0.049 A 
ATOM     30  C   UNL A   1      40.775  31.940  35.878  1.00  0.00     0.074 A 
ATOM     31  C   UNL A   1      42.554  27.768  31.447  1.00  0.00     0.029 A 
ATOM     32  N   UNL A   1      41.506  29.352  32.600  1.00  0.00    -0.354 N 
ATOM     33  N   UNL A   1      41.096  31.140  34.891  1.00  0.00    -0.248 NA
ATOM     34  C   UNL A   1      41.616  31.791  37.074  1.00  0.00     0.031 C 
ATOM     35  C   UNL A   1      43.197  27.915  32.681  1.00  0.00     0.029 A 
ATOM     36  C   UNL A   1      42.557  28.918  33.392  1.00  0.00     0.049 A 
ATOM     37  H   UNL A   1      40.868  30.060  32.849  1.00  0.00     0.167 HD
ATOM     38  C   UNL A   1      42.194  30.413  35.334  1.00  0.00     0.074 A 
ATOM     39  C   UNL A   1      42.499  30.890  36.667  1.00  0.00     0.031 C 
ATOM     40  C   UNL A   1      42.877  29.428  34.700  1.00  0.00     0.034 A 
BRANCH  27  41
ATOM     41  C   UNL A   1      40.595  27.910  29.161  1.00  0.00     0.023 A 
ATOM     42  C   UNL A   1      39.712  26.816  29.043  1.00  0.00     0.012 A 
ATOM     43  C   UNL A   1      41.490  28.188  28.109  1.00  0.00     0.148 A 
ATOM     44  C   UNL A   1      39.742  25.996  27.914  1.00  0.00     0.002 A 
ATOM     45  C   UNL A   1      41.484  27.394  26.967  1.00  0.00     0.091 A 
ATOM     46  F   UNL A   1      42.331  29.224  28.243  1.00  0.00    -0.205 F 
ATOM     47  C   UNL A   1      40.619  26.292  26.873  1.00  0.00     0.022 A 
BRANCH  45  48
ATOM     48  S   UNL A   1      42.515  27.738  25.536  1.00  0.00     0.127 S 
ATOM     49  O   UNL A   1      42.262  26.564  24.702  1.00  0.00    -0.237 OA
ATOM     50  O   UNL A   1      41.934  28.982  25.031  1.00  0.00    -0.237 OA
ATOM     51  O   UNL A   1      43.876  27.861  26.041  1.00  0.00    -0.744 OA
ENDBRANCH  45  48
ENDBRANCH  27  41
BRANCH  28  52
ATOM     52  C   UNL A   1      39.509  33.833  37.144  1.00  0.00     0.023 A 
ATOM     53  C   UNL A   1      39.957  35.167  37.138  1.00  0.00     0.012 A 
ATOM     54  C   UNL A   1      38.862  33.329  38.289  1.00  0.00     0.148 A 
ATOM     55  C   UNL A   1      39.794  35.974  38.265  1.00  0.00     0.002 A 
ATOM     56  C   UNL A   1      38.646  34.156  39.383  1.00  0.00     0.091 A 
ATOM     57  F   UNL A   1      38.452  32.052  38.277  1.00  0.00    -0.205 F 
ATOM     58  C   UNL A   1      39.130  35.473  39.382  1.00  0.00     0.022 A 
BRANCH  56  59
ATOM     59  S   UNL A   1      37.676  33.638  40.803  1.00  0.00     0.127 S 
ATOM     60  O   UNL A   1      38.597  32.723  41.473  1.00  0.00    -0.237 OA
ATOM     61  O   UNL A   1      37.455  34.908  41.495  1.00  0.00    -0.237 OA
ATOM     62  O   UNL A   1      36.469  33.035  40.255  1.00  0.00    -0.744 OA
ENDBRANCH  56  59
ENDBRANCH  28  52
BRANCH  40  63
ATOM     63  C   UNL A   1      44.051  28.825  35.426  1.00  0.00     0.023 A 
ATOM     64  C   UNL A   1      45.343  29.356  35.242  1.00  0.00     0.012 A 
ATOM     65  C   UNL A   1      43.863  27.759  36.328  1.00  0.00     0.148 A 
ATOM     66  C   UNL A   1      46.437  28.809  35.913  1.00  0.00     0.002 A 
ATOM     67  C   UNL A   1      44.949  27.255  37.035  1.00  0.00     0.091 A 
ATOM     68  F   UNL A   1      42.629  27.254  36.475  1.00  0.00    -0.205 F 
ATOM     69  C   UNL A   1      46.238  27.767  36.817  1.00  0.00     0.022 A 
BRANCH  67  70
ATOM     70  S   UNL A   1      44.775  25.980  38.288  1.00  0.00     0.127 S 
ATOM     71  O   UNL A   1      44.228  24.871  37.509  1.00  0.00    -0.237 OA
ATOM     72  O   UNL A   1      46.157  25.792  38.730  1.00  0.00    -0.237 OA
ATOM     73  O   UNL A   1      43.885  26.530  39.301  1.00  0.00    -0.744 OA
ENDBRANCH  67  70
ENDBRANCH  40  63
ENDBRANCH  14  15
ENDBRANCH   7   9
ENDBRANCH   4   5
ENDBRANCH   3   4
ENDBRANCH   2   3
ENDBRANCH   1   2
BRANCH   1  74
ATOM     74  C   UNL A   1      32.143  29.192  26.160  1.00  0.00     0.021 C 
BRANCH  74  75
ATOM     75  C   UNL A   1      32.559  29.421  24.702  1.00  0.00     0.116 C 
BRANCH  75  76
ATOM     76  N   UNL A   1      31.425  29.298  23.797  1.00  0.00    -0.352 N 
ATOM     77  C   UNL A   1      31.136  28.328  22.869  1.00  0.00     0.251 C 
ATOM     78  H   UNL A   1      30.761  30.022  23.862  1.00  0.00     0.163 HD
ATOM     79  O   UNL A   1      30.247  28.505  22.042  1.00  0.00    -0.269 OA
BRANCH  77  80
ATOM     80  C   UNL A   1      31.885  27.058  22.865  1.00  0.00     0.039 A 
ATOM     81  C   UNL A   1      33.250  27.057  22.581  1.00  0.00     0.014 A 
ATOM     82  C   UNL A   1      31.219  25.851  23.050  1.00  0.00     0.014 A 
ATOM     83  C   UNL A   1      33.977  25.860  22.639  1.00  0.00     0.005 A 
ATOM     84  C   UNL A   1      31.945  24.657  23.056  1.00  0.00     0.005 A 
ATOM     85  C   UNL A   1      33.352  24.645  22.971  1.00  0.00    -0.039 A 
BRANCH  85  86
ATOM     86  C   UNL A   1      34.198  23.392  23.320  1.00  0.00     0.074 C 
ATOM     87  C   UNL A   1      34.944  23.622  24.651  1.00  0.00     0.020 C 
ATOM     88  C   UNL A   1      33.318  22.116  23.449  1.00  0.00     0.270 C 
ATOM     89  C   UNL A   1      35.542  22.336  25.204  1.00  0.00     0.062 C 
ATOM     90  N   UNL A   1      33.728  20.961  24.246  1.00  0.00    -0.333 N 
ATOM     91  C   UNL A   1      34.443  21.314  25.471  1.00  0.00     0.262 C 
ATOM     92  H   UNL A   1      34.410  20.458  23.677  1.00  0.00     0.348 HD
BRANCH  90  93
ATOM     93  C   UNL A   1      32.578  20.036  24.504  1.00  0.00     0.284 C 
BRANCH  93  94
ATOM     94  C   UNL A   1      32.434  18.646  23.786  1.00  0.00     0.180 C 
BRANCH  94  95
ATOM     95  N   UNL A   1      33.103  17.470  24.364  1.00  0.00    -0.337 N 
ATOM     96  C   UNL A   1      32.429  16.302  24.848  1.00  0.00     0.120 C 
ATOM     97  C   UNL A   1      34.470  17.372  24.590  1.00  0.00     0.222 C 
ATOM     98  C   UNL A   1      33.401  15.609  25.769  1.00  0.00     0.031 C 
ATOM     99  C   UNL A   1      34.750  16.020  25.209  1.00  0.00     0.102 C 
ATOM    100  O   UNL A   1      35.321  18.199  24.295  1.00  0.00    -0.275 OA
ENDBRANCH  94  95
ENDBRANCH  93  94
ENDBRANCH  90  93
ENDBRANCH  85  86
ENDBRANCH  77  80
ENDBRANCH  75  76
ENDBRANCH  74  75
ENDBRANCH   1  74
TORSDOF 20
ENDMDL
MODEL 2
REMARK VINA RESULT:     -11.9      1.941      2.706
REMARK SMILES O=C(NCCCCCCNC(=O)c1ccc([C@H]2CCC[N@@H+](CCN3CCCC3=O)C2)cc1)c1ccc(-c2c3nc(c(-c4cccc(S(=O)(=O)[O-])c4F)c4ccc([nH]4)c(-c4cccc(S(=O)(=O)[O-])c4F)c4nc(c(-c5cccc(S(=O)(=O)[O-])c5F)c5ccc2[nH]5)C=C4)C=C3)cc1
REMARK SMILES IDX 7 1 6 2 5 3 4 4 3 5 1 6 2 7 33 9 34 10 95 11 35 12 94 13
REMARK SMILES IDX 36 14 37 15 38 16 88 17 39 18 93 19 87 20 89 21 40 22 92 23
REMARK SMILES IDX 86 24 85 25 41 27 73 28 53 29 72 30 54 31 57 32 71 33 90 34
REMARK SMILES IDX 55 35 56 36 70 38 91 39 58 40 42 41 43 42 51 43 44 44 46 45
REMARK SMILES IDX 52 46 45 47 47 48 48 49 49 50 50 51 74 52 75 53 83 54 76 55
REMARK SMILES IDX 78 56 84 57 77 58 79 59 80 60 81 61 82 62 59 63 60 64 68 65
REMARK SMILES IDX 61 66 63 67 69 68 62 69 64 70 65 71 66 72 67 73 8 74 9 75
REMARK SMILES IDX 10 76 11 77 12 79 13 80 14 81 32 82 15 83 31 84 16 85 17 86
REMARK SMILES IDX 18 87 30 88 19 89 21 90 20 91 22 93 23 94 24 95 25 96 28 97
REMARK SMILES IDX 26 98 27 99 29 100
REMARK H PARENT 3 8 89 26 57 37 10 78 21 92
REMARK Flexibility Score: inf
ROOT
ATOM      1  C   UNL A   1      32.888  30.139  26.134  1.00  0.00     0.002 C 
ENDROOT
BRANCH   1   2
ATOM      2  C   UNL A   1      31.455  30.662  26.280  1.00  0.00     0.002 C 
BRANCH   2   3
ATOM      3  C   UNL A   1      31.332  32.148  26.610  1.00  0.00     0.021 C 
BRANCH   3   4
ATOM      4  C   UNL A   1      32.652  32.852  26.902  1.00  0.00     0.116 C 
BRANCH   4   5
ATOM      5  N   UNL A   1      32.472  34.141  27.552  1.00  0.00    -0.352 N 
ATOM      6  O   UNL A   1      32.734  35.702  29.160  1.00  0.00    -0.269 OA
ATOM      7  C   UNL A   1      33.131  34.663  28.642  1.00  0.00     0.251 C 
ATOM      8  H   UNL A   1      31.783  34.723  27.155  1.00  0.00     0.163 HD
BRANCH   7   9
ATOM      9  C   UNL A   1      34.302  33.947  29.197  1.00  0.00     0.039 A 
ATOM     10  C   UNL A   1      34.126  32.758  29.908  1.00  0.00     0.014 A 
ATOM     11  C   UNL A   1      35.584  34.473  29.018  1.00  0.00     0.014 A 
ATOM     12  C   UNL A   1      35.203  32.186  30.573  1.00  0.00     0.010 A 
ATOM     13  C   UNL A   1      36.684  33.834  29.602  1.00  0.00     0.010 A 
ATOM     14  C   UNL A   1      36.499  32.701  30.410  1.00  0.00    -0.014 A 
BRANCH  14  15
ATOM     15  C   UNL A   1      37.644  31.973  31.015  1.00  0.00     0.031 A 
ATOM     16  C   UNL A   1      38.396  30.910  30.262  1.00  0.00     0.074 A 
ATOM     17  C   UNL A   1      38.008  32.295  32.273  1.00  0.00     0.049 A 
ATOM     18  N   UNL A   1      39.432  30.211  30.648  1.00  0.00    -0.248 NA
ATOM     19  C   UNL A   1      37.927  30.583  28.905  1.00  0.00     0.031 C 
ATOM     20  C   UNL A   1      37.326  33.279  33.119  1.00  0.00     0.029 A 
ATOM     21  N   UNL A   1      39.032  31.836  33.061  1.00  0.00    -0.354 N 
ATOM     22  C   UNL A   1      39.719  29.336  29.605  1.00  0.00     0.074 A 
ATOM     23  C   UNL A   1      38.739  29.589  28.569  1.00  0.00     0.031 C 
ATOM     24  C   UNL A   1      37.965  33.372  34.293  1.00  0.00     0.029 A 
ATOM     25  C   UNL A   1      39.056  32.408  34.312  1.00  0.00     0.049 A 
ATOM     26  H   UNL A   1      39.685  31.164  32.762  1.00  0.00     0.167 HD
ATOM     27  C   UNL A   1      40.710  28.417  29.519  1.00  0.00     0.034 A 
ATOM     28  C   UNL A   1      39.850  32.167  35.372  1.00  0.00     0.034 A 
ATOM     29  C   UNL A   1      41.691  28.184  30.549  1.00  0.00     0.049 A 
ATOM     30  C   UNL A   1      40.939  31.143  35.243  1.00  0.00     0.074 A 
ATOM     31  C   UNL A   1      42.771  27.319  30.528  1.00  0.00     0.029 A 
ATOM     32  N   UNL A   1      41.702  28.804  31.790  1.00  0.00    -0.354 N 
ATOM     33  N   UNL A   1      41.270  30.419  34.201  1.00  0.00    -0.248 NA
ATOM     34  C   UNL A   1      41.781  30.921  36.425  1.00  0.00     0.031 C 
ATOM     35  C   UNL A   1      43.412  27.387  31.770  1.00  0.00     0.029 A 
ATOM     36  C   UNL A   1      42.759  28.328  32.550  1.00  0.00     0.049 A 
ATOM     37  H   UNL A   1      41.055  29.484  32.087  1.00  0.00     0.167 HD
ATOM     38  C   UNL A   1      42.377  29.676  34.593  1.00  0.00     0.074 A 
ATOM     39  C   UNL A   1      42.676  30.062  35.956  1.00  0.00     0.031 C 
ATOM     40  C   UNL A   1      43.072  28.748  33.891  1.00  0.00     0.034 A 
BRANCH  27  41
ATOM     41  C   UNL A   1      40.810  27.597  28.256  1.00  0.00     0.023 A 
ATOM     42  C   UNL A   1      41.502  28.109  27.140  1.00  0.00     0.012 A 
ATOM     43  C   UNL A   1      40.292  26.287  28.203  1.00  0.00     0.148 A 
ATOM     44  C   UNL A   1      41.651  27.345  25.982  1.00  0.00     0.002 A 
ATOM     45  C   UNL A   1      40.482  25.514  27.063  1.00  0.00     0.091 A 
ATOM     46  F   UNL A   1      39.624  25.821  29.269  1.00  0.00    -0.205 F 
ATOM     47  C   UNL A   1      41.151  26.045  25.948  1.00  0.00     0.022 A 
BRANCH  45  48
ATOM     48  S   UNL A   1      39.950  23.802  26.948  1.00  0.00     0.127 S 
ATOM     49  O   UNL A   1      38.496  23.941  26.998  1.00  0.00    -0.237 OA
ATOM     50  O   UNL A   1      40.479  23.402  25.643  1.00  0.00    -0.237 OA
ATOM     51  O   UNL A   1      40.549  23.116  28.084  1.00  0.00    -0.744 OA
ENDBRANCH  45  48
ENDBRANCH  27  41
BRANCH  28  52
ATOM     52  C   UNL A   1      39.648  32.925  36.639  1.00  0.00     0.023 A 
ATOM     53  C   UNL A   1      40.330  34.139  36.841  1.00  0.00     0.012 A 
ATOM     54  C   UNL A   1      38.763  32.458  37.630  1.00  0.00     0.148 A 
ATOM     55  C   UNL A   1      40.160  34.858  38.024  1.00  0.00     0.002 A 
ATOM     56  C   UNL A   1      38.549  33.211  38.776  1.00  0.00     0.091 A 
ATOM     57  F   UNL A   1      38.131  31.294  37.421  1.00  0.00    -0.205 F 
ATOM     58  C   UNL A   1      39.262  34.401  38.986  1.00  0.00     0.022 A 
BRANCH  56  59
ATOM     59  S   UNL A   1      37.309  32.770  39.998  1.00  0.00     0.127 S 
ATOM     60  O   UNL A   1      37.863  31.538  40.553  1.00  0.00    -0.237 OA
ATOM     61  O   UNL A   1      37.348  33.925  40.896  1.00  0.00    -0.237 OA
ATOM     62  O   UNL A   1      36.063  32.628  39.258  1.00  0.00    -0.744 OA
ENDBRANCH  56  59
ENDBRANCH  28  52
BRANCH  40  63
ATOM     63  C   UNL A   1      44.254  28.110  34.573  1.00  0.00     0.023 A 
ATOM     64  C   UNL A   1      45.525  28.715  34.497  1.00  0.00     0.012 A 
ATOM     65  C   UNL A   1      44.093  26.934  35.331  1.00  0.00     0.148 A 
ATOM     66  C   UNL A   1      46.625  28.136  35.128  1.00  0.00     0.002 A 
ATOM     67  C   UNL A   1      45.182  26.392  36.003  1.00  0.00     0.091 A 
ATOM     68  F   UNL A   1      42.881  26.362  35.376  1.00  0.00    -0.205 F 
ATOM     69  C   UNL A   1      46.451  26.983  35.891  1.00  0.00     0.022 A 
BRANCH  67  70
ATOM     70  S   UNL A   1      45.036  24.965  37.084  1.00  0.00     0.127 S 
ATOM     71  O   UNL A   1      44.112  25.458  38.103  1.00  0.00    -0.237 OA
ATOM     72  O   UNL A   1      44.474  23.955  36.187  1.00  0.00    -0.237 OA
ATOM     73  O   UNL A   1      46.384  24.675  37.553  1.00  0.00    -0.744 OA
ENDBRANCH  67  70
ENDBRANCH  40  63
ENDBRANCH  14  15
ENDBRANCH   7   9
ENDBRANCH   4   5
ENDBRANCH   3   4
ENDBRANCH   2   3
ENDBRANCH   1   2
BRANCH   1  74
ATOM     74  C   UNL A   1      33.042  28.800  25.399  1.00  0.00     0.021 C 
BRANCH  74  75
ATOM     75  C   UNL A   1      33.314  28.904  23.893  1.00  0.00     0.116 C 
BRANCH  75  76
ATOM     76  N   UNL A   1      32.130  29.338  23.165  1.00  0.00    -0.352 N 
ATOM     77  C   UNL A   1      31.127  28.600  22.588  1.00  0.00     0.251 C 
ATOM     78  H   UNL A   1      32.033  30.314  23.073  1.00  0.00     0.163 HD
ATOM     79  O   UNL A   1      30.325  29.129  21.825  1.00  0.00    -0.269 OA
BRANCH  77  80
ATOM     80  C   UNL A   1      30.997  27.162  22.889  1.00  0.00     0.039 A 
ATOM     81  C   UNL A   1      31.694  26.226  22.126  1.00  0.00     0.014 A 
ATOM     82  C   UNL A   1      30.111  26.729  23.870  1.00  0.00     0.014 A 
ATOM     83  C   UNL A   1      31.622  24.864  22.450  1.00  0.00     0.005 A 
ATOM     84  C   UNL A   1      30.008  25.364  24.153  1.00  0.00     0.005 A 
ATOM     85  C   UNL A   1      30.847  24.415  23.534  1.00  0.00    -0.039 A 
BRANCH  85  86
ATOM     86  C   UNL A   1      31.001  22.965  24.067  1.00  0.00     0.074 C 
ATOM     87  C   UNL A   1      31.884  22.147  23.102  1.00  0.00     0.020 C 
ATOM     88  C   UNL A   1      31.638  22.934  25.485  1.00  0.00     0.270 C 
ATOM     89  C   UNL A   1      32.325  20.822  23.710  1.00  0.00     0.062 C 
ATOM     90  N   UNL A   1      32.357  21.767  25.992  1.00  0.00    -0.333 N 
ATOM     91  C   UNL A   1      33.140  21.068  24.975  1.00  0.00     0.262 C 
ATOM     92  H   UNL A   1      31.640  21.100  26.278  1.00  0.00     0.348 HD
BRANCH  90  93
ATOM     93  C   UNL A   1      33.172  22.106  27.203  1.00  0.00     0.284 C 
BRANCH  93  94
ATOM     94  C   UNL A   1      34.512  22.922  27.118  1.00  0.00     0.180 C 
BRANCH  94  95
ATOM     95  N   UNL A   1      35.074  23.239  25.796  1.00  0.00    -0.337 N 
ATOM     96  C   UNL A   1      34.652  24.330  24.969  1.00  0.00     0.120 C 
ATOM     97  C   UNL A   1      36.030  22.473  25.141  1.00  0.00     0.222 C 
ATOM     98  C   UNL A   1      35.104  23.994  23.570  1.00  0.00     0.031 C 
ATOM     99  C   UNL A   1      36.325  23.126  23.808  1.00  0.00     0.102 C 
ATOM    100  O   UNL A   1      36.590  21.476  25.574  1.00  0.00    -0.275 OA
ENDBRANCH  94  95
ENDBRANCH  93  94
ENDBRANCH  90  93
ENDBRANCH  85  86
ENDBRANCH  77  80
ENDBRANCH  75  76
ENDBRANCH  74  75
ENDBRANCH   1  74
TORSDOF 20
ENDMDL
MODEL 3
REMARK VINA RESULT:     -11.8      0.741      7.574
REMARK SMILES O=C(NCCCCCCNC(=O)c1ccc([C@H]2CCC[N@@H+](CCN3CCCC3=O)C2)cc1)c1ccc(-c2c3nc(c(-c4cccc(S(=O)(=O)[O-])c4F)c4ccc([nH]4)c(-c4cccc(S(=O)(=O)[O-])c4F)c4nc(c(-c5cccc(S(=O)(=O)[O-])c5F)c5ccc2[nH]5)C=C4)C=C3)cc1
REMARK SMILES IDX 7 1 6 2 5 3 4 4 3 5 1 6 2 7 33 9 34 10 95 11 35 12 94 13
REMARK SMILES IDX 36 14 37 15 38 16 88 17 39 18 93 19 87 20 89 21 40 22 92 23
REMARK SMILES IDX 86 24 85 25 41 27 73 28 53 29 72 30 54 31 57 32 71 33 90 34
REMARK SMILES IDX 55 35 56 36 70 38 91 39 58 40 42 41 43 42 51 43 44 44 46 45
REMARK SMILES IDX 52 46 45 47 47 48 48 49 49 50 50 51 74 52 75 53 83 54 76 55
REMARK SMILES IDX 78 56 84 57 77 58 79 59 80 60 81 61 82 62 59 63 60 64 68 65
REMARK SMILES IDX 61 66 63 67 69 68 62 69 64 70 65 71 66 72 67 73 8 74 9 75
REMARK SMILES IDX 10 76 11 77 12 79 13 80 14 81 32 82 15 83 31 84 16 85 17 86
REMARK SMILES IDX 18 87 30 88 19 89 21 90 20 91 22 93 23 94 24 95 25 96 28 97
REMARK SMILES IDX 26 98 27 99 29 100
REMARK H PARENT 3 8 89 26 57 37 10 78 21 92
REMARK Flexibility Score: inf
ROOT
ATOM      1  C   UNL A   1      32.115  30.367  27.021  1.00  0.00     0.002 C 
ENDROOT
BRANCH   1   2
ATOM      2  C   UNL A   1      31.104  31.440  26.600  1.00  0.00     0.002 C 
BRANCH   2   3
ATOM      3  C   UNL A   1      31.667  32.854  26.472  1.00  0.00     0.021 C 
BRANCH   3   4
ATOM      4  C   UNL A   1      32.646  33.257  27.568  1.00  0.00     0.116 C 
BRANCH   4   5
ATOM      5  N   UNL A   1      32.513  34.653  27.956  1.00  0.00    -0.352 N 
ATOM      6  O   UNL A   1      32.824  36.482  29.241  1.00  0.00    -0.269 OA
ATOM      7  C   UNL A   1      33.183  35.348  28.938  1.00  0.00     0.251 C 
ATOM      8  H   UNL A   1      31.853  35.174  27.444  1.00  0.00     0.163 HD
BRANCH   7   9
ATOM      9  C   UNL A   1      34.317  34.706  29.641  1.00  0.00     0.039 A 
ATOM     10  C   UNL A   1      35.595  34.726  29.080  1.00  0.00     0.014 A 
ATOM     11  C   UNL A   1      34.099  34.067  30.865  1.00  0.00     0.014 A 
ATOM     12  C   UNL A   1      36.613  33.975  29.653  1.00  0.00     0.010 A 
ATOM     13  C   UNL A   1      35.155  33.398  31.496  1.00  0.00     0.010 A 
ATOM     14  C   UNL A   1      36.414  33.322  30.880  1.00  0.00    -0.014 A 
BRANCH  14  15
ATOM     15  C   UNL A   1      37.569  32.655  31.536  1.00  0.00     0.031 A 
ATOM     16  C   UNL A   1      38.086  33.102  32.877  1.00  0.00     0.074 A 
ATOM     17  C   UNL A   1      38.151  31.620  30.899  1.00  0.00     0.049 A 
ATOM     18  N   UNL A   1      39.065  32.599  33.585  1.00  0.00    -0.248 NA
ATOM     19  C   UNL A   1      37.429  34.260  33.504  1.00  0.00     0.031 C 
ATOM     20  C   UNL A   1      37.764  31.125  29.573  1.00  0.00     0.029 A 
ATOM     21  N   UNL A   1      39.183  30.797  31.268  1.00  0.00    -0.354 N 
ATOM     22  C   UNL A   1      39.170  33.396  34.719  1.00  0.00     0.074 A 
ATOM     23  C   UNL A   1      38.156  34.423  34.602  1.00  0.00     0.031 C 
ATOM     24  C   UNL A   1      38.526  30.070  29.255  1.00  0.00     0.029 A 
ATOM     25  C   UNL A   1      39.500  29.856  30.317  1.00  0.00     0.049 A 
ATOM     26  H   UNL A   1      39.652  30.873  32.130  1.00  0.00     0.167 HD
ATOM     27  C   UNL A   1      40.026  33.276  35.763  1.00  0.00     0.034 A 
ATOM     28  C   UNL A   1      40.483  28.937  30.284  1.00  0.00     0.034 A 
ATOM     29  C   UNL A   1      41.021  32.240  35.879  1.00  0.00     0.049 A 
ATOM     30  C   UNL A   1      41.412  28.830  31.456  1.00  0.00     0.074 A 
ATOM     31  C   UNL A   1      41.892  31.999  36.927  1.00  0.00     0.029 A 
ATOM     32  N   UNL A   1      41.292  31.286  34.910  1.00  0.00    -0.354 N 
ATOM     33  N   UNL A   1      41.410  29.513  32.575  1.00  0.00    -0.248 NA
ATOM     34  C   UNL A   1      42.464  27.808  31.374  1.00  0.00     0.031 C 
ATOM     35  C   UNL A   1      42.715  30.924  36.575  1.00  0.00     0.029 A 
ATOM     36  C   UNL A   1      42.328  30.465  35.326  1.00  0.00     0.049 A 
ATOM     37  H   UNL A   1      40.817  31.203  34.051  1.00  0.00     0.167 HD
ATOM     38  C   UNL A   1      42.440  28.984  33.343  1.00  0.00     0.074 A 
ATOM     39  C   UNL A   1      43.023  27.905  32.573  1.00  0.00     0.031 C 
ATOM     40  C   UNL A   1      42.873  29.368  34.569  1.00  0.00     0.034 A 
BRANCH  27  41
ATOM     41  C   UNL A   1      39.918  34.277  36.887  1.00  0.00     0.023 A 
ATOM     42  C   UNL A   1      40.273  35.623  36.664  1.00  0.00     0.012 A 
ATOM     43  C   UNL A   1      39.386  33.904  38.138  1.00  0.00     0.148 A 
ATOM     44  C   UNL A   1      40.130  36.574  37.675  1.00  0.00     0.002 A 
ATOM     45  C   UNL A   1      39.204  34.865  39.126  1.00  0.00     0.091 A 
ATOM     46  F   UNL A   1      39.067  32.616  38.338  1.00  0.00    -0.205 F 
ATOM     47  C   UNL A   1      39.586  36.197  38.901  1.00  0.00     0.022 A 
BRANCH  45  48
ATOM     48  S   UNL A   1      38.436  34.500  40.710  1.00  0.00     0.127 S 
ATOM     49  O   UNL A   1      39.477  33.711  41.367  1.00  0.00    -0.237 OA
ATOM     50  O   UNL A   1      38.239  35.837  41.271  1.00  0.00    -0.237 OA
ATOM     51  O   UNL A   1      37.208  33.779  40.406  1.00  0.00    -0.744 OA
ENDBRANCH  45  48
ENDBRANCH  27  41
BRANCH  28  52
ATOM     52  C   UNL A   1      40.620  28.038  29.104  1.00  0.00     0.023 A 
ATOM     53  C   UNL A   1      39.828  26.878  29.015  1.00  0.00     0.012 A 
ATOM     54  C   UNL A   1      41.513  28.344  28.058  1.00  0.00     0.148 A 
ATOM     55  C   UNL A   1      39.949  26.020  27.921  1.00  0.00     0.002 A 
ATOM     56  C   UNL A   1      41.581  27.521  26.943  1.00  0.00     0.091 A 
ATOM     57  F   UNL A   1      42.264  29.449  28.168  1.00  0.00    -0.205 F 
ATOM     58  C   UNL A   1      40.816  26.347  26.881  1.00  0.00     0.022 A 
BRANCH  56  59
ATOM     59  S   UNL A   1      42.563  27.939  25.499  1.00  0.00     0.127 S 
ATOM     60  O   UNL A   1      41.853  29.106  24.984  1.00  0.00    -0.237 OA
ATOM     61  O   UNL A   1      43.868  28.223  26.095  1.00  0.00    -0.237 OA
ATOM     62  O   UNL A   1      42.537  26.755  24.650  1.00  0.00    -0.744 OA
ENDBRANCH  56  59
ENDBRANCH  28  52
BRANCH  40  63
ATOM     63  C   UNL A   1      44.012  28.590  35.174  1.00  0.00     0.023 A 
ATOM     64  C   UNL A   1      45.339  28.866  34.790  1.00  0.00     0.012 A 
ATOM     65  C   UNL A   1      43.767  27.615  36.161  1.00  0.00     0.148 A 
ATOM     66  C   UNL A   1      46.402  28.155  35.347  1.00  0.00     0.002 A 
ATOM     67  C   UNL A   1      44.833  26.948  36.752  1.00  0.00     0.091 A 
ATOM     68  F   UNL A   1      42.496  27.352  36.499  1.00  0.00    -0.205 F 
ATOM     69  C   UNL A   1      46.150  27.206  36.335  1.00  0.00     0.022 A 
BRANCH  67  70
ATOM     70  S   UNL A   1      44.614  25.780  38.098  1.00  0.00     0.127 S 
ATOM     71  O   UNL A   1      43.487  26.367  38.820  1.00  0.00    -0.237 OA
ATOM     72  O   UNL A   1      44.303  24.542  37.383  1.00  0.00    -0.237 OA
ATOM     73  O   UNL A   1      45.877  25.759  38.823  1.00  0.00    -0.744 OA
ENDBRANCH  67  70
ENDBRANCH  40  63
ENDBRANCH  14  15
ENDBRANCH   7   9
ENDBRANCH   4   5
ENDBRANCH   3   4
ENDBRANCH   2   3
ENDBRANCH   1   2
BRANCH   1  74
ATOM     74  C   UNL A   1      32.329  29.218  26.025  1.00  0.00     0.021 C 
BRANCH  74  75
ATOM     75  C   UNL A   1      32.488  29.640  24.560  1.00  0.00     0.116 C 
BRANCH  75  76
ATOM     76  N   UNL A   1      31.330  29.256  23.764  1.00  0.00    -0.352 N 
ATOM     77  C   UNL A   1      31.109  28.129  23.012  1.00  0.00     0.251 C 
ATOM     78  H   UNL A   1      30.590  29.905  23.768  1.00  0.00     0.163 HD
ATOM     79  O   UNL A   1      30.164  28.079  22.231  1.00  0.00    -0.269 OA
BRANCH  77  80
ATOM     80  C   UNL A   1      32.002  26.963  23.142  1.00  0.00     0.039 A 
ATOM     81  C   UNL A   1      31.881  26.114  24.242  1.00  0.00     0.014 A 
ATOM     82  C   UNL A   1      33.025  26.758  22.222  1.00  0.00     0.014 A 
ATOM     83  C   UNL A   1      32.685  24.970  24.336  1.00  0.00     0.005 A 
ATOM     84  C   UNL A   1      33.855  25.640  22.352  1.00  0.00     0.005 A 
ATOM     85  C   UNL A   1      33.628  24.660  23.340  1.00  0.00    -0.039 A 
BRANCH  85  86
ATOM     86  C   UNL A   1      34.298  23.261  23.295  1.00  0.00     0.074 C 
ATOM     87  C   UNL A   1      35.784  23.383  23.692  1.00  0.00     0.020 C 
ATOM     88  C   UNL A   1      33.601  22.253  24.252  1.00  0.00     0.270 C 
ATOM     89  C   UNL A   1      36.419  22.026  23.964  1.00  0.00     0.062 C 
ATOM     90  N   UNL A   1      34.292  21.086  24.795  1.00  0.00    -0.333 N 
ATOM     91  C   UNL A   1      35.699  21.327  25.111  1.00  0.00     0.262 C 
ATOM     92  H   UNL A   1      34.305  20.395  24.044  1.00  0.00     0.348 HD
BRANCH  90  93
ATOM     93  C   UNL A   1      33.544  20.491  25.949  1.00  0.00     0.284 C 
BRANCH  93  94
ATOM     94  C   UNL A   1      32.720  19.159  25.825  1.00  0.00     0.180 C 
BRANCH  94  95
ATOM     95  N   UNL A   1      33.026  18.228  24.729  1.00  0.00    -0.337 N 
ATOM     96  C   UNL A   1      33.727  16.987  24.881  1.00  0.00     0.120 C 
ATOM     97  C   UNL A   1      32.748  18.468  23.389  1.00  0.00     0.222 C 
ATOM     98  C   UNL A   1      34.242  16.626  23.511  1.00  0.00     0.031 C 
ATOM     99  C   UNL A   1      33.234  17.280  22.587  1.00  0.00     0.102 C 
ATOM    100  O   UNL A   1      32.162  19.436  22.926  1.00  0.00    -0.275 OA
ENDBRANCH  94  95
ENDBRANCH  93  94
ENDBRANCH  90  93
ENDBRANCH  85  86
ENDBRANCH  77  80
ENDBRANCH  75  76
ENDBRANCH  74  75
ENDBRANCH   1  74
TORSDOF 20
ENDMDL
