MODEL 1
REMARK VINA RESULT:     -12.1      0.000      0.000
REMARK SMILES C[C@@H](C(=O)NCCCCCCNC(=O)c1ccc(-c2c3nc(c(-c4cccc(S(=O)(=O)[O-])c4F)c4ccc([nH]4)c(-c4cccc(S(=O)(=O)[O-])c4F)c4nc(c(-c5cccc(S(=O)(=O)[O-])c5F)c5ccc2[nH]5)C=C4)C=C3)cc1)c1ccc(C[C@H]2CCC[C@H]2O)cc1-c1ccc(O)cc1
REMARK SMILES IDX 8 1 7 2 6 3 5 4 3 5 4 6 2 8 1 9 78 10 79 11 90 12 80 13
REMARK SMILES IDX 89 14 81 15 91 16 92 17 97 18 93 19 96 20 94 21 95 22 82 24
REMARK SMILES IDX 83 25 84 26 87 27 85 28 86 29 88 30 9 32 10 33 11 34 12 35
REMARK SMILES IDX 13 36 14 38 15 39 16 40 77 41 17 42 76 43 18 44 19 45 20 46
REMARK SMILES IDX 70 47 21 48 75 49 69 50 71 51 22 52 74 53 68 54 67 55 23 57
REMARK SMILES IDX 55 58 35 59 54 60 36 61 39 62 53 63 72 64 37 65 38 66 52 68
REMARK SMILES IDX 73 69 40 70 24 71 25 72 33 73 26 74 28 75 34 76 27 77 29 78
REMARK SMILES IDX 30 79 31 80 32 81 56 82 57 83 65 84 58 85 60 86 66 87 59 88
REMARK SMILES IDX 61 89 62 90 63 91 64 92 41 93 42 94 50 95 43 96 45 97 51 98
REMARK SMILES IDX 44 99 46 100 47 101 48 102 49 103
REMARK H PARENT 5 7 95 23 88 31 12 37 71 56 39 67
REMARK Flexibility Score: inf
ROOT
ATOM      1  C   UNL A   1      32.095  27.886  24.864  1.00  0.00     0.002 C 
ENDROOT
BRANCH   1   2
ATOM      2  C   UNL A   1      33.017  27.150  23.881  1.00  0.00     0.021 C 
BRANCH   2   3
ATOM      3  C   UNL A   1      33.918  26.116  24.559  1.00  0.00     0.116 C 
BRANCH   3   4
ATOM      4  N   UNL A   1      34.402  25.189  23.554  1.00  0.00    -0.356 N 
ATOM      5  C   UNL A   1      35.078  24.019  23.755  1.00  0.00     0.227 C 
ATOM      6  O   UNL A   1      35.832  23.634  22.858  1.00  0.00    -0.274 OA
ATOM      7  H   UNL A   1      34.222  25.431  22.616  1.00  0.00     0.163 HD
BRANCH   5   8
ATOM      8  C   UNL A   1      34.856  23.250  25.063  1.00  0.00     0.106 C 
ATOM      9  C   UNL A   1      36.250  23.108  25.706  1.00  0.00     0.023 C 
BRANCH   8  10
ATOM     10  C   UNL A   1      34.125  21.919  24.821  1.00  0.00    -0.028 A 
ATOM     11  C   UNL A   1      34.824  20.710  24.998  1.00  0.00     0.005 A 
ATOM     12  C   UNL A   1      32.768  21.843  24.401  1.00  0.00    -0.014 A 
ATOM     13  C   UNL A   1      34.283  19.488  24.621  1.00  0.00     0.004 A 
ATOM     14  C   UNL A   1      32.282  20.601  23.927  1.00  0.00     0.012 A 
ATOM     15  C   UNL A   1      33.060  19.436  23.969  1.00  0.00    -0.047 A 
BRANCH  12  16
ATOM     16  C   UNL A   1      31.795  22.948  24.533  1.00  0.00    -0.018 A 
ATOM     17  C   UNL A   1      31.292  23.555  23.366  1.00  0.00     0.012 A 
ATOM     18  C   UNL A   1      31.384  23.475  25.767  1.00  0.00     0.012 A 
ATOM     19  C   UNL A   1      30.378  24.610  23.430  1.00  0.00     0.047 A 
ATOM     20  C   UNL A   1      30.433  24.502  25.838  1.00  0.00     0.047 A 
ATOM     21  C   UNL A   1      29.936  25.059  24.666  1.00  0.00     0.115 A 
BRANCH  21  22
ATOM     22  O   UNL A   1      29.009  26.058  24.688  1.00  0.00    -0.508 OA
ATOM     23  H   UNL A   1      28.120  25.867  24.913  1.00  0.00     0.293 HD
ENDBRANCH  21  22
ENDBRANCH  12  16
BRANCH  15  24
ATOM     24  C   UNL A   1      32.617  18.157  23.314  1.00  0.00     0.041 C 
BRANCH  24  25
ATOM     25  C   UNL A   1      33.125  16.843  23.943  1.00  0.00     0.022 C 
ATOM     26  C   UNL A   1      34.652  16.703  24.053  1.00  0.00     0.007 C 
ATOM     27  C   UNL A   1      32.603  16.415  25.326  1.00  0.00     0.117 C 
ATOM     28  C   UNL A   1      34.906  15.747  25.224  1.00  0.00     0.003 C 
ATOM     29  C   UNL A   1      33.533  15.261  25.683  1.00  0.00     0.032 C 
BRANCH  27  30
ATOM     30  O   UNL A   1      32.708  17.385  26.351  1.00  0.00    -0.393 OA
ATOM     31  H   UNL A   1      31.926  17.338  26.924  1.00  0.00     0.210 HD
ENDBRANCH  27  30
ENDBRANCH  24  25
ENDBRANCH  15  24
ENDBRANCH   8  10
ENDBRANCH   5   8
ENDBRANCH   3   4
ENDBRANCH   2   3
ENDBRANCH   1   2
BRANCH   1  32
ATOM     32  C   UNL A   1      32.258  27.455  26.325  1.00  0.00     0.002 C 
BRANCH  32  33
ATOM     33  C   UNL A   1      32.839  28.533  27.242  1.00  0.00     0.021 C 
BRANCH  33  34
ATOM     34  C   UNL A   1      33.935  29.373  26.598  1.00  0.00     0.116 C 
BRANCH  34  35
ATOM     35  N   UNL A   1      33.922  30.743  27.087  1.00  0.00    -0.352 N 
ATOM     36  C   UNL A   1      34.774  31.332  27.993  1.00  0.00     0.251 C 
ATOM     37  H   UNL A   1      33.215  31.324  26.723  1.00  0.00     0.163 HD
ATOM     38  O   UNL A   1      34.530  32.431  28.461  1.00  0.00    -0.269 OA
BRANCH  36  39
ATOM     39  C   UNL A   1      35.986  30.589  28.399  1.00  0.00     0.039 A 
ATOM     40  C   UNL A   1      37.165  30.753  27.669  1.00  0.00     0.014 A 
ATOM     41  C   UNL A   1      35.953  29.773  29.532  1.00  0.00     0.014 A 
ATOM     42  C   UNL A   1      38.336  30.133  28.111  1.00  0.00     0.010 A 
ATOM     43  C   UNL A   1      37.132  29.214  30.006  1.00  0.00     0.010 A 
ATOM     44  C   UNL A   1      38.332  29.382  29.297  1.00  0.00    -0.014 A 
BRANCH  44  45
ATOM     45  C   UNL A   1      39.561  28.746  29.831  1.00  0.00     0.031 A 
ATOM     46  C   UNL A   1      40.310  29.412  30.951  1.00  0.00     0.074 A 
ATOM     47  C   UNL A   1      40.079  27.664  29.219  1.00  0.00     0.049 A 
ATOM     48  N   UNL A   1      41.485  29.126  31.445  1.00  0.00    -0.248 NA
ATOM     49  C   UNL A   1      39.666  30.584  31.568  1.00  0.00     0.031 C 
ATOM     50  C   UNL A   1      39.483  26.978  28.072  1.00  0.00     0.029 A 
ATOM     51  N   UNL A   1      41.250  26.985  29.443  1.00  0.00    -0.354 N 
ATOM     52  C   UNL A   1      41.749  30.113  32.386  1.00  0.00     0.074 A 
ATOM     53  C   UNL A   1      40.620  31.019  32.378  1.00  0.00     0.031 C 
ATOM     54  C   UNL A   1      40.305  25.994  27.675  1.00  0.00     0.029 A 
ATOM     55  C   UNL A   1      41.498  26.000  28.517  1.00  0.00     0.049 A 
ATOM     56  H   UNL A   1      41.855  27.185  30.195  1.00  0.00     0.167 HD
ATOM     57  C   UNL A   1      42.822  30.241  33.201  1.00  0.00     0.034 A 
ATOM     58  C   UNL A   1      42.576  25.208  28.346  1.00  0.00     0.034 A 
ATOM     59  C   UNL A   1      43.910  29.304  33.243  1.00  0.00     0.049 A 
ATOM     60  C   UNL A   1      43.729  25.323  29.305  1.00  0.00     0.074 A 
ATOM     61  C   UNL A   1      44.987  29.276  34.109  1.00  0.00     0.029 A 
ATOM     62  N   UNL A   1      44.064  28.234  32.375  1.00  0.00    -0.354 N 
ATOM     63  N   UNL A   1      43.888  26.160  30.301  1.00  0.00    -0.248 NA
ATOM     64  C   UNL A   1      44.833  24.365  29.143  1.00  0.00     0.031 C 
ATOM     65  C   UNL A   1      45.804  28.199  33.752  1.00  0.00     0.029 A 
ATOM     66  C   UNL A   1      45.223  27.543  32.677  1.00  0.00     0.049 A 
ATOM     67  H   UNL A   1      43.441  28.001  31.650  1.00  0.00     0.167 HD
ATOM     68  C   UNL A   1      45.089  25.809  30.908  1.00  0.00     0.074 A 
ATOM     69  C   UNL A   1      45.613  24.677  30.172  1.00  0.00     0.031 C 
ATOM     70  C   UNL A   1      45.702  26.380  31.974  1.00  0.00     0.034 A 
BRANCH  57  71
ATOM     71  C   UNL A   1      42.842  31.416  34.143  1.00  0.00     0.023 A 
ATOM     72  C   UNL A   1      43.483  32.611  33.756  1.00  0.00     0.012 A 
ATOM     73  C   UNL A   1      42.210  31.349  35.399  1.00  0.00     0.148 A 
ATOM     74  C   UNL A   1      43.538  33.702  34.622  1.00  0.00     0.002 A 
ATOM     75  C   UNL A   1      42.227  32.457  36.239  1.00  0.00     0.091 A 
ATOM     76  F   UNL A   1      41.626  30.198  35.765  1.00  0.00    -0.205 F 
ATOM     77  C   UNL A   1      42.902  33.629  35.858  1.00  0.00     0.022 A 
BRANCH  75  78
ATOM     78  S   UNL A   1      41.364  32.478  37.814  1.00  0.00     0.127 S 
ATOM     79  O   UNL A   1      42.208  31.604  38.626  1.00  0.00    -0.237 OA
ATOM     80  O   UNL A   1      41.420  33.894  38.183  1.00  0.00    -0.237 OA
ATOM     81  O   UNL A   1      40.023  31.983  37.534  1.00  0.00    -0.744 OA
ENDBRANCH  75  78
ENDBRANCH  57  71
BRANCH  58  82
ATOM     82  C   UNL A   1      42.572  24.202  27.247  1.00  0.00     0.023 A 
ATOM     83  C   UNL A   1      43.233  24.497  26.040  1.00  0.00     0.012 A 
ATOM     84  C   UNL A   1      41.993  22.930  27.424  1.00  0.00     0.148 A 
ATOM     85  C   UNL A   1      43.304  23.547  25.019  1.00  0.00     0.002 A 
ATOM     86  C   UNL A   1      42.115  21.971  26.426  1.00  0.00     0.091 A 
ATOM     87  F   UNL A   1      41.366  22.676  28.580  1.00  0.00    -0.205 F 
ATOM     88  C   UNL A   1      42.758  22.282  25.217  1.00  0.00     0.022 A 
BRANCH  86  89
ATOM     89  S   UNL A   1      41.569  20.273  26.644  1.00  0.00     0.127 S 
ATOM     90  O   UNL A   1      42.323  19.865  27.826  1.00  0.00    -0.237 OA
ATOM     91  O   UNL A   1      40.131  20.446  26.858  1.00  0.00    -0.237 OA
ATOM     92  O   UNL A   1      41.914  19.583  25.408  1.00  0.00    -0.744 OA
ENDBRANCH  86  89
ENDBRANCH  58  82
BRANCH  70  93
ATOM     93  C   UNL A   1      46.995  25.778  32.455  1.00  0.00     0.023 A 
ATOM     94  C   UNL A   1      48.221  26.259  31.959  1.00  0.00     0.012 A 
ATOM     95  C   UNL A   1      46.991  24.827  33.497  1.00  0.00     0.148 A 
ATOM     96  C   UNL A   1      49.427  25.795  32.485  1.00  0.00     0.002 A 
ATOM     97  C   UNL A   1      48.195  24.404  34.046  1.00  0.00     0.091 A 
ATOM     98  F   UNL A   1      45.812  24.371  33.940  1.00  0.00    -0.205 F 
ATOM     99  C   UNL A   1      49.413  24.881  33.536  1.00  0.00     0.022 A 
BRANCH  97 100
ATOM    100  S   UNL A   1      48.276  23.307  35.467  1.00  0.00     0.127 S 
ATOM    101  O   UNL A   1      49.719  23.154  35.643  1.00  0.00    -0.237 OA
ATOM    102  O   UNL A   1      47.614  24.099  36.506  1.00  0.00    -0.237 OA
ATOM    103  O   UNL A   1      47.564  22.095  35.083  1.00  0.00    -0.744 OA
ENDBRANCH  97 100
ENDBRANCH  70  93
ENDBRANCH  44  45
ENDBRANCH  36  39
ENDBRANCH  34  35
ENDBRANCH  33  34
ENDBRANCH  32  33
ENDBRANCH   1  32
TORSDOF 22
ENDMDL
MODEL 2
REMARK VINA RESULT:     -12.1      1.918      3.042
REMARK SMILES C[C@@H](C(=O)NCCCCCCNC(=O)c1ccc(-c2c3nc(c(-c4cccc(S(=O)(=O)[O-])c4F)c4ccc([nH]4)c(-c4cccc(S(=O)(=O)[O-])c4F)c4nc(c(-c5cccc(S(=O)(=O)[O-])c5F)c5ccc2[nH]5)C=C4)C=C3)cc1)c1ccc(C[C@H]2CCC[C@H]2O)cc1-c1ccc(O)cc1
REMARK SMILES IDX 8 1 7 2 6 3 5 4 3 5 4 6 2 8 1 9 78 10 79 11 90 12 80 13
REMARK SMILES IDX 89 14 81 15 91 16 92 17 97 18 93 19 96 20 94 21 95 22 82 24
REMARK SMILES IDX 83 25 84 26 87 27 85 28 86 29 88 30 9 32 10 33 11 34 12 35
REMARK SMILES IDX 13 36 14 38 15 39 16 40 77 41 17 42 76 43 18 44 19 45 20 46
REMARK SMILES IDX 70 47 21 48 75 49 69 50 71 51 22 52 74 53 68 54 67 55 23 57
REMARK SMILES IDX 55 58 35 59 54 60 36 61 39 62 53 63 72 64 37 65 38 66 52 68
REMARK SMILES IDX 73 69 40 70 24 71 25 72 33 73 26 74 28 75 34 76 27 77 29 78
REMARK SMILES IDX 30 79 31 80 32 81 56 82 57 83 65 84 58 85 60 86 66 87 59 88
REMARK SMILES IDX 61 89 62 90 63 91 64 92 41 93 42 94 50 95 43 96 45 97 51 98
REMARK SMILES IDX 44 99 46 100 47 101 48 102 49 103
REMARK H PARENT 5 7 95 23 88 31 12 37 71 56 39 67
REMARK Flexibility Score: inf
ROOT
ATOM      1  C   UNL A   1      31.234  27.239  26.769  1.00  0.00     0.002 C 
ENDROOT
BRANCH   1   2
ATOM      2  C   UNL A   1      32.294  26.247  26.268  1.00  0.00     0.021 C 
BRANCH   2   3
ATOM      3  C   UNL A   1      31.757  24.822  26.110  1.00  0.00     0.116 C 
BRANCH   3   4
ATOM      4  N   UNL A   1      30.955  24.758  24.904  1.00  0.00    -0.356 N 
ATOM      5  C   UNL A   1      31.387  24.814  23.609  1.00  0.00     0.227 C 
ATOM      6  O   UNL A   1      30.603  25.249  22.763  1.00  0.00    -0.274 OA
ATOM      7  H   UNL A   1      29.983  24.663  25.033  1.00  0.00     0.163 HD
BRANCH   5   8
ATOM      8  C   UNL A   1      32.805  24.327  23.280  1.00  0.00     0.106 C 
ATOM      9  C   UNL A   1      33.189  25.022  21.959  1.00  0.00     0.023 C 
BRANCH   8  10
ATOM     10  C   UNL A   1      32.881  22.791  23.241  1.00  0.00    -0.028 A 
ATOM     11  C   UNL A   1      31.976  22.081  22.430  1.00  0.00     0.005 A 
ATOM     12  C   UNL A   1      33.815  22.040  24.006  1.00  0.00    -0.014 A 
ATOM     13  C   UNL A   1      31.870  20.697  22.490  1.00  0.00     0.004 A 
ATOM     14  C   UNL A   1      33.614  20.645  24.126  1.00  0.00     0.012 A 
ATOM     15  C   UNL A   1      32.599  19.979  23.426  1.00  0.00    -0.047 A 
BRANCH  12  16
ATOM     16  C   UNL A   1      35.050  22.602  24.593  1.00  0.00    -0.018 A 
ATOM     17  C   UNL A   1      36.248  22.530  23.857  1.00  0.00     0.012 A 
ATOM     18  C   UNL A   1      35.113  23.153  25.882  1.00  0.00     0.012 A 
ATOM     19  C   UNL A   1      37.448  23.035  24.367  1.00  0.00     0.047 A 
ATOM     20  C   UNL A   1      36.303  23.703  26.380  1.00  0.00     0.047 A 
ATOM     21  C   UNL A   1      37.460  23.641  25.614  1.00  0.00     0.115 A 
BRANCH  21  22
ATOM     22  O   UNL A   1      38.638  24.164  26.058  1.00  0.00    -0.508 OA
ATOM     23  H   UNL A   1      39.386  23.610  26.162  1.00  0.00     0.293 HD
ENDBRANCH  21  22
ENDBRANCH  12  16
BRANCH  15  24
ATOM     24  C   UNL A   1      32.271  18.533  23.678  1.00  0.00     0.041 C 
BRANCH  24  25
ATOM     25  C   UNL A   1      33.270  17.733  24.539  1.00  0.00     0.022 C 
ATOM     26  C   UNL A   1      32.659  16.623  25.410  1.00  0.00     0.007 C 
ATOM     27  C   UNL A   1      34.483  17.064  23.867  1.00  0.00     0.117 C 
ATOM     28  C   UNL A   1      33.772  15.591  25.623  1.00  0.00     0.003 C 
ATOM     29  C   UNL A   1      35.026  16.179  24.982  1.00  0.00     0.032 C 
BRANCH  27  30
ATOM     30  O   UNL A   1      34.192  16.231  22.760  1.00  0.00    -0.393 OA
ATOM     31  H   UNL A   1      33.344  15.784  22.906  1.00  0.00     0.210 HD
ENDBRANCH  27  30
ENDBRANCH  24  25
ENDBRANCH  15  24
ENDBRANCH   8  10
ENDBRANCH   5   8
ENDBRANCH   3   4
ENDBRANCH   2   3
ENDBRANCH   1   2
BRANCH   1  32
ATOM     32  C   UNL A   1      31.798  28.409  27.581  1.00  0.00     0.002 C 
BRANCH  32  33
ATOM     33  C   UNL A   1      31.718  29.765  26.877  1.00  0.00     0.021 C 
BRANCH  33  34
ATOM     34  C   UNL A   1      33.074  30.400  26.595  1.00  0.00     0.116 C 
BRANCH  34  35
ATOM     35  N   UNL A   1      33.072  31.827  26.885  1.00  0.00    -0.352 N 
ATOM     36  C   UNL A   1      33.915  32.527  27.716  1.00  0.00     0.251 C 
ATOM     37  H   UNL A   1      32.381  32.358  26.426  1.00  0.00     0.163 HD
ATOM     38  O   UNL A   1      33.679  33.685  28.017  1.00  0.00    -0.269 OA
BRANCH  36  39
ATOM     39  C   UNL A   1      35.108  31.836  28.250  1.00  0.00     0.039 A 
ATOM     40  C   UNL A   1      36.327  32.515  28.301  1.00  0.00     0.014 A 
ATOM     41  C   UNL A   1      34.993  30.532  28.738  1.00  0.00     0.014 A 
ATOM     42  C   UNL A   1      37.429  31.900  28.899  1.00  0.00     0.010 A 
ATOM     43  C   UNL A   1      36.071  29.951  29.391  1.00  0.00     0.010 A 
ATOM     44  C   UNL A   1      37.300  30.625  29.472  1.00  0.00    -0.014 A 
BRANCH  44  45
ATOM     45  C   UNL A   1      38.429  29.952  30.159  1.00  0.00     0.031 A 
ATOM     46  C   UNL A   1      38.858  30.431  31.517  1.00  0.00     0.074 A 
ATOM     47  C   UNL A   1      39.154  29.021  29.509  1.00  0.00     0.049 A 
ATOM     48  N   UNL A   1      39.915  30.107  32.212  1.00  0.00    -0.248 NA
ATOM     49  C   UNL A   1      38.001  31.444  32.159  1.00  0.00     0.031 C 
ATOM     50  C   UNL A   1      38.882  28.533  28.156  1.00  0.00     0.029 A 
ATOM     51  N   UNL A   1      40.299  28.361  29.878  1.00  0.00    -0.354 N 
ATOM     52  C   UNL A   1      39.885  30.915  33.342  1.00  0.00     0.074 A 
ATOM     53  C   UNL A   1      38.717  31.762  33.227  1.00  0.00     0.031 C 
ATOM     54  C   UNL A   1      39.848  27.672  27.799  1.00  0.00     0.029 A 
ATOM     55  C   UNL A   1      40.822  27.572  28.882  1.00  0.00     0.049 A 
ATOM     56  H   UNL A   1      40.705  28.444  30.772  1.00  0.00     0.167 HD
ATOM     57  C   UNL A   1      40.739  30.935  34.392  1.00  0.00     0.034 A 
ATOM     58  C   UNL A   1      41.971  26.869  28.833  1.00  0.00     0.034 A 
ATOM     59  C   UNL A   1      41.864  30.051  34.524  1.00  0.00     0.049 A 
ATOM     60  C   UNL A   1      42.873  26.853  30.036  1.00  0.00     0.074 A 
ATOM     61  C   UNL A   1      42.723  29.909  35.598  1.00  0.00     0.029 A 
ATOM     62  N   UNL A   1      42.290  29.165  33.547  1.00  0.00    -0.354 N 
ATOM     63  N   UNL A   1      42.742  27.499  31.169  1.00  0.00    -0.248 NA
ATOM     64  C   UNL A   1      44.060  25.986  29.973  1.00  0.00     0.031 C 
ATOM     65  C   UNL A   1      43.683  28.949  35.262  1.00  0.00     0.029 A 
ATOM     66  C   UNL A   1      43.406  28.478  33.987  1.00  0.00     0.049 A 
ATOM     67  H   UNL A   1      41.863  29.044  32.669  1.00  0.00     0.167 HD
ATOM     68  C   UNL A   1      43.804  27.092  31.968  1.00  0.00     0.074 A 
ATOM     69  C   UNL A   1      44.567  26.136  31.192  1.00  0.00     0.031 C 
ATOM     70  C   UNL A   1      44.121  27.482  33.227  1.00  0.00     0.034 A 
BRANCH  57  71
ATOM     71  C   UNL A   1      40.458  31.917  35.498  1.00  0.00     0.023 A 
ATOM     72  C   UNL A   1      41.283  33.051  35.652  1.00  0.00     0.012 A 
ATOM     73  C   UNL A   1      39.367  31.736  36.369  1.00  0.00     0.148 A 
ATOM     74  C   UNL A   1      41.057  33.959  36.685  1.00  0.00     0.002 A 
ATOM     75  C   UNL A   1      39.120  32.671  37.368  1.00  0.00     0.091 A 
ATOM     76  F   UNL A   1      38.606  30.640  36.227  1.00  0.00    -0.205 F 
ATOM     77  C   UNL A   1      39.972  33.775  37.536  1.00  0.00     0.022 A 
BRANCH  75  78
ATOM     78  S   UNL A   1      37.696  32.555  38.456  1.00  0.00     0.127 S 
ATOM     79  O   UNL A   1      37.987  33.598  39.438  1.00  0.00    -0.237 OA
ATOM     80  O   UNL A   1      36.585  32.862  37.553  1.00  0.00    -0.237 OA
ATOM     81  O   UNL A   1      37.698  31.190  38.963  1.00  0.00    -0.744 OA
ENDBRANCH  75  78
ENDBRANCH  57  71
BRANCH  58  82
ATOM     82  C   UNL A   1      42.290  26.082  27.608  1.00  0.00     0.023 A 
ATOM     83  C   UNL A   1      43.037  26.682  26.577  1.00  0.00     0.012 A 
ATOM     84  C   UNL A   1      41.932  24.724  27.500  1.00  0.00     0.148 A 
ATOM     85  C   UNL A   1      43.408  25.947  25.450  1.00  0.00     0.002 A 
ATOM     86  C   UNL A   1      42.352  23.984  26.401  1.00  0.00     0.091 A 
ATOM     87  F   UNL A   1      41.218  24.177  28.493  1.00  0.00    -0.205 F 
ATOM     88  C   UNL A   1      43.078  24.597  25.368  1.00  0.00     0.022 A 
BRANCH  86  89
ATOM     89  S   UNL A   1      42.097  22.210  26.275  1.00  0.00     0.127 S 
ATOM     90  O   UNL A   1      40.649  22.128  26.092  1.00  0.00    -0.237 OA
ATOM     91  O   UNL A   1      42.888  21.876  25.091  1.00  0.00    -0.237 OA
ATOM     92  O   UNL A   1      42.608  21.646  27.518  1.00  0.00    -0.744 OA
ENDBRANCH  86  89
ENDBRANCH  58  82
BRANCH  70  93
ATOM     93  C   UNL A   1      45.321  26.855  33.884  1.00  0.00     0.023 A 
ATOM     94  C   UNL A   1      46.569  27.504  33.832  1.00  0.00     0.012 A 
ATOM     95  C   UNL A   1      45.175  25.689  34.663  1.00  0.00     0.148 A 
ATOM     96  C   UNL A   1      47.659  26.996  34.538  1.00  0.00     0.002 A 
ATOM     97  C   UNL A   1      46.253  25.215  35.400  1.00  0.00     0.091 A 
ATOM     98  F   UNL A   1      43.982  25.080  34.683  1.00  0.00    -0.205 F 
ATOM     99  C   UNL A   1      47.497  25.863  35.333  1.00  0.00     0.022 A 
BRANCH  97 100
ATOM    100  S   UNL A   1      46.115  23.823  36.528  1.00  0.00     0.127 S 
ATOM    101  O   UNL A   1      47.483  23.713  37.033  1.00  0.00    -0.237 OA
ATOM    102  O   UNL A   1      45.141  24.313  37.504  1.00  0.00    -0.237 OA
ATOM    103  O   UNL A   1      45.656  22.697  35.726  1.00  0.00    -0.744 OA
ENDBRANCH  97 100
ENDBRANCH  70  93
ENDBRANCH  44  45
ENDBRANCH  36  39
ENDBRANCH  34  35
ENDBRANCH  33  34
ENDBRANCH  32  33
ENDBRANCH   1  32
TORSDOF 22
ENDMDL
MODEL 3
REMARK VINA RESULT:     -11.9      5.098     10.118
REMARK SMILES C[C@@H](C(=O)NCCCCCCNC(=O)c1ccc(-c2c3nc(c(-c4cccc(S(=O)(=O)[O-])c4F)c4ccc([nH]4)c(-c4cccc(S(=O)(=O)[O-])c4F)c4nc(c(-c5cccc(S(=O)(=O)[O-])c5F)c5ccc2[nH]5)C=C4)C=C3)cc1)c1ccc(C[C@H]2CCC[C@H]2O)cc1-c1ccc(O)cc1
REMARK SMILES IDX 8 1 7 2 6 3 5 4 3 5 4 6 2 8 1 9 78 10 79 11 90 12 80 13
REMARK SMILES IDX 89 14 81 15 91 16 92 17 97 18 93 19 96 20 94 21 95 22 82 24
REMARK SMILES IDX 83 25 84 26 87 27 85 28 86 29 88 30 9 32 10 33 11 34 12 35
REMARK SMILES IDX 13 36 14 38 15 39 16 40 77 41 17 42 76 43 18 44 19 45 20 46
REMARK SMILES IDX 70 47 21 48 75 49 69 50 71 51 22 52 74 53 68 54 67 55 23 57
REMARK SMILES IDX 55 58 35 59 54 60 36 61 39 62 53 63 72 64 37 65 38 66 52 68
REMARK SMILES IDX 73 69 40 70 24 71 25 72 33 73 26 74 28 75 34 76 27 77 29 78
REMARK SMILES IDX 30 79 31 80 32 81 56 82 57 83 65 84 58 85 60 86 66 87 59 88
REMARK SMILES IDX 61 89 62 90 63 91 64 92 41 93 42 94 50 95 43 96 45 97 51 98
REMARK SMILES IDX 44 99 46 100 47 101 48 102 49 103
REMARK H PARENT 5 7 95 23 88 31 12 37 71 56 39 67
REMARK Flexibility Score: inf
ROOT
ATOM      1  C   UNL A   1      33.406  23.557  26.562  1.00  0.00     0.002 C 
ENDROOT
BRANCH   1   2
ATOM      2  C   UNL A   1      31.934  23.137  26.437  1.00  0.00     0.021 C 
BRANCH   2   3
ATOM      3  C   UNL A   1      31.419  23.168  24.996  1.00  0.00     0.116 C 
BRANCH   3   4
ATOM      4  N   UNL A   1      32.556  23.172  24.096  1.00  0.00    -0.356 N 
ATOM      5  C   UNL A   1      32.711  23.901  22.950  1.00  0.00     0.227 C 
ATOM      6  O   UNL A   1      33.446  23.440  22.075  1.00  0.00    -0.274 OA
ATOM      7  H   UNL A   1      33.305  22.580  24.338  1.00  0.00     0.163 HD
BRANCH   5   8
ATOM      8  C   UNL A   1      31.980  25.244  22.823  1.00  0.00     0.106 C 
ATOM      9  C   UNL A   1      32.118  25.655  21.343  1.00  0.00     0.023 C 
BRANCH   8  10
ATOM     10  C   UNL A   1      32.518  26.279  23.827  1.00  0.00    -0.028 A 
ATOM     11  C   UNL A   1      33.889  26.276  24.146  1.00  0.00     0.005 A 
ATOM     12  C   UNL A   1      31.689  27.236  24.474  1.00  0.00    -0.014 A 
ATOM     13  C   UNL A   1      34.403  27.055  25.174  1.00  0.00     0.004 A 
ATOM     14  C   UNL A   1      32.217  27.938  25.583  1.00  0.00     0.012 A 
ATOM     15  C   UNL A   1      33.553  27.798  25.981  1.00  0.00    -0.047 A 
BRANCH  12  16
ATOM     16  C   UNL A   1      30.347  27.632  23.995  1.00  0.00    -0.018 A 
ATOM     17  C   UNL A   1      29.270  26.745  24.179  1.00  0.00     0.012 A 
ATOM     18  C   UNL A   1      30.093  28.828  23.306  1.00  0.00     0.012 A 
ATOM     19  C   UNL A   1      27.982  27.062  23.737  1.00  0.00     0.047 A 
ATOM     20  C   UNL A   1      28.795  29.172  22.902  1.00  0.00     0.047 A 
ATOM     21  C   UNL A   1      27.750  28.284  23.125  1.00  0.00     0.115 A 
BRANCH  21  22
ATOM     22  O   UNL A   1      26.473  28.578  22.751  1.00  0.00    -0.508 OA
ATOM     23  H   UNL A   1      25.950  27.930  22.322  1.00  0.00     0.293 HD
ENDBRANCH  21  22
ENDBRANCH  12  16
BRANCH  15  24
ATOM     24  C   UNL A   1      34.076  28.404  27.255  1.00  0.00     0.041 C 
BRANCH  24  25
ATOM     25  C   UNL A   1      34.509  29.883  27.194  1.00  0.00     0.022 C 
ATOM     26  C   UNL A   1      33.390  30.915  27.409  1.00  0.00     0.007 C 
ATOM     27  C   UNL A   1      35.657  30.373  28.095  1.00  0.00     0.117 C 
ATOM     28  C   UNL A   1      34.074  32.172  27.961  1.00  0.00     0.003 C 
ATOM     29  C   UNL A   1      35.573  31.887  27.936  1.00  0.00     0.032 C 
BRANCH  27  30
ATOM     30  O   UNL A   1      35.527  30.078  29.473  1.00  0.00    -0.393 OA
ATOM     31  H   UNL A   1      36.325  29.625  29.785  1.00  0.00     0.210 HD
ENDBRANCH  27  30
ENDBRANCH  24  25
ENDBRANCH  15  24
ENDBRANCH   8  10
ENDBRANCH   5   8
ENDBRANCH   3   4
ENDBRANCH   2   3
ENDBRANCH   1   2
BRANCH   1  32
ATOM     32  C   UNL A   1      34.327  22.470  27.126  1.00  0.00     0.002 C 
BRANCH  32  33
ATOM     33  C   UNL A   1      35.130  21.710  26.069  1.00  0.00     0.021 C 
BRANCH  33  34
ATOM     34  C   UNL A   1      36.550  22.229  25.877  1.00  0.00     0.116 C 
BRANCH  34  35
ATOM     35  N   UNL A   1      37.529  21.152  25.926  1.00  0.00    -0.352 N 
ATOM     36  C   UNL A   1      38.887  21.244  26.126  1.00  0.00     0.251 C 
ATOM     37  H   UNL A   1      37.174  20.242  25.801  1.00  0.00     0.163 HD
ATOM     38  O   UNL A   1      39.614  20.282  25.949  1.00  0.00    -0.269 OA
BRANCH  36  39
ATOM     39  C   UNL A   1      39.446  22.547  26.547  1.00  0.00     0.039 A 
ATOM     40  C   UNL A   1      40.503  22.575  27.460  1.00  0.00     0.014 A 
ATOM     41  C   UNL A   1      38.946  23.728  25.994  1.00  0.00     0.014 A 
ATOM     42  C   UNL A   1      41.099  23.796  27.780  1.00  0.00     0.010 A 
ATOM     43  C   UNL A   1      39.585  24.931  26.262  1.00  0.00     0.010 A 
ATOM     44  C   UNL A   1      40.661  24.978  27.161  1.00  0.00    -0.014 A 
BRANCH  44  45
ATOM     45  C   UNL A   1      41.296  26.291  27.432  1.00  0.00     0.031 A 
ATOM     46  C   UNL A   1      42.679  26.564  26.912  1.00  0.00     0.074 A 
ATOM     47  C   UNL A   1      40.697  27.169  28.261  1.00  0.00     0.049 A 
ATOM     48  N   UNL A   1      43.479  27.562  27.177  1.00  0.00    -0.248 NA
ATOM     49  C   UNL A   1      43.253  25.555  26.006  1.00  0.00     0.031 C 
ATOM     50  C   UNL A   1      39.390  26.978  28.891  1.00  0.00     0.029 A 
ATOM     51  N   UNL A   1      41.135  28.371  28.757  1.00  0.00    -0.354 N 
ATOM     52  C   UNL A   1      44.669  27.275  26.521  1.00  0.00     0.074 A 
ATOM     53  C   UNL A   1      44.494  25.997  25.864  1.00  0.00     0.031 C 
ATOM     54  C   UNL A   1      39.144  28.012  29.710  1.00  0.00     0.029 A 
ATOM     55  C   UNL A   1      40.288  28.920  29.689  1.00  0.00     0.049 A 
ATOM     56  H   UNL A   1      41.976  28.799  28.472  1.00  0.00     0.167 HD
ATOM     57  C   UNL A   1      45.799  28.017  26.450  1.00  0.00     0.034 A 
ATOM     58  C   UNL A   1      40.425  30.017  30.461  1.00  0.00     0.034 A 
ATOM     59  C   UNL A   1      45.943  29.312  27.057  1.00  0.00     0.049 A 
ATOM     60  C   UNL A   1      41.660  30.864  30.318  1.00  0.00     0.074 A 
ATOM     61  C   UNL A   1      47.000  30.197  26.951  1.00  0.00     0.029 A 
ATOM     62  N   UNL A   1      45.006  29.901  27.891  1.00  0.00    -0.354 N 
ATOM     63  N   UNL A   1      42.711  30.661  29.562  1.00  0.00    -0.248 NA
ATOM     64  C   UNL A   1      41.715  32.107  31.102  1.00  0.00     0.031 C 
ATOM     65  C   UNL A   1      46.709  31.316  27.738  1.00  0.00     0.029 A 
ATOM     66  C   UNL A   1      45.461  31.136  28.315  1.00  0.00     0.049 A 
ATOM     67  H   UNL A   1      44.144  29.500  28.144  1.00  0.00     0.167 HD
ATOM     68  C   UNL A   1      43.536  31.765  29.749  1.00  0.00     0.074 A 
ATOM     69  C   UNL A   1      42.858  32.638  30.685  1.00  0.00     0.031 C 
ATOM     70  C   UNL A   1      44.748  32.024  29.199  1.00  0.00     0.034 A 
BRANCH  57  71
ATOM     71  C   UNL A   1      46.947  27.461  25.651  1.00  0.00     0.023 A 
ATOM     72  C   UNL A   1      47.839  26.548  26.251  1.00  0.00     0.012 A 
ATOM     73  C   UNL A   1      47.133  27.820  24.302  1.00  0.00     0.148 A 
ATOM     74  C   UNL A   1      48.924  26.041  25.539  1.00  0.00     0.002 A 
ATOM     75  C   UNL A   1      48.191  27.273  23.583  1.00  0.00     0.091 A 
ATOM     76  F   UNL A   1      46.293  28.709  23.751  1.00  0.00    -0.205 F 
ATOM     77  C   UNL A   1      49.095  26.396  24.204  1.00  0.00     0.022 A 
BRANCH  75  78
ATOM     78  S   UNL A   1      48.436  27.611  21.837  1.00  0.00     0.127 S 
ATOM     79  O   UNL A   1      47.153  28.204  21.466  1.00  0.00    -0.237 OA
ATOM     80  O   UNL A   1      49.560  28.550  21.854  1.00  0.00    -0.237 OA
ATOM     81  O   UNL A   1      48.739  26.324  21.226  1.00  0.00    -0.744 OA
ENDBRANCH  75  78
ENDBRANCH  57  71
BRANCH  58  82
ATOM     82  C   UNL A   1      39.326  30.392  31.394  1.00  0.00     0.023 A 
ATOM     83  C   UNL A   1      39.316  29.860  32.698  1.00  0.00     0.012 A 
ATOM     84  C   UNL A   1      38.344  31.333  31.026  1.00  0.00     0.148 A 
ATOM     85  C   UNL A   1      38.338  30.247  33.615  1.00  0.00     0.002 A 
ATOM     86  C   UNL A   1      37.407  31.755  31.961  1.00  0.00     0.091 A 
ATOM     87  F   UNL A   1      38.372  31.821  29.778  1.00  0.00    -0.205 F 
ATOM     88  C   UNL A   1      37.392  31.203  33.251  1.00  0.00     0.022 A 
BRANCH  86  89
ATOM     89  S   UNL A   1      36.240  33.081  31.630  1.00  0.00     0.127 S 
ATOM     90  O   UNL A   1      36.242  33.805  32.899  1.00  0.00    -0.237 OA
ATOM     91  O   UNL A   1      36.888  33.780  30.519  1.00  0.00    -0.237 OA
ATOM     92  O   UNL A   1      34.986  32.428  31.279  1.00  0.00    -0.744 OA
ENDBRANCH  86  89
ENDBRANCH  58  82
BRANCH  70  93
ATOM     93  C   UNL A   1      45.423  33.323  29.549  1.00  0.00     0.023 A 
ATOM     94  C   UNL A   1      46.356  33.368  30.602  1.00  0.00     0.012 A 
ATOM     95  C   UNL A   1      45.226  34.465  28.746  1.00  0.00     0.148 A 
ATOM     96  C   UNL A   1      47.077  34.534  30.858  1.00  0.00     0.002 A 
ATOM     97  C   UNL A   1      45.980  35.607  28.978  1.00  0.00     0.091 A 
ATOM     98  F   UNL A   1      44.320  34.402  27.760  1.00  0.00    -0.205 F 
ATOM     99  C   UNL A   1      46.901  35.646  30.038  1.00  0.00     0.022 A 
BRANCH  97 100
ATOM    100  S   UNL A   1      45.896  37.053  27.914  1.00  0.00     0.127 S 
ATOM    101  O   UNL A   1      46.925  37.912  28.497  1.00  0.00    -0.237 OA
ATOM    102  O   UNL A   1      46.237  36.494  26.605  1.00  0.00    -0.237 OA
ATOM    103  O   UNL A   1      44.533  37.555  28.022  1.00  0.00    -0.744 OA
ENDBRANCH  97 100
ENDBRANCH  70  93
ENDBRANCH  44  45
ENDBRANCH  36  39
ENDBRANCH  34  35
ENDBRANCH  33  34
ENDBRANCH  32  33
ENDBRANCH   1  32
TORSDOF 22
ENDMDL
