MODEL 1
REMARK VINA RESULT:      -9.3      0.000      0.000
REMARK SMILES CCCCCCCCNC(=O)Oc1cccc(-c2ccc([C@@H](C)C(=O)NCCCCCCNC(=O)c3ccc(-c4c5nc(c(-c6cccc(S(=O)(=O)[O-])c6F)c6ccc([nH]6)c(-c6cccc(S(=O)(=O)[O-])c6F)c6nc(c(-c7cccc(S(=O)(=O)[O-])c7F)c7ccc4[nH]7)C=C6)C=C5)cc3)cc2F)c1
REMARK SMILES IDX 22 1 23 2 21 3 18 4 19 5 100 6 20 7 99 8 101 9 17 10 13 11
REMARK SMILES IDX 14 12 102 13 15 14 16 15 12 16 10 17 9 18 11 20 8 21 7 22
REMARK SMILES IDX 6 23 5 24 4 25 3 26 2 27 1 28 24 29 25 30 26 31 27 33 28 34
REMARK SMILES IDX 29 35 30 36 31 37 32 38 33 39 34 40 35 42 36 43 37 44 98 45
REMARK SMILES IDX 38 46 97 47 39 48 40 49 41 50 91 51 42 52 96 53 90 54 92 55
REMARK SMILES IDX 43 56 95 57 89 58 88 59 44 61 76 62 56 63 75 64 57 65 60 66
REMARK SMILES IDX 74 67 93 68 58 69 59 70 73 72 94 73 61 74 45 75 46 76 54 77
REMARK SMILES IDX 47 78 49 79 55 80 48 81 50 82 51 83 52 84 53 85 77 86 78 87
REMARK SMILES IDX 86 88 79 89 81 90 87 91 80 92 82 93 83 94 84 95 85 96 62 97
REMARK SMILES IDX 63 98 71 99 64 100 66 101 72 102 65 103 67 104 68 105 69 106
REMARK SMILES IDX 70 107
REMARK H PARENT 9 19 26 32 33 41 92 60 60 71
REMARK Flexibility Score: inf
ROOT
ATOM      1  C   UNL A   1      35.862  31.425  28.562  1.00  0.00     0.105 C 
ATOM      2  C   UNL A   1      35.426  32.817  29.016  1.00  0.00     0.023 C 
ENDROOT
BRANCH   1   3
ATOM      3  C   UNL A   1      34.807  30.606  27.836  1.00  0.00    -0.033 A 
ATOM      4  C   UNL A   1      32.835  29.214  26.301  1.00  0.00     0.018 A 
ATOM      5  C   UNL A   1      34.096  28.657  26.558  1.00  0.00     0.012 A 
ATOM      6  C   UNL A   1      32.570  30.463  26.880  1.00  0.00     0.131 A 
ATOM      7  C   UNL A   1      35.046  29.322  27.340  1.00  0.00     0.005 A 
ATOM      8  C   UNL A   1      33.537  31.158  27.613  1.00  0.00     0.044 A 
ATOM      9  F   UNL A   1      31.366  31.041  26.739  1.00  0.00    -0.206 F 
BRANCH   4  10
ATOM     10  C   UNL A   1      31.877  28.513  25.422  1.00  0.00    -0.012 A 
ATOM     11  C   UNL A   1      30.558  26.549  24.874  1.00  0.00     0.133 A 
ATOM     12  C   UNL A   1      29.939  27.209  23.820  1.00  0.00     0.047 A 
ATOM     13  C   UNL A   1      31.523  27.176  25.661  1.00  0.00     0.056 A 
ATOM     14  C   UNL A   1      30.282  28.530  23.560  1.00  0.00     0.004 A 
ATOM     15  C   UNL A   1      31.244  29.170  24.349  1.00  0.00     0.009 A 
BRANCH  11  16
ATOM     16  O   UNL A   1      30.266  25.191  25.045  1.00  0.00    -0.410 OA
BRANCH  16  17
ATOM     17  C   UNL A   1      29.816  24.790  26.292  1.00  0.00     0.412 C 
ATOM     18  N   UNL A   1      30.619  23.841  26.858  1.00  0.00    -0.321 N 
ATOM     19  H   UNL A   1      30.330  23.471  27.724  1.00  0.00     0.167 HD
ATOM     20  O   UNL A   1      28.821  25.199  26.877  1.00  0.00    -0.224 OA
BRANCH  18  21
ATOM     21  C   UNL A   1      31.856  23.326  26.308  1.00  0.00     0.119 C 
BRANCH  21  22
ATOM     22  C   UNL A   1      31.645  21.982  25.612  1.00  0.00     0.021 C 
BRANCH  22  23
ATOM     23  C   UNL A   1      32.517  21.766  24.369  1.00  0.00     0.002 C 
BRANCH  23  24
ATOM     24  C   UNL A   1      33.822  22.569  24.349  1.00  0.00     0.000 C 
BRANCH  24  25
ATOM     25  C   UNL A   1      34.309  22.962  22.949  1.00  0.00    -0.000 C 
BRANCH  25  26
ATOM     26  C   UNL A   1      33.274  23.699  22.093  1.00  0.00    -0.000 C 
BRANCH  26  27
ATOM     27  C   UNL A   1      32.731  24.994  22.701  1.00  0.00    -0.003 C 
ATOM     28  C   UNL A   1      33.534  26.224  22.313  1.00  0.00     0.004 C 
ENDBRANCH  26  27
ENDBRANCH  25  26
ENDBRANCH  24  25
ENDBRANCH  23  24
ENDBRANCH  22  23
ENDBRANCH  21  22
ENDBRANCH  18  21
ENDBRANCH  16  17
ENDBRANCH  11  16
ENDBRANCH   4  10
ENDBRANCH   1   3
BRANCH   1  29
ATOM     29  C   UNL A   1      36.634  30.634  29.630  1.00  0.00     0.227 C 
ATOM     30  O   UNL A   1      36.226  30.616  30.798  1.00  0.00    -0.274 OA
ATOM     31  N   UNL A   1      37.759  29.913  29.370  1.00  0.00    -0.356 N 
ATOM     32  H   UNL A   1      38.085  29.387  30.135  1.00  0.00     0.163 HD
BRANCH  31  33
ATOM     33  C   UNL A   1      38.559  29.782  28.171  1.00  0.00     0.116 C 
BRANCH  33  34
ATOM     34  C   UNL A   1      38.795  28.313  27.811  1.00  0.00     0.021 C 
BRANCH  34  35
ATOM     35  C   UNL A   1      39.244  27.455  28.998  1.00  0.00     0.002 C 
BRANCH  35  36
ATOM     36  C   UNL A   1      40.526  26.647  28.761  1.00  0.00     0.002 C 
BRANCH  36  37
ATOM     37  C   UNL A   1      40.334  25.325  28.011  1.00  0.00     0.021 C 
BRANCH  37  38
ATOM     38  C   UNL A   1      40.294  25.461  26.492  1.00  0.00     0.116 C 
BRANCH  38  39
ATOM     39  N   UNL A   1      41.515  24.958  25.878  1.00  0.00    -0.352 N 
ATOM     40  C   UNL A   1      42.691  25.612  25.613  1.00  0.00     0.251 C 
ATOM     41  H   UNL A   1      41.493  24.009  25.616  1.00  0.00     0.163 HD
ATOM     42  O   UNL A   1      43.519  25.107  24.861  1.00  0.00    -0.269 OA
BRANCH  40  43
ATOM     43  C   UNL A   1      42.956  26.927  26.235  1.00  0.00     0.039 A 
ATOM     44  C   UNL A   1      42.325  28.063  25.721  1.00  0.00     0.014 A 
ATOM     45  C   UNL A   1      43.840  27.038  27.311  1.00  0.00     0.014 A 
ATOM     46  C   UNL A   1      42.544  29.304  26.321  1.00  0.00     0.010 A 
ATOM     47  C   UNL A   1      43.996  28.262  27.955  1.00  0.00     0.010 A 
ATOM     48  C   UNL A   1      43.359  29.409  27.461  1.00  0.00    -0.014 A 
BRANCH  48  49
ATOM     49  C   UNL A   1      43.549  30.708  28.156  1.00  0.00     0.031 A 
ATOM     50  C   UNL A   1      44.726  31.583  27.820  1.00  0.00     0.074 A 
ATOM     51  C   UNL A   1      42.710  31.057  29.150  1.00  0.00     0.049 A 
ATOM     52  N   UNL A   1      45.086  32.720  28.356  1.00  0.00    -0.248 NA
ATOM     53  C   UNL A   1      45.632  31.108  26.761  1.00  0.00     0.031 C 
ATOM     54  C   UNL A   1      41.579  30.255  29.622  1.00  0.00     0.029 A 
ATOM     55  N   UNL A   1      42.693  32.163  29.963  1.00  0.00    -0.354 N 
ATOM     56  C   UNL A   1      46.275  33.076  27.730  1.00  0.00     0.074 A 
ATOM     57  C   UNL A   1      46.594  32.019  26.798  1.00  0.00     0.031 C 
ATOM     58  C   UNL A   1      40.976  30.897  30.635  1.00  0.00     0.029 A 
ATOM     59  C   UNL A   1      41.695  32.137  30.909  1.00  0.00     0.049 A 
ATOM     60  H   UNL A   1      43.334  32.905  29.876  1.00  0.00     0.167 HD
ATOM     61  C   UNL A   1      47.020  34.195  27.896  1.00  0.00     0.034 A 
ATOM     62  C   UNL A   1      41.399  33.007  31.895  1.00  0.00     0.034 A 
ATOM     63  C   UNL A   1      46.678  35.262  28.799  1.00  0.00     0.049 A 
ATOM     64  C   UNL A   1      42.222  34.259  32.034  1.00  0.00     0.074 A 
ATOM     65  C   UNL A   1      47.317  36.477  28.976  1.00  0.00     0.029 A 
ATOM     66  N   UNL A   1      45.612  35.238  29.685  1.00  0.00    -0.354 N 
ATOM     67  N   UNL A   1      43.252  34.652  31.325  1.00  0.00    -0.248 NA
ATOM     68  C   UNL A   1      41.820  35.204  33.085  1.00  0.00     0.031 C 
ATOM     69  C   UNL A   1      46.656  37.173  29.993  1.00  0.00     0.029 A 
ATOM     70  C   UNL A   1      45.583  36.409  30.421  1.00  0.00     0.049 A 
ATOM     71  H   UNL A   1      44.971  34.496  29.777  1.00  0.00     0.167 HD
ATOM     72  C   UNL A   1      43.596  35.907  31.816  1.00  0.00     0.074 A 
ATOM     73  C   UNL A   1      42.653  36.215  32.872  1.00  0.00     0.031 C 
ATOM     74  C   UNL A   1      44.608  36.725  31.435  1.00  0.00     0.034 A 
BRANCH  61  75
ATOM     75  C   UNL A   1      48.259  34.346  27.051  1.00  0.00     0.023 A 
ATOM     76  C   UNL A   1      48.175  34.981  25.795  1.00  0.00     0.012 A 
ATOM     77  C   UNL A   1      49.514  33.911  27.520  1.00  0.00     0.148 A 
ATOM     78  C   UNL A   1      49.311  35.146  25.003  1.00  0.00     0.002 A 
ATOM     79  C   UNL A   1      50.650  34.123  26.747  1.00  0.00     0.091 A 
ATOM     80  F   UNL A   1      49.573  33.291  28.709  1.00  0.00    -0.205 F 
ATOM     81  C   UNL A   1      50.549  34.727  25.484  1.00  0.00     0.022 A 
BRANCH  79  82
ATOM     82  S   UNL A   1      52.301  33.695  27.313  1.00  0.00     0.127 S 
ATOM     83  O   UNL A   1      53.100  33.962  26.117  1.00  0.00    -0.237 OA
ATOM     84  O   UNL A   1      52.505  34.643  28.408  1.00  0.00    -0.237 OA
ATOM     85  O   UNL A   1      52.237  32.299  27.722  1.00  0.00    -0.744 OA
ENDBRANCH  79  82
ENDBRANCH  61  75
BRANCH  62  86
ATOM     86  C   UNL A   1      40.234  32.751  32.787  1.00  0.00     0.023 A 
ATOM     87  C   UNL A   1      38.946  33.146  32.377  1.00  0.00     0.012 A 
ATOM     88  C   UNL A   1      40.390  32.095  34.024  1.00  0.00     0.148 A 
ATOM     89  C   UNL A   1      37.839  32.922  33.196  1.00  0.00     0.002 A 
ATOM     90  C   UNL A   1      39.276  31.823  34.809  1.00  0.00     0.091 A 
ATOM     91  F   UNL A   1      41.626  31.734  34.400  1.00  0.00    -0.205 F 
ATOM     92  C   UNL A   1      38.002  32.252  34.405  1.00  0.00     0.022 A 
BRANCH  90  93
ATOM     93  S   UNL A   1      39.373  30.851  36.316  1.00  0.00     0.127 S 
ATOM     94  O   UNL A   1      40.113  31.744  37.202  1.00  0.00    -0.237 OA
ATOM     95  O   UNL A   1      37.959  30.677  36.653  1.00  0.00    -0.237 OA
ATOM     96  O   UNL A   1      40.056  29.618  35.947  1.00  0.00    -0.744 OA
ENDBRANCH  90  93
ENDBRANCH  62  86
BRANCH  74  97
ATOM     97  C   UNL A   1      44.729  38.058  32.127  1.00  0.00     0.023 A 
ATOM     98  C   UNL A   1      45.589  38.202  33.234  1.00  0.00     0.012 A 
ATOM     99  C   UNL A   1      44.047  39.186  31.629  1.00  0.00     0.148 A 
ATOM    100  C   UNL A   1      45.740  39.441  33.856  1.00  0.00     0.002 A 
ATOM    101  C   UNL A   1      44.244  40.427  32.220  1.00  0.00     0.091 A 
ATOM    102  F   UNL A   1      43.221  39.023  30.585  1.00  0.00    -0.205 F 
ATOM    103  C   UNL A   1      45.079  40.554  33.342  1.00  0.00     0.022 A 
BRANCH 101 104
ATOM    104  S   UNL A   1      43.515  41.933  31.566  1.00  0.00     0.127 S 
ATOM    105  O   UNL A   1      42.087  41.677  31.753  1.00  0.00    -0.237 OA
ATOM    106  O   UNL A   1      44.073  42.956  32.448  1.00  0.00    -0.237 OA
ATOM    107  O   UNL A   1      43.955  42.024  30.180  1.00  0.00    -0.744 OA
ENDBRANCH 101 104
ENDBRANCH  74  97
ENDBRANCH  48  49
ENDBRANCH  40  43
ENDBRANCH  38  39
ENDBRANCH  37  38
ENDBRANCH  36  37
ENDBRANCH  35  36
ENDBRANCH  34  35
ENDBRANCH  33  34
ENDBRANCH  31  33
ENDBRANCH   1  29
TORSDOF 27
ENDMDL
MODEL 2
REMARK VINA RESULT:      -9.1      1.703      7.378
REMARK SMILES CCCCCCCCNC(=O)Oc1cccc(-c2ccc([C@@H](C)C(=O)NCCCCCCNC(=O)c3ccc(-c4c5nc(c(-c6cccc(S(=O)(=O)[O-])c6F)c6ccc([nH]6)c(-c6cccc(S(=O)(=O)[O-])c6F)c6nc(c(-c7cccc(S(=O)(=O)[O-])c7F)c7ccc4[nH]7)C=C6)C=C5)cc3)cc2F)c1
REMARK SMILES IDX 22 1 23 2 21 3 18 4 19 5 100 6 20 7 99 8 101 9 17 10 13 11
REMARK SMILES IDX 14 12 102 13 15 14 16 15 12 16 10 17 9 18 11 20 8 21 7 22
REMARK SMILES IDX 6 23 5 24 4 25 3 26 2 27 1 28 24 29 25 30 26 31 27 33 28 34
REMARK SMILES IDX 29 35 30 36 31 37 32 38 33 39 34 40 35 42 36 43 37 44 98 45
REMARK SMILES IDX 38 46 97 47 39 48 40 49 41 50 91 51 42 52 96 53 90 54 92 55
REMARK SMILES IDX 43 56 95 57 89 58 88 59 44 61 76 62 56 63 75 64 57 65 60 66
REMARK SMILES IDX 74 67 93 68 58 69 59 70 73 72 94 73 61 74 45 75 46 76 54 77
REMARK SMILES IDX 47 78 49 79 55 80 48 81 50 82 51 83 52 84 53 85 77 86 78 87
REMARK SMILES IDX 86 88 79 89 81 90 87 91 80 92 82 93 83 94 84 95 85 96 62 97
REMARK SMILES IDX 63 98 71 99 64 100 66 101 72 102 65 103 67 104 68 105 69 106
REMARK SMILES IDX 70 107
REMARK H PARENT 9 19 26 32 33 41 92 60 60 71
REMARK Flexibility Score: inf
ROOT
ATOM      1  C   UNL A   1      35.854  31.582  28.298  1.00  0.00     0.105 C 
ATOM      2  C   UNL A   1      35.583  33.083  28.397  1.00  0.00     0.023 C 
ENDROOT
BRANCH   1   3
ATOM      3  C   UNL A   1      34.778  30.760  27.606  1.00  0.00    -0.033 A 
ATOM      4  C   UNL A   1      32.754  29.368  26.141  1.00  0.00     0.018 A 
ATOM      5  C   UNL A   1      34.043  28.839  26.300  1.00  0.00     0.012 A 
ATOM      6  C   UNL A   1      32.492  30.587  26.783  1.00  0.00     0.131 A 
ATOM      7  C   UNL A   1      35.021  29.503  27.047  1.00  0.00     0.005 A 
ATOM      8  C   UNL A   1      33.483  31.282  27.482  1.00  0.00     0.044 A 
ATOM      9  F   UNL A   1      31.267  31.135  26.738  1.00  0.00    -0.206 F 
BRANCH   4  10
ATOM     10  C   UNL A   1      31.763  28.673  25.296  1.00  0.00    -0.012 A 
ATOM     11  C   UNL A   1      30.516  26.673  24.711  1.00  0.00     0.133 A 
ATOM     12  C   UNL A   1      29.766  27.366  23.769  1.00  0.00     0.047 A 
ATOM     13  C   UNL A   1      31.511  27.302  25.459  1.00  0.00     0.056 A 
ATOM     14  C   UNL A   1      30.006  28.723  23.585  1.00  0.00     0.004 A 
ATOM     15  C   UNL A   1      30.997  29.364  24.336  1.00  0.00     0.009 A 
BRANCH  11  16
ATOM     16  O   UNL A   1      30.321  25.290  24.799  1.00  0.00    -0.410 OA
BRANCH  16  17
ATOM     17  C   UNL A   1      30.103  24.758  26.059  1.00  0.00     0.412 C 
ATOM     18  N   UNL A   1      30.989  23.764  26.368  1.00  0.00    -0.321 N 
ATOM     19  H   UNL A   1      30.859  23.304  27.229  1.00  0.00     0.167 HD
ATOM     20  O   UNL A   1      29.236  25.094  26.855  1.00  0.00    -0.224 OA
BRANCH  18  21
ATOM     21  C   UNL A   1      32.099  23.321  25.551  1.00  0.00     0.119 C 
BRANCH  21  22
ATOM     22  C   UNL A   1      31.937  21.863  25.124  1.00  0.00     0.021 C 
BRANCH  22  23
ATOM     23  C   UNL A   1      33.171  21.259  24.444  1.00  0.00     0.002 C 
BRANCH  23  24
ATOM     24  C   UNL A   1      33.627  19.911  25.012  1.00  0.00     0.000 C 
BRANCH  24  25
ATOM     25  C   UNL A   1      33.315  18.703  24.122  1.00  0.00    -0.000 C 
BRANCH  25  26
ATOM     26  C   UNL A   1      33.224  17.365  24.863  1.00  0.00    -0.000 C 
BRANCH  26  27
ATOM     27  C   UNL A   1      34.124  16.255  24.314  1.00  0.00    -0.003 C 
ATOM     28  C   UNL A   1      35.232  15.850  25.272  1.00  0.00     0.004 C 
ENDBRANCH  26  27
ENDBRANCH  25  26
ENDBRANCH  24  25
ENDBRANCH  23  24
ENDBRANCH  22  23
ENDBRANCH  21  22
ENDBRANCH  18  21
ENDBRANCH  16  17
ENDBRANCH  11  16
ENDBRANCH   4  10
ENDBRANCH   1   3
BRANCH   1  29
ATOM     29  C   UNL A   1      36.370  30.954  29.602  1.00  0.00     0.227 C 
ATOM     30  O   UNL A   1      35.748  31.126  30.657  1.00  0.00    -0.274 OA
ATOM     31  N   UNL A   1      37.490  30.183  29.678  1.00  0.00    -0.356 N 
ATOM     32  H   UNL A   1      37.640  29.777  30.562  1.00  0.00     0.163 HD
BRANCH  31  33
ATOM     33  C   UNL A   1      38.497  29.853  28.692  1.00  0.00     0.116 C 
BRANCH  33  34
ATOM     34  C   UNL A   1      38.528  28.351  28.402  1.00  0.00     0.021 C 
BRANCH  34  35
ATOM     35  C   UNL A   1      39.272  27.536  29.464  1.00  0.00     0.002 C 
BRANCH  35  36
ATOM     36  C   UNL A   1      40.570  26.877  28.979  1.00  0.00     0.002 C 
BRANCH  36  37
ATOM     37  C   UNL A   1      40.383  25.678  28.045  1.00  0.00     0.021 C 
BRANCH  37  38
ATOM     38  C   UNL A   1      40.436  26.020  26.559  1.00  0.00     0.116 C 
BRANCH  38  39
ATOM     39  N   UNL A   1      41.678  25.564  25.950  1.00  0.00    -0.352 N 
ATOM     40  C   UNL A   1      42.862  26.235  25.779  1.00  0.00     0.251 C 
ATOM     41  H   UNL A   1      41.666  24.639  25.613  1.00  0.00     0.163 HD
ATOM     42  O   UNL A   1      43.716  25.788  25.018  1.00  0.00    -0.269 OA
BRANCH  40  43
ATOM     43  C   UNL A   1      43.105  27.495  26.511  1.00  0.00     0.039 A 
ATOM     44  C   UNL A   1      42.437  28.655  26.111  1.00  0.00     0.014 A 
ATOM     45  C   UNL A   1      44.005  27.534  27.580  1.00  0.00     0.014 A 
ATOM     46  C   UNL A   1      42.635  29.844  26.816  1.00  0.00     0.010 A 
ATOM     47  C   UNL A   1      44.141  28.699  28.329  1.00  0.00     0.010 A 
ATOM     48  C   UNL A   1      43.467  29.868  27.949  1.00  0.00    -0.014 A 
BRANCH  48  49
ATOM     49  C   UNL A   1      43.636  31.105  28.754  1.00  0.00     0.031 A 
ATOM     50  C   UNL A   1      42.720  31.387  29.914  1.00  0.00     0.074 A 
ATOM     51  C   UNL A   1      44.559  32.015  28.386  1.00  0.00     0.049 A 
ATOM     52  N   UNL A   1      42.679  32.434  30.695  1.00  0.00    -0.248 NA
ATOM     53  C   UNL A   1      41.698  30.371  30.221  1.00  0.00     0.031 C 
ATOM     54  C   UNL A   1      45.453  31.893  27.232  1.00  0.00     0.029 A 
ATOM     55  N   UNL A   1      44.880  33.235  28.925  1.00  0.00    -0.354 N 
ATOM     56  C   UNL A   1      41.610  32.224  31.558  1.00  0.00     0.074 A 
ATOM     57  C   UNL A   1      41.007  30.964  31.183  1.00  0.00     0.031 C 
ATOM     58  C   UNL A   1      46.224  32.989  27.154  1.00  0.00     0.029 A 
ATOM     59  C   UNL A   1      45.857  33.907  28.228  1.00  0.00     0.049 A 
ATOM     60  H   UNL A   1      44.452  33.596  29.734  1.00  0.00     0.167 HD
ATOM     61  C   UNL A   1      41.185  32.995  32.587  1.00  0.00     0.034 A 
ATOM     62  C   UNL A   1      46.390  35.128  28.423  1.00  0.00     0.034 A 
ATOM     63  C   UNL A   1      41.812  34.229  32.980  1.00  0.00     0.049 A 
ATOM     64  C   UNL A   1      45.925  35.950  29.595  1.00  0.00     0.074 A 
ATOM     65  C   UNL A   1      41.514  35.038  34.062  1.00  0.00     0.029 A 
ATOM     66  N   UNL A   1      42.854  34.838  32.299  1.00  0.00    -0.354 N 
ATOM     67  N   UNL A   1      45.017  35.660  30.495  1.00  0.00    -0.248 NA
ATOM     68  C   UNL A   1      46.581  37.248  29.799  1.00  0.00     0.031 C 
ATOM     69  C   UNL A   1      42.356  36.155  34.015  1.00  0.00     0.029 A 
ATOM     70  C   UNL A   1      43.203  36.021  32.928  1.00  0.00     0.049 A 
ATOM     71  H   UNL A   1      43.283  34.482  31.487  1.00  0.00     0.167 HD
ATOM     72  C   UNL A   1      45.021  36.720  31.395  1.00  0.00     0.074 A 
ATOM     73  C   UNL A   1      46.035  37.650  30.939  1.00  0.00     0.031 C 
ATOM     74  C   UNL A   1      44.248  36.912  32.493  1.00  0.00     0.034 A 
BRANCH  61  75
ATOM     75  C   UNL A   1      40.009  32.504  33.393  1.00  0.00     0.023 A 
ATOM     76  C   UNL A   1      40.160  31.387  34.241  1.00  0.00     0.012 A 
ATOM     77  C   UNL A   1      38.773  33.179  33.356  1.00  0.00     0.148 A 
ATOM     78  C   UNL A   1      39.091  30.926  35.008  1.00  0.00     0.002 A 
ATOM     79  C   UNL A   1      37.727  32.743  34.161  1.00  0.00     0.091 A 
ATOM     80  F   UNL A   1      38.641  34.227  32.530  1.00  0.00    -0.205 F 
ATOM     81  C   UNL A   1      37.879  31.610  34.977  1.00  0.00     0.022 A 
BRANCH  79  82
ATOM     82  S   UNL A   1      36.153  33.605  34.255  1.00  0.00     0.127 S 
ATOM     83  O   UNL A   1      35.862  33.531  35.686  1.00  0.00    -0.237 OA
ATOM     84  O   UNL A   1      36.505  34.940  33.772  1.00  0.00    -0.237 OA
ATOM     85  O   UNL A   1      35.239  32.869  33.393  1.00  0.00    -0.744 OA
ENDBRANCH  79  82
ENDBRANCH  61  75
BRANCH  62  86
ATOM     86  C   UNL A   1      47.469  35.623  27.521  1.00  0.00     0.023 A 
ATOM     87  C   UNL A   1      47.137  36.450  26.431  1.00  0.00     0.012 A 
ATOM     88  C   UNL A   1      48.821  35.303  27.755  1.00  0.00     0.148 A 
ATOM     89  C   UNL A   1      48.127  36.922  25.569  1.00  0.00     0.002 A 
ATOM     90  C   UNL A   1      49.808  35.824  26.927  1.00  0.00     0.091 A 
ATOM     91  F   UNL A   1      49.115  34.508  28.793  1.00  0.00    -0.205 F 
ATOM     92  C   UNL A   1      49.462  36.619  25.823  1.00  0.00     0.022 A 
BRANCH  90  93
ATOM     93  S   UNL A   1      51.559  35.596  27.253  1.00  0.00     0.127 S 
ATOM     94  O   UNL A   1      51.771  36.490  28.388  1.00  0.00    -0.237 OA
ATOM     95  O   UNL A   1      51.623  34.169  27.570  1.00  0.00    -0.237 OA
ATOM     96  O   UNL A   1      52.242  35.968  26.021  1.00  0.00    -0.744 OA
ENDBRANCH  90  93
ENDBRANCH  62  86
BRANCH  74  97
ATOM     97  C   UNL A   1      44.492  38.152  33.313  1.00  0.00     0.023 A 
ATOM     98  C   UNL A   1      45.507  38.162  34.291  1.00  0.00     0.012 A 
ATOM     99  C   UNL A   1      43.764  39.331  33.059  1.00  0.00     0.148 A 
ATOM    100  C   UNL A   1      45.769  39.318  35.026  1.00  0.00     0.002 A 
ATOM    101  C   UNL A   1      44.066  40.493  33.758  1.00  0.00     0.091 A 
ATOM    102  F   UNL A   1      42.791  39.295  32.137  1.00  0.00    -0.205 F 
ATOM    103  C   UNL A   1      45.058  40.485  34.751  1.00  0.00     0.022 A 
BRANCH 101 104
ATOM    104  S   UNL A   1      43.275  42.065  33.402  1.00  0.00     0.127 S 
ATOM    105  O   UNL A   1      44.039  42.981  34.248  1.00  0.00    -0.237 OA
ATOM    106  O   UNL A   1      43.514  42.215  31.968  1.00  0.00    -0.237 OA
ATOM    107  O   UNL A   1      41.873  41.903  33.767  1.00  0.00    -0.744 OA
ENDBRANCH 101 104
ENDBRANCH  74  97
ENDBRANCH  48  49
ENDBRANCH  40  43
ENDBRANCH  38  39
ENDBRANCH  37  38
ENDBRANCH  36  37
ENDBRANCH  35  36
ENDBRANCH  34  35
ENDBRANCH  33  34
ENDBRANCH  31  33
ENDBRANCH   1  29
TORSDOF 27
ENDMDL
MODEL 3
REMARK VINA RESULT:      -8.7      2.067      7.428
REMARK SMILES CCCCCCCCNC(=O)Oc1cccc(-c2ccc([C@@H](C)C(=O)NCCCCCCNC(=O)c3ccc(-c4c5nc(c(-c6cccc(S(=O)(=O)[O-])c6F)c6ccc([nH]6)c(-c6cccc(S(=O)(=O)[O-])c6F)c6nc(c(-c7cccc(S(=O)(=O)[O-])c7F)c7ccc4[nH]7)C=C6)C=C5)cc3)cc2F)c1
REMARK SMILES IDX 22 1 23 2 21 3 18 4 19 5 100 6 20 7 99 8 101 9 17 10 13 11
REMARK SMILES IDX 14 12 102 13 15 14 16 15 12 16 10 17 9 18 11 20 8 21 7 22
REMARK SMILES IDX 6 23 5 24 4 25 3 26 2 27 1 28 24 29 25 30 26 31 27 33 28 34
REMARK SMILES IDX 29 35 30 36 31 37 32 38 33 39 34 40 35 42 36 43 37 44 98 45
REMARK SMILES IDX 38 46 97 47 39 48 40 49 41 50 91 51 42 52 96 53 90 54 92 55
REMARK SMILES IDX 43 56 95 57 89 58 88 59 44 61 76 62 56 63 75 64 57 65 60 66
REMARK SMILES IDX 74 67 93 68 58 69 59 70 73 72 94 73 61 74 45 75 46 76 54 77
REMARK SMILES IDX 47 78 49 79 55 80 48 81 50 82 51 83 52 84 53 85 77 86 78 87
REMARK SMILES IDX 86 88 79 89 81 90 87 91 80 92 82 93 83 94 84 95 85 96 62 97
REMARK SMILES IDX 63 98 71 99 64 100 66 101 72 102 65 103 67 104 68 105 69 106
REMARK SMILES IDX 70 107
REMARK H PARENT 9 19 26 32 33 41 92 60 60 71
REMARK Flexibility Score: inf
ROOT
ATOM      1  C   UNL A   1      35.885  31.596  28.309  1.00  0.00     0.105 C 
ATOM      2  C   UNL A   1      35.656  33.105  28.375  1.00  0.00     0.023 C 
ENDROOT
BRANCH   1   3
ATOM      3  C   UNL A   1      34.806  30.793  27.600  1.00  0.00    -0.033 A 
ATOM      4  C   UNL A   1      32.783  29.437  26.102  1.00  0.00     0.018 A 
ATOM      5  C   UNL A   1      34.054  28.878  26.296  1.00  0.00     0.012 A 
ATOM      6  C   UNL A   1      32.536  30.668  26.725  1.00  0.00     0.131 A 
ATOM      7  C   UNL A   1      35.031  29.525  27.060  1.00  0.00     0.005 A 
ATOM      8  C   UNL A   1      33.528  31.346  27.441  1.00  0.00     0.044 A 
ATOM      9  F   UNL A   1      31.326  31.245  26.645  1.00  0.00    -0.206 F 
BRANCH   4  10
ATOM     10  C   UNL A   1      31.795  28.757  25.240  1.00  0.00    -0.012 A 
ATOM     11  C   UNL A   1      30.543  26.771  24.620  1.00  0.00     0.133 A 
ATOM     12  C   UNL A   1      29.803  27.480  23.682  1.00  0.00     0.047 A 
ATOM     13  C   UNL A   1      31.535  27.385  25.383  1.00  0.00     0.056 A 
ATOM     14  C   UNL A   1      30.051  28.838  23.518  1.00  0.00     0.004 A 
ATOM     15  C   UNL A   1      31.039  29.465  24.284  1.00  0.00     0.009 A 
BRANCH  11  16
ATOM     16  O   UNL A   1      30.341  25.388  24.687  1.00  0.00    -0.410 OA
BRANCH  16  17
ATOM     17  C   UNL A   1      30.287  24.815  25.947  1.00  0.00     0.412 C 
ATOM     18  N   UNL A   1      31.268  23.883  26.142  1.00  0.00    -0.321 N 
ATOM     19  H   UNL A   1      31.257  23.398  26.999  1.00  0.00     0.167 HD
ATOM     20  O   UNL A   1      29.479  25.068  26.831  1.00  0.00    -0.224 OA
BRANCH  18  21
ATOM     21  C   UNL A   1      32.322  23.542  25.211  1.00  0.00     0.119 C 
BRANCH  21  22
ATOM     22  C   UNL A   1      32.693  22.063  25.299  1.00  0.00     0.021 C 
BRANCH  22  23
ATOM     23  C   UNL A   1      34.000  21.692  24.587  1.00  0.00     0.002 C 
BRANCH  23  24
ATOM     24  C   UNL A   1      34.408  22.635  23.451  1.00  0.00     0.000 C 
BRANCH  24  25
ATOM     25  C   UNL A   1      35.715  23.398  23.691  1.00  0.00    -0.000 C 
BRANCH  25  26
ATOM     26  C   UNL A   1      36.907  22.519  24.088  1.00  0.00    -0.000 C 
BRANCH  26  27
ATOM     27  C   UNL A   1      37.265  22.545  25.576  1.00  0.00    -0.003 C 
ATOM     28  C   UNL A   1      37.899  23.854  26.020  1.00  0.00     0.004 C 
ENDBRANCH  26  27
ENDBRANCH  25  26
ENDBRANCH  24  25
ENDBRANCH  23  24
ENDBRANCH  22  23
ENDBRANCH  21  22
ENDBRANCH  18  21
ENDBRANCH  16  17
ENDBRANCH  11  16
ENDBRANCH   4  10
ENDBRANCH   1   3
BRANCH   1  29
ATOM     29  C   UNL A   1      36.346  30.976  29.638  1.00  0.00     0.227 C 
ATOM     30  O   UNL A   1      35.657  31.118  30.655  1.00  0.00    -0.274 OA
ATOM     31  N   UNL A   1      37.485  30.243  29.776  1.00  0.00    -0.356 N 
ATOM     32  H   UNL A   1      37.596  29.836  30.665  1.00  0.00     0.163 HD
BRANCH  31  33
ATOM     33  C   UNL A   1      38.559  29.955  28.849  1.00  0.00     0.116 C 
BRANCH  33  34
ATOM     34  C   UNL A   1      38.619  28.466  28.504  1.00  0.00     0.021 C 
BRANCH  34  35
ATOM     35  C   UNL A   1      39.422  27.635  29.510  1.00  0.00     0.002 C 
BRANCH  35  36
ATOM     36  C   UNL A   1      40.692  26.988  28.943  1.00  0.00     0.002 C 
BRANCH  36  37
ATOM     37  C   UNL A   1      40.455  25.852  27.943  1.00  0.00     0.021 C 
BRANCH  37  38
ATOM     38  C   UNL A   1      40.621  26.255  26.480  1.00  0.00     0.116 C 
BRANCH  38  39
ATOM     39  N   UNL A   1      41.888  25.784  25.937  1.00  0.00    -0.352 N 
ATOM     40  C   UNL A   1      43.082  26.447  25.812  1.00  0.00     0.251 C 
ATOM     41  H   UNL A   1      41.887  24.854  25.613  1.00  0.00     0.163 HD
ATOM     42  O   UNL A   1      43.968  25.986  25.099  1.00  0.00    -0.269 OA
BRANCH  40  43
ATOM     43  C   UNL A   1      43.297  27.717  26.537  1.00  0.00     0.039 A 
ATOM     44  C   UNL A   1      42.585  28.854  26.145  1.00  0.00     0.014 A 
ATOM     45  C   UNL A   1      44.212  27.787  27.590  1.00  0.00     0.014 A 
ATOM     46  C   UNL A   1      42.757  30.050  26.844  1.00  0.00     0.010 A 
ATOM     47  C   UNL A   1      44.324  28.959  28.333  1.00  0.00     0.010 A 
ATOM     48  C   UNL A   1      43.606  30.105  27.962  1.00  0.00    -0.014 A 
BRANCH  48  49
ATOM     49  C   UNL A   1      43.749  31.349  28.760  1.00  0.00     0.031 A 
ATOM     50  C   UNL A   1      42.847  31.603  29.937  1.00  0.00     0.074 A 
ATOM     51  C   UNL A   1      44.634  32.288  28.373  1.00  0.00     0.049 A 
ATOM     52  N   UNL A   1      42.785  32.651  30.717  1.00  0.00    -0.248 NA
ATOM     53  C   UNL A   1      41.866  30.554  30.266  1.00  0.00     0.031 C 
ATOM     54  C   UNL A   1      45.509  32.193  27.202  1.00  0.00     0.029 A 
ATOM     55  N   UNL A   1      44.924  33.520  28.904  1.00  0.00    -0.354 N 
ATOM     56  C   UNL A   1      41.740  32.407  31.601  1.00  0.00     0.074 A 
ATOM     57  C   UNL A   1      41.174  31.127  31.241  1.00  0.00     0.031 C 
ATOM     58  C   UNL A   1      46.240  33.314  27.107  1.00  0.00     0.029 A 
ATOM     59  C   UNL A   1      45.864  34.222  28.186  1.00  0.00     0.049 A 
ATOM     60  H   UNL A   1      44.499  33.868  29.720  1.00  0.00     0.167 HD
ATOM     61  C   UNL A   1      41.310  33.166  32.637  1.00  0.00     0.034 A 
ATOM     62  C   UNL A   1      46.359  35.462  28.368  1.00  0.00     0.034 A 
ATOM     63  C   UNL A   1      41.902  34.422  33.014  1.00  0.00     0.049 A 
ATOM     64  C   UNL A   1      45.889  36.270  29.546  1.00  0.00     0.074 A 
ATOM     65  C   UNL A   1      41.598  35.224  34.100  1.00  0.00     0.029 A 
ATOM     66  N   UNL A   1      42.910  35.064  32.312  1.00  0.00    -0.354 N 
ATOM     67  N   UNL A   1      45.009  35.953  30.465  1.00  0.00    -0.248 NA
ATOM     68  C   UNL A   1      46.505  37.591  29.735  1.00  0.00     0.031 C 
ATOM     69  C   UNL A   1      42.401  36.368  34.035  1.00  0.00     0.029 A 
ATOM     70  C   UNL A   1      43.231  36.259  32.931  1.00  0.00     0.049 A 
ATOM     71  H   UNL A   1      43.335  34.720  31.492  1.00  0.00     0.167 HD
ATOM     72  C   UNL A   1      44.994  37.015  31.362  1.00  0.00     0.074 A 
ATOM     73  C   UNL A   1      45.967  37.977  30.885  1.00  0.00     0.031 C 
ATOM     74  C   UNL A   1      44.237  37.184  32.474  1.00  0.00     0.034 A 
BRANCH  61  75
ATOM     75  C   UNL A   1      40.167  32.639  33.466  1.00  0.00     0.023 A 
ATOM     76  C   UNL A   1      40.384  31.561  34.349  1.00  0.00     0.012 A 
ATOM     77  C   UNL A   1      38.895  33.242  33.415  1.00  0.00     0.148 A 
ATOM     78  C   UNL A   1      39.346  31.067  35.139  1.00  0.00     0.002 A 
ATOM     79  C   UNL A   1      37.878  32.777  34.240  1.00  0.00     0.091 A 
ATOM     80  F   UNL A   1      38.701  34.253  32.555  1.00  0.00    -0.205 F 
ATOM     81  C   UNL A   1      38.097  31.682  35.092  1.00  0.00     0.022 A 
BRANCH  79  82
ATOM     82  S   UNL A   1      36.259  33.552  34.315  1.00  0.00     0.127 S 
ATOM     83  O   UNL A   1      35.951  33.452  35.741  1.00  0.00    -0.237 OA
ATOM     84  O   UNL A   1      36.547  34.908  33.847  1.00  0.00    -0.237 OA
ATOM     85  O   UNL A   1      35.399  32.775  33.434  1.00  0.00    -0.744 OA
ENDBRANCH  79  82
ENDBRANCH  61  75
BRANCH  62  86
ATOM     86  C   UNL A   1      47.403  35.989  27.444  1.00  0.00     0.023 A 
ATOM     87  C   UNL A   1      47.023  36.811  26.365  1.00  0.00     0.012 A 
ATOM     88  C   UNL A   1      48.769  35.707  27.646  1.00  0.00     0.148 A 
ATOM     89  C   UNL A   1      47.980  37.314  25.483  1.00  0.00     0.002 A 
ATOM     90  C   UNL A   1      49.721  36.259  26.798  1.00  0.00     0.091 A 
ATOM     91  F   UNL A   1      49.108  34.917  28.675  1.00  0.00    -0.205 F 
ATOM     92  C   UNL A   1      49.329  37.047  25.706  1.00  0.00     0.022 A 
BRANCH  90  93
ATOM     93  S   UNL A   1      51.485  36.079  27.085  1.00  0.00     0.127 S 
ATOM     94  O   UNL A   1      51.834  35.014  26.149  1.00  0.00    -0.237 OA
ATOM     95  O   UNL A   1      51.986  37.406  26.725  1.00  0.00    -0.237 OA
ATOM     96  O   UNL A   1      51.624  35.748  28.497  1.00  0.00    -0.744 OA
ENDBRANCH  90  93
ENDBRANCH  62  86
BRANCH  74  97
ATOM     97  C   UNL A   1      44.455  38.434  33.287  1.00  0.00     0.023 A 
ATOM     98  C   UNL A   1      43.658  39.573  33.056  1.00  0.00     0.012 A 
ATOM     99  C   UNL A   1      45.401  38.451  34.331  1.00  0.00     0.148 A 
ATOM    100  C   UNL A   1      43.823  40.721  33.831  1.00  0.00     0.002 A 
ATOM    101  C   UNL A   1      45.523  39.579  35.132  1.00  0.00     0.091 A 
ATOM    102  F   UNL A   1      46.161  37.363  34.521  1.00  0.00    -0.205 F 
ATOM    103  C   UNL A   1      44.745  40.719  34.875  1.00  0.00     0.022 A 
BRANCH 101 104
ATOM    104  S   UNL A   1      46.610  39.633  36.561  1.00  0.00     0.127 S 
ATOM    105  O   UNL A   1      47.929  39.619  35.931  1.00  0.00    -0.237 OA
ATOM    106  O   UNL A   1      46.242  40.904  37.182  1.00  0.00    -0.237 OA
ATOM    107  O   UNL A   1      46.287  38.456  37.357  1.00  0.00    -0.744 OA
ENDBRANCH 101 104
ENDBRANCH  74  97
ENDBRANCH  48  49
ENDBRANCH  40  43
ENDBRANCH  38  39
ENDBRANCH  37  38
ENDBRANCH  36  37
ENDBRANCH  35  36
ENDBRANCH  34  35
ENDBRANCH  33  34
ENDBRANCH  31  33
ENDBRANCH   1  29
TORSDOF 27
ENDMDL
