MODEL 1
REMARK VINA RESULT:     -11.5      0.000      0.000
REMARK SMILES Cc1ccccc1CCNC(=O)N[C@H](C)C(=O)NCCCCCCNC(=O)c1ccc(-c2c3nc(c(-c4cccc(S(=O)(=O)[O-])c4F)c4ccc([nH]4)c(-c4cccc(S(=O)(=O)[O-])c4F)c4nc(c(-c5cccc(S(=O)(=O)[O-])c5F)c5ccc2[nH]5)C=C4)C=C3)cc1
REMARK SMILES IDX 21 1 20 2 19 3 18 4 16 5 17 6 14 8 15 9 13 10 10 11 11 12
REMARK SMILES IDX 12 14 9 16 8 17 7 18 1 19 2 20 3 21 4 22 6 23 5 24 22 25
REMARK SMILES IDX 23 26 24 27 25 28 26 29 27 31 28 32 29 33 90 34 30 35 89 36
REMARK SMILES IDX 31 37 32 38 33 39 83 40 34 41 88 42 82 43 84 44 35 45 87 46
REMARK SMILES IDX 81 47 80 48 36 50 68 51 48 52 67 53 49 54 52 55 66 56 85 57
REMARK SMILES IDX 50 58 51 59 65 61 86 62 53 63 37 64 38 65 46 66 39 67 41 68
REMARK SMILES IDX 47 69 40 70 42 71 43 72 44 73 45 74 69 75 70 76 78 77 71 78
REMARK SMILES IDX 73 79 79 80 72 81 74 82 75 83 76 84 77 85 54 86 55 87 63 88
REMARK SMILES IDX 56 89 58 90 64 91 57 92 59 93 60 94 61 95 62 96
REMARK H PARENT 18 7 10 13 13 15 25 30 84 49 52 60
REMARK Flexibility Score: inf
ROOT
ATOM      1  C   UNL A   1      32.042  28.701  27.258  1.00  0.00     0.002 C 
ENDROOT
BRANCH   1   2
ATOM      2  C   UNL A   1      31.262  27.490  26.710  1.00  0.00     0.021 C 
BRANCH   2   3
ATOM      3  C   UNL A   1      31.827  26.046  26.498  1.00  0.00     0.116 C 
BRANCH   3   4
ATOM      4  N   UNL A   1      31.193  24.746  26.817  1.00  0.00    -0.354 N 
ATOM      5  C   UNL A   1      31.518  23.432  27.011  1.00  0.00     0.242 C 
ATOM      6  O   UNL A   1      30.673  22.737  27.596  1.00  0.00    -0.273 OA
ATOM      7  H   UNL A   1      30.222  24.867  26.924  1.00  0.00     0.163 HD
BRANCH   5   8
ATOM      8  C   UNL A   1      32.860  22.820  26.664  1.00  0.00     0.170 C 
ATOM      9  C   UNL A   1      33.940  22.809  27.746  1.00  0.00     0.041 C 
BRANCH   8  10
ATOM     10  N   UNL A   1      32.696  21.504  26.159  1.00  0.00    -0.327 N 
ATOM     11  N   UNL A   1      32.171  21.861  23.852  1.00  0.00    -0.338 N 
ATOM     12  C   UNL A   1      32.206  21.122  24.981  1.00  0.00     0.315 C 
ATOM     13  H   UNL A   1      32.165  21.235  23.093  1.00  0.00     0.165 HD
ATOM     14  O   UNL A   1      31.868  19.935  24.920  1.00  0.00    -0.249 OA
ATOM     15  H   UNL A   1      32.981  20.777  26.759  1.00  0.00     0.166 HD
BRANCH  11  16
ATOM     16  C   UNL A   1      32.140  23.253  23.283  1.00  0.00     0.122 C 
BRANCH  16  17
ATOM     17  C   UNL A   1      30.969  24.364  23.139  1.00  0.00     0.057 C 
BRANCH  17  18
ATOM     18  C   UNL A   1      30.974  25.914  23.142  1.00  0.00    -0.043 A 
ATOM     19  C   UNL A   1      33.304  26.138  22.098  1.00  0.00     0.044 C 
ATOM     20  C   UNL A   1      32.064  26.707  22.727  1.00  0.00    -0.048 A 
ATOM     21  C   UNL A   1      32.006  28.125  22.818  1.00  0.00     0.004 A 
ATOM     22  C   UNL A   1      30.848  28.795  23.193  1.00  0.00     0.000 A 
ATOM     23  C   UNL A   1      29.787  26.646  23.395  1.00  0.00     0.004 A 
ATOM     24  C   UNL A   1      29.715  28.049  23.432  1.00  0.00     0.000 A 
ENDBRANCH  17  18
ENDBRANCH  16  17
ENDBRANCH  11  16
ENDBRANCH   8  10
ENDBRANCH   5   8
ENDBRANCH   3   4
ENDBRANCH   2   3
ENDBRANCH   1   2
BRANCH   1  25
ATOM     25  C   UNL A   1      32.975  29.358  26.240  1.00  0.00     0.002 C 
BRANCH  25  26
ATOM     26  C   UNL A   1      34.443  28.928  26.360  1.00  0.00     0.021 C 
BRANCH  26  27
ATOM     27  C   UNL A   1      35.185  29.703  27.424  1.00  0.00     0.116 C 
BRANCH  27  28
ATOM     28  N   UNL A   1      34.827  31.125  27.396  1.00  0.00    -0.352 N 
ATOM     29  C   UNL A   1      34.906  32.013  28.459  1.00  0.00     0.251 C 
ATOM     30  H   UNL A   1      34.497  31.484  26.541  1.00  0.00     0.163 HD
ATOM     31  O   UNL A   1      33.960  32.753  28.703  1.00  0.00    -0.269 OA
BRANCH  29  32
ATOM     32  C   UNL A   1      36.188  32.077  29.194  1.00  0.00     0.039 A 
ATOM     33  C   UNL A   1      37.277  32.851  28.791  1.00  0.00     0.014 A 
ATOM     34  C   UNL A   1      36.378  31.124  30.182  1.00  0.00     0.014 A 
ATOM     35  C   UNL A   1      38.544  32.472  29.243  1.00  0.00     0.010 A 
ATOM     36  C   UNL A   1      37.495  31.077  30.925  1.00  0.00     0.010 A 
ATOM     37  C   UNL A   1      38.611  31.506  30.241  1.00  0.00    -0.014 A 
BRANCH  37  38
ATOM     38  C   UNL A   1      39.745  30.713  30.652  1.00  0.00     0.031 A 
ATOM     39  C   UNL A   1      39.887  29.408  30.009  1.00  0.00     0.074 A 
ATOM     40  C   UNL A   1      40.786  31.438  31.147  1.00  0.00     0.049 A 
ATOM     41  N   UNL A   1      40.766  28.537  30.344  1.00  0.00    -0.248 NA
ATOM     42  C   UNL A   1      39.003  28.971  28.924  1.00  0.00     0.031 C 
ATOM     43  C   UNL A   1      42.209  31.175  30.979  1.00  0.00     0.029 A 
ATOM     44  N   UNL A   1      40.779  32.647  31.867  1.00  0.00    -0.354 N 
ATOM     45  C   UNL A   1      40.810  27.644  29.298  1.00  0.00     0.074 A 
ATOM     46  C   UNL A   1      39.557  27.798  28.610  1.00  0.00     0.031 C 
ATOM     47  C   UNL A   1      42.899  31.996  31.794  1.00  0.00     0.029 A 
ATOM     48  C   UNL A   1      41.933  32.657  32.658  1.00  0.00     0.049 A 
ATOM     49  H   UNL A   1      40.093  33.351  31.823  1.00  0.00     0.167 HD
ATOM     50  C   UNL A   1      41.999  27.060  28.998  1.00  0.00     0.034 A 
ATOM     51  C   UNL A   1      41.890  32.499  34.018  1.00  0.00     0.034 A 
ATOM     52  C   UNL A   1      43.002  27.378  30.037  1.00  0.00     0.049 A 
ATOM     53  C   UNL A   1      42.426  31.137  34.465  1.00  0.00     0.074 A 
ATOM     54  C   UNL A   1      44.120  28.193  30.063  1.00  0.00     0.029 A 
ATOM     55  N   UNL A   1      42.709  27.094  31.373  1.00  0.00    -0.354 N 
ATOM     56  N   UNL A   1      42.957  30.240  33.675  1.00  0.00    -0.248 NA
ATOM     57  C   UNL A   1      42.364  30.667  35.849  1.00  0.00     0.031 C 
ATOM     58  C   UNL A   1      44.385  28.528  31.430  1.00  0.00     0.029 A 
ATOM     59  C   UNL A   1      43.467  27.876  32.239  1.00  0.00     0.049 A 
ATOM     60  H   UNL A   1      42.049  26.424  31.665  1.00  0.00     0.167 HD
ATOM     61  C   UNL A   1      43.044  29.041  34.331  1.00  0.00     0.074 A 
ATOM     62  C   UNL A   1      42.802  29.403  35.720  1.00  0.00     0.031 C 
ATOM     63  C   UNL A   1      43.195  27.839  33.684  1.00  0.00     0.034 A 
BRANCH  50  64
ATOM     64  C   UNL A   1      42.331  26.377  27.679  1.00  0.00     0.023 A 
ATOM     65  C   UNL A   1      42.646  27.221  26.594  1.00  0.00     0.012 A 
ATOM     66  C   UNL A   1      42.296  24.985  27.387  1.00  0.00     0.148 A 
ATOM     67  C   UNL A   1      42.924  26.725  25.313  1.00  0.00     0.002 A 
ATOM     68  C   UNL A   1      42.655  24.484  26.131  1.00  0.00     0.091 A 
ATOM     69  F   UNL A   1      41.813  24.117  28.277  1.00  0.00    -0.205 F 
ATOM     70  C   UNL A   1      42.955  25.356  25.086  1.00  0.00     0.022 A 
BRANCH  68  71
ATOM     71  S   UNL A   1      42.775  22.715  25.785  1.00  0.00     0.127 S 
ATOM     72  O   UNL A   1      43.225  22.704  24.393  1.00  0.00    -0.237 OA
ATOM     73  O   UNL A   1      43.782  22.277  26.752  1.00  0.00    -0.237 OA
ATOM     74  O   UNL A   1      41.446  22.160  26.008  1.00  0.00    -0.744 OA
ENDBRANCH  68  71
ENDBRANCH  50  64
BRANCH  51  75
ATOM     75  C   UNL A   1      40.754  33.222  34.672  1.00  0.00     0.023 A 
ATOM     76  C   UNL A   1      40.921  34.600  34.945  1.00  0.00     0.012 A 
ATOM     77  C   UNL A   1      39.452  32.689  34.623  1.00  0.00     0.148 A 
ATOM     78  C   UNL A   1      39.816  35.449  35.050  1.00  0.00     0.002 A 
ATOM     79  C   UNL A   1      38.364  33.555  34.650  1.00  0.00     0.091 A 
ATOM     80  F   UNL A   1      39.313  31.373  34.424  1.00  0.00    -0.205 F 
ATOM     81  C   UNL A   1      38.542  34.934  34.850  1.00  0.00     0.022 A 
BRANCH  79  82
ATOM     82  S   UNL A   1      36.716  33.025  34.165  1.00  0.00     0.127 S 
ATOM     83  O   UNL A   1      36.860  31.564  34.173  1.00  0.00    -0.237 OA
ATOM     84  O   UNL A   1      35.925  33.555  35.281  1.00  0.00    -0.237 OA
ATOM     85  O   UNL A   1      36.460  33.626  32.885  1.00  0.00    -0.744 OA
ENDBRANCH  79  82
ENDBRANCH  51  75
BRANCH  63  86
ATOM     86  C   UNL A   1      43.041  26.490  34.376  1.00  0.00     0.023 A 
ATOM     87  C   UNL A   1      41.834  26.079  34.978  1.00  0.00     0.012 A 
ATOM     88  C   UNL A   1      44.079  25.527  34.324  1.00  0.00     0.148 A 
ATOM     89  C   UNL A   1      41.696  24.828  35.590  1.00  0.00     0.002 A 
ATOM     90  C   UNL A   1      43.889  24.236  34.811  1.00  0.00     0.091 A 
ATOM     91  F   UNL A   1      45.274  25.861  33.816  1.00  0.00    -0.205 F 
ATOM     92  C   UNL A   1      42.718  23.896  35.490  1.00  0.00     0.022 A 
BRANCH  90  93
ATOM     93  S   UNL A   1      45.064  22.928  34.436  1.00  0.00     0.127 S 
ATOM     94  O   UNL A   1      44.410  21.756  35.015  1.00  0.00    -0.237 OA
ATOM     95  O   UNL A   1      45.099  22.944  32.971  1.00  0.00    -0.237 OA
ATOM     96  O   UNL A   1      46.310  23.349  35.064  1.00  0.00    -0.744 OA
ENDBRANCH  90  93
ENDBRANCH  63  86
ENDBRANCH  37  38
ENDBRANCH  29  32
ENDBRANCH  27  28
ENDBRANCH  26  27
ENDBRANCH  25  26
ENDBRANCH   1  25
TORSDOF 20
ENDMDL
MODEL 2
REMARK VINA RESULT:     -11.4      1.358      1.620
REMARK SMILES Cc1ccccc1CCNC(=O)N[C@H](C)C(=O)NCCCCCCNC(=O)c1ccc(-c2c3nc(c(-c4cccc(S(=O)(=O)[O-])c4F)c4ccc([nH]4)c(-c4cccc(S(=O)(=O)[O-])c4F)c4nc(c(-c5cccc(S(=O)(=O)[O-])c5F)c5ccc2[nH]5)C=C4)C=C3)cc1
REMARK SMILES IDX 21 1 20 2 19 3 18 4 16 5 17 6 14 8 15 9 13 10 10 11 11 12
REMARK SMILES IDX 12 14 9 16 8 17 7 18 1 19 2 20 3 21 4 22 6 23 5 24 22 25
REMARK SMILES IDX 23 26 24 27 25 28 26 29 27 31 28 32 29 33 90 34 30 35 89 36
REMARK SMILES IDX 31 37 32 38 33 39 83 40 34 41 88 42 82 43 84 44 35 45 87 46
REMARK SMILES IDX 81 47 80 48 36 50 68 51 48 52 67 53 49 54 52 55 66 56 85 57
REMARK SMILES IDX 50 58 51 59 65 61 86 62 53 63 37 64 38 65 46 66 39 67 41 68
REMARK SMILES IDX 47 69 40 70 42 71 43 72 44 73 45 74 69 75 70 76 78 77 71 78
REMARK SMILES IDX 73 79 79 80 72 81 74 82 75 83 76 84 77 85 54 86 55 87 63 88
REMARK SMILES IDX 56 89 58 90 64 91 57 92 59 93 60 94 61 95 62 96
REMARK H PARENT 18 7 10 13 13 15 25 30 84 49 52 60
REMARK Flexibility Score: inf
ROOT
ATOM      1  C   UNL A   1      31.902  28.638  27.294  1.00  0.00     0.002 C 
ENDROOT
BRANCH   1   2
ATOM      2  C   UNL A   1      31.159  27.424  26.705  1.00  0.00     0.021 C 
BRANCH   2   3
ATOM      3  C   UNL A   1      31.732  25.975  26.550  1.00  0.00     0.116 C 
BRANCH   3   4
ATOM      4  N   UNL A   1      31.046  24.679  26.762  1.00  0.00    -0.354 N 
ATOM      5  C   UNL A   1      31.326  23.357  26.968  1.00  0.00     0.242 C 
ATOM      6  O   UNL A   1      30.406  22.665  27.428  1.00  0.00    -0.273 OA
ATOM      7  H   UNL A   1      30.071  24.813  26.749  1.00  0.00     0.163 HD
BRANCH   5   8
ATOM      8  C   UNL A   1      32.693  22.730  26.778  1.00  0.00     0.170 C 
ATOM      9  C   UNL A   1      33.602  22.619  28.003  1.00  0.00     0.041 C 
BRANCH   8  10
ATOM     10  N   UNL A   1      32.580  21.455  26.167  1.00  0.00    -0.327 N 
ATOM     11  N   UNL A   1      32.272  21.980  23.853  1.00  0.00    -0.338 N 
ATOM     12  C   UNL A   1      32.203  21.161  24.924  1.00  0.00     0.315 C 
ATOM     13  H   UNL A   1      32.338  21.409  23.054  1.00  0.00     0.165 HD
ATOM     14  O   UNL A   1      31.876  19.983  24.746  1.00  0.00    -0.249 OA
ATOM     15  H   UNL A   1      32.811  20.686  26.737  1.00  0.00     0.166 HD
BRANCH  11  16
ATOM     16  C   UNL A   1      32.290  23.409  23.385  1.00  0.00     0.122 C 
BRANCH  16  17
ATOM     17  C   UNL A   1      31.120  24.483  23.064  1.00  0.00     0.057 C 
BRANCH  17  18
ATOM     18  C   UNL A   1      31.065  26.032  23.103  1.00  0.00    -0.043 A 
ATOM     19  C   UNL A   1      33.417  26.370  22.144  1.00  0.00     0.044 C 
ATOM     20  C   UNL A   1      32.137  26.876  22.744  1.00  0.00    -0.048 A 
ATOM     21  C   UNL A   1      32.021  28.288  22.866  1.00  0.00     0.004 A 
ATOM     22  C   UNL A   1      30.827  28.904  23.218  1.00  0.00     0.000 A 
ATOM     23  C   UNL A   1      29.843  26.712  23.333  1.00  0.00     0.004 A 
ATOM     24  C   UNL A   1      29.716  28.110  23.401  1.00  0.00     0.000 A 
ENDBRANCH  17  18
ENDBRANCH  16  17
ENDBRANCH  11  16
ENDBRANCH   8  10
ENDBRANCH   5   8
ENDBRANCH   3   4
ENDBRANCH   2   3
ENDBRANCH   1   2
BRANCH   1  25
ATOM     25  C   UNL A   1      32.827  29.349  26.305  1.00  0.00     0.002 C 
BRANCH  25  26
ATOM     26  C   UNL A   1      34.279  28.855  26.330  1.00  0.00     0.021 C 
BRANCH  26  27
ATOM     27  C   UNL A   1      35.155  29.689  27.235  1.00  0.00     0.116 C 
BRANCH  27  28
ATOM     28  N   UNL A   1      34.715  31.088  27.263  1.00  0.00    -0.352 N 
ATOM     29  C   UNL A   1      34.717  31.928  28.366  1.00  0.00     0.251 C 
ATOM     30  H   UNL A   1      34.386  31.467  26.416  1.00  0.00     0.163 HD
ATOM     31  O   UNL A   1      33.723  32.601  28.618  1.00  0.00    -0.269 OA
BRANCH  29  32
ATOM     32  C   UNL A   1      35.974  32.032  29.138  1.00  0.00     0.039 A 
ATOM     33  C   UNL A   1      37.047  32.846  28.771  1.00  0.00     0.014 A 
ATOM     34  C   UNL A   1      36.169  31.078  30.124  1.00  0.00     0.014 A 
ATOM     35  C   UNL A   1      38.312  32.508  29.257  1.00  0.00     0.010 A 
ATOM     36  C   UNL A   1      37.266  31.064  30.898  1.00  0.00     0.010 A 
ATOM     37  C   UNL A   1      38.385  31.537  30.249  1.00  0.00    -0.014 A 
BRANCH  37  38
ATOM     38  C   UNL A   1      39.534  30.781  30.686  1.00  0.00     0.031 A 
ATOM     39  C   UNL A   1      39.761  29.504  30.012  1.00  0.00     0.074 A 
ATOM     40  C   UNL A   1      40.520  31.533  31.248  1.00  0.00     0.049 A 
ATOM     41  N   UNL A   1      40.662  28.661  30.360  1.00  0.00    -0.248 NA
ATOM     42  C   UNL A   1      38.945  29.063  28.877  1.00  0.00     0.031 C 
ATOM     43  C   UNL A   1      41.960  31.337  31.136  1.00  0.00     0.029 A 
ATOM     44  N   UNL A   1      40.429  32.718  32.002  1.00  0.00    -0.354 N 
ATOM     45  C   UNL A   1      40.791  27.804  29.291  1.00  0.00     0.074 A 
ATOM     46  C   UNL A   1      39.563  27.926  28.553  1.00  0.00     0.031 C 
ATOM     47  C   UNL A   1      42.577  32.160  32.005  1.00  0.00     0.029 A 
ATOM     48  C   UNL A   1      41.546  32.753  32.844  1.00  0.00     0.049 A 
ATOM     49  H   UNL A   1      39.715  33.393  31.949  1.00  0.00     0.167 HD
ATOM     50  C   UNL A   1      42.017  27.281  29.028  1.00  0.00     0.034 A 
ATOM     51  C   UNL A   1      41.452  32.551  34.196  1.00  0.00     0.034 A 
ATOM     52  C   UNL A   1      42.959  27.609  30.119  1.00  0.00     0.049 A 
ATOM     53  C   UNL A   1      42.027  31.199  34.626  1.00  0.00     0.074 A 
ATOM     54  C   UNL A   1      44.037  28.470  30.219  1.00  0.00     0.029 A 
ATOM     55  N   UNL A   1      42.621  27.271  31.432  1.00  0.00    -0.354 N 
ATOM     56  N   UNL A   1      42.631  30.351  33.834  1.00  0.00    -0.248 NA
ATOM     57  C   UNL A   1      41.927  30.684  35.991  1.00  0.00     0.031 C 
ATOM     58  C   UNL A   1      44.228  28.772  31.605  1.00  0.00     0.029 A 
ATOM     59  C   UNL A   1      43.305  28.057  32.354  1.00  0.00     0.049 A 
ATOM     60  H   UNL A   1      41.980  26.564  31.674  1.00  0.00     0.167 HD
ATOM     61  C   UNL A   1      42.742  29.137  34.458  1.00  0.00     0.074 A 
ATOM     62  C   UNL A   1      42.425  29.444  35.845  1.00  0.00     0.031 C 
ATOM     63  C   UNL A   1      42.974  27.963  33.783  1.00  0.00     0.034 A 
BRANCH  50  64
ATOM     64  C   UNL A   1      42.434  26.654  27.705  1.00  0.00     0.023 A 
ATOM     65  C   UNL A   1      42.751  27.544  26.658  1.00  0.00     0.012 A 
ATOM     66  C   UNL A   1      42.481  25.271  27.373  1.00  0.00     0.148 A 
ATOM     67  C   UNL A   1      43.105  27.100  25.377  1.00  0.00     0.002 A 
ATOM     68  C   UNL A   1      42.915  24.826  26.121  1.00  0.00     0.091 A 
ATOM     69  F   UNL A   1      42.006  24.355  28.219  1.00  0.00    -0.205 F 
ATOM     70  C   UNL A   1      43.213  25.742  25.113  1.00  0.00     0.022 A 
BRANCH  68  71
ATOM     71  S   UNL A   1      43.136  23.076  25.730  1.00  0.00     0.127 S 
ATOM     72  O   UNL A   1      43.724  23.131  24.393  1.00  0.00    -0.237 OA
ATOM     73  O   UNL A   1      44.056  22.638  26.780  1.00  0.00    -0.237 OA
ATOM     74  O   UNL A   1      41.814  22.467  25.799  1.00  0.00    -0.744 OA
ENDBRANCH  68  71
ENDBRANCH  50  64
BRANCH  51  75
ATOM     75  C   UNL A   1      40.258  33.203  34.819  1.00  0.00     0.023 A 
ATOM     76  C   UNL A   1      39.046  32.475  34.841  1.00  0.00     0.012 A 
ATOM     77  C   UNL A   1      40.422  34.279  35.711  1.00  0.00     0.148 A 
ATOM     78  C   UNL A   1      38.069  32.735  35.807  1.00  0.00     0.002 A 
ATOM     79  C   UNL A   1      39.480  34.478  36.715  1.00  0.00     0.091 A 
ATOM     80  F   UNL A   1      41.548  34.998  35.637  1.00  0.00    -0.205 F 
ATOM     81  C   UNL A   1      38.312  33.701  36.774  1.00  0.00     0.022 A 
BRANCH  79  82
ATOM     82  S   UNL A   1      39.815  35.525  38.137  1.00  0.00     0.127 S 
ATOM     83  O   UNL A   1      38.760  35.106  39.069  1.00  0.00    -0.237 OA
ATOM     84  O   UNL A   1      41.157  35.059  38.503  1.00  0.00    -0.237 OA
ATOM     85  O   UNL A   1      39.738  36.881  37.666  1.00  0.00    -0.744 OA
ENDBRANCH  79  82
ENDBRANCH  51  75
BRANCH  63  86
ATOM     86  C   UNL A   1      42.849  26.588  34.428  1.00  0.00     0.023 A 
ATOM     87  C   UNL A   1      41.674  26.156  35.075  1.00  0.00     0.012 A 
ATOM     88  C   UNL A   1      43.879  25.625  34.283  1.00  0.00     0.148 A 
ATOM     89  C   UNL A   1      41.562  24.882  35.643  1.00  0.00     0.002 A 
ATOM     90  C   UNL A   1      43.709  24.316  34.728  1.00  0.00     0.091 A 
ATOM     91  F   UNL A   1      45.048  25.976  33.727  1.00  0.00    -0.205 F 
ATOM     92  C   UNL A   1      42.573  23.952  35.452  1.00  0.00     0.022 A 
BRANCH  90  93
ATOM     93  S   UNL A   1      44.857  23.021  34.240  1.00  0.00     0.127 S 
ATOM     94  O   UNL A   1      44.855  23.145  32.784  1.00  0.00    -0.237 OA
ATOM     95  O   UNL A   1      46.103  23.441  34.886  1.00  0.00    -0.237 OA
ATOM     96  O   UNL A   1      44.291  21.793  34.784  1.00  0.00    -0.744 OA
ENDBRANCH  90  93
ENDBRANCH  63  86
ENDBRANCH  37  38
ENDBRANCH  29  32
ENDBRANCH  27  28
ENDBRANCH  26  27
ENDBRANCH  25  26
ENDBRANCH   1  25
TORSDOF 20
ENDMDL
MODEL 3
REMARK VINA RESULT:     -11.1      3.859      9.446
REMARK SMILES Cc1ccccc1CCNC(=O)N[C@H](C)C(=O)NCCCCCCNC(=O)c1ccc(-c2c3nc(c(-c4cccc(S(=O)(=O)[O-])c4F)c4ccc([nH]4)c(-c4cccc(S(=O)(=O)[O-])c4F)c4nc(c(-c5cccc(S(=O)(=O)[O-])c5F)c5ccc2[nH]5)C=C4)C=C3)cc1
REMARK SMILES IDX 21 1 20 2 19 3 18 4 16 5 17 6 14 8 15 9 13 10 10 11 11 12
REMARK SMILES IDX 12 14 9 16 8 17 7 18 1 19 2 20 3 21 4 22 6 23 5 24 22 25
REMARK SMILES IDX 23 26 24 27 25 28 26 29 27 31 28 32 29 33 90 34 30 35 89 36
REMARK SMILES IDX 31 37 32 38 33 39 83 40 34 41 88 42 82 43 84 44 35 45 87 46
REMARK SMILES IDX 81 47 80 48 36 50 68 51 48 52 67 53 49 54 52 55 66 56 85 57
REMARK SMILES IDX 50 58 51 59 65 61 86 62 53 63 37 64 38 65 46 66 39 67 41 68
REMARK SMILES IDX 47 69 40 70 42 71 43 72 44 73 45 74 69 75 70 76 78 77 71 78
REMARK SMILES IDX 73 79 79 80 72 81 74 82 75 83 76 84 77 85 54 86 55 87 63 88
REMARK SMILES IDX 56 89 58 90 64 91 57 92 59 93 60 94 61 95 62 96
REMARK H PARENT 18 7 10 13 13 15 25 30 84 49 52 60
REMARK Flexibility Score: inf
ROOT
ATOM      1  C   UNL A   1      37.181  22.429  24.695  1.00  0.00     0.002 C 
ENDROOT
BRANCH   1   2
ATOM      2  C   UNL A   1      36.572  21.258  25.491  1.00  0.00     0.021 C 
BRANCH   2   3
ATOM      3  C   UNL A   1      35.604  20.164  24.929  1.00  0.00     0.116 C 
BRANCH   3   4
ATOM      4  N   UNL A   1      34.151  20.002  25.164  1.00  0.00    -0.354 N 
ATOM      5  C   UNL A   1      32.984  20.712  25.099  1.00  0.00     0.242 C 
ATOM      6  O   UNL A   1      31.937  20.049  25.078  1.00  0.00    -0.273 OA
ATOM      7  H   UNL A   1      33.963  19.084  25.466  1.00  0.00     0.163 HD
BRANCH   5   8
ATOM      8  C   UNL A   1      32.905  22.217  24.942  1.00  0.00     0.170 C 
ATOM      9  C   UNL A   1      33.437  23.082  26.085  1.00  0.00     0.041 C 
BRANCH   8  10
ATOM     10  N   UNL A   1      33.514  22.628  23.728  1.00  0.00    -0.327 N 
ATOM     11  N   UNL A   1      32.048  24.344  22.933  1.00  0.00    -0.338 N 
ATOM     12  C   UNL A   1      33.017  23.418  22.777  1.00  0.00     0.315 C 
ATOM     13  H   UNL A   1      32.180  25.025  22.233  1.00  0.00     0.165 HD
ATOM     14  O   UNL A   1      33.604  23.353  21.691  1.00  0.00    -0.249 OA
ATOM     15  H   UNL A   1      34.422  22.284  23.568  1.00  0.00     0.166 HD
BRANCH  11  16
ATOM     16  C   UNL A   1      30.850  24.761  23.740  1.00  0.00     0.122 C 
BRANCH  16  17
ATOM     17  C   UNL A   1      30.314  26.196  24.266  1.00  0.00     0.057 C 
BRANCH  17  18
ATOM     18  C   UNL A   1      30.941  27.298  25.159  1.00  0.00    -0.043 A 
ATOM     19  C   UNL A   1      30.583  29.193  23.471  1.00  0.00     0.044 C 
ATOM     20  C   UNL A   1      31.116  28.640  24.761  1.00  0.00    -0.048 A 
ATOM     21  C   UNL A   1      31.756  29.574  25.623  1.00  0.00     0.004 A 
ATOM     22  C   UNL A   1      32.119  29.251  26.923  1.00  0.00     0.000 A 
ATOM     23  C   UNL A   1      31.214  27.058  26.529  1.00  0.00     0.004 A 
ATOM     24  C   UNL A   1      31.798  27.998  27.395  1.00  0.00     0.000 A 
ENDBRANCH  17  18
ENDBRANCH  16  17
ENDBRANCH  11  16
ENDBRANCH   8  10
ENDBRANCH   5   8
ENDBRANCH   3   4
ENDBRANCH   2   3
ENDBRANCH   1   2
BRANCH   1  25
ATOM     25  C   UNL A   1      37.296  23.732  25.487  1.00  0.00     0.002 C 
BRANCH  25  26
ATOM     26  C   UNL A   1      38.710  24.038  25.999  1.00  0.00     0.021 C 
BRANCH  26  27
ATOM     27  C   UNL A   1      39.056  23.249  27.240  1.00  0.00     0.116 C 
BRANCH  27  28
ATOM     28  N   UNL A   1      40.037  22.199  26.949  1.00  0.00    -0.352 N 
ATOM     29  C   UNL A   1      41.304  22.383  26.417  1.00  0.00     0.251 C 
ATOM     30  H   UNL A   1      39.770  21.273  27.150  1.00  0.00     0.163 HD
ATOM     31  O   UNL A   1      41.682  21.674  25.491  1.00  0.00    -0.269 OA
BRANCH  29  32
ATOM     32  C   UNL A   1      42.175  23.384  27.070  1.00  0.00     0.039 A 
ATOM     33  C   UNL A   1      42.545  23.333  28.415  1.00  0.00     0.014 A 
ATOM     34  C   UNL A   1      42.413  24.549  26.358  1.00  0.00     0.014 A 
ATOM     35  C   UNL A   1      42.929  24.529  29.027  1.00  0.00     0.010 A 
ATOM     36  C   UNL A   1      43.189  25.534  26.836  1.00  0.00     0.010 A 
ATOM     37  C   UNL A   1      43.141  25.634  28.209  1.00  0.00    -0.014 A 
BRANCH  37  38
ATOM     38  C   UNL A   1      43.219  27.026  28.580  1.00  0.00     0.031 A 
ATOM     39  C   UNL A   1      41.964  27.775  28.543  1.00  0.00     0.074 A 
ATOM     40  C   UNL A   1      44.267  27.333  29.394  1.00  0.00     0.049 A 
ATOM     41  N   UNL A   1      41.880  29.041  28.727  1.00  0.00    -0.248 NA
ATOM     42  C   UNL A   1      40.677  27.131  28.261  1.00  0.00     0.031 C 
ATOM     43  C   UNL A   1      44.292  28.301  30.483  1.00  0.00     0.029 A 
ATOM     44  N   UNL A   1      45.551  26.762  29.460  1.00  0.00    -0.354 N 
ATOM     45  C   UNL A   1      40.549  29.284  28.975  1.00  0.00     0.074 A 
ATOM     46  C   UNL A   1      39.844  28.161  28.421  1.00  0.00     0.031 C 
ATOM     47  C   UNL A   1      45.564  28.455  30.895  1.00  0.00     0.029 A 
ATOM     48  C   UNL A   1      46.413  27.752  29.945  1.00  0.00     0.049 A 
ATOM     49  H   UNL A   1      45.797  25.842  29.212  1.00  0.00     0.167 HD
ATOM     50  C   UNL A   1      40.226  30.287  29.833  1.00  0.00     0.034 A 
ATOM     51  C   UNL A   1      47.342  28.368  29.148  1.00  0.00     0.034 A 
ATOM     52  C   UNL A   1      41.430  31.068  30.186  1.00  0.00     0.049 A 
ATOM     53  C   UNL A   1      46.968  29.818  28.829  1.00  0.00     0.074 A 
ATOM     54  C   UNL A   1      42.194  31.173  31.335  1.00  0.00     0.029 A 
ATOM     55  N   UNL A   1      42.209  31.614  29.163  1.00  0.00    -0.354 N 
ATOM     56  N   UNL A   1      45.936  30.455  29.319  1.00  0.00    -0.248 NA
ATOM     57  C   UNL A   1      47.720  30.651  27.891  1.00  0.00     0.031 C 
ATOM     58  C   UNL A   1      43.496  31.631  30.955  1.00  0.00     0.029 A 
ATOM     59  C   UNL A   1      43.512  31.856  29.586  1.00  0.00     0.049 A 
ATOM     60  H   UNL A   1      41.877  31.804  28.256  1.00  0.00     0.167 HD
ATOM     61  C   UNL A   1      45.722  31.603  28.604  1.00  0.00     0.074 A 
ATOM     62  C   UNL A   1      46.946  31.748  27.830  1.00  0.00     0.031 C 
ATOM     63  C   UNL A   1      44.529  32.284  28.614  1.00  0.00     0.034 A 
BRANCH  50  64
ATOM     64  C   UNL A   1      38.878  30.448  30.522  1.00  0.00     0.023 A 
ATOM     65  C   UNL A   1      38.663  29.671  31.679  1.00  0.00     0.012 A 
ATOM     66  C   UNL A   1      37.775  31.243  30.101  1.00  0.00     0.148 A 
ATOM     67  C   UNL A   1      37.451  29.688  32.381  1.00  0.00     0.002 A 
ATOM     68  C   UNL A   1      36.595  31.325  30.848  1.00  0.00     0.091 A 
ATOM     69  F   UNL A   1      37.793  31.855  28.915  1.00  0.00    -0.205 F 
ATOM     70  C   UNL A   1      36.425  30.534  31.982  1.00  0.00     0.022 A 
BRANCH  68  71
ATOM     71  S   UNL A   1      35.247  32.448  30.421  1.00  0.00     0.127 S 
ATOM     72  O   UNL A   1      34.337  32.282  31.554  1.00  0.00    -0.237 OA
ATOM     73  O   UNL A   1      35.926  33.744  30.373  1.00  0.00    -0.237 OA
ATOM     74  O   UNL A   1      34.723  31.997  29.137  1.00  0.00    -0.744 OA
ENDBRANCH  68  71
ENDBRANCH  50  64
BRANCH  51  75
ATOM     75  C   UNL A   1      48.031  27.439  28.199  1.00  0.00     0.023 A 
ATOM     76  C   UNL A   1      49.014  26.569  28.725  1.00  0.00     0.012 A 
ATOM     77  C   UNL A   1      47.447  27.135  26.955  1.00  0.00     0.148 A 
ATOM     78  C   UNL A   1      49.322  25.364  28.087  1.00  0.00     0.002 A 
ATOM     79  C   UNL A   1      47.703  25.898  26.370  1.00  0.00     0.091 A 
ATOM     80  F   UNL A   1      46.564  27.998  26.440  1.00  0.00    -0.205 F 
ATOM     81  C   UNL A   1      48.628  25.008  26.938  1.00  0.00     0.022 A 
BRANCH  79  82
ATOM     82  S   UNL A   1      46.689  25.252  25.035  1.00  0.00     0.127 S 
ATOM     83  O   UNL A   1      47.706  24.876  24.044  1.00  0.00    -0.237 OA
ATOM     84  O   UNL A   1      46.058  24.109  25.707  1.00  0.00    -0.237 OA
ATOM     85  O   UNL A   1      45.798  26.313  24.654  1.00  0.00    -0.744 OA
ENDBRANCH  79  82
ENDBRANCH  51  75
BRANCH  63  86
ATOM     86  C   UNL A   1      44.197  33.408  27.640  1.00  0.00     0.023 A 
ATOM     87  C   UNL A   1      44.035  33.191  26.256  1.00  0.00     0.012 A 
ATOM     88  C   UNL A   1      43.903  34.712  28.112  1.00  0.00     0.148 A 
ATOM     89  C   UNL A   1      43.708  34.226  25.374  1.00  0.00     0.002 A 
ATOM     90  C   UNL A   1      43.443  35.704  27.249  1.00  0.00     0.091 A 
ATOM     91  F   UNL A   1      44.086  35.010  29.407  1.00  0.00    -0.205 F 
ATOM     92  C   UNL A   1      43.391  35.481  25.872  1.00  0.00     0.022 A 
BRANCH  90  93
ATOM     93  S   UNL A   1      42.745  37.231  27.890  1.00  0.00     0.127 S 
ATOM     94  O   UNL A   1      42.156  37.824  26.691  1.00  0.00    -0.237 OA
ATOM     95  O   UNL A   1      41.771  36.747  28.871  1.00  0.00    -0.237 OA
ATOM     96  O   UNL A   1      43.873  37.944  28.476  1.00  0.00    -0.744 OA
ENDBRANCH  90  93
ENDBRANCH  63  86
ENDBRANCH  37  38
ENDBRANCH  29  32
ENDBRANCH  27  28
ENDBRANCH  26  27
ENDBRANCH  25  26
ENDBRANCH   1  25
TORSDOF 20
ENDMDL
