MODEL 1
REMARK VINA RESULT:     -13.1      0.000      0.000
REMARK SMILES Cc1c(CC(=O)N[C@@H](C)C(=O)NCCCCCCNC(=O)c2ccc(-c3c4nc(c(-c5cccc(S(=O)(=O)[O-])c5F)c5ccc([nH]5)c(-c5cccc(S(=O)(=O)[O-])c5F)c5nc(c(-c6cccc(S(=O)(=O)[O-])c6F)c6ccc3[nH]6)C=C5)C=C4)cc2)c(=O)oc2cc3oc4c(c3cc12)CCCC4
REMARK SMILES IDX 15 1 14 2 13 3 12 4 10 5 11 6 8 8 9 9 7 10 5 11 6 12 4 14
REMARK SMILES IDX 3 15 1 16 2 17 96 18 85 19 88 20 95 21 86 22 87 23 89 24
REMARK SMILES IDX 94 25 90 26 93 27 91 28 92 29 97 30 100 31 98 32 99 33 16 34
REMARK SMILES IDX 17 35 18 36 19 37 20 38 21 40 22 41 23 42 84 43 24 44 83 45
REMARK SMILES IDX 25 46 26 47 27 48 77 49 28 50 82 51 76 52 78 53 29 54 81 55
REMARK SMILES IDX 75 56 74 57 30 59 62 60 42 61 61 62 43 63 46 64 60 65 79 66
REMARK SMILES IDX 44 67 45 68 59 70 80 71 47 72 31 73 32 74 40 75 33 76 35 77
REMARK SMILES IDX 41 78 34 79 36 80 37 81 38 82 39 83 63 84 64 85 72 86 65 87
REMARK SMILES IDX 67 88 73 89 66 90 68 91 69 92 70 93 71 94 48 95 49 96 57 97
REMARK SMILES IDX 50 98 52 99 58 100 51 101 53 102 54 103 55 104 56 105
REMARK H PARENT 12 7 7 13 19 39 78 58 46 69
REMARK Flexibility Score: inf
ROOT
ATOM      1  C   UNL A   1      47.036  25.012  39.567  1.00  0.00     0.002 C 
ENDROOT
BRANCH   1   2
ATOM      2  C   UNL A   1      47.053  23.480  39.637  1.00  0.00     0.021 C 
BRANCH   2   3
ATOM      3  C   UNL A   1      48.256  22.850  38.942  1.00  0.00     0.116 C 
BRANCH   3   4
ATOM      4  N   UNL A   1      49.152  22.256  39.916  1.00  0.00    -0.354 N 
ATOM      5  C   UNL A   1      49.190  21.013  40.465  1.00  0.00     0.242 C 
ATOM      6  O   UNL A   1      50.014  20.799  41.358  1.00  0.00    -0.273 OA
ATOM      7  H   UNL A   1      49.858  22.862  40.237  1.00  0.00     0.163 HD
BRANCH   5   8
ATOM      8  C   UNL A   1      48.273  19.892  39.963  1.00  0.00     0.168 C 
ATOM      9  C   UNL A   1      48.330  19.766  38.441  1.00  0.00     0.041 C 
BRANCH   8  10
ATOM     10  N   UNL A   1      46.913  20.047  40.484  1.00  0.00    -0.344 N 
ATOM     11  C   UNL A   1      45.966  19.093  40.708  1.00  0.00     0.225 C 
ATOM     12  O   UNL A   1      44.942  19.416  41.315  1.00  0.00    -0.275 OA
ATOM     13  H   UNL A   1      46.645  20.968  40.703  1.00  0.00     0.164 HD
BRANCH  11  14
ATOM     14  C   UNL A   1      46.161  17.669  40.198  1.00  0.00     0.143 C 
BRANCH  14  15
ATOM     15  C   UNL A   1      45.001  16.781  40.580  1.00  0.00     0.051 A 
ATOM     16  C   UNL A   1      45.985  16.106  42.803  1.00  0.00     0.046 C 
ATOM     17  C   UNL A   1      44.875  16.178  41.780  1.00  0.00    -0.029 A 
ATOM     18  C   UNL A   1      43.614  15.490  42.098  1.00  0.00     0.022 A 
ATOM     19  C   UNL A   1      43.954  16.650  39.529  1.00  0.00     0.340 A 
ATOM     20  C   UNL A   1      42.657  15.319  41.096  1.00  0.00     0.142 A 
ATOM     21  C   UNL A   1      43.404  14.894  43.347  1.00  0.00     0.024 A 
ATOM     22  O   UNL A   1      44.100  17.133  38.411  1.00  0.00    -0.246 OA
ATOM     23  O   UNL A   1      42.808  15.946  39.848  1.00  0.00    -0.422 OA
ATOM     24  C   UNL A   1      41.568  14.448  41.203  1.00  0.00     0.095 A 
ATOM     25  C   UNL A   1      42.457  13.866  43.414  1.00  0.00     0.025 A 
ATOM     26  C   UNL A   1      41.613  13.642  42.330  1.00  0.00     0.138 A 
ATOM     27  C   UNL A   1      42.339  12.735  44.256  1.00  0.00     0.001 A 
ATOM     28  O   UNL A   1      41.018  12.418  42.440  1.00  0.00    -0.461 OA
ATOM     29  C   UNL A   1      41.617  11.831  43.505  1.00  0.00     0.108 A 
ATOM     30  C   UNL A   1      43.268  12.244  45.305  1.00  0.00     0.040 C 
ATOM     31  C   UNL A   1      41.996  10.394  43.435  1.00  0.00     0.076 C 
ATOM     32  C   UNL A   1      44.169  11.146  44.694  1.00  0.00     0.005 C 
ATOM     33  C   UNL A   1      43.551  10.377  43.486  1.00  0.00     0.008 C 
ENDBRANCH  14  15
ENDBRANCH  11  14
ENDBRANCH   8  10
ENDBRANCH   5   8
ENDBRANCH   3   4
ENDBRANCH   2   3
ENDBRANCH   1   2
BRANCH   1  34
ATOM     34  C   UNL A   1      46.594  25.598  38.218  1.00  0.00     0.002 C 
BRANCH  34  35
ATOM     35  C   UNL A   1      45.399  24.893  37.569  1.00  0.00     0.021 C 
BRANCH  35  36
ATOM     36  C   UNL A   1      44.134  25.747  37.535  1.00  0.00     0.116 C 
BRANCH  36  37
ATOM     37  N   UNL A   1      42.940  24.981  37.239  1.00  0.00    -0.352 N 
ATOM     38  C   UNL A   1      42.325  24.805  36.017  1.00  0.00     0.251 C 
ATOM     39  H   UNL A   1      42.516  24.530  38.004  1.00  0.00     0.163 HD
ATOM     40  O   UNL A   1      41.285  24.179  35.926  1.00  0.00    -0.269 OA
BRANCH  38  41
ATOM     41  C   UNL A   1      42.961  25.417  34.832  1.00  0.00     0.039 A 
ATOM     42  C   UNL A   1      42.571  26.695  34.417  1.00  0.00     0.014 A 
ATOM     43  C   UNL A   1      43.884  24.672  34.096  1.00  0.00     0.014 A 
ATOM     44  C   UNL A   1      43.017  27.186  33.197  1.00  0.00     0.010 A 
ATOM     45  C   UNL A   1      44.364  25.185  32.892  1.00  0.00     0.010 A 
ATOM     46  C   UNL A   1      43.908  26.428  32.430  1.00  0.00    -0.014 A 
BRANCH  46  47
ATOM     47  C   UNL A   1      44.432  27.034  31.198  1.00  0.00     0.031 A 
ATOM     48  C   UNL A   1      44.554  26.071  30.071  1.00  0.00     0.074 A 
ATOM     49  C   UNL A   1      44.376  28.360  30.950  1.00  0.00     0.049 A 
ATOM     50  N   UNL A   1      43.527  25.740  29.351  1.00  0.00    -0.248 NA
ATOM     51  C   UNL A   1      45.731  25.233  29.851  1.00  0.00     0.031 C 
ATOM     52  C   UNL A   1      43.463  29.288  31.627  1.00  0.00     0.029 A 
ATOM     53  N   UNL A   1      44.925  29.109  29.932  1.00  0.00    -0.354 N 
ATOM     54  C   UNL A   1      43.876  24.615  28.633  1.00  0.00     0.074 A 
ATOM     55  C   UNL A   1      45.266  24.357  28.946  1.00  0.00     0.031 C 
ATOM     56  C   UNL A   1      43.364  30.411  30.887  1.00  0.00     0.029 A 
ATOM     57  C   UNL A   1      44.320  30.357  29.782  1.00  0.00     0.049 A 
ATOM     58  H   UNL A   1      45.669  28.795  29.369  1.00  0.00     0.167 HD
ATOM     59  C   UNL A   1      42.993  23.951  27.843  1.00  0.00     0.034 A 
ATOM     60  C   UNL A   1      44.129  31.008  28.600  1.00  0.00     0.034 A 
ATOM     61  C   UNL A   1      41.655  24.470  27.841  1.00  0.00     0.049 A 
ATOM     62  C   UNL A   1      43.291  30.028  27.819  1.00  0.00     0.074 A 
ATOM     63  C   UNL A   1      40.489  24.219  28.530  1.00  0.00     0.029 A 
ATOM     64  N   UNL A   1      41.387  25.596  27.097  1.00  0.00    -0.354 N 
ATOM     65  N   UNL A   1      42.005  29.842  27.964  1.00  0.00    -0.248 NA
ATOM     66  C   UNL A   1      43.984  28.969  27.085  1.00  0.00     0.031 C 
ATOM     67  C   UNL A   1      39.752  25.446  28.505  1.00  0.00     0.029 A 
ATOM     68  C   UNL A   1      40.540  26.384  27.842  1.00  0.00     0.049 A 
ATOM     69  H   UNL A   1      41.735  25.799  26.200  1.00  0.00     0.167 HD
ATOM     70  C   UNL A   1      41.779  28.514  27.592  1.00  0.00     0.074 A 
ATOM     71  C   UNL A   1      43.038  28.040  27.052  1.00  0.00     0.031 C 
ATOM     72  C   UNL A   1      40.635  27.829  27.883  1.00  0.00     0.034 A 
BRANCH  59  73
ATOM     73  C   UNL A   1      43.387  22.876  26.910  1.00  0.00     0.023 A 
ATOM     74  C   UNL A   1      44.131  23.267  25.782  1.00  0.00     0.012 A 
ATOM     75  C   UNL A   1      42.927  21.554  27.019  1.00  0.00     0.148 A 
ATOM     76  C   UNL A   1      44.385  22.371  24.750  1.00  0.00     0.002 A 
ATOM     77  C   UNL A   1      43.189  20.659  25.985  1.00  0.00     0.091 A 
ATOM     78  F   UNL A   1      42.216  21.207  28.102  1.00  0.00    -0.205 F 
ATOM     79  C   UNL A   1      43.908  21.070  24.848  1.00  0.00     0.022 A 
BRANCH  77  80
ATOM     80  S   UNL A   1      42.635  18.950  26.002  1.00  0.00     0.127 S 
ATOM     81  O   UNL A   1      41.221  19.086  25.657  1.00  0.00    -0.237 OA
ATOM     82  O   UNL A   1      43.464  18.352  24.954  1.00  0.00    -0.237 OA
ATOM     83  O   UNL A   1      42.912  18.454  27.343  1.00  0.00    -0.744 OA
ENDBRANCH  77  80
ENDBRANCH  59  73
BRANCH  60  84
ATOM     84  C   UNL A   1      45.344  31.685  28.026  1.00  0.00     0.023 A 
ATOM     85  C   UNL A   1      46.601  31.067  28.234  1.00  0.00     0.012 A 
ATOM     86  C   UNL A   1      45.332  32.898  27.310  1.00  0.00     0.148 A 
ATOM     87  C   UNL A   1      47.776  31.574  27.672  1.00  0.00     0.002 A 
ATOM     88  C   UNL A   1      46.493  33.364  26.693  1.00  0.00     0.091 A 
ATOM     89  F   UNL A   1      44.195  33.598  27.235  1.00  0.00    -0.205 F 
ATOM     90  C   UNL A   1      47.716  32.707  26.874  1.00  0.00     0.022 A 
BRANCH  88  91
ATOM     91  S   UNL A   1      46.489  34.759  25.556  1.00  0.00     0.127 S 
ATOM     92  O   UNL A   1      47.890  34.821  25.146  1.00  0.00    -0.237 OA
ATOM     93  O   UNL A   1      45.564  34.287  24.526  1.00  0.00    -0.237 OA
ATOM     94  O   UNL A   1      46.017  35.899  26.328  1.00  0.00    -0.744 OA
ENDBRANCH  88  91
ENDBRANCH  60  84
BRANCH  72  95
ATOM     95  C   UNL A   1      39.498  28.634  28.439  1.00  0.00     0.023 A 
ATOM     96  C   UNL A   1      38.607  29.237  27.531  1.00  0.00     0.012 A 
ATOM     97  C   UNL A   1      39.247  28.743  29.821  1.00  0.00     0.148 A 
ATOM     98  C   UNL A   1      37.473  29.912  27.982  1.00  0.00     0.002 A 
ATOM     99  C   UNL A   1      38.096  29.387  30.265  1.00  0.00     0.091 A 
ATOM    100  F   UNL A   1      40.114  28.193  30.684  1.00  0.00    -0.205 F 
ATOM    101  C   UNL A   1      37.210  29.975  29.347  1.00  0.00     0.022 A 
BRANCH  99 102
ATOM    102  S   UNL A   1      37.641  29.479  32.002  1.00  0.00     0.127 S 
ATOM    103  O   UNL A   1      38.489  30.569  32.489  1.00  0.00    -0.237 OA
ATOM    104  O   UNL A   1      36.219  29.804  31.924  1.00  0.00    -0.237 OA
ATOM    105  O   UNL A   1      37.955  28.177  32.576  1.00  0.00    -0.744 OA
ENDBRANCH  99 102
ENDBRANCH  72  95
ENDBRANCH  46  47
ENDBRANCH  38  41
ENDBRANCH  36  37
ENDBRANCH  35  36
ENDBRANCH  34  35
ENDBRANCH   1  34
TORSDOF 19
ENDMDL
MODEL 2
REMARK VINA RESULT:     -13.1      7.753     21.059
REMARK SMILES Cc1c(CC(=O)N[C@@H](C)C(=O)NCCCCCCNC(=O)c2ccc(-c3c4nc(c(-c5cccc(S(=O)(=O)[O-])c5F)c5ccc([nH]5)c(-c5cccc(S(=O)(=O)[O-])c5F)c5nc(c(-c6cccc(S(=O)(=O)[O-])c6F)c6ccc3[nH]6)C=C5)C=C4)cc2)c(=O)oc2cc3oc4c(c3cc12)CCCC4
REMARK SMILES IDX 15 1 14 2 13 3 12 4 10 5 11 6 8 8 9 9 7 10 5 11 6 12 4 14
REMARK SMILES IDX 3 15 1 16 2 17 96 18 85 19 88 20 95 21 86 22 87 23 89 24
REMARK SMILES IDX 94 25 90 26 93 27 91 28 92 29 97 30 100 31 98 32 99 33 16 34
REMARK SMILES IDX 17 35 18 36 19 37 20 38 21 40 22 41 23 42 84 43 24 44 83 45
REMARK SMILES IDX 25 46 26 47 27 48 77 49 28 50 82 51 76 52 78 53 29 54 81 55
REMARK SMILES IDX 75 56 74 57 30 59 62 60 42 61 61 62 43 63 46 64 60 65 79 66
REMARK SMILES IDX 44 67 45 68 59 70 80 71 47 72 31 73 32 74 40 75 33 76 35 77
REMARK SMILES IDX 41 78 34 79 36 80 37 81 38 82 39 83 63 84 64 85 72 86 65 87
REMARK SMILES IDX 67 88 73 89 66 90 68 91 69 92 70 93 71 94 48 95 49 96 57 97
REMARK SMILES IDX 50 98 52 99 58 100 51 101 53 102 54 103 55 104 56 105
REMARK H PARENT 12 7 7 13 19 39 78 58 46 69
REMARK Flexibility Score: inf
ROOT
ATOM      1  C   UNL A   1      45.670  37.449  27.668  1.00  0.00     0.002 C 
ENDROOT
BRANCH   1   2
ATOM      2  C   UNL A   1      45.966  38.770  28.389  1.00  0.00     0.021 C 
BRANCH   2   3
ATOM      3  C   UNL A   1      46.215  39.939  27.441  1.00  0.00     0.116 C 
BRANCH   3   4
ATOM      4  N   UNL A   1      45.771  41.183  28.042  1.00  0.00    -0.354 N 
ATOM      5  C   UNL A   1      44.805  42.066  27.677  1.00  0.00     0.242 C 
ATOM      6  O   UNL A   1      44.699  43.110  28.326  1.00  0.00    -0.273 OA
ATOM      7  H   UNL A   1      46.258  41.431  28.861  1.00  0.00     0.163 HD
BRANCH   5   8
ATOM      8  C   UNL A   1      43.839  41.759  26.526  1.00  0.00     0.168 C 
ATOM      9  C   UNL A   1      42.852  40.658  26.906  1.00  0.00     0.041 C 
BRANCH   8  10
ATOM     10  N   UNL A   1      44.567  41.487  25.284  1.00  0.00    -0.344 N 
ATOM     11  C   UNL A   1      44.705  42.274  24.181  1.00  0.00     0.225 C 
ATOM     12  O   UNL A   1      45.505  41.925  23.309  1.00  0.00    -0.275 OA
ATOM     13  H   UNL A   1      45.017  40.613  25.240  1.00  0.00     0.164 HD
BRANCH  11  14
ATOM     14  C   UNL A   1      43.873  43.543  24.021  1.00  0.00     0.143 C 
BRANCH  14  15
ATOM     15  C   UNL A   1      43.308  43.661  22.626  1.00  0.00     0.051 A 
ATOM     16  C   UNL A   1      45.254  44.992  21.729  1.00  0.00     0.046 C 
ATOM     17  C   UNL A   1      43.971  44.207  21.586  1.00  0.00    -0.029 A 
ATOM     18  C   UNL A   1      43.389  44.099  20.239  1.00  0.00     0.022 A 
ATOM     19  C   UNL A   1      41.949  43.076  22.461  1.00  0.00     0.340 A 
ATOM     20  C   UNL A   1      42.093  43.600  20.092  1.00  0.00     0.142 A 
ATOM     21  C   UNL A   1      44.057  44.597  19.114  1.00  0.00     0.024 A 
ATOM     22  O   UNL A   1      41.312  42.647  23.418  1.00  0.00    -0.246 OA
ATOM     23  O   UNL A   1      41.412  43.044  21.188  1.00  0.00    -0.422 OA
ATOM     24  C   UNL A   1      41.346  43.717  18.916  1.00  0.00     0.095 A 
ATOM     25  C   UNL A   1      43.278  44.917  17.997  1.00  0.00     0.025 A 
ATOM     26  C   UNL A   1      41.944  44.519  17.956  1.00  0.00     0.138 A 
ATOM     27  C   UNL A   1      43.445  45.866  16.961  1.00  0.00     0.001 A 
ATOM     28  O   UNL A   1      41.277  45.202  16.981  1.00  0.00    -0.461 OA
ATOM     29  C   UNL A   1      42.160  46.128  16.535  1.00  0.00     0.108 A 
ATOM     30  C   UNL A   1      44.501  46.897  16.793  1.00  0.00     0.040 C 
ATOM     31  C   UNL A   1      41.695  47.514  16.260  1.00  0.00     0.076 C 
ATOM     32  C   UNL A   1      43.970  48.242  17.339  1.00  0.00     0.005 C 
ATOM     33  C   UNL A   1      42.420  48.405  17.309  1.00  0.00     0.008 C 
ENDBRANCH  14  15
ENDBRANCH  11  14
ENDBRANCH   8  10
ENDBRANCH   5   8
ENDBRANCH   3   4
ENDBRANCH   2   3
ENDBRANCH   1   2
BRANCH   1  34
ATOM     34  C   UNL A   1      46.764  36.378  27.792  1.00  0.00     0.002 C 
BRANCH  34  35
ATOM     35  C   UNL A   1      47.365  35.912  26.464  1.00  0.00     0.021 C 
BRANCH  35  36
ATOM     36  C   UNL A   1      46.812  34.573  25.982  1.00  0.00     0.116 C 
BRANCH  36  37
ATOM     37  N   UNL A   1      45.784  34.714  24.970  1.00  0.00    -0.352 N 
ATOM     38  C   UNL A   1      44.466  34.314  25.039  1.00  0.00     0.251 C 
ATOM     39  H   UNL A   1      46.061  35.147  24.131  1.00  0.00     0.163 HD
ATOM     40  O   UNL A   1      43.724  34.444  24.082  1.00  0.00    -0.269 OA
BRANCH  38  41
ATOM     41  C   UNL A   1      43.993  33.711  26.302  1.00  0.00     0.039 A 
ATOM     42  C   UNL A   1      43.560  34.536  27.345  1.00  0.00     0.014 A 
ATOM     43  C   UNL A   1      44.065  32.327  26.462  1.00  0.00     0.014 A 
ATOM     44  C   UNL A   1      43.308  33.987  28.595  1.00  0.00     0.010 A 
ATOM     45  C   UNL A   1      43.771  31.772  27.706  1.00  0.00     0.010 A 
ATOM     46  C   UNL A   1      43.421  32.605  28.779  1.00  0.00    -0.014 A 
BRANCH  46  47
ATOM     47  C   UNL A   1      43.044  32.059  30.091  1.00  0.00     0.031 A 
ATOM     48  C   UNL A   1      41.671  32.441  30.517  1.00  0.00     0.074 A 
ATOM     49  C   UNL A   1      43.646  30.983  30.640  1.00  0.00     0.049 A 
ATOM     50  N   UNL A   1      40.626  31.815  30.070  1.00  0.00    -0.248 NA
ATOM     51  C   UNL A   1      41.364  33.677  31.233  1.00  0.00     0.031 C 
ATOM     52  C   UNL A   1      44.425  29.996  29.880  1.00  0.00     0.029 A 
ATOM     53  N   UNL A   1      43.521  30.423  31.891  1.00  0.00    -0.354 N 
ATOM     54  C   UNL A   1      39.526  32.590  30.370  1.00  0.00     0.074 A 
ATOM     55  C   UNL A   1      40.026  33.720  31.125  1.00  0.00     0.031 C 
ATOM     56  C   UNL A   1      44.531  28.872  30.618  1.00  0.00     0.029 A 
ATOM     57  C   UNL A   1      43.980  29.106  31.952  1.00  0.00     0.049 A 
ATOM     58  H   UNL A   1      43.147  30.902  32.665  1.00  0.00     0.167 HD
ATOM     59  C   UNL A   1      38.272  32.268  29.959  1.00  0.00     0.034 A 
ATOM     60  C   UNL A   1      43.448  28.116  32.722  1.00  0.00     0.034 A 
ATOM     61  C   UNL A   1      38.173  31.089  29.147  1.00  0.00     0.049 A 
ATOM     62  C   UNL A   1      42.024  28.052  32.232  1.00  0.00     0.074 A 
ATOM     63  C   UNL A   1      38.168  30.806  27.798  1.00  0.00     0.029 A 
ATOM     64  N   UNL A   1      38.226  29.859  29.762  1.00  0.00    -0.354 N 
ATOM     65  N   UNL A   1      41.622  27.464  31.136  1.00  0.00    -0.248 NA
ATOM     66  C   UNL A   1      41.057  28.980  32.818  1.00  0.00     0.031 C 
ATOM     67  C   UNL A   1      38.666  29.469  27.681  1.00  0.00     0.029 A 
ATOM     68  C   UNL A   1      38.989  29.038  28.966  1.00  0.00     0.049 A 
ATOM     69  H   UNL A   1      37.797  29.614  30.613  1.00  0.00     0.167 HD
ATOM     70  C   UNL A   1      40.476  28.158  30.741  1.00  0.00     0.074 A 
ATOM     71  C   UNL A   1      40.180  29.072  31.827  1.00  0.00     0.031 C 
ATOM     72  C   UNL A   1      39.923  28.066  29.497  1.00  0.00     0.034 A 
BRANCH  59  73
ATOM     73  C   UNL A   1      37.058  32.961  30.434  1.00  0.00     0.023 A 
ATOM     74  C   UNL A   1      36.777  32.860  31.810  1.00  0.00     0.012 A 
ATOM     75  C   UNL A   1      36.123  33.557  29.573  1.00  0.00     0.148 A 
ATOM     76  C   UNL A   1      35.566  33.308  32.325  1.00  0.00     0.002 A 
ATOM     77  C   UNL A   1      34.914  34.009  30.095  1.00  0.00     0.091 A 
ATOM     78  F   UNL A   1      36.411  33.637  28.266  1.00  0.00    -0.205 F 
ATOM     79  C   UNL A   1      34.632  33.875  31.467  1.00  0.00     0.022 A 
BRANCH  77  80
ATOM     80  S   UNL A   1      33.633  34.770  29.091  1.00  0.00     0.127 S 
ATOM     81  O   UNL A   1      33.312  33.700  28.149  1.00  0.00    -0.237 OA
ATOM     82  O   UNL A   1      32.592  35.044  30.082  1.00  0.00    -0.237 OA
ATOM     83  O   UNL A   1      34.237  35.961  28.510  1.00  0.00    -0.744 OA
ENDBRANCH  77  80
ENDBRANCH  59  73
BRANCH  60  84
ATOM     84  C   UNL A   1      43.810  28.161  34.182  1.00  0.00     0.023 A 
ATOM     85  C   UNL A   1      44.491  29.308  34.656  1.00  0.00     0.012 A 
ATOM     86  C   UNL A   1      43.537  27.141  35.115  1.00  0.00     0.148 A 
ATOM     87  C   UNL A   1      44.798  29.479  36.008  1.00  0.00     0.002 A 
ATOM     88  C   UNL A   1      43.781  27.343  36.473  1.00  0.00     0.091 A 
ATOM     89  F   UNL A   1      43.047  25.975  34.679  1.00  0.00    -0.205 F 
ATOM     90  C   UNL A   1      44.413  28.509  36.923  1.00  0.00     0.022 A 
BRANCH  88  91
ATOM     91  S   UNL A   1      43.221  26.193  37.737  1.00  0.00     0.127 S 
ATOM     92  O   UNL A   1      43.738  24.919  37.239  1.00  0.00    -0.237 OA
ATOM     93  O   UNL A   1      43.900  26.714  38.922  1.00  0.00    -0.237 OA
ATOM     94  O   UNL A   1      41.769  26.306  37.761  1.00  0.00    -0.744 OA
ENDBRANCH  88  91
ENDBRANCH  60  84
BRANCH  72  95
ATOM     95  C   UNL A   1      40.469  26.992  28.602  1.00  0.00     0.023 A 
ATOM     96  C   UNL A   1      39.860  25.723  28.642  1.00  0.00     0.012 A 
ATOM     97  C   UNL A   1      41.506  27.226  27.678  1.00  0.00     0.148 A 
ATOM     98  C   UNL A   1      40.252  24.713  27.765  1.00  0.00     0.002 A 
ATOM     99  C   UNL A   1      41.870  26.226  26.780  1.00  0.00     0.091 A 
ATOM    100  F   UNL A   1      42.104  28.427  27.663  1.00  0.00    -0.205 F 
ATOM    101  C   UNL A   1      41.246  24.969  26.825  1.00  0.00     0.022 A 
BRANCH  99 102
ATOM    102  S   UNL A   1      43.105  26.473  25.498  1.00  0.00     0.127 S 
ATOM    103  O   UNL A   1      44.312  26.757  26.278  1.00  0.00    -0.237 OA
ATOM    104  O   UNL A   1      43.107  25.174  24.828  1.00  0.00    -0.237 OA
ATOM    105  O   UNL A   1      42.639  27.593  24.691  1.00  0.00    -0.744 OA
ENDBRANCH  99 102
ENDBRANCH  72  95
ENDBRANCH  46  47
ENDBRANCH  38  41
ENDBRANCH  36  37
ENDBRANCH  35  36
ENDBRANCH  34  35
ENDBRANCH   1  34
TORSDOF 19
ENDMDL
MODEL 3
REMARK VINA RESULT:     -12.3      8.625     21.431
REMARK SMILES Cc1c(CC(=O)N[C@@H](C)C(=O)NCCCCCCNC(=O)c2ccc(-c3c4nc(c(-c5cccc(S(=O)(=O)[O-])c5F)c5ccc([nH]5)c(-c5cccc(S(=O)(=O)[O-])c5F)c5nc(c(-c6cccc(S(=O)(=O)[O-])c6F)c6ccc3[nH]6)C=C5)C=C4)cc2)c(=O)oc2cc3oc4c(c3cc12)CCCC4
REMARK SMILES IDX 15 1 14 2 13 3 12 4 10 5 11 6 8 8 9 9 7 10 5 11 6 12 4 14
REMARK SMILES IDX 3 15 1 16 2 17 96 18 85 19 88 20 95 21 86 22 87 23 89 24
REMARK SMILES IDX 94 25 90 26 93 27 91 28 92 29 97 30 100 31 98 32 99 33 16 34
REMARK SMILES IDX 17 35 18 36 19 37 20 38 21 40 22 41 23 42 84 43 24 44 83 45
REMARK SMILES IDX 25 46 26 47 27 48 77 49 28 50 82 51 76 52 78 53 29 54 81 55
REMARK SMILES IDX 75 56 74 57 30 59 62 60 42 61 61 62 43 63 46 64 60 65 79 66
REMARK SMILES IDX 44 67 45 68 59 70 80 71 47 72 31 73 32 74 40 75 33 76 35 77
REMARK SMILES IDX 41 78 34 79 36 80 37 81 38 82 39 83 63 84 64 85 72 86 65 87
REMARK SMILES IDX 67 88 73 89 66 90 68 91 69 92 70 93 71 94 48 95 49 96 57 97
REMARK SMILES IDX 50 98 52 99 58 100 51 101 53 102 54 103 55 104 56 105
REMARK H PARENT 12 7 7 13 19 39 78 58 46 69
REMARK Flexibility Score: inf
ROOT
ATOM      1  C   UNL A   1      43.470  36.574  26.787  1.00  0.00     0.002 C 
ENDROOT
BRANCH   1   2
ATOM      2  C   UNL A   1      42.442  37.708  26.882  1.00  0.00     0.021 C 
BRANCH   2   3
ATOM      3  C   UNL A   1      42.998  38.984  27.507  1.00  0.00     0.116 C 
BRANCH   3   4
ATOM      4  N   UNL A   1      44.074  39.520  26.695  1.00  0.00    -0.354 N 
ATOM      5  C   UNL A   1      44.139  40.616  25.893  1.00  0.00     0.242 C 
ATOM      6  O   UNL A   1      45.164  40.789  25.229  1.00  0.00    -0.273 OA
ATOM      7  H   UNL A   1      44.906  38.995  26.731  1.00  0.00     0.163 HD
BRANCH   5   8
ATOM      8  C   UNL A   1      42.996  41.637  25.846  1.00  0.00     0.168 C 
ATOM      9  C   UNL A   1      41.808  41.106  25.047  1.00  0.00     0.041 C 
BRANCH   8  10
ATOM     10  N   UNL A   1      43.471  42.943  25.385  1.00  0.00    -0.344 N 
ATOM     11  C   UNL A   1      43.639  43.395  24.111  1.00  0.00     0.225 C 
ATOM     12  O   UNL A   1      43.889  44.590  23.941  1.00  0.00    -0.275 OA
ATOM     13  H   UNL A   1      43.703  43.584  26.095  1.00  0.00     0.164 HD
BRANCH  11  14
ATOM     14  C   UNL A   1      43.543  42.436  22.928  1.00  0.00     0.143 C 
BRANCH  14  15
ATOM     15  C   UNL A   1      43.064  43.142  21.682  1.00  0.00     0.051 A 
ATOM     16  C   UNL A   1      45.370  43.862  20.955  1.00  0.00     0.046 C 
ATOM     17  C   UNL A   1      43.884  43.676  20.754  1.00  0.00    -0.029 A 
ATOM     18  C   UNL A   1      43.303  44.173  19.496  1.00  0.00     0.022 A 
ATOM     19  C   UNL A   1      41.584  43.167  21.521  1.00  0.00     0.340 A 
ATOM     20  C   UNL A   1      41.914  44.248  19.368  1.00  0.00     0.142 A 
ATOM     21  C   UNL A   1      44.109  44.687  18.474  1.00  0.00     0.024 A 
ATOM     22  O   UNL A   1      40.833  42.751  22.396  1.00  0.00    -0.246 OA
ATOM     23  O   UNL A   1      41.074  43.695  20.349  1.00  0.00    -0.422 OA
ATOM     24  C   UNL A   1      41.266  44.956  18.351  1.00  0.00     0.095 A 
ATOM     25  C   UNL A   1      43.509  45.571  17.571  1.00  0.00     0.025 A 
ATOM     26  C   UNL A   1      42.124  45.719  17.574  1.00  0.00     0.138 A 
ATOM     27  C   UNL A   1      44.024  46.644  16.805  1.00  0.00     0.001 A 
ATOM     28  O   UNL A   1      41.767  46.844  16.889  1.00  0.00    -0.461 OA
ATOM     29  C   UNL A   1      42.937  47.467  16.604  1.00  0.00     0.108 A 
ATOM     30  C   UNL A   1      45.394  47.219  16.796  1.00  0.00     0.040 C 
ATOM     31  C   UNL A   1      43.037  48.944  16.752  1.00  0.00     0.076 C 
ATOM     32  C   UNL A   1      45.419  48.451  17.728  1.00  0.00     0.005 C 
ATOM     33  C   UNL A   1      44.049  49.173  17.911  1.00  0.00     0.008 C 
ENDBRANCH  14  15
ENDBRANCH  11  14
ENDBRANCH   8  10
ENDBRANCH   5   8
ENDBRANCH   3   4
ENDBRANCH   2   3
ENDBRANCH   1   2
BRANCH   1  34
ATOM     34  C   UNL A   1      42.973  35.299  26.090  1.00  0.00     0.002 C 
BRANCH  34  35
ATOM     35  C   UNL A   1      43.973  34.660  25.123  1.00  0.00     0.021 C 
BRANCH  35  36
ATOM     36  C   UNL A   1      43.899  33.135  25.092  1.00  0.00     0.116 C 
BRANCH  36  37
ATOM     37  N   UNL A   1      45.175  32.499  25.349  1.00  0.00    -0.352 N 
ATOM     38  C   UNL A   1      45.754  32.222  26.570  1.00  0.00     0.251 C 
ATOM     39  H   UNL A   1      45.692  32.232  24.556  1.00  0.00     0.163 HD
ATOM     40  O   UNL A   1      46.867  31.734  26.637  1.00  0.00    -0.269 OA
BRANCH  38  41
ATOM     41  C   UNL A   1      44.985  32.554  27.788  1.00  0.00     0.039 A 
ATOM     42  C   UNL A   1      43.974  31.692  28.226  1.00  0.00     0.014 A 
ATOM     43  C   UNL A   1      45.228  33.766  28.435  1.00  0.00     0.014 A 
ATOM     44  C   UNL A   1      43.122  32.097  29.246  1.00  0.00     0.010 A 
ATOM     45  C   UNL A   1      44.398  34.152  29.486  1.00  0.00     0.010 A 
ATOM     46  C   UNL A   1      43.329  33.331  29.872  1.00  0.00    -0.014 A 
BRANCH  46  47
ATOM     47  C   UNL A   1      42.466  33.668  31.013  1.00  0.00     0.031 A 
ATOM     48  C   UNL A   1      41.015  33.581  30.703  1.00  0.00     0.074 A 
ATOM     49  C   UNL A   1      42.888  33.612  32.294  1.00  0.00     0.049 A 
ATOM     50  N   UNL A   1      40.392  32.442  30.700  1.00  0.00    -0.248 NA
ATOM     51  C   UNL A   1      40.245  34.683  30.129  1.00  0.00     0.031 C 
ATOM     52  C   UNL A   1      44.056  32.845  32.746  1.00  0.00     0.029 A 
ATOM     53  N   UNL A   1      42.275  34.012  33.461  1.00  0.00    -0.354 N 
ATOM     54  C   UNL A   1      39.183  32.639  30.065  1.00  0.00     0.074 A 
ATOM     55  C   UNL A   1      39.118  34.053  29.760  1.00  0.00     0.031 C 
ATOM     56  C   UNL A   1      43.961  32.663  34.079  1.00  0.00     0.029 A 
ATOM     57  C   UNL A   1      42.829  33.428  34.600  1.00  0.00     0.049 A 
ATOM     58  H   UNL A   1      41.524  34.647  33.489  1.00  0.00     0.167 HD
ATOM     59  C   UNL A   1      38.319  31.623  29.809  1.00  0.00     0.034 A 
ATOM     60  C   UNL A   1      42.142  33.070  35.722  1.00  0.00     0.034 A 
ATOM     61  C   UNL A   1      38.770  30.318  30.200  1.00  0.00     0.049 A 
ATOM     62  C   UNL A   1      41.130  32.090  35.185  1.00  0.00     0.074 A 
ATOM     63  C   UNL A   1      39.428  29.269  29.594  1.00  0.00     0.029 A 
ATOM     64  N   UNL A   1      38.700  29.967  31.528  1.00  0.00    -0.354 N 
ATOM     65  N   UNL A   1      41.366  30.839  34.887  1.00  0.00    -0.248 NA
ATOM     66  C   UNL A   1      39.886  32.625  34.634  1.00  0.00     0.031 C 
ATOM     67  C   UNL A   1      40.101  28.574  30.649  1.00  0.00     0.029 A 
ATOM     68  C   UNL A   1      39.849  29.273  31.828  1.00  0.00     0.049 A 
ATOM     69  H   UNL A   1      37.964  30.173  32.147  1.00  0.00     0.167 HD
ATOM     70  C   UNL A   1      40.450  30.517  33.883  1.00  0.00     0.074 A 
ATOM     71  C   UNL A   1      39.563  31.659  33.784  1.00  0.00     0.031 C 
ATOM     72  C   UNL A   1      40.554  29.415  33.085  1.00  0.00     0.034 A 
BRANCH  59  73
ATOM     73  C   UNL A   1      36.941  31.831  29.322  1.00  0.00     0.023 A 
ATOM     74  C   UNL A   1      36.529  31.023  28.246  1.00  0.00     0.012 A 
ATOM     75  C   UNL A   1      36.115  32.874  29.769  1.00  0.00     0.148 A 
ATOM     76  C   UNL A   1      35.328  31.269  27.590  1.00  0.00     0.002 A 
ATOM     77  C   UNL A   1      34.910  33.112  29.111  1.00  0.00     0.091 A 
ATOM     78  F   UNL A   1      36.531  33.633  30.792  1.00  0.00    -0.205 F 
ATOM     79  C   UNL A   1      34.523  32.317  28.017  1.00  0.00     0.022 A 
BRANCH  77  80
ATOM     80  S   UNL A   1      33.780  34.429  29.578  1.00  0.00     0.127 S 
ATOM     81  O   UNL A   1      34.504  35.620  29.138  1.00  0.00    -0.237 OA
ATOM     82  O   UNL A   1      32.594  34.107  28.783  1.00  0.00    -0.237 OA
ATOM     83  O   UNL A   1      33.591  34.301  31.016  1.00  0.00    -0.744 OA
ENDBRANCH  77  80
ENDBRANCH  59  73
BRANCH  60  84
ATOM     84  C   UNL A   1      41.778  34.197  36.649  1.00  0.00     0.023 A 
ATOM     85  C   UNL A   1      42.258  35.490  36.333  1.00  0.00     0.012 A 
ATOM     86  C   UNL A   1      41.007  34.064  37.820  1.00  0.00     0.148 A 
ATOM     87  C   UNL A   1      41.907  36.614  37.086  1.00  0.00     0.002 A 
ATOM     88  C   UNL A   1      40.601  35.193  38.530  1.00  0.00     0.091 A 
ATOM     89  F   UNL A   1      40.675  32.839  38.245  1.00  0.00    -0.205 F 
ATOM     90  C   UNL A   1      41.050  36.469  38.168  1.00  0.00     0.022 A 
BRANCH  88  91
ATOM     91  S   UNL A   1      39.409  35.112  39.876  1.00  0.00     0.127 S 
ATOM     92  O   UNL A   1      40.242  34.669  40.992  1.00  0.00    -0.237 OA
ATOM     93  O   UNL A   1      38.965  36.503  39.951  1.00  0.00    -0.237 OA
ATOM     94  O   UNL A   1      38.391  34.164  39.447  1.00  0.00    -0.744 OA
ENDBRANCH  88  91
ENDBRANCH  60  84
BRANCH  72  95
ATOM     95  C   UNL A   1      41.593  28.405  33.474  1.00  0.00     0.023 A 
ATOM     96  C   UNL A   1      41.230  27.401  34.391  1.00  0.00     0.012 A 
ATOM     97  C   UNL A   1      42.881  28.379  32.902  1.00  0.00     0.148 A 
ATOM     98  C   UNL A   1      42.116  26.374  34.716  1.00  0.00     0.002 A 
ATOM     99  C   UNL A   1      43.748  27.332  33.202  1.00  0.00     0.091 A 
ATOM    100  F   UNL A   1      43.233  29.354  32.051  1.00  0.00    -0.205 F 
ATOM    101  C   UNL A   1      43.368  26.332  34.111  1.00  0.00     0.022 A 
BRANCH  99 102
ATOM    102  S   UNL A   1      45.365  27.160  32.437  1.00  0.00     0.127 S 
ATOM    103  O   UNL A   1      45.705  25.766  32.733  1.00  0.00    -0.237 OA
ATOM    104  O   UNL A   1      45.063  27.426  31.032  1.00  0.00    -0.237 OA
ATOM    105  O   UNL A   1      46.231  28.136  33.086  1.00  0.00    -0.744 OA
ENDBRANCH  99 102
ENDBRANCH  72  95
ENDBRANCH  46  47
ENDBRANCH  38  41
ENDBRANCH  36  37
ENDBRANCH  35  36
ENDBRANCH  34  35
ENDBRANCH   1  34
TORSDOF 19
ENDMDL
