MODEL 1
REMARK VINA RESULT:     -11.5      0.000      0.000
REMARK SMILES [NH3+][C@]1(C(=O)NCCCCCCNC(=O)c2ccc(-c3c4nc(c(-c5cccc(S(=O)(=O)[O-])c5F)c5ccc([nH]5)c(-c5cccc(S(=O)(=O)[O-])c5F)c5nc(c(-c6cccc(S(=O)(=O)[O-])c6F)c6ccc3[nH]6)C=C5)C=C4)cc2)CC[C@@H]([NH+]2CCC(C(F)(F)F)CC2)C1
REMARK SMILES IDX 9 1 8 2 7 3 6 4 5 5 3 6 4 7 2 9 78 10 91 11 79 12 80 13 1 14
REMARK SMILES IDX 81 18 82 19 90 20 83 22 89 23 84 24 85 25 86 26 87 27 88 28
REMARK SMILES IDX 10 29 11 30 12 31 13 32 14 34 15 35 16 36 77 37 17 38 76 39
REMARK SMILES IDX 18 40 19 41 20 42 70 43 21 44 75 45 69 46 71 47 22 48 74 49
REMARK SMILES IDX 68 50 67 51 23 53 55 54 35 55 54 56 36 57 39 58 53 59 72 60
REMARK SMILES IDX 37 61 38 62 52 64 73 65 40 66 24 67 25 68 33 69 26 70 28 71
REMARK SMILES IDX 34 72 27 73 29 74 30 75 31 76 32 77 56 78 57 79 65 80 58 81
REMARK SMILES IDX 60 82 66 83 59 84 61 85 62 86 63 87 64 88 41 89 42 90 50 91
REMARK SMILES IDX 43 92 45 93 51 94 44 95 46 96 47 97 48 98 49 99
REMARK H PARENT 5 8 1 15 1 16 1 17 81 21 12 33 71 52 39 63
REMARK Flexibility Score: inf
ROOT
ATOM      1  C   UNL A   1      33.785  26.775  24.372  1.00  0.00     0.002 C 
ENDROOT
BRANCH   1   2
ATOM      2  C   UNL A   1      34.099  25.717  25.433  1.00  0.00     0.002 C 
BRANCH   2   3
ATOM      3  C   UNL A   1      35.107  24.642  25.018  1.00  0.00     0.021 C 
BRANCH   3   4
ATOM      4  C   UNL A   1      34.567  23.558  24.092  1.00  0.00     0.116 C 
BRANCH   4   5
ATOM      5  N   UNL A   1      35.216  22.279  24.292  1.00  0.00    -0.351 N 
ATOM      6  C   UNL A   1      34.827  21.191  25.018  1.00  0.00     0.281 C 
ATOM      7  O   UNL A   1      35.563  20.201  24.973  1.00  0.00    -0.268 OA
ATOM      8  H   UNL A   1      36.079  22.178  23.829  1.00  0.00     0.163 HD
BRANCH   6   9
ATOM      9  C   UNL A   1      33.551  21.235  25.903  1.00  0.00     0.179 C 
ATOM     10  C   UNL A   1      33.612  22.370  26.938  1.00  0.00     0.085 C 
ATOM     11  C   UNL A   1      32.321  21.594  25.039  1.00  0.00     0.144 C 
ATOM     12  C   UNL A   1      32.147  22.692  27.211  1.00  0.00     0.072 C 
ATOM     13  C   UNL A   1      31.462  22.599  25.839  1.00  0.00     0.191 C 
BRANCH   9  14
ATOM     14  N   UNL A   1      33.371  19.992  26.684  1.00  0.00    -0.345 N 
ATOM     15  H   UNL A   1      34.232  19.447  26.659  1.00  0.00     0.345 HD
ATOM     16  H   UNL A   1      32.610  19.445  26.282  1.00  0.00     0.345 HD
ATOM     17  H   UNL A   1      33.145  20.227  27.651  1.00  0.00     0.345 HD
ENDBRANCH   9  14
BRANCH  13  18
ATOM     18  N   UNL A   1      31.224  23.915  25.200  1.00  0.00    -0.332 N 
ATOM     19  C   UNL A   1      30.828  23.860  23.790  1.00  0.00     0.263 C 
ATOM     20  C   UNL A   1      30.318  24.760  25.990  1.00  0.00     0.263 C 
ATOM     21  H   UNL A   1      32.143  24.357  25.191  1.00  0.00     0.348 HD
ATOM     22  C   UNL A   1      30.790  25.253  23.170  1.00  0.00     0.074 C 
ATOM     23  C   UNL A   1      30.262  26.184  25.430  1.00  0.00     0.074 C 
ATOM     24  C   UNL A   1      29.867  26.187  23.951  1.00  0.00     0.106 C 
BRANCH  24  25
ATOM     25  C   UNL A   1      29.908  27.585  23.367  1.00  0.00     0.392 C 
ATOM     26  F   UNL A   1      30.314  27.558  22.077  1.00  0.00    -0.171 F 
ATOM     27  F   UNL A   1      28.684  28.158  23.389  1.00  0.00    -0.171 F 
ATOM     28  F   UNL A   1      30.752  28.394  24.042  1.00  0.00    -0.171 F 
ENDBRANCH  24  25
ENDBRANCH  13  18
ENDBRANCH   6   9
ENDBRANCH   4   5
ENDBRANCH   3   4
ENDBRANCH   2   3
ENDBRANCH   1   2
BRANCH   1  29
ATOM     29  C   UNL A   1      33.961  28.228  24.818  1.00  0.00     0.021 C 
BRANCH  29  30
ATOM     30  C   UNL A   1      34.203  28.425  26.311  1.00  0.00     0.116 C 
BRANCH  30  31
ATOM     31  N   UNL A   1      33.832  29.756  26.762  1.00  0.00    -0.352 N 
ATOM     32  C   UNL A   1      34.453  30.570  27.678  1.00  0.00     0.251 C 
ATOM     33  H   UNL A   1      33.018  30.129  26.351  1.00  0.00     0.163 HD
ATOM     34  O   UNL A   1      33.900  31.594  28.061  1.00  0.00    -0.269 OA
BRANCH  32  35
ATOM     35  C   UNL A   1      35.779  30.195  28.218  1.00  0.00     0.039 A 
ATOM     36  C   UNL A   1      35.843  29.516  29.436  1.00  0.00     0.014 A 
ATOM     37  C   UNL A   1      36.953  30.510  27.527  1.00  0.00     0.014 A 
ATOM     38  C   UNL A   1      37.082  29.101  29.934  1.00  0.00     0.010 A 
ATOM     39  C   UNL A   1      38.177  30.029  27.985  1.00  0.00     0.010 A 
ATOM     40  C   UNL A   1      38.256  29.324  29.197  1.00  0.00    -0.014 A 
BRANCH  40  41
ATOM     41  C   UNL A   1      39.570  28.811  29.668  1.00  0.00     0.031 A 
ATOM     42  C   UNL A   1      40.312  29.513  30.772  1.00  0.00     0.074 A 
ATOM     43  C   UNL A   1      40.133  27.757  29.043  1.00  0.00     0.049 A 
ATOM     44  N   UNL A   1      41.486  29.238  31.279  1.00  0.00    -0.248 NA
ATOM     45  C   UNL A   1      39.666  30.694  31.369  1.00  0.00     0.031 C 
ATOM     46  C   UNL A   1      39.553  27.039  27.905  1.00  0.00     0.029 A 
ATOM     47  N   UNL A   1      41.333  27.125  29.254  1.00  0.00    -0.354 N 
ATOM     48  C   UNL A   1      41.737  30.229  32.221  1.00  0.00     0.074 A 
ATOM     49  C   UNL A   1      40.604  31.128  32.197  1.00  0.00     0.031 C 
ATOM     50  C   UNL A   1      40.394  26.067  27.522  1.00  0.00     0.029 A 
ATOM     51  C   UNL A   1      41.589  26.113  28.359  1.00  0.00     0.049 A 
ATOM     52  H   UNL A   1      41.952  27.373  29.979  1.00  0.00     0.167 HD
ATOM     53  C   UNL A   1      42.802  30.365  33.048  1.00  0.00     0.034 A 
ATOM     54  C   UNL A   1      42.670  25.320  28.215  1.00  0.00     0.034 A 
ATOM     55  C   UNL A   1      43.908  29.447  33.096  1.00  0.00     0.049 A 
ATOM     56  C   UNL A   1      43.821  25.470  29.171  1.00  0.00     0.074 A 
ATOM     57  C   UNL A   1      44.981  29.442  33.969  1.00  0.00     0.029 A 
ATOM     58  N   UNL A   1      44.093  28.382  32.229  1.00  0.00    -0.354 N 
ATOM     59  N   UNL A   1      43.962  26.309  30.168  1.00  0.00    -0.248 NA
ATOM     60  C   UNL A   1      44.950  24.541  29.006  1.00  0.00     0.031 C 
ATOM     61  C   UNL A   1      45.837  28.398  33.602  1.00  0.00     0.029 A 
ATOM     62  C   UNL A   1      45.274  27.725  32.530  1.00  0.00     0.049 A 
ATOM     63  H   UNL A   1      43.476  28.129  31.504  1.00  0.00     0.167 HD
ATOM     64  C   UNL A   1      45.171  25.986  30.771  1.00  0.00     0.074 A 
ATOM     65  C   UNL A   1      45.715  24.861  30.041  1.00  0.00     0.031 C 
ATOM     66  C   UNL A   1      45.784  26.577  31.826  1.00  0.00     0.034 A 
BRANCH  53  67
ATOM     67  C   UNL A   1      42.811  31.533  33.999  1.00  0.00     0.023 A 
ATOM     68  C   UNL A   1      43.324  32.778  33.578  1.00  0.00     0.012 A 
ATOM     69  C   UNL A   1      42.245  31.419  35.285  1.00  0.00     0.148 A 
ATOM     70  C   UNL A   1      43.304  33.880  34.431  1.00  0.00     0.002 A 
ATOM     71  C   UNL A   1      42.184  32.534  36.111  1.00  0.00     0.091 A 
ATOM     72  F   UNL A   1      41.779  30.223  35.674  1.00  0.00    -0.205 F 
ATOM     73  C   UNL A   1      42.724  33.761  35.692  1.00  0.00     0.022 A 
BRANCH  71  74
ATOM     74  S   UNL A   1      41.383  32.508  37.718  1.00  0.00     0.127 S 
ATOM     75  O   UNL A   1      41.478  33.911  38.118  1.00  0.00    -0.237 OA
ATOM     76  O   UNL A   1      40.032  32.060  37.380  1.00  0.00    -0.237 OA
ATOM     77  O   UNL A   1      42.147  31.575  38.534  1.00  0.00    -0.744 OA
ENDBRANCH  71  74
ENDBRANCH  53  67
BRANCH  54  78
ATOM     78  C   UNL A   1      42.698  24.283  27.144  1.00  0.00     0.023 A 
ATOM     79  C   UNL A   1      43.366  24.549  25.933  1.00  0.00     0.012 A 
ATOM     80  C   UNL A   1      42.080  23.030  27.326  1.00  0.00     0.148 A 
ATOM     81  C   UNL A   1      43.385  23.601  24.909  1.00  0.00     0.002 A 
ATOM     82  C   UNL A   1      42.155  22.069  26.326  1.00  0.00     0.091 A 
ATOM     83  F   UNL A   1      41.441  22.800  28.482  1.00  0.00    -0.205 F 
ATOM     84  C   UNL A   1      42.789  22.359  25.109  1.00  0.00     0.022 A 
BRANCH  82  85
ATOM     85  S   UNL A   1      41.534  20.399  26.550  1.00  0.00     0.127 S 
ATOM     86  O   UNL A   1      40.092  20.596  26.431  1.00  0.00    -0.237 OA
ATOM     87  O   UNL A   1      42.156  19.694  25.429  1.00  0.00    -0.237 OA
ATOM     88  O   UNL A   1      42.010  19.974  27.860  1.00  0.00    -0.744 OA
ENDBRANCH  82  85
ENDBRANCH  54  78
BRANCH  66  89
ATOM     89  C   UNL A   1      47.094  25.997  32.292  1.00  0.00     0.023 A 
ATOM     90  C   UNL A   1      47.125  25.121  33.395  1.00  0.00     0.012 A 
ATOM     91  C   UNL A   1      48.285  26.264  31.587  1.00  0.00     0.148 A 
ATOM     92  C   UNL A   1      48.327  24.550  33.813  1.00  0.00     0.002 A 
ATOM     93  C   UNL A   1      49.469  25.648  31.975  1.00  0.00     0.091 A 
ATOM     94  F   UNL A   1      48.237  27.112  30.550  1.00  0.00    -0.205 F 
ATOM     95  C   UNL A   1      49.495  24.802  33.096  1.00  0.00     0.022 A 
BRANCH  93  96
ATOM     96  S   UNL A   1      50.999  25.835  31.054  1.00  0.00     0.127 S 
ATOM     97  O   UNL A   1      51.310  27.246  31.278  1.00  0.00    -0.237 OA
ATOM     98  O   UNL A   1      51.889  24.898  31.740  1.00  0.00    -0.237 OA
ATOM     99  O   UNL A   1      50.687  25.477  29.677  1.00  0.00    -0.744 OA
ENDBRANCH  93  96
ENDBRANCH  66  89
ENDBRANCH  40  41
ENDBRANCH  32  35
ENDBRANCH  30  31
ENDBRANCH  29  30
ENDBRANCH   1  29
TORSDOF 19
ENDMDL
MODEL 2
REMARK VINA RESULT:     -11.3      2.315      2.772
REMARK SMILES [NH3+][C@]1(C(=O)NCCCCCCNC(=O)c2ccc(-c3c4nc(c(-c5cccc(S(=O)(=O)[O-])c5F)c5ccc([nH]5)c(-c5cccc(S(=O)(=O)[O-])c5F)c5nc(c(-c6cccc(S(=O)(=O)[O-])c6F)c6ccc3[nH]6)C=C5)C=C4)cc2)CC[C@@H]([NH+]2CCC(C(F)(F)F)CC2)C1
REMARK SMILES IDX 9 1 8 2 7 3 6 4 5 5 3 6 4 7 2 9 78 10 91 11 79 12 80 13 1 14
REMARK SMILES IDX 81 18 82 19 90 20 83 22 89 23 84 24 85 25 86 26 87 27 88 28
REMARK SMILES IDX 10 29 11 30 12 31 13 32 14 34 15 35 16 36 77 37 17 38 76 39
REMARK SMILES IDX 18 40 19 41 20 42 70 43 21 44 75 45 69 46 71 47 22 48 74 49
REMARK SMILES IDX 68 50 67 51 23 53 55 54 35 55 54 56 36 57 39 58 53 59 72 60
REMARK SMILES IDX 37 61 38 62 52 64 73 65 40 66 24 67 25 68 33 69 26 70 28 71
REMARK SMILES IDX 34 72 27 73 29 74 30 75 31 76 32 77 56 78 57 79 65 80 58 81
REMARK SMILES IDX 60 82 66 83 59 84 61 85 62 86 63 87 64 88 41 89 42 90 50 91
REMARK SMILES IDX 43 92 45 93 51 94 44 95 46 96 47 97 48 98 49 99
REMARK H PARENT 5 8 1 15 1 16 1 17 81 21 12 33 71 52 39 63
REMARK Flexibility Score: inf
ROOT
ATOM      1  C   UNL A   1      33.796  26.892  23.948  1.00  0.00     0.002 C 
ENDROOT
BRANCH   1   2
ATOM      2  C   UNL A   1      33.960  25.987  25.171  1.00  0.00     0.002 C 
BRANCH   2   3
ATOM      3  C   UNL A   1      34.931  24.816  25.003  1.00  0.00     0.021 C 
BRANCH   3   4
ATOM      4  C   UNL A   1      34.469  23.711  24.060  1.00  0.00     0.116 C 
BRANCH   4   5
ATOM      5  N   UNL A   1      35.153  22.456  24.292  1.00  0.00    -0.351 N 
ATOM      6  C   UNL A   1      34.775  21.360  25.012  1.00  0.00     0.281 C 
ATOM      7  O   UNL A   1      35.546  20.395  25.001  1.00  0.00    -0.268 OA
ATOM      8  H   UNL A   1      36.036  22.382  23.862  1.00  0.00     0.163 HD
BRANCH   6   9
ATOM      9  C   UNL A   1      33.467  21.365  25.850  1.00  0.00     0.179 C 
ATOM     10  C   UNL A   1      33.472  22.478  26.910  1.00  0.00     0.085 C 
ATOM     11  C   UNL A   1      32.265  21.725  24.949  1.00  0.00     0.144 C 
ATOM     12  C   UNL A   1      31.994  22.772  27.136  1.00  0.00     0.072 C 
ATOM     13  C   UNL A   1      31.362  22.700  25.738  1.00  0.00     0.191 C 
BRANCH   9  14
ATOM     14  N   UNL A   1      33.278  20.103  26.597  1.00  0.00    -0.345 N 
ATOM     15  H   UNL A   1      34.021  19.449  26.354  1.00  0.00     0.345 HD
ATOM     16  H   UNL A   1      32.374  19.697  26.355  1.00  0.00     0.345 HD
ATOM     17  H   UNL A   1      33.306  20.293  27.599  1.00  0.00     0.345 HD
ENDBRANCH   9  14
BRANCH  13  18
ATOM     18  N   UNL A   1      31.126  24.026  25.119  1.00  0.00    -0.332 N 
ATOM     19  C   UNL A   1      30.653  23.991  23.733  1.00  0.00     0.263 C 
ATOM     20  C   UNL A   1      30.290  24.892  25.961  1.00  0.00     0.263 C 
ATOM     21  H   UNL A   1      32.056  24.442  25.062  1.00  0.00     0.348 HD
ATOM     22  C   UNL A   1      30.620  25.389  23.122  1.00  0.00     0.074 C 
ATOM     23  C   UNL A   1      30.244  26.320  25.412  1.00  0.00     0.074 C 
ATOM     24  C   UNL A   1      29.769  26.343  23.956  1.00  0.00     0.106 C 
BRANCH  24  25
ATOM     25  C   UNL A   1      29.818  27.744  23.377  1.00  0.00     0.392 C 
ATOM     26  F   UNL A   1      30.347  28.615  24.266  1.00  0.00    -0.171 F 
ATOM     27  F   UNL A   1      30.591  27.785  22.269  1.00  0.00    -0.171 F 
ATOM     28  F   UNL A   1      28.593  28.198  23.040  1.00  0.00    -0.171 F 
ENDBRANCH  24  25
ENDBRANCH  13  18
ENDBRANCH   6   9
ENDBRANCH   4   5
ENDBRANCH   3   4
ENDBRANCH   2   3
ENDBRANCH   1   2
BRANCH   1  29
ATOM     29  C   UNL A   1      33.567  28.375  24.250  1.00  0.00     0.021 C 
BRANCH  29  30
ATOM     30  C   UNL A   1      33.509  28.735  25.731  1.00  0.00     0.116 C 
BRANCH  30  31
ATOM     31  N   UNL A   1      33.125  30.119  25.951  1.00  0.00    -0.352 N 
ATOM     32  C   UNL A   1      33.598  31.018  26.875  1.00  0.00     0.251 C 
ATOM     33  H   UNL A   1      32.424  30.462  25.350  1.00  0.00     0.163 HD
ATOM     34  O   UNL A   1      33.033  32.095  27.027  1.00  0.00    -0.269 OA
BRANCH  32  35
ATOM     35  C   UNL A   1      34.776  30.674  27.702  1.00  0.00     0.039 A 
ATOM     36  C   UNL A   1      34.796  29.448  28.371  1.00  0.00     0.014 A 
ATOM     37  C   UNL A   1      35.856  31.554  27.818  1.00  0.00     0.014 A 
ATOM     38  C   UNL A   1      35.924  29.079  29.109  1.00  0.00     0.010 A 
ATOM     39  C   UNL A   1      37.009  31.152  28.490  1.00  0.00     0.010 A 
ATOM     40  C   UNL A   1      37.054  29.913  29.147  1.00  0.00    -0.014 A 
BRANCH  40  41
ATOM     41  C   UNL A   1      38.294  29.496  29.853  1.00  0.00     0.031 A 
ATOM     42  C   UNL A   1      38.659  30.105  31.179  1.00  0.00     0.074 A 
ATOM     43  C   UNL A   1      39.136  28.627  29.257  1.00  0.00     0.049 A 
ATOM     44  N   UNL A   1      39.721  29.899  31.915  1.00  0.00    -0.248 NA
ATOM     45  C   UNL A   1      37.725  31.093  31.743  1.00  0.00     0.031 C 
ATOM     46  C   UNL A   1      38.936  28.028  27.935  1.00  0.00     0.029 A 
ATOM     47  N   UNL A   1      40.342  28.120  29.670  1.00  0.00    -0.354 N 
ATOM     48  C   UNL A   1      39.604  30.756  33.003  1.00  0.00     0.074 A 
ATOM     49  C   UNL A   1      38.380  31.505  32.818  1.00  0.00     0.031 C 
ATOM     50  C   UNL A   1      39.980  27.235  27.648  1.00  0.00     0.029 A 
ATOM     51  C   UNL A   1      40.941  27.296  28.746  1.00  0.00     0.049 A 
ATOM     52  H   UNL A   1      40.742  28.326  30.547  1.00  0.00     0.167 HD
ATOM     53  C   UNL A   1      40.427  30.891  34.070  1.00  0.00     0.034 A 
ATOM     54  C   UNL A   1      42.135  26.671  28.769  1.00  0.00     0.034 A 
ATOM     55  C   UNL A   1      41.623  30.117  34.269  1.00  0.00     0.049 A 
ATOM     56  C   UNL A   1      43.011  26.810  29.984  1.00  0.00     0.074 A 
ATOM     57  C   UNL A   1      42.466  30.108  35.366  1.00  0.00     0.029 A 
ATOM     58  N   UNL A   1      42.155  29.228  33.349  1.00  0.00    -0.354 N 
ATOM     59  N   UNL A   1      42.799  27.497  31.080  1.00  0.00    -0.248 NA
ATOM     60  C   UNL A   1      44.277  26.061  29.982  1.00  0.00     0.031 C 
ATOM     61  C   UNL A   1      43.531  29.244  35.091  1.00  0.00     0.029 A 
ATOM     62  C   UNL A   1      43.327  28.681  33.841  1.00  0.00     0.049 A 
ATOM     63  H   UNL A   1      41.758  29.017  32.472  1.00  0.00     0.167 HD
ATOM     64  C   UNL A   1      43.881  27.233  31.911  1.00  0.00     0.074 A 
ATOM     65  C   UNL A   1      44.738  26.307  31.200  1.00  0.00     0.031 C 
ATOM     66  C   UNL A   1      44.149  27.725  33.146  1.00  0.00     0.034 A 
BRANCH  53  67
ATOM     67  C   UNL A   1      40.049  31.892  35.131  1.00  0.00     0.023 A 
ATOM     68  C   UNL A   1      40.597  33.190  35.099  1.00  0.00     0.012 A 
ATOM     69  C   UNL A   1      39.093  31.570  36.115  1.00  0.00     0.148 A 
ATOM     70  C   UNL A   1      40.227  34.141  36.049  1.00  0.00     0.002 A 
ATOM     71  C   UNL A   1      38.693  32.538  37.028  1.00  0.00     0.091 A 
ATOM     72  F   UNL A   1      38.597  30.324  36.141  1.00  0.00    -0.205 F 
ATOM     73  C   UNL A   1      39.267  33.819  37.005  1.00  0.00     0.022 A 
BRANCH  71  74
ATOM     74  S   UNL A   1      37.404  32.249  38.245  1.00  0.00     0.127 S 
ATOM     75  O   UNL A   1      38.033  32.751  39.466  1.00  0.00    -0.237 OA
ATOM     76  O   UNL A   1      36.311  33.078  37.736  1.00  0.00    -0.237 OA
ATOM     77  O   UNL A   1      37.142  30.817  38.224  1.00  0.00    -0.744 OA
ENDBRANCH  71  74
ENDBRANCH  53  67
BRANCH  54  78
ATOM     78  C   UNL A   1      42.556  25.822  27.618  1.00  0.00     0.023 A 
ATOM     79  C   UNL A   1      43.415  26.353  26.637  1.00  0.00     0.012 A 
ATOM     80  C   UNL A   1      42.123  24.487  27.501  1.00  0.00     0.148 A 
ATOM     81  C   UNL A   1      43.803  25.583  25.540  1.00  0.00     0.002 A 
ATOM     82  C   UNL A   1      42.562  23.707  26.438  1.00  0.00     0.091 A 
ATOM     83  F   UNL A   1      41.298  24.002  28.440  1.00  0.00    -0.205 F 
ATOM     84  C   UNL A   1      43.385  24.259  25.445  1.00  0.00     0.022 A 
BRANCH  82  85
ATOM     85  S   UNL A   1      42.184  21.956  26.310  1.00  0.00     0.127 S 
ATOM     86  O   UNL A   1      42.991  21.558  25.160  1.00  0.00    -0.237 OA
ATOM     87  O   UNL A   1      42.655  21.451  27.600  1.00  0.00    -0.237 OA
ATOM     88  O   UNL A   1      40.740  21.877  26.129  1.00  0.00    -0.744 OA
ENDBRANCH  82  85
ENDBRANCH  54  78
BRANCH  66  89
ATOM     89  C   UNL A   1      45.398  27.242  33.837  1.00  0.00     0.023 A 
ATOM     90  C   UNL A   1      46.594  27.978  33.730  1.00  0.00     0.012 A 
ATOM     91  C   UNL A   1      45.363  26.094  34.654  1.00  0.00     0.148 A 
ATOM     92  C   UNL A   1      47.746  27.559  34.395  1.00  0.00     0.002 A 
ATOM     93  C   UNL A   1      46.500  25.713  35.357  1.00  0.00     0.091 A 
ATOM     94  F   UNL A   1      44.220  25.397  34.730  1.00  0.00    -0.205 F 
ATOM     95  C   UNL A   1      47.696  26.436  35.218  1.00  0.00     0.022 A 
BRANCH  93  96
ATOM     96  S   UNL A   1      46.502  24.341  36.516  1.00  0.00     0.127 S 
ATOM     97  O   UNL A   1      45.433  24.728  37.436  1.00  0.00    -0.237 OA
ATOM     98  O   UNL A   1      46.180  23.206  35.651  1.00  0.00    -0.237 OA
ATOM     99  O   UNL A   1      47.838  24.304  37.094  1.00  0.00    -0.744 OA
ENDBRANCH  93  96
ENDBRANCH  66  89
ENDBRANCH  40  41
ENDBRANCH  32  35
ENDBRANCH  30  31
ENDBRANCH  29  30
ENDBRANCH   1  29
TORSDOF 19
ENDMDL
MODEL 3
REMARK VINA RESULT:     -11.2      3.536      8.605
REMARK SMILES [NH3+][C@]1(C(=O)NCCCCCCNC(=O)c2ccc(-c3c4nc(c(-c5cccc(S(=O)(=O)[O-])c5F)c5ccc([nH]5)c(-c5cccc(S(=O)(=O)[O-])c5F)c5nc(c(-c6cccc(S(=O)(=O)[O-])c6F)c6ccc3[nH]6)C=C5)C=C4)cc2)CC[C@@H]([NH+]2CCC(C(F)(F)F)CC2)C1
REMARK SMILES IDX 9 1 8 2 7 3 6 4 5 5 3 6 4 7 2 9 78 10 91 11 79 12 80 13 1 14
REMARK SMILES IDX 81 18 82 19 90 20 83 22 89 23 84 24 85 25 86 26 87 27 88 28
REMARK SMILES IDX 10 29 11 30 12 31 13 32 14 34 15 35 16 36 77 37 17 38 76 39
REMARK SMILES IDX 18 40 19 41 20 42 70 43 21 44 75 45 69 46 71 47 22 48 74 49
REMARK SMILES IDX 68 50 67 51 23 53 55 54 35 55 54 56 36 57 39 58 53 59 72 60
REMARK SMILES IDX 37 61 38 62 52 64 73 65 40 66 24 67 25 68 33 69 26 70 28 71
REMARK SMILES IDX 34 72 27 73 29 74 30 75 31 76 32 77 56 78 57 79 65 80 58 81
REMARK SMILES IDX 60 82 66 83 59 84 61 85 62 86 63 87 64 88 41 89 42 90 50 91
REMARK SMILES IDX 43 92 45 93 51 94 44 95 46 96 47 97 48 98 49 99
REMARK H PARENT 5 8 1 15 1 16 1 17 81 21 12 33 71 52 39 63
REMARK Flexibility Score: inf
ROOT
ATOM      1  C   UNL A   1      31.642  30.217  26.331  1.00  0.00     0.002 C 
ENDROOT
BRANCH   1   2
ATOM      2  C   UNL A   1      32.872  29.625  27.025  1.00  0.00     0.002 C 
BRANCH   2   3
ATOM      3  C   UNL A   1      33.803  28.801  26.133  1.00  0.00     0.021 C 
BRANCH   3   4
ATOM      4  C   UNL A   1      33.162  28.215  24.880  1.00  0.00     0.116 C 
BRANCH   4   5
ATOM      5  N   UNL A   1      33.874  27.059  24.377  1.00  0.00    -0.351 N 
ATOM      6  C   UNL A   1      33.429  25.800  24.091  1.00  0.00     0.281 C 
ATOM      7  O   UNL A   1      34.257  25.012  23.623  1.00  0.00    -0.268 OA
ATOM      8  H   UNL A   1      34.834  27.203  24.217  1.00  0.00     0.163 HD
BRANCH   6   9
ATOM      9  C   UNL A   1      31.968  25.377  24.405  1.00  0.00     0.179 C 
ATOM     10  C   UNL A   1      31.404  26.128  25.622  1.00  0.00     0.085 C 
ATOM     11  C   UNL A   1      31.036  25.803  23.249  1.00  0.00     0.144 C 
ATOM     12  C   UNL A   1      29.899  26.129  25.383  1.00  0.00     0.072 C 
ATOM     13  C   UNL A   1      29.741  26.370  23.874  1.00  0.00     0.191 C 
BRANCH   9  14
ATOM     14  N   UNL A   1      31.863  23.940  24.739  1.00  0.00    -0.345 N 
ATOM     15  H   UNL A   1      31.609  23.414  23.904  1.00  0.00     0.345 HD
ATOM     16  H   UNL A   1      31.147  23.809  25.455  1.00  0.00     0.345 HD
ATOM     17  H   UNL A   1      32.760  23.606  25.092  1.00  0.00     0.345 HD
ENDBRANCH   9  14
BRANCH  13  18
ATOM     18  N   UNL A   1      29.400  27.769  23.525  1.00  0.00    -0.332 N 
ATOM     19  C   UNL A   1      30.232  28.370  22.478  1.00  0.00     0.263 C 
ATOM     20  C   UNL A   1      27.967  27.940  23.250  1.00  0.00     0.263 C 
ATOM     21  H   UNL A   1      29.626  28.298  24.367  1.00  0.00     0.348 HD
ATOM     22  C   UNL A   1      29.935  29.858  22.320  1.00  0.00     0.074 C 
ATOM     23  C   UNL A   1      27.603  29.421  23.111  1.00  0.00     0.074 C 
ATOM     24  C   UNL A   1      28.454  30.106  22.038  1.00  0.00     0.106 C 
BRANCH  24  25
ATOM     25  C   UNL A   1      28.168  31.593  21.967  1.00  0.00     0.392 C 
ATOM     26  F   UNL A   1      27.617  31.922  20.777  1.00  0.00    -0.171 F 
ATOM     27  F   UNL A   1      27.296  31.967  22.929  1.00  0.00    -0.171 F 
ATOM     28  F   UNL A   1      29.287  32.334  22.116  1.00  0.00    -0.171 F 
ENDBRANCH  24  25
ENDBRANCH  13  18
ENDBRANCH   6   9
ENDBRANCH   4   5
ENDBRANCH   3   4
ENDBRANCH   2   3
ENDBRANCH   1   2
BRANCH   1  29
ATOM     29  C   UNL A   1      31.340  31.681  26.659  1.00  0.00     0.021 C 
BRANCH  29  30
ATOM     30  C   UNL A   1      32.519  32.637  26.509  1.00  0.00     0.116 C 
BRANCH  30  31
ATOM     31  N   UNL A   1      32.312  33.888  27.219  1.00  0.00    -0.352 N 
ATOM     32  C   UNL A   1      32.957  34.377  28.330  1.00  0.00     0.251 C 
ATOM     33  H   UNL A   1      31.609  34.471  26.850  1.00  0.00     0.163 HD
ATOM     34  O   UNL A   1      32.531  35.378  28.894  1.00  0.00    -0.269 OA
BRANCH  32  35
ATOM     35  C   UNL A   1      34.151  33.678  28.856  1.00  0.00     0.039 A 
ATOM     36  C   UNL A   1      35.374  34.351  28.870  1.00  0.00     0.014 A 
ATOM     37  C   UNL A   1      34.066  32.367  29.333  1.00  0.00     0.014 A 
ATOM     38  C   UNL A   1      36.501  33.730  29.417  1.00  0.00     0.010 A 
ATOM     39  C   UNL A   1      35.170  31.780  29.947  1.00  0.00     0.010 A 
ATOM     40  C   UNL A   1      36.401  32.452  29.990  1.00  0.00    -0.014 A 
BRANCH  40  41
ATOM     41  C   UNL A   1      37.568  31.815  30.656  1.00  0.00     0.031 A 
ATOM     42  C   UNL A   1      38.371  30.760  29.944  1.00  0.00     0.074 A 
ATOM     43  C   UNL A   1      37.854  32.127  31.936  1.00  0.00     0.049 A 
ATOM     44  N   UNL A   1      39.387  30.064  30.382  1.00  0.00    -0.248 NA
ATOM     45  C   UNL A   1      37.965  30.424  28.569  1.00  0.00     0.031 C 
ATOM     46  C   UNL A   1      37.102  33.073  32.764  1.00  0.00     0.029 A 
ATOM     47  N   UNL A   1      38.834  31.661  32.776  1.00  0.00    -0.354 N 
ATOM     48  C   UNL A   1      39.717  29.183  29.358  1.00  0.00     0.074 A 
ATOM     49  C   UNL A   1      38.774  29.413  28.286  1.00  0.00     0.031 C 
ATOM     50  C   UNL A   1      37.648  33.119  33.989  1.00  0.00     0.029 A 
ATOM     51  C   UNL A   1      38.765  32.181  34.048  1.00  0.00     0.049 A 
ATOM     52  H   UNL A   1      39.522  31.015  32.495  1.00  0.00     0.167 HD
ATOM     53  C   UNL A   1      40.726  28.281  29.307  1.00  0.00     0.034 A 
ATOM     54  C   UNL A   1      39.505  31.922  35.144  1.00  0.00     0.034 A 
ATOM     55  C   UNL A   1      41.685  28.082  30.360  1.00  0.00     0.049 A 
ATOM     56  C   UNL A   1      40.642  30.943  35.046  1.00  0.00     0.074 A 
ATOM     57  C   UNL A   1      42.803  27.267  30.359  1.00  0.00     0.029 A 
ATOM     58  N   UNL A   1      41.633  28.688  31.605  1.00  0.00    -0.354 N 
ATOM     59  N   UNL A   1      41.042  30.243  34.011  1.00  0.00    -0.248 NA
ATOM     60  C   UNL A   1      41.454  30.740  36.255  1.00  0.00     0.031 C 
ATOM     61  C   UNL A   1      43.404  27.349  31.620  1.00  0.00     0.029 A 
ATOM     62  C   UNL A   1      42.686  28.250  32.390  1.00  0.00     0.049 A 
ATOM     63  H   UNL A   1      40.948  29.336  31.890  1.00  0.00     0.167 HD
ATOM     64  C   UNL A   1      42.170  29.550  34.432  1.00  0.00     0.074 A 
ATOM     65  C   UNL A   1      42.404  29.929  35.810  1.00  0.00     0.031 C 
ATOM     66  C   UNL A   1      42.937  28.668  33.744  1.00  0.00     0.034 A 
BRANCH  53  67
ATOM     67  C   UNL A   1      40.872  27.458  28.053  1.00  0.00     0.023 A 
ATOM     68  C   UNL A   1      41.464  28.025  26.905  1.00  0.00     0.012 A 
ATOM     69  C   UNL A   1      40.491  26.101  28.035  1.00  0.00     0.148 A 
ATOM     70  C   UNL A   1      41.643  27.265  25.750  1.00  0.00     0.002 A 
ATOM     71  C   UNL A   1      40.718  25.338  26.896  1.00  0.00     0.091 A 
ATOM     72  F   UNL A   1      39.912  25.585  29.129  1.00  0.00    -0.205 F 
ATOM     73  C   UNL A   1      41.281  25.921  25.749  1.00  0.00     0.022 A 
BRANCH  71  74
ATOM     74  S   UNL A   1      40.365  23.578  26.821  1.00  0.00     0.127 S 
ATOM     75  O   UNL A   1      41.281  23.138  25.771  1.00  0.00    -0.237 OA
ATOM     76  O   UNL A   1      40.724  23.137  28.169  1.00  0.00    -0.237 OA
ATOM     77  O   UNL A   1      38.949  23.464  26.500  1.00  0.00    -0.744 OA
ENDBRANCH  71  74
ENDBRANCH  53  67
BRANCH  54  78
ATOM     78  C   UNL A   1      39.218  32.632  36.423  1.00  0.00     0.023 A 
ATOM     79  C   UNL A   1      39.826  33.876  36.682  1.00  0.00     0.012 A 
ATOM     80  C   UNL A   1      38.334  32.089  37.376  1.00  0.00     0.148 A 
ATOM     81  C   UNL A   1      39.589  34.547  37.882  1.00  0.00     0.002 A 
ATOM     82  C   UNL A   1      38.056  32.791  38.542  1.00  0.00     0.091 A 
ATOM     83  F   UNL A   1      37.773  30.900  37.116  1.00  0.00    -0.205 F 
ATOM     84  C   UNL A   1      38.697  34.010  38.807  1.00  0.00     0.022 A 
BRANCH  82  85
ATOM     85  S   UNL A   1      36.820  32.241  39.723  1.00  0.00     0.127 S 
ATOM     86  O   UNL A   1      35.580  32.448  38.979  1.00  0.00    -0.237 OA
ATOM     87  O   UNL A   1      37.196  30.841  39.921  1.00  0.00    -0.237 OA
ATOM     88  O   UNL A   1      37.000  33.080  40.901  1.00  0.00    -0.744 OA
ENDBRANCH  82  85
ENDBRANCH  54  78
BRANCH  66  89
ATOM     89  C   UNL A   1      44.131  28.079  34.449  1.00  0.00     0.023 A 
ATOM     90  C   UNL A   1      45.373  28.742  34.407  1.00  0.00     0.012 A 
ATOM     91  C   UNL A   1      44.001  26.902  35.213  1.00  0.00     0.148 A 
ATOM     92  C   UNL A   1      46.477  28.224  35.085  1.00  0.00     0.002 A 
ATOM     93  C   UNL A   1      45.090  26.421  35.930  1.00  0.00     0.091 A 
ATOM     94  F   UNL A   1      42.815  26.276  35.226  1.00  0.00    -0.205 F 
ATOM     95  C   UNL A   1      46.332  27.073  35.856  1.00  0.00     0.022 A 
BRANCH  93  96
ATOM     96  S   UNL A   1      44.972  25.004  37.027  1.00  0.00     0.127 S 
ATOM     97  O   UNL A   1      43.995  25.470  38.010  1.00  0.00    -0.237 OA
ATOM     98  O   UNL A   1      44.482  23.958  36.129  1.00  0.00    -0.237 OA
ATOM     99  O   UNL A   1      46.316  24.780  37.543  1.00  0.00    -0.744 OA
ENDBRANCH  93  96
ENDBRANCH  66  89
ENDBRANCH  40  41
ENDBRANCH  32  35
ENDBRANCH  30  31
ENDBRANCH  29  30
ENDBRANCH   1  29
TORSDOF 19
ENDMDL
