MODEL 1
REMARK VINA RESULT:     -11.2      0.000      0.000
REMARK SMILES O=C(CCc1nc(-c2ccccc2)c(-c2ccccc2)o1)NCCCCCCNC(=O)c1ccc(-c2c3nc(c(-c4cccc(S(=O)(=O)[O-])c4F)c4ccc([nH]4)c(-c4cccc(S(=O)(=O)[O-])c4F)c4nc(c(-c5cccc(S(=O)(=O)[O-])c5F)c5ccc2[nH]5)C=C4)C=C3)cc1
REMARK SMILES IDX 25 1 24 2 23 3 22 4 1 5 2 6 3 8 4 9 5 10 6 11 21 12 7 13
REMARK SMILES IDX 14 14 8 15 9 16 13 17 10 18 12 19 11 20 15 21 16 22 20 23
REMARK SMILES IDX 17 24 19 25 18 26 26 27 27 28 28 29 29 30 30 31 31 33 32 34
REMARK SMILES IDX 33 35 94 36 34 37 93 38 35 39 36 40 37 41 87 42 38 43 92 44
REMARK SMILES IDX 86 45 88 46 39 47 91 48 85 49 84 50 40 52 72 53 52 54 71 55
REMARK SMILES IDX 53 56 56 57 70 58 89 59 54 60 55 61 69 63 90 64 57 65 41 66
REMARK SMILES IDX 42 67 50 68 43 69 45 70 51 71 44 72 46 73 47 74 48 75 49 76
REMARK SMILES IDX 73 77 74 78 82 79 75 80 77 81 83 82 76 83 78 84 79 85 80 86
REMARK SMILES IDX 81 87 58 88 59 89 67 90 60 91 62 92 68 93 61 94 63 95 64 96
REMARK SMILES IDX 65 97 66 98
REMARK H PARENT 22 7 29 32 88 51 56 62
REMARK Flexibility Score: inf
ROOT
ATOM      1  C   UNL A   1      38.162  23.597  26.198  1.00  0.00     0.002 C 
ENDROOT
BRANCH   1   2
ATOM      2  C   UNL A   1      37.097  22.907  25.341  1.00  0.00     0.021 C 
BRANCH   2   3
ATOM      3  C   UNL A   1      35.828  22.494  26.095  1.00  0.00     0.116 C 
BRANCH   3   4
ATOM      4  N   UNL A   1      34.660  22.512  25.237  1.00  0.00    -0.356 N 
ATOM      5  O   UNL A   1      34.648  20.291  24.656  1.00  0.00    -0.275 OA
ATOM      6  C   UNL A   1      34.163  21.416  24.582  1.00  0.00     0.220 C 
ATOM      7  H   UNL A   1      34.192  23.370  25.117  1.00  0.00     0.163 HD
BRANCH   6   8
ATOM      8  C   UNL A   1      32.964  21.706  23.694  1.00  0.00     0.110 C 
BRANCH   8   9
ATOM      9  C   UNL A   1      31.704  22.086  24.469  1.00  0.00     0.107 C 
BRANCH   9  10
ATOM     10  C   UNL A   1      31.490  23.560  24.530  1.00  0.00     0.196 A 
ATOM     11  N   UNL A   1      30.681  24.292  23.784  1.00  0.00    -0.213 NA
ATOM     12  O   UNL A   1      32.205  24.268  25.473  1.00  0.00    -0.440 OA
ATOM     13  C   UNL A   1      30.892  25.560  24.239  1.00  0.00     0.117 A 
ATOM     14  C   UNL A   1      31.786  25.556  25.286  1.00  0.00     0.162 A 
BRANCH  13  15
ATOM     15  C   UNL A   1      30.296  26.765  23.719  1.00  0.00     0.004 A 
ATOM     16  C   UNL A   1      28.905  26.929  23.773  1.00  0.00     0.010 A 
ATOM     17  C   UNL A   1      31.091  27.712  23.063  1.00  0.00     0.010 A 
ATOM     18  C   UNL A   1      28.311  28.031  23.159  1.00  0.00     0.001 A 
ATOM     19  C   UNL A   1      30.490  28.803  22.438  1.00  0.00     0.001 A 
ATOM     20  C   UNL A   1      29.103  28.958  22.484  1.00  0.00     0.000 A 
ENDBRANCH  13  15
BRANCH  14  21
ATOM     21  C   UNL A   1      32.296  26.630  26.116  1.00  0.00     0.020 A 
ATOM     22  C   UNL A   1      33.572  27.159  25.910  1.00  0.00     0.012 A 
ATOM     23  C   UNL A   1      31.400  27.313  26.957  1.00  0.00     0.012 A 
ATOM     24  C   UNL A   1      33.920  28.384  26.487  1.00  0.00     0.001 A 
ATOM     25  C   UNL A   1      31.744  28.539  27.523  1.00  0.00     0.001 A 
ATOM     26  C   UNL A   1      33.000  29.080  27.275  1.00  0.00     0.000 A 
ENDBRANCH  14  21
ENDBRANCH   9  10
ENDBRANCH   8   9
ENDBRANCH   6   8
ENDBRANCH   3   4
ENDBRANCH   2   3
ENDBRANCH   1   2
BRANCH   1  27
ATOM     27  C   UNL A   1      39.465  22.812  26.349  1.00  0.00     0.002 C 
BRANCH  27  28
ATOM     28  C   UNL A   1      39.469  21.407  25.763  1.00  0.00     0.021 C 
BRANCH  28  29
ATOM     29  C   UNL A   1      39.857  20.308  26.746  1.00  0.00     0.116 C 
BRANCH  29  30
ATOM     30  N   UNL A   1      40.824  19.349  26.214  1.00  0.00    -0.352 N 
ATOM     31  C   UNL A   1      42.148  19.529  25.874  1.00  0.00     0.251 C 
ATOM     32  H   UNL A   1      40.476  18.438  26.076  1.00  0.00     0.163 HD
ATOM     33  O   UNL A   1      42.802  18.630  25.369  1.00  0.00    -0.269 OA
BRANCH  31  34
ATOM     34  C   UNL A   1      42.763  20.850  26.103  1.00  0.00     0.039 A 
ATOM     35  C   UNL A   1      43.073  21.661  25.008  1.00  0.00     0.014 A 
ATOM     36  C   UNL A   1      42.956  21.308  27.405  1.00  0.00     0.014 A 
ATOM     37  C   UNL A   1      43.493  22.975  25.227  1.00  0.00     0.010 A 
ATOM     38  C   UNL A   1      43.269  22.641  27.617  1.00  0.00     0.010 A 
ATOM     39  C   UNL A   1      43.546  23.488  26.532  1.00  0.00    -0.014 A 
BRANCH  39  40
ATOM     40  C   UNL A   1      43.898  24.901  26.817  1.00  0.00     0.031 A 
ATOM     41  C   UNL A   1      45.333  25.338  26.681  1.00  0.00     0.074 A 
ATOM     42  C   UNL A   1      42.972  25.738  27.324  1.00  0.00     0.049 A 
ATOM     43  N   UNL A   1      45.896  26.457  27.055  1.00  0.00    -0.248 NA
ATOM     44  C   UNL A   1      46.272  24.366  26.091  1.00  0.00     0.031 C 
ATOM     45  C   UNL A   1      41.569  25.399  27.583  1.00  0.00     0.029 A 
ATOM     46  N   UNL A   1      43.081  27.037  27.753  1.00  0.00    -0.354 N 
ATOM     47  C   UNL A   1      47.252  26.302  26.797  1.00  0.00     0.074 A 
ATOM     48  C   UNL A   1      47.437  24.966  26.275  1.00  0.00     0.031 C 
ATOM     49  C   UNL A   1      40.952  26.460  28.129  1.00  0.00     0.029 A 
ATOM     50  C   UNL A   1      41.917  27.541  28.292  1.00  0.00     0.049 A 
ATOM     51  H   UNL A   1      43.912  27.560  27.683  1.00  0.00     0.167 HD
ATOM     52  C   UNL A   1      48.251  27.202  26.944  1.00  0.00     0.034 A 
ATOM     53  C   UNL A   1      41.667  28.735  28.865  1.00  0.00     0.034 A 
ATOM     54  C   UNL A   1      48.045  28.550  27.395  1.00  0.00     0.049 A 
ATOM     55  C   UNL A   1      42.781  29.745  28.943  1.00  0.00     0.074 A 
ATOM     56  C   UNL A   1      48.970  29.574  27.501  1.00  0.00     0.029 A 
ATOM     57  N   UNL A   1      46.823  29.068  27.798  1.00  0.00    -0.354 N 
ATOM     58  N   UNL A   1      44.031  29.626  28.565  1.00  0.00    -0.248 NA
ATOM     59  C   UNL A   1      42.442  31.069  29.487  1.00  0.00     0.031 C 
ATOM     60  C   UNL A   1      48.306  30.711  27.974  1.00  0.00     0.029 A 
ATOM     61  C   UNL A   1      46.966  30.399  28.143  1.00  0.00     0.049 A 
ATOM     62  H   UNL A   1      45.980  28.562  27.833  1.00  0.00     0.167 HD
ATOM     63  C   UNL A   1      44.617  30.867  28.788  1.00  0.00     0.074 A 
ATOM     64  C   UNL A   1      43.579  31.730  29.313  1.00  0.00     0.031 C 
ATOM     65  C   UNL A   1      45.901  31.255  28.595  1.00  0.00     0.034 A 
BRANCH  52  66
ATOM     66  C   UNL A   1      49.641  26.784  26.541  1.00  0.00     0.023 A 
ATOM     67  C   UNL A   1      50.396  25.972  27.413  1.00  0.00     0.012 A 
ATOM     68  C   UNL A   1      50.177  27.135  25.288  1.00  0.00     0.148 A 
ATOM     69  C   UNL A   1      51.676  25.547  27.060  1.00  0.00     0.002 A 
ATOM     70  C   UNL A   1      51.434  26.669  24.923  1.00  0.00     0.091 A 
ATOM     71  F   UNL A   1      49.451  27.922  24.481  1.00  0.00    -0.205 F 
ATOM     72  C   UNL A   1      52.189  25.885  25.812  1.00  0.00     0.022 A 
BRANCH  70  73
ATOM     73  S   UNL A   1      52.159  26.980  23.309  1.00  0.00     0.127 S 
ATOM     74  O   UNL A   1      52.612  28.363  23.450  1.00  0.00    -0.237 OA
ATOM     75  O   UNL A   1      53.234  25.989  23.261  1.00  0.00    -0.237 OA
ATOM     76  O   UNL A   1      51.092  26.771  22.340  1.00  0.00    -0.744 OA
ENDBRANCH  70  73
ENDBRANCH  52  66
BRANCH  53  77
ATOM     77  C   UNL A   1      40.294  29.069  29.345  1.00  0.00     0.023 A 
ATOM     78  C   UNL A   1      39.347  29.569  28.429  1.00  0.00     0.012 A 
ATOM     79  C   UNL A   1      39.915  28.887  30.688  1.00  0.00     0.148 A 
ATOM     80  C   UNL A   1      38.065  29.923  28.849  1.00  0.00     0.002 A 
ATOM     81  C   UNL A   1      38.618  29.189  31.089  1.00  0.00     0.091 A 
ATOM     82  F   UNL A   1      40.830  28.422  31.552  1.00  0.00    -0.205 F 
ATOM     83  C   UNL A   1      37.696  29.725  30.177  1.00  0.00     0.022 A 
BRANCH  81  84
ATOM     84  S   UNL A   1      38.024  28.839  32.749  1.00  0.00     0.127 S 
ATOM     85  O   UNL A   1      38.155  27.386  32.814  1.00  0.00    -0.237 OA
ATOM     86  O   UNL A   1      38.975  29.581  33.578  1.00  0.00    -0.237 OA
ATOM     87  O   UNL A   1      36.665  29.361  32.791  1.00  0.00    -0.744 OA
ENDBRANCH  81  84
ENDBRANCH  53  77
BRANCH  65  88
ATOM     88  C   UNL A   1      46.250  32.687  28.899  1.00  0.00     0.023 A 
ATOM     89  C   UNL A   1      46.717  33.036  30.180  1.00  0.00     0.012 A 
ATOM     90  C   UNL A   1      46.197  33.665  27.888  1.00  0.00     0.148 A 
ATOM     91  C   UNL A   1      47.096  34.348  30.460  1.00  0.00     0.002 A 
ATOM     92  C   UNL A   1      46.623  34.959  28.159  1.00  0.00     0.091 A 
ATOM     93  F   UNL A   1      45.731  33.313  26.679  1.00  0.00    -0.205 F 
ATOM     94  C   UNL A   1      47.062  35.304  29.448  1.00  0.00     0.022 A 
BRANCH  92  95
ATOM     95  S   UNL A   1      46.705  36.228  26.891  1.00  0.00     0.127 S 
ATOM     96  O   UNL A   1      47.230  35.477  25.752  1.00  0.00    -0.237 OA
ATOM     97  O   UNL A   1      45.305  36.630  26.764  1.00  0.00    -0.237 OA
ATOM     98  O   UNL A   1      47.584  37.264  27.418  1.00  0.00    -0.744 OA
ENDBRANCH  92  95
ENDBRANCH  65  88
ENDBRANCH  39  40
ENDBRANCH  31  34
ENDBRANCH  29  30
ENDBRANCH  28  29
ENDBRANCH  27  28
ENDBRANCH   1  27
TORSDOF 20
ENDMDL
MODEL 2
REMARK VINA RESULT:     -11.1      0.919      7.845
REMARK SMILES O=C(CCc1nc(-c2ccccc2)c(-c2ccccc2)o1)NCCCCCCNC(=O)c1ccc(-c2c3nc(c(-c4cccc(S(=O)(=O)[O-])c4F)c4ccc([nH]4)c(-c4cccc(S(=O)(=O)[O-])c4F)c4nc(c(-c5cccc(S(=O)(=O)[O-])c5F)c5ccc2[nH]5)C=C4)C=C3)cc1
REMARK SMILES IDX 25 1 24 2 23 3 22 4 1 5 2 6 3 8 4 9 5 10 6 11 21 12 7 13
REMARK SMILES IDX 14 14 8 15 9 16 13 17 10 18 12 19 11 20 15 21 16 22 20 23
REMARK SMILES IDX 17 24 19 25 18 26 26 27 27 28 28 29 29 30 30 31 31 33 32 34
REMARK SMILES IDX 33 35 94 36 34 37 93 38 35 39 36 40 37 41 87 42 38 43 92 44
REMARK SMILES IDX 86 45 88 46 39 47 91 48 85 49 84 50 40 52 72 53 52 54 71 55
REMARK SMILES IDX 53 56 56 57 70 58 89 59 54 60 55 61 69 63 90 64 57 65 41 66
REMARK SMILES IDX 42 67 50 68 43 69 45 70 51 71 44 72 46 73 47 74 48 75 49 76
REMARK SMILES IDX 73 77 74 78 82 79 75 80 77 81 83 82 76 83 78 84 79 85 80 86
REMARK SMILES IDX 81 87 58 88 59 89 67 90 60 91 62 92 68 93 61 94 63 95 64 96
REMARK SMILES IDX 65 97 66 98
REMARK H PARENT 22 7 29 32 88 51 56 62
REMARK Flexibility Score: inf
ROOT
ATOM      1  C   UNL A   1      36.540  23.010  25.069  1.00  0.00     0.002 C 
ENDROOT
BRANCH   1   2
ATOM      2  C   UNL A   1      35.638  21.846  24.645  1.00  0.00     0.021 C 
BRANCH   2   3
ATOM      3  C   UNL A   1      34.782  21.249  25.768  1.00  0.00     0.116 C 
BRANCH   3   4
ATOM      4  N   UNL A   1      33.477  21.874  25.841  1.00  0.00    -0.356 N 
ATOM      5  O   UNL A   1      32.256  20.197  24.858  1.00  0.00    -0.275 OA
ATOM      6  C   UNL A   1      32.318  21.306  25.379  1.00  0.00     0.220 C 
ATOM      7  H   UNL A   1      33.418  22.767  26.252  1.00  0.00     0.163 HD
BRANCH   6   8
ATOM      8  C   UNL A   1      31.088  22.188  25.517  1.00  0.00     0.110 C 
BRANCH   8   9
ATOM      9  C   UNL A   1      31.140  23.128  26.720  1.00  0.00     0.107 C 
BRANCH   9  10
ATOM     10  C   UNL A   1      31.401  24.543  26.332  1.00  0.00     0.196 A 
ATOM     11  N   UNL A   1      32.157  25.428  26.959  1.00  0.00    -0.213 NA
ATOM     12  O   UNL A   1      30.798  25.010  25.183  1.00  0.00    -0.440 OA
ATOM     13  C   UNL A   1      32.026  26.552  26.198  1.00  0.00     0.117 A 
ATOM     14  C   UNL A   1      31.234  26.303  25.099  1.00  0.00     0.162 A 
BRANCH  13  15
ATOM     15  C   UNL A   1      32.605  27.843  26.472  1.00  0.00     0.004 A 
ATOM     16  C   UNL A   1      33.999  27.988  26.487  1.00  0.00     0.010 A 
ATOM     17  C   UNL A   1      31.783  28.916  26.834  1.00  0.00     0.010 A 
ATOM     18  C   UNL A   1      34.568  29.201  26.876  1.00  0.00     0.001 A 
ATOM     19  C   UNL A   1      32.357  30.120  27.237  1.00  0.00     0.001 A 
ATOM     20  C   UNL A   1      33.746  30.258  27.261  1.00  0.00     0.000 A 
ENDBRANCH  13  15
BRANCH  14  21
ATOM     21  C   UNL A   1      30.836  27.150  23.992  1.00  0.00     0.020 A 
ATOM     22  C   UNL A   1      29.506  27.545  23.827  1.00  0.00     0.012 A 
ATOM     23  C   UNL A   1      31.837  27.786  23.237  1.00  0.00     0.012 A 
ATOM     24  C   UNL A   1      29.196  28.603  22.967  1.00  0.00     0.001 A 
ATOM     25  C   UNL A   1      31.528  28.846  22.389  1.00  0.00     0.001 A 
ATOM     26  C   UNL A   1      30.207  29.264  22.266  1.00  0.00     0.000 A 
ENDBRANCH  14  21
ENDBRANCH   9  10
ENDBRANCH   8   9
ENDBRANCH   6   8
ENDBRANCH   3   4
ENDBRANCH   2   3
ENDBRANCH   1   2
BRANCH   1  27
ATOM     27  C   UNL A   1      38.027  22.667  25.151  1.00  0.00     0.002 C 
BRANCH  27  28
ATOM     28  C   UNL A   1      38.367  21.183  25.188  1.00  0.00     0.021 C 
BRANCH  28  29
ATOM     29  C   UNL A   1      39.197  20.750  26.392  1.00  0.00     0.116 C 
BRANCH  29  30
ATOM     30  N   UNL A   1      40.070  19.606  26.132  1.00  0.00    -0.352 N 
ATOM     31  C   UNL A   1      41.445  19.547  26.052  1.00  0.00     0.251 C 
ATOM     32  H   UNL A   1      39.605  18.749  25.991  1.00  0.00     0.163 HD
ATOM     33  O   UNL A   1      42.020  18.513  25.751  1.00  0.00    -0.269 OA
BRANCH  31  34
ATOM     34  C   UNL A   1      42.221  20.776  26.307  1.00  0.00     0.039 A 
ATOM     35  C   UNL A   1      42.547  21.615  25.238  1.00  0.00     0.014 A 
ATOM     36  C   UNL A   1      42.552  21.128  27.614  1.00  0.00     0.014 A 
ATOM     37  C   UNL A   1      43.128  22.859  25.496  1.00  0.00     0.010 A 
ATOM     38  C   UNL A   1      43.029  22.402  27.874  1.00  0.00     0.010 A 
ATOM     39  C   UNL A   1      43.327  23.280  26.820  1.00  0.00    -0.014 A 
BRANCH  39  40
ATOM     40  C   UNL A   1      43.856  24.625  27.155  1.00  0.00     0.031 A 
ATOM     41  C   UNL A   1      42.912  25.670  27.690  1.00  0.00     0.074 A 
ATOM     42  C   UNL A   1      45.131  24.943  26.852  1.00  0.00     0.049 A 
ATOM     43  N   UNL A   1      43.110  26.949  27.869  1.00  0.00    -0.248 NA
ATOM     44  C   UNL A   1      41.545  25.224  28.019  1.00  0.00     0.031 C 
ATOM     45  C   UNL A   1      46.113  24.038  26.249  1.00  0.00     0.029 A 
ATOM     46  N   UNL A   1      45.807  26.131  26.972  1.00  0.00    -0.354 N 
ATOM     47  C   UNL A   1      41.886  27.466  28.276  1.00  0.00     0.074 A 
ATOM     48  C   UNL A   1      40.940  26.373  28.277  1.00  0.00     0.031 C 
ATOM     49  C   UNL A   1      47.263  24.704  26.048  1.00  0.00     0.029 A 
ATOM     50  C   UNL A   1      47.091  26.089  26.474  1.00  0.00     0.049 A 
ATOM     51  H   UNL A   1      45.413  26.938  27.375  1.00  0.00     0.167 HD
ATOM     52  C   UNL A   1      41.584  28.730  28.653  1.00  0.00     0.034 A 
ATOM     53  C   UNL A   1      48.015  27.063  26.361  1.00  0.00     0.034 A 
ATOM     54  C   UNL A   1      42.549  29.792  28.718  1.00  0.00     0.049 A 
ATOM     55  C   UNL A   1      47.675  28.442  26.862  1.00  0.00     0.074 A 
ATOM     56  C   UNL A   1      42.374  31.089  29.166  1.00  0.00     0.029 A 
ATOM     57  N   UNL A   1      43.878  29.673  28.338  1.00  0.00    -0.354 N 
ATOM     58  N   UNL A   1      46.550  28.880  27.375  1.00  0.00    -0.248 NA
ATOM     59  C   UNL A   1      48.743  29.452  26.810  1.00  0.00     0.031 C 
ATOM     60  C   UNL A   1      43.598  31.756  29.053  1.00  0.00     0.029 A 
ATOM     61  C   UNL A   1      44.538  30.868  28.552  1.00  0.00     0.049 A 
ATOM     62  H   UNL A   1      44.289  28.858  27.971  1.00  0.00     0.167 HD
ATOM     63  C   UNL A   1      46.785  30.199  27.741  1.00  0.00     0.074 A 
ATOM     64  C   UNL A   1      48.167  30.483  27.413  1.00  0.00     0.031 C 
ATOM     65  C   UNL A   1      45.932  31.102  28.283  1.00  0.00     0.034 A 
BRANCH  52  66
ATOM     66  C   UNL A   1      40.173  29.013  29.098  1.00  0.00     0.023 A 
ATOM     67  C   UNL A   1      39.181  29.266  28.128  1.00  0.00     0.012 A 
ATOM     68  C   UNL A   1      39.812  28.970  30.458  1.00  0.00     0.148 A 
ATOM     69  C   UNL A   1      37.862  29.507  28.505  1.00  0.00     0.002 A 
ATOM     70  C   UNL A   1      38.486  29.164  30.823  1.00  0.00     0.091 A 
ATOM     71  F   UNL A   1      40.772  28.745  31.367  1.00  0.00    -0.205 F 
ATOM     72  C   UNL A   1      37.512  29.445  29.850  1.00  0.00     0.022 A 
BRANCH  70  73
ATOM     73  S   UNL A   1      37.912  29.029  32.521  1.00  0.00     0.127 S 
ATOM     74  O   UNL A   1      38.870  29.879  33.226  1.00  0.00    -0.237 OA
ATOM     75  O   UNL A   1      36.560  29.581  32.430  1.00  0.00    -0.237 OA
ATOM     76  O   UNL A   1      37.972  27.614  32.856  1.00  0.00    -0.744 OA
ENDBRANCH  70  73
ENDBRANCH  52  66
BRANCH  53  77
ATOM     77  C   UNL A   1      49.371  26.759  25.817  1.00  0.00     0.023 A 
ATOM     78  C   UNL A   1      50.287  26.042  26.612  1.00  0.00     0.012 A 
ATOM     79  C   UNL A   1      49.756  27.159  24.523  1.00  0.00     0.148 A 
ATOM     80  C   UNL A   1      51.574  25.769  26.148  1.00  0.00     0.002 A 
ATOM     81  C   UNL A   1      51.021  26.834  24.045  1.00  0.00     0.091 A 
ATOM     82  F   UNL A   1      48.878  27.851  23.782  1.00  0.00    -0.205 F 
ATOM     83  C   UNL A   1      51.939  26.156  24.861  1.00  0.00     0.022 A 
BRANCH  81  84
ATOM     84  S   UNL A   1      51.521  27.179  22.354  1.00  0.00     0.127 S 
ATOM     85  O   UNL A   1      51.512  28.640  22.330  1.00  0.00    -0.237 OA
ATOM     86  O   UNL A   1      52.852  26.571  22.298  1.00  0.00    -0.237 OA
ATOM     87  O   UNL A   1      50.530  26.519  21.515  1.00  0.00    -0.744 OA
ENDBRANCH  81  84
ENDBRANCH  53  77
BRANCH  65  88
ATOM     88  C   UNL A   1      46.476  32.468  28.607  1.00  0.00     0.023 A 
ATOM     89  C   UNL A   1      47.040  32.714  29.874  1.00  0.00     0.012 A 
ATOM     90  C   UNL A   1      46.506  33.476  27.625  1.00  0.00     0.148 A 
ATOM     91  C   UNL A   1      47.597  33.957  30.168  1.00  0.00     0.002 A 
ATOM     92  C   UNL A   1      47.108  34.695  27.909  1.00  0.00     0.091 A 
ATOM     93  F   UNL A   1      45.946  33.225  26.431  1.00  0.00    -0.205 F 
ATOM     94  C   UNL A   1      47.643  34.941  29.184  1.00  0.00     0.022 A 
BRANCH  92  95
ATOM     95  S   UNL A   1      47.298  35.983  26.671  1.00  0.00     0.127 S 
ATOM     96  O   UNL A   1      48.033  35.280  25.621  1.00  0.00    -0.237 OA
ATOM     97  O   UNL A   1      45.910  36.300  26.338  1.00  0.00    -0.237 OA
ATOM     98  O   UNL A   1      48.023  37.064  27.326  1.00  0.00    -0.744 OA
ENDBRANCH  92  95
ENDBRANCH  65  88
ENDBRANCH  39  40
ENDBRANCH  31  34
ENDBRANCH  29  30
ENDBRANCH  28  29
ENDBRANCH  27  28
ENDBRANCH   1  27
TORSDOF 20
ENDMDL
MODEL 3
REMARK VINA RESULT:     -11.1      1.167      7.502
REMARK SMILES O=C(CCc1nc(-c2ccccc2)c(-c2ccccc2)o1)NCCCCCCNC(=O)c1ccc(-c2c3nc(c(-c4cccc(S(=O)(=O)[O-])c4F)c4ccc([nH]4)c(-c4cccc(S(=O)(=O)[O-])c4F)c4nc(c(-c5cccc(S(=O)(=O)[O-])c5F)c5ccc2[nH]5)C=C4)C=C3)cc1
REMARK SMILES IDX 25 1 24 2 23 3 22 4 1 5 2 6 3 8 4 9 5 10 6 11 21 12 7 13
REMARK SMILES IDX 14 14 8 15 9 16 13 17 10 18 12 19 11 20 15 21 16 22 20 23
REMARK SMILES IDX 17 24 19 25 18 26 26 27 27 28 28 29 29 30 30 31 31 33 32 34
REMARK SMILES IDX 33 35 94 36 34 37 93 38 35 39 36 40 37 41 87 42 38 43 92 44
REMARK SMILES IDX 86 45 88 46 39 47 91 48 85 49 84 50 40 52 72 53 52 54 71 55
REMARK SMILES IDX 53 56 56 57 70 58 89 59 54 60 55 61 69 63 90 64 57 65 41 66
REMARK SMILES IDX 42 67 50 68 43 69 45 70 51 71 44 72 46 73 47 74 48 75 49 76
REMARK SMILES IDX 73 77 74 78 82 79 75 80 77 81 83 82 76 83 78 84 79 85 80 86
REMARK SMILES IDX 81 87 58 88 59 89 67 90 60 91 62 92 68 93 61 94 63 95 64 96
REMARK SMILES IDX 65 97 66 98
REMARK H PARENT 22 7 29 32 88 51 56 62
REMARK Flexibility Score: inf
ROOT
ATOM      1  C   UNL A   1      38.051  23.905  26.250  1.00  0.00     0.002 C 
ENDROOT
BRANCH   1   2
ATOM      2  C   UNL A   1      37.022  23.154  25.399  1.00  0.00     0.021 C 
BRANCH   2   3
ATOM      3  C   UNL A   1      35.621  23.060  26.013  1.00  0.00     0.116 C 
BRANCH   3   4
ATOM      4  N   UNL A   1      34.586  23.055  24.998  1.00  0.00    -0.356 N 
ATOM      5  O   UNL A   1      34.452  20.786  24.677  1.00  0.00    -0.275 OA
ATOM      6  C   UNL A   1      34.085  21.925  24.406  1.00  0.00     0.220 C 
ATOM      7  H   UNL A   1      34.218  23.923  24.714  1.00  0.00     0.163 HD
BRANCH   6   8
ATOM      8  C   UNL A   1      33.049  22.189  23.326  1.00  0.00     0.110 C 
BRANCH   8   9
ATOM      9  C   UNL A   1      31.652  22.474  23.874  1.00  0.00     0.107 C 
BRANCH   9  10
ATOM     10  C   UNL A   1      31.355  23.933  23.959  1.00  0.00     0.196 A 
ATOM     11  N   UNL A   1      30.467  24.620  23.262  1.00  0.00    -0.213 NA
ATOM     12  O   UNL A   1      32.077  24.676  24.870  1.00  0.00    -0.440 OA
ATOM     13  C   UNL A   1      30.628  25.896  23.716  1.00  0.00     0.117 A 
ATOM     14  C   UNL A   1      31.574  25.939  24.715  1.00  0.00     0.162 A 
BRANCH  13  15
ATOM     15  C   UNL A   1      29.936  27.066  23.239  1.00  0.00     0.004 A 
ATOM     16  C   UNL A   1      30.651  28.074  22.577  1.00  0.00     0.010 A 
ATOM     17  C   UNL A   1      28.580  27.248  23.537  1.00  0.00     0.010 A 
ATOM     18  C   UNL A   1      30.014  29.263  22.226  1.00  0.00     0.001 A 
ATOM     19  C   UNL A   1      27.953  28.446  23.198  1.00  0.00     0.001 A 
ATOM     20  C   UNL A   1      28.672  29.451  22.548  1.00  0.00     0.000 A 
ENDBRANCH  13  15
BRANCH  14  21
ATOM     21  C   UNL A   1      32.063  27.036  25.527  1.00  0.00     0.020 A 
ATOM     22  C   UNL A   1      31.386  27.437  26.682  1.00  0.00     0.012 A 
ATOM     23  C   UNL A   1      33.362  27.520  25.293  1.00  0.00     0.012 A 
ATOM     24  C   UNL A   1      32.028  28.258  27.614  1.00  0.00     0.001 A 
ATOM     25  C   UNL A   1      34.003  28.329  26.227  1.00  0.00     0.001 A 
ATOM     26  C   UNL A   1      33.339  28.686  27.395  1.00  0.00     0.000 A 
ENDBRANCH  14  21
ENDBRANCH   9  10
ENDBRANCH   8   9
ENDBRANCH   6   8
ENDBRANCH   3   4
ENDBRANCH   2   3
ENDBRANCH   1   2
BRANCH   1  27
ATOM     27  C   UNL A   1      39.350  23.140  26.502  1.00  0.00     0.002 C 
BRANCH  27  28
ATOM     28  C   UNL A   1      39.438  21.754  25.878  1.00  0.00     0.021 C 
BRANCH  28  29
ATOM     29  C   UNL A   1      39.864  20.649  26.839  1.00  0.00     0.116 C 
BRANCH  29  30
ATOM     30  N   UNL A   1      40.779  19.671  26.252  1.00  0.00    -0.352 N 
ATOM     31  C   UNL A   1      42.111  19.800  25.919  1.00  0.00     0.251 C 
ATOM     32  H   UNL A   1      40.385  18.789  26.066  1.00  0.00     0.163 HD
ATOM     33  O   UNL A   1      42.717  18.897  25.363  1.00  0.00    -0.269 OA
BRANCH  31  34
ATOM     34  C   UNL A   1      42.795  21.074  26.218  1.00  0.00     0.039 A 
ATOM     35  C   UNL A   1      43.050  21.974  25.181  1.00  0.00     0.014 A 
ATOM     36  C   UNL A   1      43.107  21.399  27.536  1.00  0.00     0.014 A 
ATOM     37  C   UNL A   1      43.538  23.247  25.484  1.00  0.00     0.010 A 
ATOM     38  C   UNL A   1      43.488  22.695  27.844  1.00  0.00     0.010 A 
ATOM     39  C   UNL A   1      43.713  23.632  26.822  1.00  0.00    -0.014 A 
BRANCH  39  40
ATOM     40  C   UNL A   1      44.142  24.999  27.207  1.00  0.00     0.031 A 
ATOM     41  C   UNL A   1      43.113  25.971  27.720  1.00  0.00     0.074 A 
ATOM     42  C   UNL A   1      45.406  25.403  26.966  1.00  0.00     0.049 A 
ATOM     43  N   UNL A   1      43.222  27.256  27.933  1.00  0.00    -0.248 NA
ATOM     44  C   UNL A   1      41.764  25.435  27.981  1.00  0.00     0.031 C 
ATOM     45  C   UNL A   1      46.468  24.574  26.388  1.00  0.00     0.029 A 
ATOM     46  N   UNL A   1      46.001  26.627  27.138  1.00  0.00    -0.354 N 
ATOM     47  C   UNL A   1      41.953  27.687  28.298  1.00  0.00     0.074 A 
ATOM     48  C   UNL A   1      41.078  26.538  28.236  1.00  0.00     0.031 C 
ATOM     49  C   UNL A   1      47.581  25.314  26.250  1.00  0.00     0.029 A 
ATOM     50  C   UNL A   1      47.304  26.675  26.696  1.00  0.00     0.049 A 
ATOM     51  H   UNL A   1      45.540  27.398  27.540  1.00  0.00     0.167 HD
ATOM     52  C   UNL A   1      41.556  28.921  28.686  1.00  0.00     0.034 A 
ATOM     53  C   UNL A   1      48.170  27.707  26.642  1.00  0.00     0.034 A 
ATOM     54  C   UNL A   1      42.449  30.039  28.814  1.00  0.00     0.049 A 
ATOM     55  C   UNL A   1      47.723  29.051  27.156  1.00  0.00     0.074 A 
ATOM     56  C   UNL A   1      42.174  31.312  29.279  1.00  0.00     0.029 A 
ATOM     57  N   UNL A   1      43.797  30.011  28.490  1.00  0.00    -0.354 N 
ATOM     58  N   UNL A   1      46.552  29.406  27.628  1.00  0.00    -0.248 NA
ATOM     59  C   UNL A   1      48.726  30.126  27.170  1.00  0.00     0.031 C 
ATOM     60  C   UNL A   1      43.357  32.056  29.233  1.00  0.00     0.029 A 
ATOM     61  C   UNL A   1      44.371  31.239  28.756  1.00  0.00     0.049 A 
ATOM     62  H   UNL A   1      44.273  29.231  28.124  1.00  0.00     0.167 HD
ATOM     63  C   UNL A   1      46.688  30.729  28.030  1.00  0.00     0.074 A 
ATOM     64  C   UNL A   1      48.062  31.105  27.768  1.00  0.00     0.031 C 
ATOM     65  C   UNL A   1      45.758  31.566  28.552  1.00  0.00     0.034 A 
BRANCH  52  66
ATOM     66  C   UNL A   1      40.113  29.106  29.075  1.00  0.00     0.023 A 
ATOM     67  C   UNL A   1      39.134  29.212  28.065  1.00  0.00     0.012 A 
ATOM     68  C   UNL A   1      39.714  29.114  30.425  1.00  0.00     0.148 A 
ATOM     69  C   UNL A   1      37.787  29.359  28.391  1.00  0.00     0.002 A 
ATOM     70  C   UNL A   1      38.365  29.214  30.743  1.00  0.00     0.091 A 
ATOM     71  F   UNL A   1      40.660  29.030  31.372  1.00  0.00    -0.205 F 
ATOM     72  C   UNL A   1      37.402  29.348  29.728  1.00  0.00     0.022 A 
BRANCH  70  73
ATOM     73  S   UNL A   1      37.751  29.133  32.429  1.00  0.00     0.127 S 
ATOM     74  O   UNL A   1      38.658  30.048  33.119  1.00  0.00    -0.237 OA
ATOM     75  O   UNL A   1      36.382  29.628  32.280  1.00  0.00    -0.237 OA
ATOM     76  O   UNL A   1      37.854  27.736  32.829  1.00  0.00    -0.744 OA
ENDBRANCH  70  73
ENDBRANCH  52  66
BRANCH  53  77
ATOM     77  C   UNL A   1      49.563  27.500  26.151  1.00  0.00     0.023 A 
ATOM     78  C   UNL A   1      49.815  27.518  24.765  1.00  0.00     0.012 A 
ATOM     79  C   UNL A   1      50.638  27.298  27.038  1.00  0.00     0.148 A 
ATOM     80  C   UNL A   1      51.099  27.295  24.269  1.00  0.00     0.002 A 
ATOM     81  C   UNL A   1      51.926  27.132  26.539  1.00  0.00     0.091 A 
ATOM     82  F   UNL A   1      50.383  27.271  28.354  1.00  0.00    -0.205 F 
ATOM     83  C   UNL A   1      52.157  27.111  25.155  1.00  0.00     0.022 A 
BRANCH  81  84
ATOM     84  S   UNL A   1      53.361  27.022  27.615  1.00  0.00     0.127 S 
ATOM     85  O   UNL A   1      52.827  26.278  28.753  1.00  0.00    -0.237 OA
ATOM     86  O   UNL A   1      54.311  26.280  26.785  1.00  0.00    -0.237 OA
ATOM     87  O   UNL A   1      53.752  28.401  27.878  1.00  0.00    -0.744 OA
ENDBRANCH  81  84
ENDBRANCH  53  77
BRANCH  65  88
ATOM     88  C   UNL A   1      46.201  32.954  28.927  1.00  0.00     0.023 A 
ATOM     89  C   UNL A   1      46.762  33.191  30.196  1.00  0.00     0.012 A 
ATOM     90  C   UNL A   1      46.141  34.001  27.987  1.00  0.00     0.148 A 
ATOM     91  C   UNL A   1      47.227  34.460  30.536  1.00  0.00     0.002 A 
ATOM     92  C   UNL A   1      46.652  35.250  28.315  1.00  0.00     0.091 A 
ATOM     93  F   UNL A   1      45.586  33.756  26.790  1.00  0.00    -0.205 F 
ATOM     94  C   UNL A   1      47.184  35.484  29.593  1.00  0.00     0.022 A 
BRANCH  92  95
ATOM     95  S   UNL A   1      46.727  36.597  27.129  1.00  0.00     0.127 S 
ATOM     96  O   UNL A   1      45.312  36.923  26.959  1.00  0.00    -0.237 OA
ATOM     97  O   UNL A   1      47.503  37.604  27.854  1.00  0.00    -0.237 OA
ATOM     98  O   UNL A   1      47.392  36.058  25.951  1.00  0.00    -0.744 OA
ENDBRANCH  92  95
ENDBRANCH  65  88
ENDBRANCH  39  40
ENDBRANCH  31  34
ENDBRANCH  29  30
ENDBRANCH  28  29
ENDBRANCH  27  28
ENDBRANCH   1  27
TORSDOF 20
ENDMDL
