MODEL 1
REMARK VINA RESULT:     -12.0      0.000      0.000
REMARK SMILES CC1(C)[C@H](O)CC[C@]2(C)[C@@H]1CC[C@@]1(C)Oc3oc(C(=O)NCCCCCCNC(=O)c4ccc(-c5c6nc(c(-c7cccc(S(=O)(=O)[O-])c7F)c7ccc([nH]7)c(-c7cccc(S(=O)(=O)[O-])c7F)c7nc(c(-c8cccc(S(=O)(=O)[O-])c8F)c8ccc5[nH]8)C=C7)C=C6)cc4)cc(=O)c3C[C@H]21
REMARK SMILES IDX 25 1 24 2 23 3 22 4 21 5 19 6 20 7 18 9 1 10 2 11 3 12 4 13
REMARK SMILES IDX 10 14 6 15 8 16 11 17 7 18 9 19 99 20 12 21 13 22 98 23
REMARK SMILES IDX 14 24 15 25 97 26 16 27 95 28 17 29 94 30 96 31 5 32 26 34
REMARK SMILES IDX 27 35 28 36 29 37 30 39 31 40 32 41 93 42 33 43 92 44 34 45
REMARK SMILES IDX 35 46 36 47 86 48 37 49 91 50 85 51 87 52 38 53 90 54 84 55
REMARK SMILES IDX 83 56 39 58 71 59 51 60 70 61 52 62 55 63 69 64 88 65 53 66
REMARK SMILES IDX 54 67 68 69 89 70 56 71 40 72 41 73 49 74 42 75 44 76 50 77
REMARK SMILES IDX 43 78 45 79 46 80 47 81 48 82 72 83 73 84 81 85 74 86 76 87
REMARK SMILES IDX 82 88 75 89 77 90 78 91 79 92 80 93 57 94 58 95 66 96 59 97
REMARK SMILES IDX 61 98 67 99 60 100 62 101 63 102 64 103 65 104
REMARK H PARENT 21 8 5 33 28 38 87 57 55 68
REMARK Flexibility Score: inf
ROOT
ATOM      1  C   UNL A   1      35.630  34.182  28.605  1.00  0.00     0.002 C 
ENDROOT
BRANCH   1   2
ATOM      2  C   UNL A   1      35.395  32.776  29.166  1.00  0.00     0.002 C 
BRANCH   2   3
ATOM      3  C   UNL A   1      35.750  31.632  28.215  1.00  0.00     0.021 C 
BRANCH   3   4
ATOM      4  C   UNL A   1      34.540  30.901  27.596  1.00  0.00     0.116 C 
BRANCH   4   5
ATOM      5  N   UNL A   1      33.413  31.813  27.292  1.00  0.00    -0.349 N 
ATOM      6  C   UNL A   1      32.136  31.675  26.774  1.00  0.00     0.287 C 
ATOM      7  O   UNL A   1      31.415  32.675  26.768  1.00  0.00    -0.266 OA
ATOM      8  H   UNL A   1      33.625  32.750  27.511  1.00  0.00     0.163 HD
BRANCH   6   9
ATOM      9  C   UNL A   1      31.582  30.359  26.302  1.00  0.00     0.199 A 
ATOM     10  C   UNL A   1      32.249  21.420  22.292  1.00  0.00     0.014 C 
ATOM     11  C   UNL A   1      33.050  22.259  23.341  1.00  0.00    -0.006 C 
ATOM     12  C   UNL A   1      34.276  21.382  23.698  1.00  0.00     0.014 C 
ATOM     13  C   UNL A   1      33.685  23.510  22.354  1.00  0.00     0.120 C 
ATOM     14  C   UNL A   1      31.934  22.873  24.637  1.00  0.00     0.004 C 
ATOM     15  C   UNL A   1      32.683  24.604  22.023  1.00  0.00     0.033 C 
ATOM     16  C   UNL A   1      32.305  24.326  24.544  1.00  0.00    -0.022 C 
ATOM     17  C   UNL A   1      31.566  22.650  26.153  1.00  0.00     0.009 C 
ATOM     18  C   UNL A   1      31.678  24.510  23.096  1.00  0.00     0.010 C 
ATOM     19  C   UNL A   1      33.768  24.172  25.220  1.00  0.00     0.012 C 
ATOM     20  C   UNL A   1      31.917  25.549  25.335  1.00  0.00     0.044 C 
ATOM     21  C   UNL A   1      31.227  23.992  27.103  1.00  0.00     0.049 C 
ATOM     22  C   UNL A   1      30.909  25.423  26.428  1.00  0.00     0.113 C 
ATOM     23  C   UNL A   1      31.791  26.741  24.439  1.00  0.00     0.055 C 
ATOM     24  C   UNL A   1      29.441  25.454  26.000  1.00  0.00     0.057 C 
ATOM     25  O   UNL A   1      31.161  26.677  27.281  1.00  0.00    -0.458 OA
ATOM     26  C   UNL A   1      31.481  27.907  25.216  1.00  0.00     0.081 A 
ATOM     27  C   UNL A   1      31.338  27.928  26.543  1.00  0.00     0.292 A 
ATOM     28  C   UNL A   1      31.321  29.070  24.366  1.00  0.00     0.192 A 
ATOM     29  O   UNL A   1      31.493  29.207  27.162  1.00  0.00    -0.420 OA
ATOM     30  C   UNL A   1      31.183  30.324  25.031  1.00  0.00     0.105 A 
ATOM     31  O   UNL A   1      31.346  29.026  23.134  1.00  0.00    -0.289 OA
BRANCH  13  32
ATOM     32  O   UNL A   1      34.862  24.121  22.889  1.00  0.00    -0.393 OA
ATOM     33  H   UNL A   1      34.999  24.984  22.469  1.00  0.00     0.210 HD
ENDBRANCH  13  32
ENDBRANCH   6   9
ENDBRANCH   4   5
ENDBRANCH   3   4
ENDBRANCH   2   3
ENDBRANCH   1   2
BRANCH   1  34
ATOM     34  C   UNL A   1      34.394  35.088  28.563  1.00  0.00     0.021 C 
BRANCH  34  35
ATOM     35  C   UNL A   1      33.191  34.558  29.339  1.00  0.00     0.116 C 
BRANCH  35  36
ATOM     36  N   UNL A   1      32.684  35.549  30.280  1.00  0.00    -0.352 N 
ATOM     37  C   UNL A   1      32.963  35.680  31.617  1.00  0.00     0.251 C 
ATOM     38  H   UNL A   1      32.059  36.213  29.907  1.00  0.00     0.163 HD
ATOM     39  O   UNL A   1      32.274  36.398  32.335  1.00  0.00    -0.269 OA
BRANCH  37  40
ATOM     40  C   UNL A   1      34.109  34.941  32.178  1.00  0.00     0.039 A 
ATOM     41  C   UNL A   1      33.898  33.704  32.791  1.00  0.00     0.014 A 
ATOM     42  C   UNL A   1      35.395  35.477  32.069  1.00  0.00     0.014 A 
ATOM     43  C   UNL A   1      34.995  32.974  33.252  1.00  0.00     0.010 A 
ATOM     44  C   UNL A   1      36.489  34.726  32.480  1.00  0.00     0.010 A 
ATOM     45  C   UNL A   1      36.296  33.473  33.081  1.00  0.00    -0.014 A 
BRANCH  45  46
ATOM     46  C   UNL A   1      37.479  32.714  33.544  1.00  0.00     0.031 A 
ATOM     47  C   UNL A   1      38.186  33.140  34.799  1.00  0.00     0.074 A 
ATOM     48  C   UNL A   1      37.958  31.701  32.799  1.00  0.00     0.049 A 
ATOM     49  N   UNL A   1      39.276  32.655  35.329  1.00  0.00    -0.248 NA
ATOM     50  C   UNL A   1      37.601  34.266  35.547  1.00  0.00     0.031 C 
ATOM     51  C   UNL A   1      37.381  31.231  31.538  1.00  0.00     0.029 A 
ATOM     52  N   UNL A   1      39.057  30.899  32.981  1.00  0.00    -0.354 N 
ATOM     53  C   UNL A   1      39.521  33.427  36.457  1.00  0.00     0.074 A 
ATOM     54  C   UNL A   1      38.482  34.430  36.523  1.00  0.00     0.031 C 
ATOM     55  C   UNL A   1      38.131  30.225  31.060  1.00  0.00     0.029 A 
ATOM     56  C   UNL A   1      39.255  29.996  31.964  1.00  0.00     0.049 A 
ATOM     57  H   UNL A   1      39.647  30.966  33.766  1.00  0.00     0.167 HD
ATOM     58  C   UNL A   1      40.510  33.293  37.369  1.00  0.00     0.034 A 
ATOM     59  C   UNL A   1      40.235  29.091  31.778  1.00  0.00     0.034 A 
ATOM     60  C   UNL A   1      41.521  32.276  37.316  1.00  0.00     0.049 A 
ATOM     61  C   UNL A   1      41.320  28.958  32.810  1.00  0.00     0.074 A 
ATOM     62  C   UNL A   1      42.530  32.027  38.229  1.00  0.00     0.029 A 
ATOM     63  N   UNL A   1      41.657  31.348  36.299  1.00  0.00    -0.354 N 
ATOM     64  N   UNL A   1      41.480  29.634  33.922  1.00  0.00    -0.248 NA
ATOM     65  C   UNL A   1      42.339  27.923  32.583  1.00  0.00     0.031 C 
ATOM     66  C   UNL A   1      43.289  30.956  37.752  1.00  0.00     0.029 A 
ATOM     67  C   UNL A   1      42.734  30.522  36.559  1.00  0.00     0.049 A 
ATOM     68  H   UNL A   1      41.073  31.284  35.508  1.00  0.00     0.167 HD
ATOM     69  C   UNL A   1      42.594  29.084  34.545  1.00  0.00     0.074 A 
ATOM     70  C   UNL A   1      43.070  28.019  33.687  1.00  0.00     0.031 C 
ATOM     71  C   UNL A   1      43.167  29.434  35.721  1.00  0.00     0.034 A 
BRANCH  58  72
ATOM     72  C   UNL A   1      40.522  34.232  38.541  1.00  0.00     0.023 A 
ATOM     73  C   UNL A   1      41.278  35.418  38.462  1.00  0.00     0.012 A 
ATOM     74  C   UNL A   1      39.705  33.999  39.662  1.00  0.00     0.148 A 
ATOM     75  C   UNL A   1      41.223  36.360  39.488  1.00  0.00     0.002 A 
ATOM     76  C   UNL A   1      39.632  34.955  40.666  1.00  0.00     0.091 A 
ATOM     77  F   UNL A   1      39.009  32.854  39.716  1.00  0.00    -0.205 F 
ATOM     78  C   UNL A   1      40.391  36.134  40.582  1.00  0.00     0.022 A 
BRANCH  76  79
ATOM     79  S   UNL A   1      38.553  34.788  42.092  1.00  0.00     0.127 S 
ATOM     80  O   UNL A   1      39.020  33.526  42.667  1.00  0.00    -0.237 OA
ATOM     81  O   UNL A   1      38.891  35.977  42.873  1.00  0.00    -0.237 OA
ATOM     82  O   UNL A   1      37.193  34.760  41.571  1.00  0.00    -0.744 OA
ENDBRANCH  76  79
ENDBRANCH  58  72
BRANCH  59  83
ATOM     83  C   UNL A   1      40.183  28.195  30.591  1.00  0.00     0.023 A 
ATOM     84  C   UNL A   1      39.214  27.176  30.544  1.00  0.00     0.012 A 
ATOM     85  C   UNL A   1      41.033  28.396  29.486  1.00  0.00     0.148 A 
ATOM     86  C   UNL A   1      39.097  26.362  29.417  1.00  0.00     0.002 A 
ATOM     87  C   UNL A   1      40.886  27.605  28.353  1.00  0.00     0.091 A 
ATOM     88  F   UNL A   1      41.943  29.376  29.558  1.00  0.00    -0.205 F 
ATOM     89  C   UNL A   1      39.925  26.583  28.318  1.00  0.00     0.022 A 
BRANCH  87  90
ATOM     90  S   UNL A   1      41.843  27.869  26.856  1.00  0.00     0.127 S 
ATOM     91  O   UNL A   1      41.526  29.259  26.539  1.00  0.00    -0.237 OA
ATOM     92  O   UNL A   1      43.208  27.640  27.331  1.00  0.00    -0.237 OA
ATOM     93  O   UNL A   1      41.361  26.886  25.895  1.00  0.00    -0.744 OA
ENDBRANCH  87  90
ENDBRANCH  59  83
BRANCH  71  94
ATOM     94  C   UNL A   1      44.355  28.648  36.199  1.00  0.00     0.023 A 
ATOM     95  C   UNL A   1      45.654  29.078  35.873  1.00  0.00     0.012 A 
ATOM     96  C   UNL A   1      44.177  27.574  37.094  1.00  0.00     0.148 A 
ATOM     97  C   UNL A   1      46.765  28.444  36.430  1.00  0.00     0.002 A 
ATOM     98  C   UNL A   1      45.287  26.971  37.672  1.00  0.00     0.091 A 
ATOM     99  F   UNL A   1      42.927  27.184  37.382  1.00  0.00    -0.205 F 
ATOM    100  C   UNL A   1      46.582  27.403  37.338  1.00  0.00     0.022 A 
BRANCH  98 101
ATOM    101  S   UNL A   1      45.150  25.675  38.907  1.00  0.00     0.127 S 
ATOM    102  O   UNL A   1      44.333  26.327  39.931  1.00  0.00    -0.237 OA
ATOM    103  O   UNL A   1      44.468  24.614  38.166  1.00  0.00    -0.237 OA
ATOM    104  O   UNL A   1      46.512  25.356  39.315  1.00  0.00    -0.744 OA
ENDBRANCH  98 101
ENDBRANCH  71  94
ENDBRANCH  45  46
ENDBRANCH  37  40
ENDBRANCH  35  36
ENDBRANCH  34  35
ENDBRANCH   1  34
TORSDOF 17
ENDMDL
MODEL 2
REMARK VINA RESULT:     -11.7      5.266      9.943
REMARK SMILES CC1(C)[C@H](O)CC[C@]2(C)[C@@H]1CC[C@@]1(C)Oc3oc(C(=O)NCCCCCCNC(=O)c4ccc(-c5c6nc(c(-c7cccc(S(=O)(=O)[O-])c7F)c7ccc([nH]7)c(-c7cccc(S(=O)(=O)[O-])c7F)c7nc(c(-c8cccc(S(=O)(=O)[O-])c8F)c8ccc5[nH]8)C=C7)C=C6)cc4)cc(=O)c3C[C@H]21
REMARK SMILES IDX 25 1 24 2 23 3 22 4 21 5 19 6 20 7 18 9 1 10 2 11 3 12 4 13
REMARK SMILES IDX 10 14 6 15 8 16 11 17 7 18 9 19 99 20 12 21 13 22 98 23
REMARK SMILES IDX 14 24 15 25 97 26 16 27 95 28 17 29 94 30 96 31 5 32 26 34
REMARK SMILES IDX 27 35 28 36 29 37 30 39 31 40 32 41 93 42 33 43 92 44 34 45
REMARK SMILES IDX 35 46 36 47 86 48 37 49 91 50 85 51 87 52 38 53 90 54 84 55
REMARK SMILES IDX 83 56 39 58 71 59 51 60 70 61 52 62 55 63 69 64 88 65 53 66
REMARK SMILES IDX 54 67 68 69 89 70 56 71 40 72 41 73 49 74 42 75 44 76 50 77
REMARK SMILES IDX 43 78 45 79 46 80 47 81 48 82 72 83 73 84 81 85 74 86 76 87
REMARK SMILES IDX 82 88 75 89 77 90 78 91 79 92 80 93 57 94 58 95 66 96 59 97
REMARK SMILES IDX 61 98 67 99 60 100 62 101 63 102 64 103 65 104
REMARK H PARENT 21 8 5 33 28 38 87 57 55 68
REMARK Flexibility Score: inf
ROOT
ATOM      1  C   UNL A   1      38.156  34.259  32.104  1.00  0.00     0.002 C 
ENDROOT
BRANCH   1   2
ATOM      2  C   UNL A   1      37.111  33.975  31.020  1.00  0.00     0.002 C 
BRANCH   2   3
ATOM      3  C   UNL A   1      37.180  32.575  30.407  1.00  0.00     0.021 C 
BRANCH   3   4
ATOM      4  C   UNL A   1      36.024  31.633  30.805  1.00  0.00     0.116 C 
BRANCH   4   5
ATOM      5  N   UNL A   1      35.493  30.860  29.659  1.00  0.00    -0.349 N 
ATOM      6  C   UNL A   1      36.003  29.933  28.765  1.00  0.00     0.287 C 
ATOM      7  O   UNL A   1      35.210  29.401  27.987  1.00  0.00    -0.266 OA
ATOM      8  H   UNL A   1      34.542  31.053  29.490  1.00  0.00     0.163 HD
BRANCH   6   9
ATOM      9  C   UNL A   1      37.445  29.505  28.764  1.00  0.00     0.199 A 
ATOM     10  C   UNL A   1      44.778  23.150  27.257  1.00  0.00     0.014 C 
ATOM     11  C   UNL A   1      43.498  23.615  26.487  1.00  0.00    -0.006 C 
ATOM     12  C   UNL A   1      43.442  22.712  25.229  1.00  0.00     0.014 C 
ATOM     13  C   UNL A   1      42.257  23.011  27.507  1.00  0.00     0.120 C 
ATOM     14  C   UNL A   1      43.477  25.425  26.337  1.00  0.00     0.004 C 
ATOM     15  C   UNL A   1      42.005  23.862  28.741  1.00  0.00     0.033 C 
ATOM     16  C   UNL A   1      42.107  25.655  26.910  1.00  0.00    -0.022 C 
ATOM     17  C   UNL A   1      43.666  26.575  25.277  1.00  0.00     0.009 C 
ATOM     18  C   UNL A   1      42.519  25.193  28.373  1.00  0.00     0.010 C 
ATOM     19  C   UNL A   1      41.291  25.070  25.640  1.00  0.00     0.012 C 
ATOM     20  C   UNL A   1      41.244  26.879  27.077  1.00  0.00     0.044 C 
ATOM     21  C   UNL A   1      42.657  27.914  25.356  1.00  0.00     0.049 C 
ATOM     22  C   UNL A   1      41.783  28.213  26.680  1.00  0.00     0.113 C 
ATOM     23  C   UNL A   1      40.480  26.817  28.362  1.00  0.00     0.055 C 
ATOM     24  C   UNL A   1      42.667  28.917  27.711  1.00  0.00     0.057 C 
ATOM     25  O   UNL A   1      40.514  29.065  26.511  1.00  0.00    -0.458 OA
ATOM     26  C   UNL A   1      39.619  27.959  28.475  1.00  0.00     0.081 A 
ATOM     27  C   UNL A   1      39.507  28.928  27.564  1.00  0.00     0.292 A 
ATOM     28  C   UNL A   1      38.892  27.940  29.729  1.00  0.00     0.192 A 
ATOM     29  O   UNL A   1      38.306  29.701  27.626  1.00  0.00    -0.420 OA
ATOM     30  C   UNL A   1      37.876  28.928  29.886  1.00  0.00     0.105 A 
ATOM     31  O   UNL A   1      39.079  27.103  30.616  1.00  0.00    -0.289 OA
BRANCH  13  32
ATOM     32  O   UNL A   1      41.012  22.806  26.835  1.00  0.00    -0.393 OA
ATOM     33  H   UNL A   1      40.428  23.564  26.997  1.00  0.00     0.210 HD
ENDBRANCH  13  32
ENDBRANCH   6   9
ENDBRANCH   4   5
ENDBRANCH   3   4
ENDBRANCH   2   3
ENDBRANCH   1   2
BRANCH   1  34
ATOM     34  C   UNL A   1      37.591  34.579  33.493  1.00  0.00     0.021 C 
BRANCH  34  35
ATOM     35  C   UNL A   1      36.446  33.673  33.937  1.00  0.00     0.116 C 
BRANCH  35  36
ATOM     36  N   UNL A   1      36.650  33.182  35.295  1.00  0.00    -0.352 N 
ATOM     37  C   UNL A   1      37.518  32.213  35.732  1.00  0.00     0.251 C 
ATOM     38  H   UNL A   1      36.093  33.601  35.990  1.00  0.00     0.163 HD
ATOM     39  O   UNL A   1      37.404  31.727  36.853  1.00  0.00    -0.269 OA
BRANCH  37  40
ATOM     40  C   UNL A   1      38.595  31.765  34.829  1.00  0.00     0.039 A 
ATOM     41  C   UNL A   1      38.286  30.942  33.744  1.00  0.00     0.014 A 
ATOM     42  C   UNL A   1      39.907  32.188  35.057  1.00  0.00     0.014 A 
ATOM     43  C   UNL A   1      39.296  30.584  32.849  1.00  0.00     0.010 A 
ATOM     44  C   UNL A   1      40.899  31.875  34.137  1.00  0.00     0.010 A 
ATOM     45  C   UNL A   1      40.602  31.064  33.031  1.00  0.00    -0.014 A 
BRANCH  45  46
ATOM     46  C   UNL A   1      41.689  30.716  32.089  1.00  0.00     0.031 A 
ATOM     47  C   UNL A   1      42.388  29.393  32.224  1.00  0.00     0.074 A 
ATOM     48  C   UNL A   1      42.095  31.614  31.173  1.00  0.00     0.049 A 
ATOM     49  N   UNL A   1      43.406  28.933  31.549  1.00  0.00    -0.248 NA
ATOM     50  C   UNL A   1      41.887  28.474  33.261  1.00  0.00     0.031 C 
ATOM     51  C   UNL A   1      41.521  32.948  30.983  1.00  0.00     0.029 A 
ATOM     52  N   UNL A   1      43.105  31.551  30.246  1.00  0.00    -0.354 N 
ATOM     53  C   UNL A   1      43.683  27.685  32.091  1.00  0.00     0.074 A 
ATOM     54  C   UNL A   1      42.744  27.468  33.168  1.00  0.00     0.031 C 
ATOM     55  C   UNL A   1      42.188  33.576  30.002  1.00  0.00     0.029 A 
ATOM     56  C   UNL A   1      43.251  32.703  29.511  1.00  0.00     0.049 A 
ATOM     57  H   UNL A   1      43.670  30.755  30.119  1.00  0.00     0.167 HD
ATOM     58  C   UNL A   1      44.621  26.790  31.707  1.00  0.00     0.034 A 
ATOM     59  C   UNL A   1      44.147  33.023  28.557  1.00  0.00     0.034 A 
ATOM     60  C   UNL A   1      45.531  26.997  30.616  1.00  0.00     0.049 A 
ATOM     61  C   UNL A   1      45.175  32.008  28.142  1.00  0.00     0.074 A 
ATOM     62  C   UNL A   1      46.478  26.121  30.116  1.00  0.00     0.029 A 
ATOM     63  N   UNL A   1      45.613  28.156  29.864  1.00  0.00    -0.354 N 
ATOM     64  N   UNL A   1      45.359  30.794  28.602  1.00  0.00    -0.248 NA
ATOM     65  C   UNL A   1      46.098  32.390  27.063  1.00  0.00     0.031 C 
ATOM     66  C   UNL A   1      47.147  26.760  29.070  1.00  0.00     0.029 A 
ATOM     67  C   UNL A   1      46.597  28.020  28.901  1.00  0.00     0.049 A 
ATOM     68  H   UNL A   1      45.055  28.957  29.994  1.00  0.00     0.167 HD
ATOM     69  C   UNL A   1      46.392  30.253  27.846  1.00  0.00     0.074 A 
ATOM     70  C   UNL A   1      46.795  31.271  26.898  1.00  0.00     0.031 C 
ATOM     71  C   UNL A   1      46.953  29.024  27.933  1.00  0.00     0.034 A 
BRANCH  58  72
ATOM     72  C   UNL A   1      44.681  25.475  32.429  1.00  0.00     0.023 A 
ATOM     73  C   UNL A   1      44.039  24.354  31.867  1.00  0.00     0.012 A 
ATOM     74  C   UNL A   1      45.458  25.325  33.591  1.00  0.00     0.148 A 
ATOM     75  C   UNL A   1      44.168  23.098  32.457  1.00  0.00     0.002 A 
ATOM     76  C   UNL A   1      45.607  24.065  34.156  1.00  0.00     0.091 A 
ATOM     77  F   UNL A   1      46.043  26.413  34.111  1.00  0.00    -0.205 F 
ATOM     78  C   UNL A   1      44.961  22.951  33.592  1.00  0.00     0.022 A 
BRANCH  76  79
ATOM     79  S   UNL A   1      46.647  23.757  35.588  1.00  0.00     0.127 S 
ATOM     80  O   UNL A   1      47.918  24.341  35.158  1.00  0.00    -0.237 OA
ATOM     81  O   UNL A   1      45.954  24.506  36.635  1.00  0.00    -0.237 OA
ATOM     82  O   UNL A   1      46.665  22.313  35.773  1.00  0.00    -0.744 OA
ENDBRANCH  76  79
ENDBRANCH  58  72
BRANCH  59  83
ATOM     83  C   UNL A   1      44.052  34.346  27.884  1.00  0.00     0.023 A 
ATOM     84  C   UNL A   1      43.221  34.484  26.756  1.00  0.00     0.012 A 
ATOM     85  C   UNL A   1      44.717  35.477  28.397  1.00  0.00     0.148 A 
ATOM     86  C   UNL A   1      43.059  35.727  26.143  1.00  0.00     0.002 A 
ATOM     87  C   UNL A   1      44.523  36.718  27.803  1.00  0.00     0.091 A 
ATOM     88  F   UNL A   1      45.498  35.316  29.474  1.00  0.00    -0.205 F 
ATOM     89  C   UNL A   1      43.701  36.845  26.672  1.00  0.00     0.022 A 
BRANCH  87  90
ATOM     90  S   UNL A   1      45.233  38.230  28.462  1.00  0.00     0.127 S 
ATOM     91  O   UNL A   1      46.642  38.078  28.109  1.00  0.00    -0.237 OA
ATOM     92  O   UNL A   1      44.513  39.253  27.701  1.00  0.00    -0.237 OA
ATOM     93  O   UNL A   1      44.944  38.219  29.889  1.00  0.00    -0.744 OA
ENDBRANCH  87  90
ENDBRANCH  59  83
BRANCH  71  94
ATOM     94  C   UNL A   1      48.042  28.665  26.961  1.00  0.00     0.023 A 
ATOM     95  C   UNL A   1      49.383  28.666  27.384  1.00  0.00     0.012 A 
ATOM     96  C   UNL A   1      47.713  28.183  25.678  1.00  0.00     0.148 A 
ATOM     97  C   UNL A   1      50.387  28.194  26.538  1.00  0.00     0.002 A 
ATOM     98  C   UNL A   1      48.714  27.682  24.856  1.00  0.00     0.091 A 
ATOM     99  F   UNL A   1      46.426  28.198  25.302  1.00  0.00    -0.205 F 
ATOM    100  C   UNL A   1      50.052  27.691  25.283  1.00  0.00     0.022 A 
BRANCH  98 101
ATOM    101  S   UNL A   1      48.371  26.945  23.255  1.00  0.00     0.127 S 
ATOM    102  O   UNL A   1      47.363  27.859  22.717  1.00  0.00    -0.237 OA
ATOM    103  O   UNL A   1      49.675  27.019  22.596  1.00  0.00    -0.237 OA
ATOM    104  O   UNL A   1      47.899  25.593  23.522  1.00  0.00    -0.744 OA
ENDBRANCH  98 101
ENDBRANCH  71  94
ENDBRANCH  45  46
ENDBRANCH  37  40
ENDBRANCH  35  36
ENDBRANCH  34  35
ENDBRANCH   1  34
TORSDOF 17
ENDMDL
MODEL 3
REMARK VINA RESULT:     -11.6      6.313     11.173
REMARK SMILES CC1(C)[C@H](O)CC[C@]2(C)[C@@H]1CC[C@@]1(C)Oc3oc(C(=O)NCCCCCCNC(=O)c4ccc(-c5c6nc(c(-c7cccc(S(=O)(=O)[O-])c7F)c7ccc([nH]7)c(-c7cccc(S(=O)(=O)[O-])c7F)c7nc(c(-c8cccc(S(=O)(=O)[O-])c8F)c8ccc5[nH]8)C=C7)C=C6)cc4)cc(=O)c3C[C@H]21
REMARK SMILES IDX 25 1 24 2 23 3 22 4 21 5 19 6 20 7 18 9 1 10 2 11 3 12 4 13
REMARK SMILES IDX 10 14 6 15 8 16 11 17 7 18 9 19 99 20 12 21 13 22 98 23
REMARK SMILES IDX 14 24 15 25 97 26 16 27 95 28 17 29 94 30 96 31 5 32 26 34
REMARK SMILES IDX 27 35 28 36 29 37 30 39 31 40 32 41 93 42 33 43 92 44 34 45
REMARK SMILES IDX 35 46 36 47 86 48 37 49 91 50 85 51 87 52 38 53 90 54 84 55
REMARK SMILES IDX 83 56 39 58 71 59 51 60 70 61 52 62 55 63 69 64 88 65 53 66
REMARK SMILES IDX 54 67 68 69 89 70 56 71 40 72 41 73 49 74 42 75 44 76 50 77
REMARK SMILES IDX 43 78 45 79 46 80 47 81 48 82 72 83 73 84 81 85 74 86 76 87
REMARK SMILES IDX 82 88 75 89 77 90 78 91 79 92 80 93 57 94 58 95 66 96 59 97
REMARK SMILES IDX 61 98 67 99 60 100 62 101 63 102 64 103 65 104
REMARK H PARENT 21 8 5 33 28 38 87 57 55 68
REMARK Flexibility Score: inf
ROOT
ATOM      1  C   UNL A   1      38.166  21.584  25.560  1.00  0.00     0.002 C 
ENDROOT
BRANCH   1   2
ATOM      2  C   UNL A   1      37.237  21.515  24.345  1.00  0.00     0.002 C 
BRANCH   2   3
ATOM      3  C   UNL A   1      35.750  21.697  24.655  1.00  0.00     0.021 C 
BRANCH   3   4
ATOM      4  C   UNL A   1      35.239  20.904  25.877  1.00  0.00     0.116 C 
BRANCH   4   5
ATOM      5  N   UNL A   1      34.074  20.047  25.558  1.00  0.00    -0.349 N 
ATOM      6  C   UNL A   1      32.777  20.257  25.120  1.00  0.00     0.287 C 
ATOM      7  O   UNL A   1      32.103  19.263  24.847  1.00  0.00    -0.266 OA
ATOM      8  H   UNL A   1      34.270  19.091  25.691  1.00  0.00     0.163 HD
BRANCH   6   9
ATOM      9  C   UNL A   1      32.201  21.628  24.896  1.00  0.00     0.199 A 
ATOM     10  C   UNL A   1      31.478  31.284  26.532  1.00  0.00     0.014 C 
ATOM     11  C   UNL A   1      32.631  30.246  26.334  1.00  0.00    -0.006 C 
ATOM     12  C   UNL A   1      33.934  31.054  26.559  1.00  0.00     0.014 C 
ATOM     13  C   UNL A   1      32.465  29.290  27.749  1.00  0.00     0.120 C 
ATOM     14  C   UNL A   1      32.373  29.302  24.804  1.00  0.00     0.004 C 
ATOM     15  C   UNL A   1      31.338  28.273  27.678  1.00  0.00     0.033 C 
ATOM     16  C   UNL A   1      32.468  27.927  25.402  1.00  0.00    -0.022 C 
ATOM     17  C   UNL A   1      32.942  29.144  23.343  1.00  0.00     0.009 C 
ATOM     18  C   UNL A   1      31.123  28.074  26.235  1.00  0.00     0.010 C 
ATOM     19  C   UNL A   1      34.065  27.966  25.665  1.00  0.00     0.012 C 
ATOM     20  C   UNL A   1      32.458  26.538  24.817  1.00  0.00     0.044 C 
ATOM     21  C   UNL A   1      33.049  27.603  22.685  1.00  0.00     0.049 C 
ATOM     22  C   UNL A   1      32.255  26.365  23.349  1.00  0.00     0.113 C 
ATOM     23  C   UNL A   1      31.724  25.591  25.714  1.00  0.00     0.055 C 
ATOM     24  C   UNL A   1      30.806  26.386  22.861  1.00  0.00     0.057 C 
ATOM     25  O   UNL A   1      32.803  24.952  23.086  1.00  0.00    -0.458 OA
ATOM     26  C   UNL A   1      31.777  24.264  25.172  1.00  0.00     0.081 A 
ATOM     27  C   UNL A   1      32.399  23.921  24.042  1.00  0.00     0.292 A 
ATOM     28  C   UNL A   1      31.044  23.332  26.007  1.00  0.00     0.192 A 
ATOM     29  O   UNL A   1      32.734  22.537  23.914  1.00  0.00    -0.420 OA
ATOM     30  C   UNL A   1      31.166  21.952  25.671  1.00  0.00     0.105 A 
ATOM     31  O   UNL A   1      30.380  23.671  26.990  1.00  0.00    -0.289 OA
BRANCH  13  32
ATOM     32  O   UNL A   1      33.666  28.610  28.125  1.00  0.00    -0.393 OA
ATOM     33  H   UNL A   1      34.128  29.122  28.807  1.00  0.00     0.210 HD
ENDBRANCH  13  32
ENDBRANCH   6   9
ENDBRANCH   4   5
ENDBRANCH   3   4
ENDBRANCH   2   3
ENDBRANCH   1   2
BRANCH   1  34
ATOM     34  C   UNL A   1      39.505  20.853  25.407  1.00  0.00     0.021 C 
BRANCH  34  35
ATOM     35  C   UNL A   1      39.820  19.863  26.525  1.00  0.00     0.116 C 
BRANCH  35  36
ATOM     36  N   UNL A   1      40.978  19.041  26.198  1.00  0.00    -0.352 N 
ATOM     37  C   UNL A   1      42.263  19.441  25.930  1.00  0.00     0.251 C 
ATOM     38  H   UNL A   1      40.819  18.069  26.165  1.00  0.00     0.163 HD
ATOM     39  O   UNL A   1      43.070  18.667  25.425  1.00  0.00    -0.269 OA
BRANCH  37  40
ATOM     40  C   UNL A   1      42.659  20.822  26.261  1.00  0.00     0.039 A 
ATOM     41  C   UNL A   1      42.729  21.216  27.599  1.00  0.00     0.014 A 
ATOM     42  C   UNL A   1      42.980  21.714  25.234  1.00  0.00     0.014 A 
ATOM     43  C   UNL A   1      43.178  22.502  27.910  1.00  0.00     0.010 A 
ATOM     44  C   UNL A   1      43.476  22.972  25.547  1.00  0.00     0.010 A 
ATOM     45  C   UNL A   1      43.571  23.378  26.887  1.00  0.00    -0.014 A 
BRANCH  45  46
ATOM     46  C   UNL A   1      44.067  24.739  27.186  1.00  0.00     0.031 A 
ATOM     47  C   UNL A   1      43.113  25.776  27.708  1.00  0.00     0.074 A 
ATOM     48  C   UNL A   1      45.346  25.061  26.918  1.00  0.00     0.049 A 
ATOM     49  N   UNL A   1      43.333  27.037  27.962  1.00  0.00    -0.248 NA
ATOM     50  C   UNL A   1      41.728  25.342  27.963  1.00  0.00     0.031 C 
ATOM     51  C   UNL A   1      46.349  24.149  26.365  1.00  0.00     0.029 A 
ATOM     52  N   UNL A   1      46.014  26.253  27.048  1.00  0.00    -0.354 N 
ATOM     53  C   UNL A   1      42.115  27.553  28.384  1.00  0.00     0.074 A 
ATOM     54  C   UNL A   1      41.151  26.477  28.329  1.00  0.00     0.031 C 
ATOM     55  C   UNL A   1      47.504  24.814  26.204  1.00  0.00     0.029 A 
ATOM     56  C   UNL A   1      47.318  26.203  26.615  1.00  0.00     0.049 A 
ATOM     57  H   UNL A   1      45.599  27.065  27.418  1.00  0.00     0.167 HD
ATOM     58  C   UNL A   1      41.832  28.807  28.805  1.00  0.00     0.034 A 
ATOM     59  C   UNL A   1      48.253  27.170  26.548  1.00  0.00     0.034 A 
ATOM     60  C   UNL A   1      42.800  29.864  28.887  1.00  0.00     0.049 A 
ATOM     61  C   UNL A   1      47.917  28.554  27.028  1.00  0.00     0.074 A 
ATOM     62  C   UNL A   1      42.618  31.153  29.358  1.00  0.00     0.029 A 
ATOM     63  N   UNL A   1      44.121  29.760  28.488  1.00  0.00    -0.354 N 
ATOM     64  N   UNL A   1      46.784  28.999  27.516  1.00  0.00    -0.248 NA
ATOM     65  C   UNL A   1      48.988  29.561  26.979  1.00  0.00     0.031 C 
ATOM     66  C   UNL A   1      43.829  31.835  29.225  1.00  0.00     0.029 A 
ATOM     67  C   UNL A   1      44.770  30.963  28.700  1.00  0.00     0.049 A 
ATOM     68  H   UNL A   1      44.537  28.952  28.110  1.00  0.00     0.167 HD
ATOM     69  C   UNL A   1      47.015  30.324  27.865  1.00  0.00     0.074 A 
ATOM     70  C   UNL A   1      48.394  30.611  27.534  1.00  0.00     0.031 C 
ATOM     71  C   UNL A   1      46.156  31.219  28.411  1.00  0.00     0.034 A 
BRANCH  58  72
ATOM     72  C   UNL A   1      40.434  29.100  29.265  1.00  0.00     0.023 A 
ATOM     73  C   UNL A   1      39.462  29.473  28.316  1.00  0.00     0.012 A 
ATOM     74  C   UNL A   1      40.058  28.898  30.606  1.00  0.00     0.148 A 
ATOM     75  C   UNL A   1      38.133  29.646  28.697  1.00  0.00     0.002 A 
ATOM     76  C   UNL A   1      38.726  29.042  30.972  1.00  0.00     0.091 A 
ATOM     77  F   UNL A   1      41.008  28.559  31.489  1.00  0.00    -0.205 F 
ATOM     78  C   UNL A   1      37.764  29.418  30.020  1.00  0.00     0.022 A 
BRANCH  76  79
ATOM     79  S   UNL A   1      38.136  28.723  32.637  1.00  0.00     0.127 S 
ATOM     80  O   UNL A   1      36.761  29.219  32.562  1.00  0.00    -0.237 OA
ATOM     81  O   UNL A   1      38.255  27.268  32.731  1.00  0.00    -0.237 OA
ATOM     82  O   UNL A   1      39.011  29.470  33.529  1.00  0.00    -0.744 OA
ENDBRANCH  76  79
ENDBRANCH  58  72
BRANCH  59  83
ATOM     83  C   UNL A   1      49.620  26.829  26.069  1.00  0.00     0.023 A 
ATOM     84  C   UNL A   1      50.470  26.075  26.900  1.00  0.00     0.012 A 
ATOM     85  C   UNL A   1      50.050  27.181  24.775  1.00  0.00     0.148 A 
ATOM     86  C   UNL A   1      51.732  25.683  26.453  1.00  0.00     0.002 A 
ATOM     87  C   UNL A   1      51.294  26.757  24.323  1.00  0.00     0.091 A 
ATOM     88  F   UNL A   1      49.218  27.896  24.005  1.00  0.00    -0.205 F 
ATOM     89  C   UNL A   1      52.139  26.014  25.163  1.00  0.00     0.022 A 
BRANCH  87  90
ATOM     90  S   UNL A   1      51.872  27.055  22.650  1.00  0.00     0.127 S 
ATOM     91  O   UNL A   1      52.267  28.460  22.716  1.00  0.00    -0.237 OA
ATOM     92  O   UNL A   1      52.982  26.107  22.545  1.00  0.00    -0.237 OA
ATOM     93  O   UNL A   1      50.742  26.766  21.779  1.00  0.00    -0.744 OA
ENDBRANCH  87  90
ENDBRANCH  59  83
BRANCH  71  94
ATOM     94  C   UNL A   1      46.669  32.594  28.735  1.00  0.00     0.023 A 
ATOM     95  C   UNL A   1      47.239  32.847  29.995  1.00  0.00     0.012 A 
ATOM     96  C   UNL A   1      46.717  33.584  27.733  1.00  0.00     0.148 A 
ATOM     97  C   UNL A   1      47.850  34.074  30.257  1.00  0.00     0.002 A 
ATOM     98  C   UNL A   1      47.358  34.789  27.990  1.00  0.00     0.091 A 
ATOM     99  F   UNL A   1      46.161  33.315  26.543  1.00  0.00    -0.205 F 
ATOM    100  C   UNL A   1      47.922  35.037  29.253  1.00  0.00     0.022 A 
BRANCH  98 101
ATOM    101  S   UNL A   1      47.567  36.059  26.737  1.00  0.00     0.127 S 
ATOM    102  O   UNL A   1      48.545  36.943  27.372  1.00  0.00    -0.237 OA
ATOM    103  O   UNL A   1      48.083  35.293  25.603  1.00  0.00    -0.237 OA
ATOM    104  O   UNL A   1      46.250  36.645  26.529  1.00  0.00    -0.744 OA
ENDBRANCH  98 101
ENDBRANCH  71  94
ENDBRANCH  45  46
ENDBRANCH  37  40
ENDBRANCH  35  36
ENDBRANCH  34  35
ENDBRANCH   1  34
TORSDOF 17
ENDMDL
