MODEL 1
REMARK VINA RESULT:     -12.7      0.000      0.000
REMARK SMILES Cc1cccc2c1[C@H]1c3c(C)cccc3[C@H](CC(=O)NCCCCCCNC(=O)c3ccc(-c4c5nc(c(-c6cccc(S(=O)(=O)[O-])c6F)c6ccc([nH]6)c(-c6cccc(S(=O)(=O)[O-])c6F)c6nc(c(-c7cccc(S(=O)(=O)[O-])c7F)c7ccc4[nH]7)C=C6)C=C5)cc3)C[C@H]1CC2
REMARK SMILES IDX 24 1 23 2 22 3 21 4 20 5 18 6 19 7 17 9 16 10 1 11 2 12 3 13
REMARK SMILES IDX 7 14 4 15 6 16 8 17 5 18 96 19 9 20 94 21 95 22 10 23 15 24
REMARK SMILES IDX 93 25 12 26 11 27 14 28 13 29 25 30 26 31 27 32 28 33 29 35
REMARK SMILES IDX 30 36 31 37 92 38 32 39 91 40 33 41 34 42 35 43 85 44 36 45
REMARK SMILES IDX 90 46 84 47 86 48 37 49 89 50 83 51 82 52 38 54 70 55 50 56
REMARK SMILES IDX 69 57 51 58 54 59 68 60 87 61 52 62 53 63 67 65 88 66 55 67
REMARK SMILES IDX 39 68 40 69 48 70 41 71 43 72 49 73 42 74 44 75 45 76 46 77
REMARK SMILES IDX 47 78 71 79 72 80 80 81 73 82 75 83 81 84 74 85 76 86 77 87
REMARK SMILES IDX 78 88 79 89 56 90 57 91 65 92 58 93 60 94 66 95 59 96 61 97
REMARK SMILES IDX 62 98 63 99 64 100
REMARK H PARENT 20 8 27 34 86 53 54 64
REMARK Flexibility Score: inf
ROOT
ATOM      1  C   UNL A   1      31.237  31.209  25.639  1.00  0.00     0.002 C 
ENDROOT
BRANCH   1   2
ATOM      2  C   UNL A   1      31.672  29.744  25.661  1.00  0.00     0.002 C 
BRANCH   2   3
ATOM      3  C   UNL A   1      32.995  29.433  24.957  1.00  0.00     0.021 C 
BRANCH   3   4
ATOM      4  C   UNL A   1      32.925  29.086  23.479  1.00  0.00     0.116 C 
BRANCH   4   5
ATOM      5  N   UNL A   1      31.619  29.348  22.909  1.00  0.00    -0.356 N 
ATOM      6  C   UNL A   1      30.711  28.492  22.364  1.00  0.00     0.220 C 
ATOM      7  O   UNL A   1      29.579  28.924  22.128  1.00  0.00    -0.275 OA
ATOM      8  H   UNL A   1      31.345  30.294  22.916  1.00  0.00     0.163 HD
BRANCH   6   9
ATOM      9  C   UNL A   1      31.064  27.038  22.071  1.00  0.00     0.108 C 
BRANCH   9  10
ATOM     10  C   UNL A   1      32.117  26.328  22.979  1.00  0.00     0.029 C 
ATOM     11  C   UNL A   1      32.087  20.478  22.662  1.00  0.00     0.044 C 
ATOM     12  C   UNL A   1      33.070  20.874  23.735  1.00  0.00    -0.047 A 
ATOM     13  C   UNL A   1      33.619  19.832  24.502  1.00  0.00     0.004 A 
ATOM     14  C   UNL A   1      33.450  22.210  24.017  1.00  0.00    -0.034 A 
ATOM     15  C   UNL A   1      34.597  20.088  25.456  1.00  0.00     0.001 A 
ATOM     16  C   UNL A   1      34.562  22.438  24.854  1.00  0.00    -0.044 A 
ATOM     17  C   UNL A   1      32.714  23.419  23.453  1.00  0.00     0.053 C 
ATOM     18  C   UNL A   1      35.099  21.377  25.598  1.00  0.00     0.004 A 
ATOM     19  C   UNL A   1      35.293  23.762  24.870  1.00  0.00     0.036 C 
ATOM     20  C   UNL A   1      31.745  24.183  24.398  1.00  0.00    -0.034 A 
ATOM     21  C   UNL A   1      33.786  24.376  22.885  1.00  0.00     0.002 C 
ATOM     22  C   UNL A   1      34.715  24.884  24.000  1.00  0.00     0.009 C 
ATOM     23  C   UNL A   1      30.968  23.585  25.427  1.00  0.00    -0.047 A 
ATOM     24  C   UNL A   1      31.566  25.582  24.189  1.00  0.00    -0.040 A 
ATOM     25  C   UNL A   1      33.078  25.491  22.113  1.00  0.00     0.013 C 
ATOM     26  C   UNL A   1      30.215  24.389  26.308  1.00  0.00     0.004 A 
ATOM     27  C   UNL A   1      30.851  22.106  25.658  1.00  0.00     0.044 C 
ATOM     28  C   UNL A   1      30.867  26.357  25.137  1.00  0.00     0.004 A 
ATOM     29  C   UNL A   1      30.193  25.767  26.188  1.00  0.00     0.001 A 
ENDBRANCH   9  10
ENDBRANCH   6   9
ENDBRANCH   4   5
ENDBRANCH   3   4
ENDBRANCH   2   3
ENDBRANCH   1   2
BRANCH   1  30
ATOM     30  C   UNL A   1      31.412  31.967  26.958  1.00  0.00     0.021 C 
BRANCH  30  31
ATOM     31  C   UNL A   1      32.728  32.726  27.100  1.00  0.00     0.116 C 
BRANCH  31  32
ATOM     32  N   UNL A   1      32.533  34.085  27.579  1.00  0.00    -0.352 N 
ATOM     33  C   UNL A   1      33.151  34.710  28.635  1.00  0.00     0.251 C 
ATOM     34  H   UNL A   1      31.875  34.624  27.084  1.00  0.00     0.163 HD
ATOM     35  O   UNL A   1      32.763  35.803  29.032  1.00  0.00    -0.269 OA
BRANCH  33  36
ATOM     36  C   UNL A   1      34.283  34.035  29.299  1.00  0.00     0.039 A 
ATOM     37  C   UNL A   1      34.024  33.086  30.291  1.00  0.00     0.014 A 
ATOM     38  C   UNL A   1      35.595  34.322  28.909  1.00  0.00     0.014 A 
ATOM     39  C   UNL A   1      35.086  32.382  30.862  1.00  0.00     0.010 A 
ATOM     40  C   UNL A   1      36.647  33.588  29.448  1.00  0.00     0.010 A 
ATOM     41  C   UNL A   1      36.403  32.616  30.432  1.00  0.00    -0.014 A 
BRANCH  41  42
ATOM     42  C   UNL A   1      37.545  31.875  31.017  1.00  0.00     0.031 A 
ATOM     43  C   UNL A   1      38.009  32.205  32.407  1.00  0.00     0.074 A 
ATOM     44  C   UNL A   1      38.209  30.967  30.278  1.00  0.00     0.049 A 
ATOM     45  N   UNL A   1      39.031  31.726  33.066  1.00  0.00    -0.248 NA
ATOM     46  C   UNL A   1      37.234  33.215  33.148  1.00  0.00     0.031 C 
ATOM     47  C   UNL A   1      37.887  30.599  28.898  1.00  0.00     0.029 A 
ATOM     48  N   UNL A   1      39.314  30.207  30.576  1.00  0.00    -0.354 N 
ATOM     49  C   UNL A   1      39.040  32.393  34.284  1.00  0.00     0.074 A 
ATOM     50  C   UNL A   1      37.933  33.324  34.269  1.00  0.00     0.031 C 
ATOM     51  C   UNL A   1      38.781  29.692  28.466  1.00  0.00     0.029 A 
ATOM     52  C   UNL A   1      39.749  29.431  29.529  1.00  0.00     0.049 A 
ATOM     53  H   UNL A   1      39.753  30.219  31.457  1.00  0.00     0.167 HD
ATOM     54  C   UNL A   1      39.880  32.228  35.331  1.00  0.00     0.034 A 
ATOM     55  C   UNL A   1      40.812  28.607  29.431  1.00  0.00     0.034 A 
ATOM     56  C   UNL A   1      40.950  31.270  35.366  1.00  0.00     0.049 A 
ATOM     57  C   UNL A   1      41.711  28.417  30.622  1.00  0.00     0.074 A 
ATOM     58  C   UNL A   1      41.806  30.983  36.414  1.00  0.00     0.029 A 
ATOM     59  N   UNL A   1      41.312  30.449  34.312  1.00  0.00    -0.354 N 
ATOM     60  N   UNL A   1      41.632  28.971  31.806  1.00  0.00    -0.248 NA
ATOM     61  C   UNL A   1      42.825  27.468  30.474  1.00  0.00     0.031 C 
ATOM     62  C   UNL A   1      42.692  29.989  35.991  1.00  0.00     0.029 A 
ATOM     63  C   UNL A   1      42.379  29.651  34.685  1.00  0.00     0.049 A 
ATOM     64  H   UNL A   1      40.874  30.433  33.430  1.00  0.00     0.167 HD
ATOM     65  C   UNL A   1      42.666  28.420  32.554  1.00  0.00     0.074 A 
ATOM     66  C   UNL A   1      43.353  27.481  31.693  1.00  0.00     0.031 C 
ATOM     67  C   UNL A   1      43.020  28.682  33.836  1.00  0.00     0.034 A 
BRANCH  54  68
ATOM     68  C   UNL A   1      39.643  33.053  36.562  1.00  0.00     0.023 A 
ATOM     69  C   UNL A   1      40.154  34.364  36.616  1.00  0.00     0.012 A 
ATOM     70  C   UNL A   1      38.831  32.576  37.608  1.00  0.00     0.148 A 
ATOM     71  C   UNL A   1      39.866  35.190  37.701  1.00  0.00     0.002 A 
ATOM     72  C   UNL A   1      38.523  33.415  38.671  1.00  0.00     0.091 A 
ATOM     73  F   UNL A   1      38.370  31.319  37.534  1.00  0.00    -0.205 F 
ATOM     74  C   UNL A   1      39.041  34.720  38.721  1.00  0.00     0.022 A 
BRANCH  72  75
ATOM     75  S   UNL A   1      37.428  32.931  40.009  1.00  0.00     0.127 S 
ATOM     76  O   UNL A   1      37.583  34.051  40.937  1.00  0.00    -0.237 OA
ATOM     77  O   UNL A   1      36.131  32.869  39.336  1.00  0.00    -0.237 OA
ATOM     78  O   UNL A   1      37.928  31.654  40.500  1.00  0.00    -0.744 OA
ENDBRANCH  72  75
ENDBRANCH  54  68
BRANCH  55  79
ATOM     79  C   UNL A   1      41.039  27.853  28.170  1.00  0.00     0.023 A 
ATOM     80  C   UNL A   1      41.650  28.503  27.080  1.00  0.00     0.012 A 
ATOM     81  C   UNL A   1      40.712  26.488  28.066  1.00  0.00     0.148 A 
ATOM     82  C   UNL A   1      41.920  27.807  25.901  1.00  0.00     0.002 A 
ATOM     83  C   UNL A   1      41.019  25.791  26.903  1.00  0.00     0.091 A 
ATOM     84  F   UNL A   1      40.129  25.895  29.117  1.00  0.00    -0.205 F 
ATOM     85  C   UNL A   1      41.614  26.452  25.816  1.00  0.00     0.022 A 
BRANCH  83  86
ATOM     86  S   UNL A   1      40.760  24.022  26.734  1.00  0.00     0.127 S 
ATOM     87  O   UNL A   1      39.364  23.963  26.306  1.00  0.00    -0.237 OA
ATOM     88  O   UNL A   1      41.736  23.675  25.701  1.00  0.00    -0.237 OA
ATOM     89  O   UNL A   1      41.037  23.452  28.045  1.00  0.00    -0.744 OA
ENDBRANCH  83  86
ENDBRANCH  55  79
BRANCH  67  90
ATOM     90  C   UNL A   1      44.189  27.937  34.417  1.00  0.00     0.023 A 
ATOM     91  C   UNL A   1      45.458  28.546  34.433  1.00  0.00     0.012 A 
ATOM     92  C   UNL A   1      44.000  26.700  35.065  1.00  0.00     0.148 A 
ATOM     93  C   UNL A   1      46.528  27.929  35.081  1.00  0.00     0.002 A 
ATOM     94  C   UNL A   1      45.061  26.108  35.737  1.00  0.00     0.091 A 
ATOM     95  F   UNL A   1      42.783  26.139  35.025  1.00  0.00    -0.205 F 
ATOM     96  C   UNL A   1      46.327  26.719  35.742  1.00  0.00     0.022 A 
BRANCH  94  97
ATOM     97  S   UNL A   1      44.882  24.592  36.685  1.00  0.00     0.127 S 
ATOM     98  O   UNL A   1      44.131  25.058  37.850  1.00  0.00    -0.237 OA
ATOM     99  O   UNL A   1      44.122  23.742  35.769  1.00  0.00    -0.237 OA
ATOM    100  O   UNL A   1      46.234  24.128  36.962  1.00  0.00    -0.744 OA
ENDBRANCH  94  97
ENDBRANCH  67  90
ENDBRANCH  41  42
ENDBRANCH  33  36
ENDBRANCH  31  32
ENDBRANCH  30  31
ENDBRANCH   1  30
TORSDOF 17
ENDMDL
MODEL 2
REMARK VINA RESULT:     -12.7      6.334     11.598
REMARK SMILES Cc1cccc2c1[C@H]1c3c(C)cccc3[C@H](CC(=O)NCCCCCCNC(=O)c3ccc(-c4c5nc(c(-c6cccc(S(=O)(=O)[O-])c6F)c6ccc([nH]6)c(-c6cccc(S(=O)(=O)[O-])c6F)c6nc(c(-c7cccc(S(=O)(=O)[O-])c7F)c7ccc4[nH]7)C=C6)C=C5)cc3)C[C@H]1CC2
REMARK SMILES IDX 24 1 23 2 22 3 21 4 20 5 18 6 19 7 17 9 16 10 1 11 2 12 3 13
REMARK SMILES IDX 7 14 4 15 6 16 8 17 5 18 96 19 9 20 94 21 95 22 10 23 15 24
REMARK SMILES IDX 93 25 12 26 11 27 14 28 13 29 25 30 26 31 27 32 28 33 29 35
REMARK SMILES IDX 30 36 31 37 92 38 32 39 91 40 33 41 34 42 35 43 85 44 36 45
REMARK SMILES IDX 90 46 84 47 86 48 37 49 89 50 83 51 82 52 38 54 70 55 50 56
REMARK SMILES IDX 69 57 51 58 54 59 68 60 87 61 52 62 53 63 67 65 88 66 55 67
REMARK SMILES IDX 39 68 40 69 48 70 41 71 43 72 49 73 42 74 44 75 45 76 46 77
REMARK SMILES IDX 47 78 71 79 72 80 80 81 73 82 75 83 81 84 74 85 76 86 77 87
REMARK SMILES IDX 78 88 79 89 56 90 57 91 65 92 58 93 60 94 66 95 59 96 61 97
REMARK SMILES IDX 62 98 63 99 64 100
REMARK H PARENT 20 8 27 34 86 53 54 64
REMARK Flexibility Score: inf
ROOT
ATOM      1  C   UNL A   1      40.860  21.916  27.948  1.00  0.00     0.002 C 
ENDROOT
BRANCH   1   2
ATOM      2  C   UNL A   1      40.363  22.797  26.802  1.00  0.00     0.002 C 
BRANCH   2   3
ATOM      3  C   UNL A   1      39.174  23.705  27.129  1.00  0.00     0.021 C 
BRANCH   3   4
ATOM      4  C   UNL A   1      37.976  23.634  26.198  1.00  0.00     0.116 C 
BRANCH   4   5
ATOM      5  N   UNL A   1      37.630  22.272  25.841  1.00  0.00    -0.356 N 
ATOM      6  C   UNL A   1      36.410  21.688  25.688  1.00  0.00     0.220 C 
ATOM      7  O   UNL A   1      36.368  20.563  25.180  1.00  0.00    -0.275 OA
ATOM      8  H   UNL A   1      38.398  21.676  25.685  1.00  0.00     0.163 HD
BRANCH   6   9
ATOM      9  C   UNL A   1      35.128  22.399  26.107  1.00  0.00     0.108 C 
BRANCH   9  10
ATOM     10  C   UNL A   1      34.235  23.042  25.000  1.00  0.00     0.029 C 
ATOM     11  C   UNL A   1      32.931  28.688  25.867  1.00  0.00     0.044 C 
ATOM     12  C   UNL A   1      32.173  28.223  24.649  1.00  0.00    -0.047 A 
ATOM     13  C   UNL A   1      31.244  29.126  24.103  1.00  0.00     0.004 A 
ATOM     14  C   UNL A   1      32.329  26.949  24.047  1.00  0.00    -0.034 A 
ATOM     15  C   UNL A   1      30.559  28.824  22.932  1.00  0.00     0.001 A 
ATOM     16  C   UNL A   1      31.768  26.726  22.772  1.00  0.00    -0.044 A 
ATOM     17  C   UNL A   1      33.081  25.804  24.713  1.00  0.00     0.053 C 
ATOM     18  C   UNL A   1      30.854  27.651  22.245  1.00  0.00     0.004 A 
ATOM     19  C   UNL A   1      32.228  25.592  21.884  1.00  0.00     0.036 C 
ATOM     20  C   UNL A   1      32.244  24.670  25.368  1.00  0.00    -0.034 A 
ATOM     21  C   UNL A   1      34.047  25.224  23.656  1.00  0.00     0.002 C 
ATOM     22  C   UNL A   1      33.272  24.633  22.467  1.00  0.00     0.009 C 
ATOM     23  C   UNL A   1      30.983  24.849  26.000  1.00  0.00    -0.047 A 
ATOM     24  C   UNL A   1      32.797  23.357  25.398  1.00  0.00    -0.040 A 
ATOM     25  C   UNL A   1      34.976  24.224  24.348  1.00  0.00     0.013 C 
ATOM     26  C   UNL A   1      30.251  23.731  26.453  1.00  0.00     0.004 A 
ATOM     27  C   UNL A   1      30.341  26.179  26.265  1.00  0.00     0.044 C 
ATOM     28  C   UNL A   1      32.001  22.261  25.787  1.00  0.00     0.004 A 
ATOM     29  C   UNL A   1      30.737  22.444  26.315  1.00  0.00     0.001 A 
ENDBRANCH   9  10
ENDBRANCH   6   9
ENDBRANCH   4   5
ENDBRANCH   3   4
ENDBRANCH   2   3
ENDBRANCH   1   2
BRANCH   1  30
ATOM     30  C   UNL A   1      41.190  20.469  27.571  1.00  0.00     0.021 C 
BRANCH  30  31
ATOM     31  C   UNL A   1      41.075  20.144  26.084  1.00  0.00     0.116 C 
BRANCH  31  32
ATOM     32  N   UNL A   1      42.220  19.395  25.593  1.00  0.00    -0.352 N 
ATOM     33  C   UNL A   1      43.462  19.870  25.251  1.00  0.00     0.251 C 
ATOM     34  H   UNL A   1      42.087  18.425  25.492  1.00  0.00     0.163 HD
ATOM     35  O   UNL A   1      44.278  19.148  24.686  1.00  0.00    -0.269 OA
BRANCH  33  36
ATOM     36  C   UNL A   1      43.798  21.274  25.557  1.00  0.00     0.039 A 
ATOM     37  C   UNL A   1      43.472  22.270  24.634  1.00  0.00     0.014 A 
ATOM     38  C   UNL A   1      44.402  21.598  26.777  1.00  0.00     0.014 A 
ATOM     39  C   UNL A   1      43.709  23.608  24.956  1.00  0.00     0.010 A 
ATOM     40  C   UNL A   1      44.595  22.935  27.112  1.00  0.00     0.010 A 
ATOM     41  C   UNL A   1      44.256  23.950  26.203  1.00  0.00    -0.014 A 
BRANCH  41  42
ATOM     42  C   UNL A   1      44.507  25.364  26.571  1.00  0.00     0.031 A 
ATOM     43  C   UNL A   1      45.895  25.926  26.448  1.00  0.00     0.074 A 
ATOM     44  C   UNL A   1      43.514  26.115  27.083  1.00  0.00     0.049 A 
ATOM     45  N   UNL A   1      46.333  27.110  26.787  1.00  0.00    -0.248 NA
ATOM     46  C   UNL A   1      46.927  25.040  25.885  1.00  0.00     0.031 C 
ATOM     47  C   UNL A   1      42.138  25.664  27.300  1.00  0.00     0.029 A 
ATOM     48  N   UNL A   1      43.517  27.409  27.542  1.00  0.00    -0.354 N 
ATOM     49  C   UNL A   1      47.693  27.102  26.507  1.00  0.00     0.074 A 
ATOM     50  C   UNL A   1      48.015  25.792  25.986  1.00  0.00     0.031 C 
ATOM     51  C   UNL A   1      41.434  26.663  27.861  1.00  0.00     0.029 A 
ATOM     52  C   UNL A   1      42.311  27.814  28.060  1.00  0.00     0.049 A 
ATOM     53  H   UNL A   1      44.311  27.991  27.504  1.00  0.00     0.167 HD
ATOM     54  C   UNL A   1      48.590  28.105  26.648  1.00  0.00     0.034 A 
ATOM     55  C   UNL A   1      41.952  28.979  28.638  1.00  0.00     0.034 A 
ATOM     56  C   UNL A   1      48.263  29.422  27.120  1.00  0.00     0.049 A 
ATOM     57  C   UNL A   1      42.960  30.088  28.751  1.00  0.00     0.074 A 
ATOM     58  C   UNL A   1      49.094  30.523  27.225  1.00  0.00     0.029 A 
ATOM     59  N   UNL A   1      47.012  29.816  27.564  1.00  0.00    -0.354 N 
ATOM     60  N   UNL A   1      44.214  30.100  28.372  1.00  0.00    -0.248 NA
ATOM     61  C   UNL A   1      42.499  31.353  29.345  1.00  0.00     0.031 C 
ATOM     62  C   UNL A   1      48.345  31.584  27.740  1.00  0.00     0.029 A 
ATOM     63  C   UNL A   1      47.048  31.146  27.944  1.00  0.00     0.049 A 
ATOM     64  H   UNL A   1      46.217  29.237  27.602  1.00  0.00     0.167 HD
ATOM     65  C   UNL A   1      44.686  31.377  28.653  1.00  0.00     0.074 A 
ATOM     66  C   UNL A   1      43.580  32.116  29.226  1.00  0.00     0.031 C 
ATOM     67  C   UNL A   1      45.927  31.885  28.463  1.00  0.00     0.034 A 
BRANCH  54  68
ATOM     68  C   UNL A   1      50.007  27.848  26.224  1.00  0.00     0.023 A 
ATOM     69  C   UNL A   1      50.965  27.525  27.204  1.00  0.00     0.012 A 
ATOM     70  C   UNL A   1      50.362  27.820  24.863  1.00  0.00     0.148 A 
ATOM     71  C   UNL A   1      52.264  27.182  26.835  1.00  0.00     0.002 A 
ATOM     72  C   UNL A   1      51.650  27.448  24.501  1.00  0.00     0.091 A 
ATOM     73  F   UNL A   1      49.432  28.146  23.955  1.00  0.00    -0.205 F 
ATOM     74  C   UNL A   1      52.603  27.132  25.485  1.00  0.00     0.022 A 
BRANCH  72  75
ATOM     75  S   UNL A   1      52.177  27.299  22.791  1.00  0.00     0.127 S 
ATOM     76  O   UNL A   1      52.705  28.638  22.527  1.00  0.00    -0.237 OA
ATOM     77  O   UNL A   1      53.191  26.248  22.874  1.00  0.00    -0.237 OA
ATOM     78  O   UNL A   1      50.987  26.947  22.030  1.00  0.00    -0.744 OA
ENDBRANCH  72  75
ENDBRANCH  54  68
BRANCH  55  79
ATOM     79  C   UNL A   1      40.549  29.167  29.093  1.00  0.00     0.023 A 
ATOM     80  C   UNL A   1      39.557  29.492  28.148  1.00  0.00     0.012 A 
ATOM     81  C   UNL A   1      40.184  28.965  30.438  1.00  0.00     0.148 A 
ATOM     82  C   UNL A   1      38.223  29.625  28.538  1.00  0.00     0.002 A 
ATOM     83  C   UNL A   1      38.848  29.062  30.812  1.00  0.00     0.091 A 
ATOM     84  F   UNL A   1      41.149  28.659  31.316  1.00  0.00    -0.205 F 
ATOM     85  C   UNL A   1      37.868  29.402  29.865  1.00  0.00     0.022 A 
BRANCH  83  86
ATOM     86  S   UNL A   1      38.277  28.690  32.474  1.00  0.00     0.127 S 
ATOM     87  O   UNL A   1      38.534  27.255  32.566  1.00  0.00    -0.237 OA
ATOM     88  O   UNL A   1      39.161  29.527  33.287  1.00  0.00    -0.237 OA
ATOM     89  O   UNL A   1      36.875  29.079  32.509  1.00  0.00    -0.744 OA
ENDBRANCH  83  86
ENDBRANCH  55  79
BRANCH  67  90
ATOM     90  C   UNL A   1      46.178  33.315  28.852  1.00  0.00     0.023 A 
ATOM     91  C   UNL A   1      46.769  33.599  30.098  1.00  0.00     0.012 A 
ATOM     92  C   UNL A   1      45.956  34.357  27.931  1.00  0.00     0.148 A 
ATOM     93  C   UNL A   1      47.128  34.906  30.426  1.00  0.00     0.002 A 
ATOM     94  C   UNL A   1      46.348  35.651  28.251  1.00  0.00     0.091 A 
ATOM     95  F   UNL A   1      45.384  34.059  26.756  1.00  0.00    -0.205 F 
ATOM     96  C   UNL A   1      46.929  35.928  29.499  1.00  0.00     0.022 A 
BRANCH  94  97
ATOM     97  S   UNL A   1      46.208  37.018  27.093  1.00  0.00     0.127 S 
ATOM     98  O   UNL A   1      44.759  37.113  26.920  1.00  0.00    -0.237 OA
ATOM     99  O   UNL A   1      46.807  38.122  27.843  1.00  0.00    -0.237 OA
ATOM    100  O   UNL A   1      46.952  36.618  25.906  1.00  0.00    -0.744 OA
ENDBRANCH  94  97
ENDBRANCH  67  90
ENDBRANCH  41  42
ENDBRANCH  33  36
ENDBRANCH  31  32
ENDBRANCH  30  31
ENDBRANCH   1  30
TORSDOF 17
ENDMDL
MODEL 3
REMARK VINA RESULT:     -12.6      1.779      7.486
REMARK SMILES Cc1cccc2c1[C@H]1c3c(C)cccc3[C@H](CC(=O)NCCCCCCNC(=O)c3ccc(-c4c5nc(c(-c6cccc(S(=O)(=O)[O-])c6F)c6ccc([nH]6)c(-c6cccc(S(=O)(=O)[O-])c6F)c6nc(c(-c7cccc(S(=O)(=O)[O-])c7F)c7ccc4[nH]7)C=C6)C=C5)cc3)C[C@H]1CC2
REMARK SMILES IDX 24 1 23 2 22 3 21 4 20 5 18 6 19 7 17 9 16 10 1 11 2 12 3 13
REMARK SMILES IDX 7 14 4 15 6 16 8 17 5 18 96 19 9 20 94 21 95 22 10 23 15 24
REMARK SMILES IDX 93 25 12 26 11 27 14 28 13 29 25 30 26 31 27 32 28 33 29 35
REMARK SMILES IDX 30 36 31 37 92 38 32 39 91 40 33 41 34 42 35 43 85 44 36 45
REMARK SMILES IDX 90 46 84 47 86 48 37 49 89 50 83 51 82 52 38 54 70 55 50 56
REMARK SMILES IDX 69 57 51 58 54 59 68 60 87 61 52 62 53 63 67 65 88 66 55 67
REMARK SMILES IDX 39 68 40 69 48 70 41 71 43 72 49 73 42 74 44 75 45 76 46 77
REMARK SMILES IDX 47 78 71 79 72 80 80 81 73 82 75 83 81 84 74 85 76 86 77 87
REMARK SMILES IDX 78 88 79 89 56 90 57 91 65 92 58 93 60 94 66 95 59 96 61 97
REMARK SMILES IDX 62 98 63 99 64 100
REMARK H PARENT 20 8 27 34 86 53 54 64
REMARK Flexibility Score: inf
ROOT
ATOM      1  C   UNL A   1      31.425  31.153  25.833  1.00  0.00     0.002 C 
ENDROOT
BRANCH   1   2
ATOM      2  C   UNL A   1      31.734  29.709  25.441  1.00  0.00     0.002 C 
BRANCH   2   3
ATOM      3  C   UNL A   1      33.092  29.479  24.772  1.00  0.00     0.021 C 
BRANCH   3   4
ATOM      4  C   UNL A   1      33.077  28.971  23.340  1.00  0.00     0.116 C 
BRANCH   4   5
ATOM      5  N   UNL A   1      31.886  29.376  22.620  1.00  0.00    -0.356 N 
ATOM      6  C   UNL A   1      30.852  28.629  22.142  1.00  0.00     0.220 C 
ATOM      7  O   UNL A   1      29.848  29.224  21.738  1.00  0.00    -0.275 OA
ATOM      8  H   UNL A   1      31.814  30.343  22.448  1.00  0.00     0.163 HD
BRANCH   6   9
ATOM      9  C   UNL A   1      30.913  27.106  22.121  1.00  0.00     0.108 C 
BRANCH   9  10
ATOM     10  C   UNL A   1      31.998  26.391  22.986  1.00  0.00     0.029 C 
ATOM     11  C   UNL A   1      32.003  20.546  22.580  1.00  0.00     0.044 C 
ATOM     12  C   UNL A   1      33.015  20.934  23.629  1.00  0.00    -0.047 A 
ATOM     13  C   UNL A   1      33.595  19.885  24.363  1.00  0.00     0.004 A 
ATOM     14  C   UNL A   1      33.393  22.268  23.921  1.00  0.00    -0.034 A 
ATOM     15  C   UNL A   1      34.599  20.134  25.292  1.00  0.00     0.001 A 
ATOM     16  C   UNL A   1      34.528  22.493  24.727  1.00  0.00    -0.044 A 
ATOM     17  C   UNL A   1      32.631  23.480  23.397  1.00  0.00     0.053 C 
ATOM     18  C   UNL A   1      35.095  21.425  25.439  1.00  0.00     0.004 A 
ATOM     19  C   UNL A   1      35.249  23.822  24.742  1.00  0.00     0.036 C 
ATOM     20  C   UNL A   1      31.685  24.221  24.382  1.00  0.00    -0.034 A 
ATOM     21  C   UNL A   1      33.679  24.454  22.813  1.00  0.00     0.002 C 
ATOM     22  C   UNL A   1      34.637  24.952  23.907  1.00  0.00     0.009 C 
ATOM     23  C   UNL A   1      30.944  23.601  25.425  1.00  0.00    -0.047 A 
ATOM     24  C   UNL A   1      31.489  25.622  24.201  1.00  0.00    -0.040 A 
ATOM     25  C   UNL A   1      32.939  25.574  22.080  1.00  0.00     0.013 C 
ATOM     26  C   UNL A   1      30.211  24.386  26.340  1.00  0.00     0.004 A 
ATOM     27  C   UNL A   1      30.845  22.119  25.636  1.00  0.00     0.044 C 
ATOM     28  C   UNL A   1      30.814  26.377  25.181  1.00  0.00     0.004 A 
ATOM     29  C   UNL A   1      30.175  25.765  26.242  1.00  0.00     0.001 A 
ENDBRANCH   9  10
ENDBRANCH   6   9
ENDBRANCH   4   5
ENDBRANCH   3   4
ENDBRANCH   2   3
ENDBRANCH   1   2
BRANCH   1  30
ATOM     30  C   UNL A   1      31.920  31.581  27.217  1.00  0.00     0.021 C 
BRANCH  30  31
ATOM     31  C   UNL A   1      33.119  32.524  27.214  1.00  0.00     0.116 C 
BRANCH  31  32
ATOM     32  N   UNL A   1      32.761  33.875  27.612  1.00  0.00    -0.352 N 
ATOM     33  C   UNL A   1      33.236  34.601  28.676  1.00  0.00     0.251 C 
ATOM     34  H   UNL A   1      32.092  34.326  27.047  1.00  0.00     0.163 HD
ATOM     35  O   UNL A   1      32.717  35.667  28.993  1.00  0.00    -0.269 OA
BRANCH  33  36
ATOM     36  C   UNL A   1      34.376  34.070  29.449  1.00  0.00     0.039 A 
ATOM     37  C   UNL A   1      34.132  33.188  30.504  1.00  0.00     0.014 A 
ATOM     38  C   UNL A   1      35.684  34.423  29.098  1.00  0.00     0.014 A 
ATOM     39  C   UNL A   1      35.210  32.615  31.182  1.00  0.00     0.010 A 
ATOM     40  C   UNL A   1      36.755  33.816  29.747  1.00  0.00     0.010 A 
ATOM     41  C   UNL A   1      36.528  32.912  30.798  1.00  0.00    -0.014 A 
BRANCH  41  42
ATOM     42  C   UNL A   1      37.687  32.309  31.497  1.00  0.00     0.031 A 
ATOM     43  C   UNL A   1      38.438  31.181  30.849  1.00  0.00     0.074 A 
ATOM     44  C   UNL A   1      38.016  32.719  32.736  1.00  0.00     0.049 A 
ATOM     45  N   UNL A   1      39.428  30.473  31.326  1.00  0.00    -0.248 NA
ATOM     46  C   UNL A   1      38.014  30.786  29.495  1.00  0.00     0.031 C 
ATOM     47  C   UNL A   1      37.329  33.769  33.491  1.00  0.00     0.029 A 
ATOM     48  N   UNL A   1      38.996  32.280  33.593  1.00  0.00    -0.354 N 
ATOM     49  C   UNL A   1      39.725  29.534  30.348  1.00  0.00     0.074 A 
ATOM     50  C   UNL A   1      38.802  29.747  29.255  1.00  0.00     0.031 C 
ATOM     51  C   UNL A   1      37.902  33.884  34.701  1.00  0.00     0.029 A 
ATOM     52  C   UNL A   1      38.981  32.906  34.816  1.00  0.00     0.049 A 
ATOM     53  H   UNL A   1      39.647  31.582  33.352  1.00  0.00     0.167 HD
ATOM     54  C   UNL A   1      40.698  28.593  30.349  1.00  0.00     0.034 A 
ATOM     55  C   UNL A   1      39.744  32.709  35.910  1.00  0.00     0.034 A 
ATOM     56  C   UNL A   1      41.646  28.411  31.412  1.00  0.00     0.049 A 
ATOM     57  C   UNL A   1      40.839  31.680  35.872  1.00  0.00     0.074 A 
ATOM     58  C   UNL A   1      42.711  27.530  31.465  1.00  0.00     0.029 A 
ATOM     59  N   UNL A   1      41.645  29.116  32.603  1.00  0.00    -0.354 N 
ATOM     60  N   UNL A   1      41.179  30.880  34.891  1.00  0.00    -0.248 NA
ATOM     61  C   UNL A   1      41.672  31.544  37.076  1.00  0.00     0.031 C 
ATOM     62  C   UNL A   1      43.353  27.699  32.695  1.00  0.00     0.029 A 
ATOM     63  C   UNL A   1      42.693  28.691  33.400  1.00  0.00     0.049 A 
ATOM     64  H   UNL A   1      40.996  29.816  32.846  1.00  0.00     0.167 HD
ATOM     65  C   UNL A   1      42.282  30.166  35.347  1.00  0.00     0.074 A 
ATOM     66  C   UNL A   1      42.559  30.634  36.689  1.00  0.00     0.031 C 
ATOM     67  C   UNL A   1      42.991  29.202  34.712  1.00  0.00     0.034 A 
BRANCH  54  68
ATOM     68  C   UNL A   1      40.837  27.723  29.133  1.00  0.00     0.023 A 
ATOM     69  C   UNL A   1      40.003  26.596  29.000  1.00  0.00     0.012 A 
ATOM     70  C   UNL A   1      41.706  28.077  28.085  1.00  0.00     0.148 A 
ATOM     71  C   UNL A   1      40.036  25.826  27.839  1.00  0.00     0.002 A 
ATOM     72  C   UNL A   1      41.713  27.322  26.919  1.00  0.00     0.091 A 
ATOM     73  F   UNL A   1      42.498  29.146  28.247  1.00  0.00    -0.205 F 
ATOM     74  C   UNL A   1      40.881  26.196  26.795  1.00  0.00     0.022 A 
BRANCH  72  75
ATOM     75  S   UNL A   1      42.721  27.740  25.493  1.00  0.00     0.127 S 
ATOM     76  O   UNL A   1      42.068  28.960  25.018  1.00  0.00    -0.237 OA
ATOM     77  O   UNL A   1      44.036  27.947  26.100  1.00  0.00    -0.237 OA
ATOM     78  O   UNL A   1      42.633  26.603  24.588  1.00  0.00    -0.744 OA
ENDBRANCH  72  75
ENDBRANCH  54  68
BRANCH  55  79
ATOM     79  C   UNL A   1      39.531  33.559  37.112  1.00  0.00     0.023 A 
ATOM     80  C   UNL A   1      38.597  33.154  38.084  1.00  0.00     0.012 A 
ATOM     81  C   UNL A   1      40.289  34.727  37.324  1.00  0.00     0.148 A 
ATOM     82  C   UNL A   1      38.412  33.905  39.246  1.00  0.00     0.002 A 
ATOM     83  C   UNL A   1      40.128  35.449  38.501  1.00  0.00     0.091 A 
ATOM     84  F   UNL A   1      41.168  35.091  36.381  1.00  0.00    -0.205 F 
ATOM     85  C   UNL A   1      39.182  35.045  39.458  1.00  0.00     0.022 A 
BRANCH  83  86
ATOM     86  S   UNL A   1      41.144  36.871  38.914  1.00  0.00     0.127 S 
ATOM     87  O   UNL A   1      40.151  37.940  38.981  1.00  0.00    -0.237 OA
ATOM     88  O   UNL A   1      41.706  36.470  40.204  1.00  0.00    -0.237 OA
ATOM     89  O   UNL A   1      42.119  36.989  37.839  1.00  0.00    -0.744 OA
ENDBRANCH  83  86
ENDBRANCH  55  79
BRANCH  67  90
ATOM     90  C   UNL A   1      44.156  28.584  35.433  1.00  0.00     0.023 A 
ATOM     91  C   UNL A   1      45.442  29.130  35.262  1.00  0.00     0.012 A 
ATOM     92  C   UNL A   1      43.953  27.559  36.377  1.00  0.00     0.148 A 
ATOM     93  C   UNL A   1      46.515  28.657  36.018  1.00  0.00     0.002 A 
ATOM     94  C   UNL A   1      45.019  27.117  37.150  1.00  0.00     0.091 A 
ATOM     95  F   UNL A   1      42.720  27.052  36.512  1.00  0.00    -0.205 F 
ATOM     96  C   UNL A   1      46.301  27.661  36.968  1.00  0.00     0.022 A 
BRANCH  94  97
ATOM     97  S   UNL A   1      44.826  25.896  38.455  1.00  0.00     0.127 S 
ATOM     98  O   UNL A   1      43.851  26.547  39.328  1.00  0.00    -0.237 OA
ATOM     99  O   UNL A   1      44.314  24.738  37.723  1.00  0.00    -0.237 OA
ATOM    100  O   UNL A   1      46.152  25.711  39.032  1.00  0.00    -0.744 OA
ENDBRANCH  94  97
ENDBRANCH  67  90
ENDBRANCH  41  42
ENDBRANCH  33  36
ENDBRANCH  31  32
ENDBRANCH  30  31
ENDBRANCH   1  30
TORSDOF 17
ENDMDL
