MODEL 1
REMARK VINA RESULT:     -11.4      0.000      0.000
REMARK SMILES N#Cc1ccn2cc(C(=O)NCCCCCCNC(=O)c3ccc(-c4c5nc(c(-c6cccc(S(=O)(=O)[O-])c6F)c6ccc([nH]6)c(-c6cccc(S(=O)(=O)[O-])c6F)c6nc(c(-c7cccc(S(=O)(=O)[O-])c7F)c7ccc4[nH]7)C=C6)C=C5)cc3)nc2c1
REMARK SMILES IDX 15 1 14 2 13 3 12 4 11 5 9 6 10 7 8 9 3 10 4 11 86 12 5 13
REMARK SMILES IDX 85 14 6 15 84 16 7 17 2 18 1 19 16 20 17 21 18 22 19 23
REMARK SMILES IDX 20 25 21 26 22 27 83 28 23 29 82 30 24 31 25 32 26 33 76 34
REMARK SMILES IDX 27 35 81 36 75 37 77 38 28 39 80 40 74 41 73 42 29 44 61 45
REMARK SMILES IDX 41 46 60 47 42 48 45 49 59 50 78 51 43 52 44 53 58 55 79 56
REMARK SMILES IDX 46 57 30 58 31 59 39 60 32 61 34 62 40 63 33 64 35 65 36 66
REMARK SMILES IDX 37 67 38 68 62 69 63 70 71 71 64 72 66 73 72 74 65 75 67 76
REMARK SMILES IDX 68 77 69 78 70 79 47 80 48 81 56 82 49 83 51 84 57 85 50 86
REMARK SMILES IDX 52 87 53 88 54 89 55 90
REMARK H PARENT 11 8 18 24 77 43 45 54
REMARK Flexibility Score: inf
ROOT
ATOM      1  C   UNL A   1      32.373  28.559  27.544  1.00  0.00     0.002 C 
ENDROOT
BRANCH   1   2
ATOM      2  C   UNL A   1      31.488  27.706  26.626  1.00  0.00     0.002 C 
BRANCH   2   3
ATOM      3  C   UNL A   1      31.823  27.805  25.134  1.00  0.00     0.021 C 
BRANCH   3   4
ATOM      4  C   UNL A   1      33.163  27.170  24.767  1.00  0.00     0.116 C 
BRANCH   4   5
ATOM      5  N   UNL A   1      33.292  27.017  23.326  1.00  0.00    -0.351 N 
ATOM      6  C   UNL A   1      33.522  25.909  22.552  1.00  0.00     0.271 C 
ATOM      7  O   UNL A   1      33.618  26.069  21.327  1.00  0.00    -0.267 OA
ATOM      8  H   UNL A   1      33.199  27.855  22.818  1.00  0.00     0.163 HD
BRANCH   6   9
ATOM      9  C   UNL A   1      33.630  24.575  23.147  1.00  0.00     0.147 A 
ATOM     10  C   UNL A   1      33.309  20.344  24.599  1.00  0.00     0.057 A 
ATOM     11  C   UNL A   1      34.728  20.557  24.884  1.00  0.00     0.038 A 
ATOM     12  C   UNL A   1      32.541  21.317  24.074  1.00  0.00     0.067 A 
ATOM     13  C   UNL A   1      35.277  21.752  24.599  1.00  0.00     0.094 A 
ATOM     14  C   UNL A   1      33.124  22.579  23.781  1.00  0.00     0.138 A 
ATOM     15  N   UNL A   1      34.475  22.748  24.047  1.00  0.00    -0.306 N 
ATOM     16  N   UNL A   1      32.597  23.666  23.277  1.00  0.00    -0.223 NA
ATOM     17  C   UNL A   1      34.795  24.019  23.654  1.00  0.00     0.127 A 
BRANCH  10  18
ATOM     18  C   UNL A   1      32.696  18.993  24.926  1.00  0.00     0.099 C 
ATOM     19  N   UNL A   1      32.186  17.871  25.198  1.00  0.00    -0.192 NA
ENDBRANCH  10  18
ENDBRANCH   6   9
ENDBRANCH   4   5
ENDBRANCH   3   4
ENDBRANCH   2   3
ENDBRANCH   1   2
BRANCH   1  20
ATOM     20  C   UNL A   1      32.524  30.029  27.132  1.00  0.00     0.021 C 
BRANCH  20  21
ATOM     21  C   UNL A   1      33.938  30.593  27.299  1.00  0.00     0.116 C 
BRANCH  21  22
ATOM     22  N   UNL A   1      34.022  31.633  28.303  1.00  0.00    -0.352 N 
ATOM     23  C   UNL A   1      34.970  32.027  29.207  1.00  0.00     0.251 C 
ATOM     24  H   UNL A   1      33.209  32.186  28.345  1.00  0.00     0.163 HD
ATOM     25  O   UNL A   1      34.697  33.038  29.860  1.00  0.00    -0.269 OA
BRANCH  23  26
ATOM     26  C   UNL A   1      36.252  31.316  29.477  1.00  0.00     0.039 A 
ATOM     27  C   UNL A   1      37.526  31.850  29.291  1.00  0.00     0.014 A 
ATOM     28  C   UNL A   1      36.147  29.974  29.891  1.00  0.00     0.014 A 
ATOM     29  C   UNL A   1      38.655  31.049  29.428  1.00  0.00     0.010 A 
ATOM     30  C   UNL A   1      37.277  29.172  30.047  1.00  0.00     0.010 A 
ATOM     31  C   UNL A   1      38.532  29.701  29.765  1.00  0.00    -0.014 A 
BRANCH  31  32
ATOM     32  C   UNL A   1      39.760  28.912  29.775  1.00  0.00     0.031 A 
ATOM     33  C   UNL A   1      40.429  28.716  31.092  1.00  0.00     0.074 A 
ATOM     34  C   UNL A   1      40.313  28.366  28.675  1.00  0.00     0.049 A 
ATOM     35  N   UNL A   1      41.536  29.245  31.511  1.00  0.00    -0.248 NA
ATOM     36  C   UNL A   1      39.745  27.877  32.083  1.00  0.00     0.031 C 
ATOM     37  C   UNL A   1      39.726  28.176  27.347  1.00  0.00     0.029 A 
ATOM     38  N   UNL A   1      41.531  27.765  28.566  1.00  0.00    -0.354 N 
ATOM     39  C   UNL A   1      41.792  28.658  32.749  1.00  0.00     0.074 A 
ATOM     40  C   UNL A   1      40.607  27.912  33.100  1.00  0.00     0.031 C 
ATOM     41  C   UNL A   1      40.486  27.299  26.653  1.00  0.00     0.029 A 
ATOM     42  C   UNL A   1      41.682  27.001  27.421  1.00  0.00     0.049 A 
ATOM     43  H   UNL A   1      42.241  27.865  29.241  1.00  0.00     0.167 HD
ATOM     44  C   UNL A   1      43.020  28.670  33.338  1.00  0.00     0.034 A 
ATOM     45  C   UNL A   1      42.689  26.133  27.176  1.00  0.00     0.034 A 
ATOM     46  C   UNL A   1      43.931  29.596  32.732  1.00  0.00     0.049 A 
ATOM     47  C   UNL A   1      43.839  26.543  28.017  1.00  0.00     0.074 A 
ATOM     48  C   UNL A   1      43.964  30.960  32.526  1.00  0.00     0.029 A 
ATOM     49  N   UNL A   1      44.915  29.077  31.928  1.00  0.00    -0.354 N 
ATOM     50  N   UNL A   1      44.512  27.647  27.851  1.00  0.00    -0.248 NA
ATOM     51  C   UNL A   1      44.048  25.866  29.285  1.00  0.00     0.031 C 
ATOM     52  C   UNL A   1      44.612  31.126  31.266  1.00  0.00     0.029 A 
ATOM     53  C   UNL A   1      44.940  29.852  30.799  1.00  0.00     0.049 A 
ATOM     54  H   UNL A   1      45.491  28.303  32.124  1.00  0.00     0.167 HD
ATOM     55  C   UNL A   1      44.906  28.016  29.129  1.00  0.00     0.074 A 
ATOM     56  C   UNL A   1      44.696  26.827  29.947  1.00  0.00     0.031 C 
ATOM     57  C   UNL A   1      45.102  29.325  29.462  1.00  0.00     0.034 A 
BRANCH  44  58
ATOM     58  C   UNL A   1      43.501  27.625  34.305  1.00  0.00     0.023 A 
ATOM     59  C   UNL A   1      43.905  28.029  35.595  1.00  0.00     0.012 A 
ATOM     60  C   UNL A   1      43.805  26.305  33.911  1.00  0.00     0.148 A 
ATOM     61  C   UNL A   1      44.576  27.152  36.456  1.00  0.00     0.002 A 
ATOM     62  C   UNL A   1      44.403  25.416  34.796  1.00  0.00     0.091 A 
ATOM     63  F   UNL A   1      43.628  25.941  32.633  1.00  0.00    -0.205 F 
ATOM     64  C   UNL A   1      44.809  25.839  36.063  1.00  0.00     0.022 A 
BRANCH  62  65
ATOM     65  S   UNL A   1      44.659  23.698  34.342  1.00  0.00     0.127 S 
ATOM     66  O   UNL A   1      43.341  23.335  33.823  1.00  0.00    -0.237 OA
ATOM     67  O   UNL A   1      45.713  23.803  33.329  1.00  0.00    -0.237 OA
ATOM     68  O   UNL A   1      45.080  23.049  35.571  1.00  0.00    -0.744 OA
ENDBRANCH  62  65
ENDBRANCH  44  58
BRANCH  45  69
ATOM     69  C   UNL A   1      42.654  24.824  26.482  1.00  0.00     0.023 A 
ATOM     70  C   UNL A   1      43.740  24.458  25.662  1.00  0.00     0.012 A 
ATOM     71  C   UNL A   1      41.728  23.821  26.847  1.00  0.00     0.148 A 
ATOM     72  C   UNL A   1      43.931  23.129  25.266  1.00  0.00     0.002 A 
ATOM     73  C   UNL A   1      41.914  22.504  26.438  1.00  0.00     0.091 A 
ATOM     74  F   UNL A   1      40.724  24.131  27.677  1.00  0.00    -0.205 F 
ATOM     75  C   UNL A   1      43.024  22.150  25.662  1.00  0.00     0.022 A 
BRANCH  73  76
ATOM     76  S   UNL A   1      40.776  21.196  26.918  1.00  0.00     0.127 S 
ATOM     77  O   UNL A   1      39.522  21.636  26.304  1.00  0.00    -0.237 OA
ATOM     78  O   UNL A   1      41.381  20.022  26.297  1.00  0.00    -0.237 OA
ATOM     79  O   UNL A   1      40.757  21.212  28.375  1.00  0.00    -0.744 OA
ENDBRANCH  73  76
ENDBRANCH  45  69
BRANCH  57  80
ATOM     80  C   UNL A   1      45.157  30.344  28.355  1.00  0.00     0.023 A 
ATOM     81  C   UNL A   1      43.981  30.837  27.751  1.00  0.00     0.012 A 
ATOM     82  C   UNL A   1      46.386  30.959  28.059  1.00  0.00     0.148 A 
ATOM     83  C   UNL A   1      44.033  31.910  26.857  1.00  0.00     0.002 A 
ATOM     84  C   UNL A   1      46.429  32.050  27.199  1.00  0.00     0.091 A 
ATOM     85  F   UNL A   1      47.491  30.487  28.657  1.00  0.00    -0.205 F 
ATOM     86  C   UNL A   1      45.255  32.525  26.590  1.00  0.00     0.022 A 
BRANCH  84  87
ATOM     87  S   UNL A   1      47.942  32.970  26.901  1.00  0.00     0.127 S 
ATOM     88  O   UNL A   1      48.865  31.916  26.487  1.00  0.00    -0.237 OA
ATOM     89  O   UNL A   1      47.544  33.888  25.833  1.00  0.00    -0.237 OA
ATOM     90  O   UNL A   1      48.269  33.627  28.160  1.00  0.00    -0.744 OA
ENDBRANCH  84  87
ENDBRANCH  57  80
ENDBRANCH  31  32
ENDBRANCH  23  26
ENDBRANCH  21  22
ENDBRANCH  20  21
ENDBRANCH   1  20
TORSDOF 17
ENDMDL
MODEL 2
REMARK VINA RESULT:     -11.2      3.096      8.902
REMARK SMILES N#Cc1ccn2cc(C(=O)NCCCCCCNC(=O)c3ccc(-c4c5nc(c(-c6cccc(S(=O)(=O)[O-])c6F)c6ccc([nH]6)c(-c6cccc(S(=O)(=O)[O-])c6F)c6nc(c(-c7cccc(S(=O)(=O)[O-])c7F)c7ccc4[nH]7)C=C6)C=C5)cc3)nc2c1
REMARK SMILES IDX 15 1 14 2 13 3 12 4 11 5 9 6 10 7 8 9 3 10 4 11 86 12 5 13
REMARK SMILES IDX 85 14 6 15 84 16 7 17 2 18 1 19 16 20 17 21 18 22 19 23
REMARK SMILES IDX 20 25 21 26 22 27 83 28 23 29 82 30 24 31 25 32 26 33 76 34
REMARK SMILES IDX 27 35 81 36 75 37 77 38 28 39 80 40 74 41 73 42 29 44 61 45
REMARK SMILES IDX 41 46 60 47 42 48 45 49 59 50 78 51 43 52 44 53 58 55 79 56
REMARK SMILES IDX 46 57 30 58 31 59 39 60 32 61 34 62 40 63 33 64 35 65 36 66
REMARK SMILES IDX 37 67 38 68 62 69 63 70 71 71 64 72 66 73 72 74 65 75 67 76
REMARK SMILES IDX 68 77 69 78 70 79 47 80 48 81 56 82 49 83 51 84 57 85 50 86
REMARK SMILES IDX 52 87 53 88 54 89 55 90
REMARK H PARENT 11 8 18 24 77 43 45 54
REMARK Flexibility Score: inf
ROOT
ATOM      1  C   UNL A   1      35.571  22.720  23.492  1.00  0.00     0.002 C 
ENDROOT
BRANCH   1   2
ATOM      2  C   UNL A   1      34.508  22.296  24.513  1.00  0.00     0.002 C 
BRANCH   2   3
ATOM      3  C   UNL A   1      33.060  22.531  24.072  1.00  0.00     0.021 C 
BRANCH   3   4
ATOM      4  C   UNL A   1      32.755  23.988  23.733  1.00  0.00     0.116 C 
BRANCH   4   5
ATOM      5  N   UNL A   1      33.104  24.288  22.352  1.00  0.00    -0.351 N 
ATOM      6  C   UNL A   1      32.859  25.392  21.578  1.00  0.00     0.271 C 
ATOM      7  O   UNL A   1      33.249  25.372  20.402  1.00  0.00    -0.267 OA
ATOM      8  H   UNL A   1      33.600  23.572  21.894  1.00  0.00     0.163 HD
BRANCH   6   9
ATOM      9  C   UNL A   1      32.179  26.569  22.125  1.00  0.00     0.147 A 
ATOM     10  C   UNL A   1      29.476  29.890  23.457  1.00  0.00     0.057 A 
ATOM     11  C   UNL A   1      30.556  30.099  24.422  1.00  0.00     0.038 A 
ATOM     12  C   UNL A   1      29.540  28.922  22.524  1.00  0.00     0.067 A 
ATOM     13  C   UNL A   1      31.631  29.289  24.380  1.00  0.00     0.094 A 
ATOM     14  C   UNL A   1      30.679  28.075  22.480  1.00  0.00     0.138 A 
ATOM     15  N   UNL A   1      31.681  28.285  23.417  1.00  0.00    -0.306 N 
ATOM     16  N   UNL A   1      30.974  27.079  21.682  1.00  0.00    -0.223 NA
ATOM     17  C   UNL A   1      32.639  27.335  23.185  1.00  0.00     0.127 A 
BRANCH  10  18
ATOM     18  C   UNL A   1      28.266  30.809  23.508  1.00  0.00     0.099 C 
ATOM     19  N   UNL A   1      27.263  31.571  23.550  1.00  0.00    -0.192 NA
ENDBRANCH  10  18
ENDBRANCH   6   9
ENDBRANCH   4   5
ENDBRANCH   3   4
ENDBRANCH   2   3
ENDBRANCH   1   2
BRANCH   1  20
ATOM     20  C   UNL A   1      37.021  22.402  23.881  1.00  0.00     0.021 C 
BRANCH  20  21
ATOM     21  C   UNL A   1      37.211  22.000  25.346  1.00  0.00     0.116 C 
BRANCH  21  22
ATOM     22  N   UNL A   1      38.506  21.411  25.613  1.00  0.00    -0.352 N 
ATOM     23  C   UNL A   1      39.610  21.789  26.327  1.00  0.00     0.251 C 
ATOM     24  H   UNL A   1      38.620  20.535  25.179  1.00  0.00     0.163 HD
ATOM     25  O   UNL A   1      40.520  20.958  26.383  1.00  0.00    -0.269 OA
BRANCH  23  26
ATOM     26  C   UNL A   1      39.797  23.111  26.989  1.00  0.00     0.039 A 
ATOM     27  C   UNL A   1      38.969  24.221  26.824  1.00  0.00     0.014 A 
ATOM     28  C   UNL A   1      40.947  23.252  27.790  1.00  0.00     0.014 A 
ATOM     29  C   UNL A   1      39.320  25.452  27.368  1.00  0.00     0.010 A 
ATOM     30  C   UNL A   1      41.294  24.480  28.353  1.00  0.00     0.010 A 
ATOM     31  C   UNL A   1      40.502  25.595  28.097  1.00  0.00    -0.014 A 
BRANCH  31  32
ATOM     32  C   UNL A   1      40.846  26.945  28.532  1.00  0.00     0.031 A 
ATOM     33  C   UNL A   1      42.138  27.504  28.044  1.00  0.00     0.074 A 
ATOM     34  C   UNL A   1      40.074  27.694  29.343  1.00  0.00     0.049 A 
ATOM     35  N   UNL A   1      43.224  27.710  28.720  1.00  0.00    -0.248 NA
ATOM     36  C   UNL A   1      42.246  27.814  26.614  1.00  0.00     0.031 C 
ATOM     37  C   UNL A   1      38.674  27.497  29.722  1.00  0.00     0.029 A 
ATOM     38  N   UNL A   1      40.392  28.883  29.929  1.00  0.00    -0.354 N 
ATOM     39  C   UNL A   1      44.099  28.354  27.846  1.00  0.00     0.074 A 
ATOM     40  C   UNL A   1      43.489  28.292  26.539  1.00  0.00     0.031 C 
ATOM     41  C   UNL A   1      38.201  28.642  30.264  1.00  0.00     0.029 A 
ATOM     42  C   UNL A   1      39.298  29.580  30.415  1.00  0.00     0.049 A 
ATOM     43  H   UNL A   1      41.316  29.216  30.002  1.00  0.00     0.167 HD
ATOM     44  C   UNL A   1      45.189  29.054  28.266  1.00  0.00     0.034 A 
ATOM     45  C   UNL A   1      39.303  30.866  30.835  1.00  0.00     0.034 A 
ATOM     46  C   UNL A   1      45.527  28.808  29.637  1.00  0.00     0.049 A 
ATOM     47  C   UNL A   1      40.696  31.199  31.220  1.00  0.00     0.074 A 
ATOM     48  C   UNL A   1      45.889  27.706  30.384  1.00  0.00     0.029 A 
ATOM     49  N   UNL A   1      45.216  29.787  30.549  1.00  0.00    -0.354 N 
ATOM     50  N   UNL A   1      41.320  30.676  32.239  1.00  0.00    -0.248 NA
ATOM     51  C   UNL A   1      41.536  31.889  30.257  1.00  0.00     0.031 C 
ATOM     52  C   UNL A   1      45.305  27.925  31.668  1.00  0.00     0.029 A 
ATOM     53  C   UNL A   1      44.640  29.151  31.616  1.00  0.00     0.049 A 
ATOM     54  H   UNL A   1      45.376  30.754  30.455  1.00  0.00     0.167 HD
ATOM     55  C   UNL A   1      42.649  30.615  31.845  1.00  0.00     0.074 A 
ATOM     56  C   UNL A   1      42.736  31.481  30.674  1.00  0.00     0.031 C 
ATOM     57  C   UNL A   1      43.491  29.659  32.333  1.00  0.00     0.034 A 
BRANCH  44  58
ATOM     58  C   UNL A   1      45.799  30.199  27.507  1.00  0.00     0.023 A 
ATOM     59  C   UNL A   1      47.203  30.331  27.492  1.00  0.00     0.012 A 
ATOM     60  C   UNL A   1      45.037  31.283  27.022  1.00  0.00     0.148 A 
ATOM     61  C   UNL A   1      47.821  31.490  27.007  1.00  0.00     0.002 A 
ATOM     62  C   UNL A   1      45.656  32.400  26.472  1.00  0.00     0.091 A 
ATOM     63  F   UNL A   1      43.710  31.290  27.205  1.00  0.00    -0.205 F 
ATOM     64  C   UNL A   1      47.047  32.518  26.480  1.00  0.00     0.022 A 
BRANCH  62  65
ATOM     65  S   UNL A   1      44.687  33.714  25.727  1.00  0.00     0.127 S 
ATOM     66  O   UNL A   1      45.734  34.558  25.151  1.00  0.00    -0.237 OA
ATOM     67  O   UNL A   1      43.878  32.981  24.749  1.00  0.00    -0.237 OA
ATOM     68  O   UNL A   1      43.922  34.279  26.825  1.00  0.00    -0.744 OA
ENDBRANCH  62  65
ENDBRANCH  44  58
BRANCH  45  69
ATOM     69  C   UNL A   1      38.264  31.910  30.679  1.00  0.00     0.023 A 
ATOM     70  C   UNL A   1      37.914  32.336  29.382  1.00  0.00     0.012 A 
ATOM     71  C   UNL A   1      37.415  32.271  31.749  1.00  0.00     0.148 A 
ATOM     72  C   UNL A   1      36.729  33.044  29.149  1.00  0.00     0.002 A 
ATOM     73  C   UNL A   1      36.245  32.988  31.514  1.00  0.00     0.091 A 
ATOM     74  F   UNL A   1      37.692  31.824  32.981  1.00  0.00    -0.205 F 
ATOM     75  C   UNL A   1      35.890  33.362  30.212  1.00  0.00     0.022 A 
BRANCH  73  76
ATOM     76  S   UNL A   1      35.123  33.428  32.848  1.00  0.00     0.127 S 
ATOM     77  O   UNL A   1      35.054  34.885  32.728  1.00  0.00    -0.237 OA
ATOM     78  O   UNL A   1      33.903  32.725  32.465  1.00  0.00    -0.237 OA
ATOM     79  O   UNL A   1      35.770  32.966  34.069  1.00  0.00    -0.744 OA
ENDBRANCH  73  76
ENDBRANCH  45  69
BRANCH  57  80
ATOM     80  C   UNL A   1      43.037  28.840  33.513  1.00  0.00     0.023 A 
ATOM     81  C   UNL A   1      42.088  27.808  33.368  1.00  0.00     0.012 A 
ATOM     82  C   UNL A   1      43.718  28.976  34.735  1.00  0.00     0.148 A 
ATOM     83  C   UNL A   1      41.811  26.939  34.428  1.00  0.00     0.002 A 
ATOM     84  C   UNL A   1      43.468  28.087  35.773  1.00  0.00     0.091 A 
ATOM     85  F   UNL A   1      44.631  29.954  34.847  1.00  0.00    -0.205 F 
ATOM     86  C   UNL A   1      42.510  27.070  35.626  1.00  0.00     0.022 A 
BRANCH  84  87
ATOM     87  S   UNL A   1      44.412  28.115  37.301  1.00  0.00     0.127 S 
ATOM     88  O   UNL A   1      43.814  27.013  38.051  1.00  0.00    -0.237 OA
ATOM     89  O   UNL A   1      45.775  27.866  36.830  1.00  0.00    -0.237 OA
ATOM     90  O   UNL A   1      44.213  29.441  37.874  1.00  0.00    -0.744 OA
ENDBRANCH  84  87
ENDBRANCH  57  80
ENDBRANCH  31  32
ENDBRANCH  23  26
ENDBRANCH  21  22
ENDBRANCH  20  21
ENDBRANCH   1  20
TORSDOF 17
ENDMDL
MODEL 3
REMARK VINA RESULT:     -11.1      2.409      4.123
REMARK SMILES N#Cc1ccn2cc(C(=O)NCCCCCCNC(=O)c3ccc(-c4c5nc(c(-c6cccc(S(=O)(=O)[O-])c6F)c6ccc([nH]6)c(-c6cccc(S(=O)(=O)[O-])c6F)c6nc(c(-c7cccc(S(=O)(=O)[O-])c7F)c7ccc4[nH]7)C=C6)C=C5)cc3)nc2c1
REMARK SMILES IDX 15 1 14 2 13 3 12 4 11 5 9 6 10 7 8 9 3 10 4 11 86 12 5 13
REMARK SMILES IDX 85 14 6 15 84 16 7 17 2 18 1 19 16 20 17 21 18 22 19 23
REMARK SMILES IDX 20 25 21 26 22 27 83 28 23 29 82 30 24 31 25 32 26 33 76 34
REMARK SMILES IDX 27 35 81 36 75 37 77 38 28 39 80 40 74 41 73 42 29 44 61 45
REMARK SMILES IDX 41 46 60 47 42 48 45 49 59 50 78 51 43 52 44 53 58 55 79 56
REMARK SMILES IDX 46 57 30 58 31 59 39 60 32 61 34 62 40 63 33 64 35 65 36 66
REMARK SMILES IDX 37 67 38 68 62 69 63 70 71 71 64 72 66 73 72 74 65 75 67 76
REMARK SMILES IDX 68 77 69 78 70 79 47 80 48 81 56 82 49 83 51 84 57 85 50 86
REMARK SMILES IDX 52 87 53 88 54 89 55 90
REMARK H PARENT 11 8 18 24 77 43 45 54
REMARK Flexibility Score: inf
ROOT
ATOM      1  C   UNL A   1      33.702  29.873  27.337  1.00  0.00     0.002 C 
ENDROOT
BRANCH   1   2
ATOM      2  C   UNL A   1      34.090  28.467  26.863  1.00  0.00     0.002 C 
BRANCH   2   3
ATOM      3  C   UNL A   1      33.083  27.803  25.918  1.00  0.00     0.021 C 
BRANCH   3   4
ATOM      4  C   UNL A   1      33.598  27.654  24.487  1.00  0.00     0.116 C 
BRANCH   4   5
ATOM      5  N   UNL A   1      33.049  26.463  23.856  1.00  0.00    -0.351 N 
ATOM      6  C   UNL A   1      31.849  26.245  23.231  1.00  0.00     0.271 C 
ATOM      7  O   UNL A   1      31.621  25.106  22.800  1.00  0.00    -0.267 OA
ATOM      8  H   UNL A   1      33.642  25.678  23.883  1.00  0.00     0.163 HD
BRANCH   6   9
ATOM      9  C   UNL A   1      30.874  27.324  23.058  1.00  0.00     0.147 A 
ATOM     10  C   UNL A   1      28.358  30.875  21.977  1.00  0.00     0.057 A 
ATOM     11  C   UNL A   1      27.340  30.107  22.694  1.00  0.00     0.038 A 
ATOM     12  C   UNL A   1      29.620  30.426  21.848  1.00  0.00     0.067 A 
ATOM     13  C   UNL A   1      27.675  28.915  23.221  1.00  0.00     0.094 A 
ATOM     14  C   UNL A   1      29.971  29.171  22.412  1.00  0.00     0.138 A 
ATOM     15  N   UNL A   1      28.982  28.456  23.072  1.00  0.00    -0.306 N 
ATOM     16  N   UNL A   1      31.111  28.528  22.423  1.00  0.00    -0.223 NA
ATOM     17  C   UNL A   1      29.558  27.288  23.492  1.00  0.00     0.127 A 
BRANCH  10  18
ATOM     18  C   UNL A   1      27.972  32.222  21.386  1.00  0.00     0.099 C 
ATOM     19  N   UNL A   1      27.652  33.338  20.895  1.00  0.00    -0.192 NA
ENDBRANCH  10  18
ENDBRANCH   6   9
ENDBRANCH   4   5
ENDBRANCH   3   4
ENDBRANCH   2   3
ENDBRANCH   1   2
BRANCH   1  20
ATOM     20  C   UNL A   1      34.861  30.871  27.457  1.00  0.00     0.021 C 
BRANCH  20  21
ATOM     21  C   UNL A   1      34.448  32.270  27.920  1.00  0.00     0.116 C 
BRANCH  21  22
ATOM     22  N   UNL A   1      34.413  32.406  29.362  1.00  0.00    -0.352 N 
ATOM     23  C   UNL A   1      35.201  31.969  30.391  1.00  0.00     0.251 C 
ATOM     24  H   UNL A   1      33.645  32.936  29.674  1.00  0.00     0.163 HD
ATOM     25  O   UNL A   1      34.879  32.366  31.515  1.00  0.00    -0.269 OA
BRANCH  23  26
ATOM     26  C   UNL A   1      36.360  31.043  30.256  1.00  0.00     0.039 A 
ATOM     27  C   UNL A   1      36.336  29.674  30.525  1.00  0.00     0.014 A 
ATOM     28  C   UNL A   1      37.589  31.627  29.890  1.00  0.00     0.014 A 
ATOM     29  C   UNL A   1      37.511  28.931  30.513  1.00  0.00     0.010 A 
ATOM     30  C   UNL A   1      38.767  30.881  29.859  1.00  0.00     0.010 A 
ATOM     31  C   UNL A   1      38.733  29.539  30.222  1.00  0.00    -0.014 A 
BRANCH  31  32
ATOM     32  C   UNL A   1      39.926  28.708  30.345  1.00  0.00     0.031 A 
ATOM     33  C   UNL A   1      40.608  28.694  31.669  1.00  0.00     0.074 A 
ATOM     34  C   UNL A   1      40.437  27.971  29.339  1.00  0.00     0.049 A 
ATOM     35  N   UNL A   1      41.744  29.232  31.988  1.00  0.00    -0.248 NA
ATOM     36  C   UNL A   1      39.907  28.053  32.788  1.00  0.00     0.031 C 
ATOM     37  C   UNL A   1      39.821  27.599  28.065  1.00  0.00     0.029 A 
ATOM     38  N   UNL A   1      41.628  27.307  29.316  1.00  0.00    -0.354 N 
ATOM     39  C   UNL A   1      41.996  28.838  33.300  1.00  0.00     0.074 A 
ATOM     40  C   UNL A   1      40.787  28.210  33.778  1.00  0.00     0.031 C 
ATOM     41  C   UNL A   1      40.532  26.591  27.511  1.00  0.00     0.029 A 
ATOM     42  C   UNL A   1      41.726  26.366  28.304  1.00  0.00     0.049 A 
ATOM     43  H   UNL A   1      42.353  27.481  29.959  1.00  0.00     0.167 HD
ATOM     44  C   UNL A   1      43.233  28.889  33.868  1.00  0.00     0.034 A 
ATOM     45  C   UNL A   1      42.692  25.426  28.190  1.00  0.00     0.034 A 
ATOM     46  C   UNL A   1      44.172  29.666  33.114  1.00  0.00     0.049 A 
ATOM     47  C   UNL A   1      43.872  25.912  28.944  1.00  0.00     0.074 A 
ATOM     48  C   UNL A   1      44.258  30.977  32.694  1.00  0.00     0.029 A 
ATOM     49  N   UNL A   1      45.120  28.983  32.393  1.00  0.00    -0.354 N 
ATOM     50  N   UNL A   1      44.588  26.946  28.598  1.00  0.00    -0.248 NA
ATOM     51  C   UNL A   1      44.074  25.436  30.302  1.00  0.00     0.031 C 
ATOM     52  C   UNL A   1      44.892  30.914  31.417  1.00  0.00     0.029 A 
ATOM     53  C   UNL A   1      45.158  29.568  31.155  1.00  0.00     0.049 A 
ATOM     54  H   UNL A   1      45.665  28.225  32.703  1.00  0.00     0.167 HD
ATOM     55  C   UNL A   1      45.018  27.494  29.798  1.00  0.00     0.074 A 
ATOM     56  C   UNL A   1      44.773  26.460  30.797  1.00  0.00     0.031 C 
ATOM     57  C   UNL A   1      45.275  28.830  29.917  1.00  0.00     0.034 A 
BRANCH  44  58
ATOM     58  C   UNL A   1      43.686  27.990  34.984  1.00  0.00     0.023 A 
ATOM     59  C   UNL A   1      44.289  28.569  36.120  1.00  0.00     0.012 A 
ATOM     60  C   UNL A   1      43.767  26.588  34.847  1.00  0.00     0.148 A 
ATOM     61  C   UNL A   1      44.937  27.784  37.081  1.00  0.00     0.002 A 
ATOM     62  C   UNL A   1      44.346  25.807  35.840  1.00  0.00     0.091 A 
ATOM     63  F   UNL A   1      43.395  26.015  33.694  1.00  0.00    -0.205 F 
ATOM     64  C   UNL A   1      44.950  26.400  36.950  1.00  0.00     0.022 A 
BRANCH  62  65
ATOM     65  S   UNL A   1      44.322  24.015  35.732  1.00  0.00     0.127 S 
ATOM     66  O   UNL A   1      42.897  23.755  35.532  1.00  0.00    -0.237 OA
ATOM     67  O   UNL A   1      45.166  23.767  34.560  1.00  0.00    -0.237 OA
ATOM     68  O   UNL A   1      44.900  23.561  36.985  1.00  0.00    -0.744 OA
ENDBRANCH  62  65
ENDBRANCH  44  58
BRANCH  45  69
ATOM     69  C   UNL A   1      42.591  24.027  27.714  1.00  0.00     0.023 A 
ATOM     70  C   UNL A   1      41.413  23.299  27.978  1.00  0.00     0.012 A 
ATOM     71  C   UNL A   1      43.495  23.506  26.761  1.00  0.00     0.148 A 
ATOM     72  C   UNL A   1      41.116  22.125  27.276  1.00  0.00     0.002 A 
ATOM     73  C   UNL A   1      43.202  22.330  26.076  1.00  0.00     0.091 A 
ATOM     74  F   UNL A   1      44.590  24.211  26.446  1.00  0.00    -0.205 F 
ATOM     75  C   UNL A   1      42.005  21.646  26.318  1.00  0.00     0.022 A 
BRANCH  73  76
ATOM     76  S   UNL A   1      44.312  21.662  24.828  1.00  0.00     0.127 S 
ATOM     77  O   UNL A   1      45.605  21.696  25.513  1.00  0.00    -0.237 OA
ATOM     78  O   UNL A   1      43.766  20.325  24.619  1.00  0.00    -0.237 OA
ATOM     79  O   UNL A   1      44.219  22.575  23.696  1.00  0.00    -0.744 OA
ENDBRANCH  73  76
ENDBRANCH  45  69
BRANCH  57  80
ATOM     80  C   UNL A   1      45.355  29.658  28.661  1.00  0.00     0.023 A 
ATOM     81  C   UNL A   1      44.197  29.994  27.930  1.00  0.00     0.012 A 
ATOM     82  C   UNL A   1      46.576  30.268  28.328  1.00  0.00     0.148 A 
ATOM     83  C   UNL A   1      44.259  30.909  26.875  1.00  0.00     0.002 A 
ATOM     84  C   UNL A   1      46.627  31.207  27.304  1.00  0.00     0.091 A 
ATOM     85  F   UNL A   1      47.662  29.948  29.048  1.00  0.00    -0.205 F 
ATOM     86  C   UNL A   1      45.471  31.525  26.570  1.00  0.00     0.022 A 
BRANCH  84  87
ATOM     87  S   UNL A   1      48.121  32.131  26.931  1.00  0.00     0.127 S 
ATOM     88  O   UNL A   1      48.436  32.738  28.223  1.00  0.00    -0.237 OA
ATOM     89  O   UNL A   1      49.044  31.076  26.511  1.00  0.00    -0.237 OA
ATOM     90  O   UNL A   1      47.763  33.067  25.872  1.00  0.00    -0.744 OA
ENDBRANCH  84  87
ENDBRANCH  57  80
ENDBRANCH  31  32
ENDBRANCH  23  26
ENDBRANCH  21  22
ENDBRANCH  20  21
ENDBRANCH   1  20
TORSDOF 17
ENDMDL
