MODEL 1
REMARK VINA RESULT:     -11.3      0.000      0.000
REMARK SMILES O=C(CSc1nc2cnccc2n1CCC(F)(F)F)NCCCCCCNC(=O)c1ccc(-c2c3nc(c(-c4cccc(S(=O)(=O)[O-])c4F)c4ccc([nH]4)c(-c4cccc(S(=O)(=O)[O-])c4F)c4nc(c(-c5cccc(S(=O)(=O)[O-])c5F)c5ccc2[nH]5)C=C4)C=C3)cc1
REMARK SMILES IDX 22 1 21 2 20 3 1 4 2 5 3 7 4 8 5 9 6 10 13 11 7 12 12 13
REMARK SMILES IDX 8 14 11 15 9 16 10 17 14 18 15 19 16 20 17 21 18 22 19 23
REMARK SMILES IDX 23 24 24 25 25 26 26 27 27 28 28 29 29 31 30 32 31 33 92 34
REMARK SMILES IDX 32 35 91 36 33 37 34 38 35 39 85 40 36 41 90 42 84 43 86 44
REMARK SMILES IDX 37 45 89 46 83 47 82 48 38 50 70 51 50 52 69 53 51 54 54 55
REMARK SMILES IDX 68 56 87 57 52 58 53 59 67 61 88 62 55 63 39 64 40 65 48 66
REMARK SMILES IDX 41 67 43 68 49 69 42 70 44 71 45 72 46 73 47 74 71 75 72 76
REMARK SMILES IDX 80 77 73 78 75 79 81 80 74 81 76 82 77 83 78 84 79 85 56 86
REMARK SMILES IDX 57 87 65 88 58 89 60 90 66 91 59 92 61 93 62 94 63 95 64 96
REMARK H PARENT 20 6 27 30 86 49 54 60
REMARK Flexibility Score: inf
ROOT
ATOM      1  C   UNL A   1      33.386  21.225  24.170  1.00  0.00     0.021 C 
ENDROOT
BRANCH   1   2
ATOM      2  C   UNL A   1      32.129  21.845  23.543  1.00  0.00     0.116 C 
BRANCH   2   3
ATOM      3  N   UNL A   1      31.712  23.156  24.045  1.00  0.00    -0.355 N 
ATOM      4  O   UNL A   1      32.758  24.277  22.341  1.00  0.00    -0.274 OA
ATOM      5  C   UNL A   1      32.069  24.317  23.360  1.00  0.00     0.230 C 
ATOM      6  H   UNL A   1      31.178  23.217  24.871  1.00  0.00     0.163 HD
BRANCH   5   7
ATOM      7  C   UNL A   1      31.555  25.644  23.910  1.00  0.00     0.178 C 
BRANCH   7   8
ATOM      8  S   UNL A   1      32.177  27.114  23.050  1.00  0.00    -0.078 SA
BRANCH   8   9
ATOM      9  C   UNL A   1      30.936  28.318  23.076  1.00  0.00     0.169 A 
ATOM     10  N   UNL A   1      30.203  28.564  22.007  1.00  0.00    -0.221 NA
ATOM     11  N   UNL A   1      30.824  29.334  24.003  1.00  0.00    -0.318 N 
ATOM     12  C   UNL A   1      29.530  29.734  22.269  1.00  0.00     0.108 A 
ATOM     13  C   UNL A   1      29.778  30.152  23.570  1.00  0.00     0.072 A 
ATOM     14  C   UNL A   1      28.716  30.531  21.455  1.00  0.00     0.141 A 
ATOM     15  C   UNL A   1      29.145  31.271  24.123  1.00  0.00     0.049 A 
ATOM     16  N   UNL A   1      28.118  31.648  21.955  1.00  0.00    -0.262 NA
ATOM     17  C   UNL A   1      28.321  31.969  23.253  1.00  0.00     0.113 A 
BRANCH  11  18
ATOM     18  C   UNL A   1      31.799  29.875  24.939  1.00  0.00     0.134 C 
BRANCH  18  19
ATOM     19  C   UNL A   1      31.705  29.653  26.435  1.00  0.00     0.137 C 
BRANCH  19  20
ATOM     20  C   UNL A   1      31.741  28.203  26.877  1.00  0.00     0.390 C 
ATOM     21  F   UNL A   1      30.759  27.468  26.322  1.00  0.00    -0.171 F 
ATOM     22  F   UNL A   1      32.910  27.630  26.520  1.00  0.00    -0.171 F 
ATOM     23  F   UNL A   1      31.675  28.061  28.217  1.00  0.00    -0.171 F 
ENDBRANCH  19  20
ENDBRANCH  18  19
ENDBRANCH  11  18
ENDBRANCH   8   9
ENDBRANCH   7   8
ENDBRANCH   5   7
ENDBRANCH   2   3
ENDBRANCH   1   2
BRANCH   1  24
ATOM     24  C   UNL A   1      34.457  22.182  24.707  1.00  0.00     0.002 C 
BRANCH  24  25
ATOM     25  C   UNL A   1      35.611  22.551  23.764  1.00  0.00     0.002 C 
BRANCH  25  26
ATOM     26  C   UNL A   1      37.020  22.753  24.337  1.00  0.00     0.021 C 
BRANCH  26  27
ATOM     27  C   UNL A   1      37.400  21.895  25.542  1.00  0.00     0.116 C 
BRANCH  27  28
ATOM     28  N   UNL A   1      38.804  21.540  25.585  1.00  0.00    -0.352 N 
ATOM     29  C   UNL A   1      39.894  21.986  26.283  1.00  0.00     0.251 C 
ATOM     30  H   UNL A   1      39.026  20.807  24.968  1.00  0.00     0.163 HD
ATOM     31  O   UNL A   1      40.883  21.250  26.242  1.00  0.00    -0.269 OA
BRANCH  29  32
ATOM     32  C   UNL A   1      39.993  23.283  27.009  1.00  0.00     0.039 A 
ATOM     33  C   UNL A   1      39.183  24.395  26.786  1.00  0.00     0.014 A 
ATOM     34  C   UNL A   1      41.084  23.413  27.894  1.00  0.00     0.014 A 
ATOM     35  C   UNL A   1      39.511  25.625  27.355  1.00  0.00     0.010 A 
ATOM     36  C   UNL A   1      41.411  24.638  28.467  1.00  0.00     0.010 A 
ATOM     37  C   UNL A   1      40.658  25.761  28.145  1.00  0.00    -0.014 A 
BRANCH  37  38
ATOM     38  C   UNL A   1      41.021  27.104  28.593  1.00  0.00     0.031 A 
ATOM     39  C   UNL A   1      42.341  27.612  28.125  1.00  0.00     0.074 A 
ATOM     40  C   UNL A   1      40.233  27.880  29.366  1.00  0.00     0.049 A 
ATOM     41  N   UNL A   1      43.416  27.794  28.825  1.00  0.00    -0.248 NA
ATOM     42  C   UNL A   1      42.513  27.844  26.685  1.00  0.00     0.031 C 
ATOM     43  C   UNL A   1      38.826  27.689  29.730  1.00  0.00     0.029 A 
ATOM     44  N   UNL A   1      40.528  29.090  29.921  1.00  0.00    -0.354 N 
ATOM     45  C   UNL A   1      44.345  28.357  27.953  1.00  0.00     0.074 A 
ATOM     46  C   UNL A   1      43.785  28.243  26.628  1.00  0.00     0.031 C 
ATOM     47  C   UNL A   1      38.332  28.846  30.229  1.00  0.00     0.029 A 
ATOM     48  C   UNL A   1      39.419  29.797  30.368  1.00  0.00     0.049 A 
ATOM     49  H   UNL A   1      41.448  29.432  29.999  1.00  0.00     0.167 HD
ATOM     50  C   UNL A   1      45.431  29.056  28.383  1.00  0.00     0.034 A 
ATOM     51  C   UNL A   1      39.406  31.094  30.759  1.00  0.00     0.034 A 
ATOM     52  C   UNL A   1      45.703  28.867  29.779  1.00  0.00     0.049 A 
ATOM     53  C   UNL A   1      40.787  31.428  31.180  1.00  0.00     0.074 A 
ATOM     54  C   UNL A   1      46.028  27.792  30.581  1.00  0.00     0.029 A 
ATOM     55  N   UNL A   1      45.305  29.863  30.636  1.00  0.00    -0.354 N 
ATOM     56  N   UNL A   1      41.379  30.896  32.213  1.00  0.00    -0.248 NA
ATOM     57  C   UNL A   1      41.662  32.080  30.221  1.00  0.00     0.031 C 
ATOM     58  C   UNL A   1      45.342  28.031  31.808  1.00  0.00     0.029 A 
ATOM     59  C   UNL A   1      44.673  29.250  31.684  1.00  0.00     0.049 A 
ATOM     60  H   UNL A   1      45.448  30.830  30.518  1.00  0.00     0.167 HD
ATOM     61  C   UNL A   1      42.705  30.766  31.826  1.00  0.00     0.074 A 
ATOM     62  C   UNL A   1      42.838  31.607  30.640  1.00  0.00     0.031 C 
ATOM     63  C   UNL A   1      43.496  29.778  32.336  1.00  0.00     0.034 A 
BRANCH  50  64
ATOM     64  C   UNL A   1      46.069  30.172  27.605  1.00  0.00     0.023 A 
ATOM     65  C   UNL A   1      47.476  30.257  27.565  1.00  0.00     0.012 A 
ATOM     66  C   UNL A   1      45.335  31.283  27.133  1.00  0.00     0.148 A 
ATOM     67  C   UNL A   1      48.122  31.398  27.076  1.00  0.00     0.002 A 
ATOM     68  C   UNL A   1      45.981  32.384  26.585  1.00  0.00     0.091 A 
ATOM     69  F   UNL A   1      44.013  31.330  27.334  1.00  0.00    -0.205 F 
ATOM     70  C   UNL A   1      47.375  32.457  26.572  1.00  0.00     0.022 A 
BRANCH  68  71
ATOM     71  S   UNL A   1      45.051  33.755  25.892  1.00  0.00     0.127 S 
ATOM     72  O   UNL A   1      44.673  34.488  27.104  1.00  0.00    -0.237 OA
ATOM     73  O   UNL A   1      46.066  34.417  25.065  1.00  0.00    -0.237 OA
ATOM     74  O   UNL A   1      43.974  33.146  25.141  1.00  0.00    -0.744 OA
ENDBRANCH  68  71
ENDBRANCH  50  64
BRANCH  51  75
ATOM     75  C   UNL A   1      38.393  32.148  30.501  1.00  0.00     0.023 A 
ATOM     76  C   UNL A   1      37.922  32.337  29.184  1.00  0.00     0.012 A 
ATOM     77  C   UNL A   1      37.664  32.741  31.556  1.00  0.00     0.148 A 
ATOM     78  C   UNL A   1      36.734  33.034  28.932  1.00  0.00     0.002 A 
ATOM     79  C   UNL A   1      36.488  33.442  31.300  1.00  0.00     0.091 A 
ATOM     80  F   UNL A   1      38.065  32.535  32.817  1.00  0.00    -0.205 F 
ATOM     81  C   UNL A   1      36.010  33.574  29.990  1.00  0.00     0.022 A 
BRANCH  79  82
ATOM     82  S   UNL A   1      35.499  34.159  32.619  1.00  0.00     0.127 S 
ATOM     83  O   UNL A   1      34.419  34.807  31.873  1.00  0.00    -0.237 OA
ATOM     84  O   UNL A   1      35.095  32.977  33.374  1.00  0.00    -0.237 OA
ATOM     85  O   UNL A   1      36.382  35.088  33.315  1.00  0.00    -0.744 OA
ENDBRANCH  79  82
ENDBRANCH  51  75
BRANCH  63  86
ATOM     86  C   UNL A   1      42.965  28.974  33.494  1.00  0.00     0.023 A 
ATOM     87  C   UNL A   1      41.933  28.025  33.323  1.00  0.00     0.012 A 
ATOM     88  C   UNL A   1      43.645  29.029  34.721  1.00  0.00     0.148 A 
ATOM     89  C   UNL A   1      41.581  27.156  34.359  1.00  0.00     0.002 A 
ATOM     90  C   UNL A   1      43.317  28.139  35.737  1.00  0.00     0.091 A 
ATOM     91  F   UNL A   1      44.637  29.922  34.853  1.00  0.00    -0.205 F 
ATOM     92  C   UNL A   1      42.281  27.205  35.561  1.00  0.00     0.022 A 
BRANCH  90  93
ATOM     93  S   UNL A   1      44.244  28.059  37.270  1.00  0.00     0.127 S 
ATOM     94  O   UNL A   1      45.600  27.789  36.795  1.00  0.00    -0.237 OA
ATOM     95  O   UNL A   1      44.046  29.402  37.820  1.00  0.00    -0.237 OA
ATOM     96  O   UNL A   1      43.639  26.993  38.058  1.00  0.00    -0.744 OA
ENDBRANCH  90  93
ENDBRANCH  63  86
ENDBRANCH  37  38
ENDBRANCH  29  32
ENDBRANCH  27  28
ENDBRANCH  26  27
ENDBRANCH  25  26
ENDBRANCH  24  25
ENDBRANCH   1  24
TORSDOF 21
ENDMDL
MODEL 2
REMARK VINA RESULT:     -11.0      3.578      9.604
REMARK SMILES O=C(CSc1nc2cnccc2n1CCC(F)(F)F)NCCCCCCNC(=O)c1ccc(-c2c3nc(c(-c4cccc(S(=O)(=O)[O-])c4F)c4ccc([nH]4)c(-c4cccc(S(=O)(=O)[O-])c4F)c4nc(c(-c5cccc(S(=O)(=O)[O-])c5F)c5ccc2[nH]5)C=C4)C=C3)cc1
REMARK SMILES IDX 22 1 21 2 20 3 1 4 2 5 3 7 4 8 5 9 6 10 13 11 7 12 12 13
REMARK SMILES IDX 8 14 11 15 9 16 10 17 14 18 15 19 16 20 17 21 18 22 19 23
REMARK SMILES IDX 23 24 24 25 25 26 26 27 27 28 28 29 29 31 30 32 31 33 92 34
REMARK SMILES IDX 32 35 91 36 33 37 34 38 35 39 85 40 36 41 90 42 84 43 86 44
REMARK SMILES IDX 37 45 89 46 83 47 82 48 38 50 70 51 50 52 69 53 51 54 54 55
REMARK SMILES IDX 68 56 87 57 52 58 53 59 67 61 88 62 55 63 39 64 40 65 48 66
REMARK SMILES IDX 41 67 43 68 49 69 42 70 44 71 45 72 46 73 47 74 71 75 72 76
REMARK SMILES IDX 80 77 73 78 75 79 81 80 74 81 76 82 77 83 78 84 79 85 56 86
REMARK SMILES IDX 57 87 65 88 58 89 60 90 66 91 59 92 61 93 62 94 63 95 64 96
REMARK H PARENT 20 6 27 30 86 49 54 60
REMARK Flexibility Score: inf
ROOT
ATOM      1  C   UNL A   1      34.503  31.426  27.622  1.00  0.00     0.021 C 
ENDROOT
BRANCH   1   2
ATOM      2  C   UNL A   1      33.230  30.607  27.363  1.00  0.00     0.116 C 
BRANCH   2   3
ATOM      3  N   UNL A   1      33.399  29.293  26.740  1.00  0.00    -0.355 N 
ATOM      4  O   UNL A   1      31.416  28.506  27.577  1.00  0.00    -0.274 OA
ATOM      5  C   UNL A   1      32.423  28.309  26.898  1.00  0.00     0.230 C 
ATOM      6  H   UNL A   1      34.205  29.103  26.207  1.00  0.00     0.163 HD
BRANCH   5   7
ATOM      7  C   UNL A   1      32.638  26.984  26.176  1.00  0.00     0.178 C 
BRANCH   7   8
ATOM      8  S   UNL A   1      31.192  25.890  26.151  1.00  0.00    -0.078 SA
BRANCH   8   9
ATOM      9  C   UNL A   1      31.744  24.275  25.870  1.00  0.00     0.169 A 
ATOM     10  N   UNL A   1      32.763  23.776  26.541  1.00  0.00    -0.221 NA
ATOM     11  N   UNL A   1      31.463  23.515  24.752  1.00  0.00    -0.318 N 
ATOM     12  C   UNL A   1      33.114  22.615  25.894  1.00  0.00     0.108 A 
ATOM     13  C   UNL A   1      32.218  22.345  24.867  1.00  0.00     0.072 A 
ATOM     14  C   UNL A   1      34.194  21.744  26.083  1.00  0.00     0.141 A 
ATOM     15  C   UNL A   1      32.293  21.175  24.105  1.00  0.00     0.049 A 
ATOM     16  N   UNL A   1      34.315  20.615  25.329  1.00  0.00    -0.262 NA
ATOM     17  C   UNL A   1      33.371  20.351  24.398  1.00  0.00     0.113 A 
BRANCH  11  18
ATOM     18  C   UNL A   1      30.967  23.906  23.440  1.00  0.00     0.134 C 
BRANCH  18  19
ATOM     19  C   UNL A   1      31.534  25.081  22.670  1.00  0.00     0.137 C 
BRANCH  19  20
ATOM     20  C   UNL A   1      32.893  24.847  22.040  1.00  0.00     0.390 C 
ATOM     21  F   UNL A   1      33.179  23.539  21.899  1.00  0.00    -0.171 F 
ATOM     22  F   UNL A   1      32.942  25.395  20.807  1.00  0.00    -0.171 F 
ATOM     23  F   UNL A   1      33.897  25.432  22.725  1.00  0.00    -0.171 F 
ENDBRANCH  19  20
ENDBRANCH  18  19
ENDBRANCH  11  18
ENDBRANCH   8   9
ENDBRANCH   7   8
ENDBRANCH   5   7
ENDBRANCH   2   3
ENDBRANCH   1   2
BRANCH   1  24
ATOM     24  C   UNL A   1      34.455  32.477  28.738  1.00  0.00     0.002 C 
BRANCH  24  25
ATOM     25  C   UNL A   1      33.696  33.781  28.448  1.00  0.00     0.002 C 
BRANCH  25  26
ATOM     26  C   UNL A   1      34.200  35.098  29.051  1.00  0.00     0.021 C 
BRANCH  26  27
ATOM     27  C   UNL A   1      33.140  36.057  29.589  1.00  0.00     0.116 C 
BRANCH  27  28
ATOM     28  N   UNL A   1      32.483  35.583  30.790  1.00  0.00    -0.352 N 
ATOM     29  C   UNL A   1      32.906  35.063  31.983  1.00  0.00     0.251 C 
ATOM     30  H   UNL A   1      31.502  35.651  30.735  1.00  0.00     0.163 HD
ATOM     31  O   UNL A   1      32.053  35.024  32.874  1.00  0.00    -0.269 OA
BRANCH  29  32
ATOM     32  C   UNL A   1      34.256  34.498  32.258  1.00  0.00     0.039 A 
ATOM     33  C   UNL A   1      35.420  35.244  32.436  1.00  0.00     0.014 A 
ATOM     34  C   UNL A   1      34.362  33.092  32.199  1.00  0.00     0.014 A 
ATOM     35  C   UNL A   1      36.661  34.610  32.457  1.00  0.00     0.010 A 
ATOM     36  C   UNL A   1      35.599  32.456  32.224  1.00  0.00     0.010 A 
ATOM     37  C   UNL A   1      36.756  33.223  32.289  1.00  0.00    -0.014 A 
BRANCH  37  38
ATOM     38  C   UNL A   1      38.092  32.640  32.179  1.00  0.00     0.031 A 
ATOM     39  C   UNL A   1      38.922  32.676  33.415  1.00  0.00     0.074 A 
ATOM     40  C   UNL A   1      38.577  32.076  31.054  1.00  0.00     0.049 A 
ATOM     41  N   UNL A   1      39.968  33.403  33.648  1.00  0.00    -0.248 NA
ATOM     42  C   UNL A   1      38.468  31.885  34.566  1.00  0.00     0.031 C 
ATOM     43  C   UNL A   1      37.867  31.716  29.823  1.00  0.00     0.029 A 
ATOM     44  N   UNL A   1      39.838  31.609  30.823  1.00  0.00    -0.354 N 
ATOM     45  C   UNL A   1      40.428  33.014  34.904  1.00  0.00     0.074 A 
ATOM     46  C   UNL A   1      39.399  32.178  35.476  1.00  0.00     0.031 C 
ATOM     47  C   UNL A   1      38.639  30.881  29.089  1.00  0.00     0.029 A 
ATOM     48  C   UNL A   1      39.944  30.780  29.713  1.00  0.00     0.049 A 
ATOM     49  H   UNL A   1      40.606  31.840  31.394  1.00  0.00     0.167 HD
ATOM     50  C   UNL A   1      41.702  33.238  35.326  1.00  0.00     0.034 A 
ATOM     51  C   UNL A   1      41.018  30.022  29.385  1.00  0.00     0.034 A 
ATOM     52  C   UNL A   1      42.403  34.190  34.512  1.00  0.00     0.049 A 
ATOM     53  C   UNL A   1      42.197  30.650  30.028  1.00  0.00     0.074 A 
ATOM     54  C   UNL A   1      42.234  35.520  34.190  1.00  0.00     0.029 A 
ATOM     55  N   UNL A   1      43.291  33.693  33.591  1.00  0.00    -0.354 N 
ATOM     56  N   UNL A   1      42.657  31.827  29.707  1.00  0.00    -0.248 NA
ATOM     57  C   UNL A   1      42.646  30.126  31.306  1.00  0.00     0.031 C 
ATOM     58  C   UNL A   1      42.629  35.618  32.823  1.00  0.00     0.029 A 
ATOM     59  C   UNL A   1      43.044  34.349  32.415  1.00  0.00     0.049 A 
ATOM     60  H   UNL A   1      43.974  33.001  33.747  1.00  0.00     0.167 HD
ATOM     61  C   UNL A   1      43.092  32.369  30.908  1.00  0.00     0.074 A 
ATOM     62  C   UNL A   1      43.160  31.241  31.831  1.00  0.00     0.031 C 
ATOM     63  C   UNL A   1      43.091  33.718  31.115  1.00  0.00     0.034 A 
BRANCH  50  64
ATOM     64  C   UNL A   1      42.431  32.352  36.297  1.00  0.00     0.023 A 
ATOM     65  C   UNL A   1      43.176  32.947  37.335  1.00  0.00     0.012 A 
ATOM     66  C   UNL A   1      42.619  30.971  36.068  1.00  0.00     0.148 A 
ATOM     67  C   UNL A   1      44.069  32.199  38.111  1.00  0.00     0.002 A 
ATOM     68  C   UNL A   1      43.454  30.219  36.885  1.00  0.00     0.091 A 
ATOM     69  F   UNL A   1      42.090  30.408  34.975  1.00  0.00    -0.205 F 
ATOM     70  C   UNL A   1      44.197  30.831  37.896  1.00  0.00     0.022 A 
BRANCH  68  71
ATOM     71  S   UNL A   1      43.620  28.446  36.662  1.00  0.00     0.127 S 
ATOM     72  O   UNL A   1      44.342  28.382  35.389  1.00  0.00    -0.237 OA
ATOM     73  O   UNL A   1      44.413  28.069  37.838  1.00  0.00    -0.237 OA
ATOM     74  O   UNL A   1      42.267  27.931  36.666  1.00  0.00    -0.744 OA
ENDBRANCH  68  71
ENDBRANCH  50  64
BRANCH  51  75
ATOM     75  C   UNL A   1      41.068  28.642  28.840  1.00  0.00     0.023 A 
ATOM     76  C   UNL A   1      40.091  27.709  29.248  1.00  0.00     0.012 A 
ATOM     77  C   UNL A   1      41.853  28.327  27.709  1.00  0.00     0.148 A 
ATOM     78  C   UNL A   1      39.858  26.537  28.518  1.00  0.00     0.002 A 
ATOM     79  C   UNL A   1      41.625  27.155  26.992  1.00  0.00     0.091 A 
ATOM     80  F   UNL A   1      42.754  29.217  27.276  1.00  0.00    -0.205 F 
ATOM     81  C   UNL A   1      40.616  26.267  27.382  1.00  0.00     0.022 A 
BRANCH  79  82
ATOM     82  S   UNL A   1      42.560  26.747  25.511  1.00  0.00     0.127 S 
ATOM     83  O   UNL A   1      41.896  25.522  25.059  1.00  0.00    -0.237 OA
ATOM     84  O   UNL A   1      42.323  27.915  24.669  1.00  0.00    -0.237 OA
ATOM     85  O   UNL A   1      43.935  26.549  25.954  1.00  0.00    -0.744 OA
ENDBRANCH  79  82
ENDBRANCH  51  75
BRANCH  63  86
ATOM     86  C   UNL A   1      42.820  34.615  29.935  1.00  0.00     0.023 A 
ATOM     87  C   UNL A   1      41.504  34.905  29.514  1.00  0.00     0.012 A 
ATOM     88  C   UNL A   1      43.890  35.328  29.371  1.00  0.00     0.148 A 
ATOM     89  C   UNL A   1      41.262  35.881  28.543  1.00  0.00     0.002 A 
ATOM     90  C   UNL A   1      43.643  36.323  28.433  1.00  0.00     0.091 A 
ATOM     91  F   UNL A   1      45.130  35.051  29.802  1.00  0.00    -0.205 F 
ATOM     92  C   UNL A   1      42.330  36.598  28.012  1.00  0.00     0.022 A 
BRANCH  90  93
ATOM     93  S   UNL A   1      44.949  37.370  27.787  1.00  0.00     0.127 S 
ATOM     94  O   UNL A   1      44.212  38.270  26.902  1.00  0.00    -0.237 OA
ATOM     95  O   UNL A   1      45.469  37.998  29.003  1.00  0.00    -0.237 OA
ATOM     96  O   UNL A   1      45.892  36.480  27.121  1.00  0.00    -0.744 OA
ENDBRANCH  90  93
ENDBRANCH  63  86
ENDBRANCH  37  38
ENDBRANCH  29  32
ENDBRANCH  27  28
ENDBRANCH  26  27
ENDBRANCH  25  26
ENDBRANCH  24  25
ENDBRANCH   1  24
TORSDOF 21
ENDMDL
MODEL 3
REMARK VINA RESULT:     -11.0      2.303      3.042
REMARK SMILES O=C(CSc1nc2cnccc2n1CCC(F)(F)F)NCCCCCCNC(=O)c1ccc(-c2c3nc(c(-c4cccc(S(=O)(=O)[O-])c4F)c4ccc([nH]4)c(-c4cccc(S(=O)(=O)[O-])c4F)c4nc(c(-c5cccc(S(=O)(=O)[O-])c5F)c5ccc2[nH]5)C=C4)C=C3)cc1
REMARK SMILES IDX 22 1 21 2 20 3 1 4 2 5 3 7 4 8 5 9 6 10 13 11 7 12 12 13
REMARK SMILES IDX 8 14 11 15 9 16 10 17 14 18 15 19 16 20 17 21 18 22 19 23
REMARK SMILES IDX 23 24 24 25 25 26 26 27 27 28 28 29 29 31 30 32 31 33 92 34
REMARK SMILES IDX 32 35 91 36 33 37 34 38 35 39 85 40 36 41 90 42 84 43 86 44
REMARK SMILES IDX 37 45 89 46 83 47 82 48 38 50 70 51 50 52 69 53 51 54 54 55
REMARK SMILES IDX 68 56 87 57 52 58 53 59 67 61 88 62 55 63 39 64 40 65 48 66
REMARK SMILES IDX 41 67 43 68 49 69 42 70 44 71 45 72 46 73 47 74 71 75 72 76
REMARK SMILES IDX 80 77 73 78 75 79 81 80 74 81 76 82 77 83 78 84 79 85 56 86
REMARK SMILES IDX 57 87 65 88 58 89 60 90 66 91 59 92 61 93 62 94 63 95 64 96
REMARK H PARENT 20 6 27 30 86 49 54 60
REMARK Flexibility Score: inf
ROOT
ATOM      1  C   UNL A   1      36.230  22.248  23.866  1.00  0.00     0.021 C 
ENDROOT
BRANCH   1   2
ATOM      2  C   UNL A   1      35.003  21.414  24.263  1.00  0.00     0.116 C 
BRANCH   2   3
ATOM      3  N   UNL A   1      33.867  22.135  24.842  1.00  0.00    -0.355 N 
ATOM      4  O   UNL A   1      33.456  20.493  26.387  1.00  0.00    -0.274 OA
ATOM      5  C   UNL A   1      33.163  21.591  25.916  1.00  0.00     0.230 C 
ATOM      6  H   UNL A   1      33.599  23.007  24.470  1.00  0.00     0.163 HD
BRANCH   5   7
ATOM      7  C   UNL A   1      32.026  22.421  26.503  1.00  0.00     0.178 C 
BRANCH   7   8
ATOM      8  S   UNL A   1      32.431  24.164  26.795  1.00  0.00    -0.078 SA
BRANCH   8   9
ATOM      9  C   UNL A   1      31.717  25.101  25.529  1.00  0.00     0.169 A 
ATOM     10  N   UNL A   1      31.893  24.781  24.262  1.00  0.00    -0.221 NA
ATOM     11  N   UNL A   1      31.242  26.391  25.656  1.00  0.00    -0.318 N 
ATOM     12  C   UNL A   1      31.450  25.858  23.531  1.00  0.00     0.108 A 
ATOM     13  C   UNL A   1      30.891  26.813  24.371  1.00  0.00     0.072 A 
ATOM     14  C   UNL A   1      31.511  26.130  22.159  1.00  0.00     0.141 A 
ATOM     15  C   UNL A   1      30.282  27.971  23.877  1.00  0.00     0.049 A 
ATOM     16  N   UNL A   1      30.961  27.270  21.654  1.00  0.00    -0.262 NA
ATOM     17  C   UNL A   1      30.352  28.130  22.501  1.00  0.00     0.113 A 
BRANCH  11  18
ATOM     18  C   UNL A   1      31.483  27.392  26.685  1.00  0.00     0.134 C 
BRANCH  18  19
ATOM     19  C   UNL A   1      32.489  28.512  26.514  1.00  0.00     0.137 C 
BRANCH  19  20
ATOM     20  C   UNL A   1      33.808  28.106  25.885  1.00  0.00     0.390 C 
ATOM     21  F   UNL A   1      34.801  28.973  26.161  1.00  0.00    -0.171 F 
ATOM     22  F   UNL A   1      34.200  26.900  26.348  1.00  0.00    -0.171 F 
ATOM     23  F   UNL A   1      33.728  27.961  24.547  1.00  0.00    -0.171 F 
ENDBRANCH  19  20
ENDBRANCH  18  19
ENDBRANCH  11  18
ENDBRANCH   8   9
ENDBRANCH   7   8
ENDBRANCH   5   7
ENDBRANCH   2   3
ENDBRANCH   1   2
BRANCH   1  24
ATOM     24  C   UNL A   1      36.573  23.464  24.736  1.00  0.00     0.002 C 
BRANCH  24  25
ATOM     25  C   UNL A   1      37.608  23.263  25.852  1.00  0.00     0.002 C 
BRANCH  25  26
ATOM     26  C   UNL A   1      38.475  21.998  25.862  1.00  0.00     0.021 C 
BRANCH  26  27
ATOM     27  C   UNL A   1      39.769  22.058  26.671  1.00  0.00     0.116 C 
BRANCH  27  28
ATOM     28  N   UNL A   1      40.964  22.114  25.855  1.00  0.00    -0.352 N 
ATOM     29  C   UNL A   1      42.057  22.936  25.794  1.00  0.00     0.251 C 
ATOM     30  H   UNL A   1      40.999  21.391  25.187  1.00  0.00     0.163 HD
ATOM     31  O   UNL A   1      43.007  22.505  25.136  1.00  0.00    -0.269 OA
BRANCH  29  32
ATOM     32  C   UNL A   1      42.156  24.298  26.389  1.00  0.00     0.039 A 
ATOM     33  C   UNL A   1      42.911  24.634  27.512  1.00  0.00     0.014 A 
ATOM     34  C   UNL A   1      41.309  25.279  25.832  1.00  0.00     0.014 A 
ATOM     35  C   UNL A   1      42.751  25.879  28.117  1.00  0.00     0.010 A 
ATOM     36  C   UNL A   1      41.150  26.525  26.431  1.00  0.00     0.010 A 
ATOM     37  C   UNL A   1      41.826  26.801  27.613  1.00  0.00    -0.014 A 
BRANCH  37  38
ATOM     38  C   UNL A   1      41.605  28.029  28.375  1.00  0.00     0.031 A 
ATOM     39  C   UNL A   1      42.558  29.142  28.107  1.00  0.00     0.074 A 
ATOM     40  C   UNL A   1      40.602  28.196  29.262  1.00  0.00     0.049 A 
ATOM     41  N   UNL A   1      43.486  29.598  28.886  1.00  0.00    -0.248 NA
ATOM     42  C   UNL A   1      42.540  29.748  26.769  1.00  0.00     0.031 C 
ATOM     43  C   UNL A   1      39.430  27.347  29.498  1.00  0.00     0.029 A 
ATOM     44  N   UNL A   1      40.382  29.254  30.095  1.00  0.00    -0.354 N 
ATOM     45  C   UNL A   1      44.042  30.686  28.217  1.00  0.00     0.074 A 
ATOM     46  C   UNL A   1      43.517  30.652  26.873  1.00  0.00     0.031 C 
ATOM     47  C   UNL A   1      38.517  28.036  30.221  1.00  0.00     0.029 A 
ATOM     48  C   UNL A   1      39.101  29.298  30.632  1.00  0.00     0.049 A 
ATOM     49  H   UNL A   1      41.071  29.927  30.297  1.00  0.00     0.167 HD
ATOM     50  C   UNL A   1      44.748  31.661  28.852  1.00  0.00     0.034 A 
ATOM     51  C   UNL A   1      38.558  30.339  31.308  1.00  0.00     0.034 A 
ATOM     52  C   UNL A   1      45.145  31.291  30.180  1.00  0.00     0.049 A 
ATOM     53  C   UNL A   1      39.684  31.122  31.867  1.00  0.00     0.074 A 
ATOM     54  C   UNL A   1      45.937  30.306  30.731  1.00  0.00     0.029 A 
ATOM     55  N   UNL A   1      44.405  31.798  31.220  1.00  0.00    -0.354 N 
ATOM     56  N   UNL A   1      40.498  30.671  32.780  1.00  0.00    -0.248 NA
ATOM     57  C   UNL A   1      40.149  32.285  31.130  1.00  0.00     0.031 C 
ATOM     58  C   UNL A   1      45.278  29.941  31.942  1.00  0.00     0.029 A 
ATOM     59  C   UNL A   1      44.148  30.753  32.065  1.00  0.00     0.049 A 
ATOM     60  H   UNL A   1      44.117  32.733  31.334  1.00  0.00     0.167 HD
ATOM     61  C   UNL A   1      41.732  31.210  32.445  1.00  0.00     0.074 A 
ATOM     62  C   UNL A   1      41.434  32.275  31.491  1.00  0.00     0.031 C 
ATOM     63  C   UNL A   1      42.893  30.565  32.757  1.00  0.00     0.034 A 
BRANCH  50  64
ATOM     64  C   UNL A   1      44.810  33.088  28.385  1.00  0.00     0.023 A 
ATOM     65  C   UNL A   1      43.648  33.884  28.469  1.00  0.00     0.012 A 
ATOM     66  C   UNL A   1      45.892  33.592  27.630  1.00  0.00     0.148 A 
ATOM     67  C   UNL A   1      43.570  35.126  27.828  1.00  0.00     0.002 A 
ATOM     68  C   UNL A   1      45.834  34.855  27.054  1.00  0.00     0.091 A 
ATOM     69  F   UNL A   1      46.931  32.794  27.357  1.00  0.00    -0.205 F 
ATOM     70  C   UNL A   1      44.668  35.619  27.133  1.00  0.00     0.022 A 
BRANCH  68  71
ATOM     71  S   UNL A   1      47.243  35.541  26.178  1.00  0.00     0.127 S 
ATOM     72  O   UNL A   1      46.740  36.869  25.818  1.00  0.00    -0.237 OA
ATOM     73  O   UNL A   1      48.275  35.538  27.222  1.00  0.00    -0.237 OA
ATOM     74  O   UNL A   1      47.498  34.626  25.086  1.00  0.00    -0.744 OA
ENDBRANCH  68  71
ENDBRANCH  50  64
BRANCH  51  75
ATOM     75  C   UNL A   1      37.180  30.890  31.244  1.00  0.00     0.023 A 
ATOM     76  C   UNL A   1      36.562  31.328  32.435  1.00  0.00     0.012 A 
ATOM     77  C   UNL A   1      36.599  31.276  30.016  1.00  0.00     0.148 A 
ATOM     78  C   UNL A   1      35.448  32.176  32.403  1.00  0.00     0.002 A 
ATOM     79  C   UNL A   1      35.485  32.110  29.989  1.00  0.00     0.091 A 
ATOM     80  F   UNL A   1      37.195  30.911  28.873  1.00  0.00    -0.205 F 
ATOM     81  C   UNL A   1      34.917  32.577  31.181  1.00  0.00     0.022 A 
BRANCH  79  82
ATOM     82  S   UNL A   1      34.752  32.674  28.446  1.00  0.00     0.127 S 
ATOM     83  O   UNL A   1      34.168  31.440  27.917  1.00  0.00    -0.237 OA
ATOM     84  O   UNL A   1      33.781  33.658  28.913  1.00  0.00    -0.237 OA
ATOM     85  O   UNL A   1      35.858  33.197  27.653  1.00  0.00    -0.744 OA
ENDBRANCH  79  82
ENDBRANCH  51  75
BRANCH  63  86
ATOM     86  C   UNL A   1      42.814  29.369  33.670  1.00  0.00     0.023 A 
ATOM     87  C   UNL A   1      42.342  28.119  33.212  1.00  0.00     0.012 A 
ATOM     88  C   UNL A   1      43.406  29.451  34.941  1.00  0.00     0.148 A 
ATOM     89  C   UNL A   1      42.450  26.978  34.011  1.00  0.00     0.002 A 
ATOM     90  C   UNL A   1      43.545  28.307  35.717  1.00  0.00     0.091 A 
ATOM     91  F   UNL A   1      43.868  30.644  35.346  1.00  0.00    -0.205 F 
ATOM     92  C   UNL A   1      43.062  27.069  35.258  1.00  0.00     0.022 A 
BRANCH  90  93
ATOM     93  S   UNL A   1      44.423  28.318  37.281  1.00  0.00     0.127 S 
ATOM     94  O   UNL A   1      43.899  27.120  37.936  1.00  0.00    -0.237 OA
ATOM     95  O   UNL A   1      45.819  28.217  36.851  1.00  0.00    -0.237 OA
ATOM     96  O   UNL A   1      44.085  29.578  37.930  1.00  0.00    -0.744 OA
ENDBRANCH  90  93
ENDBRANCH  63  86
ENDBRANCH  37  38
ENDBRANCH  29  32
ENDBRANCH  27  28
ENDBRANCH  26  27
ENDBRANCH  25  26
ENDBRANCH  24  25
ENDBRANCH   1  24
TORSDOF 21
ENDMDL
