MODEL 1
REMARK VINA RESULT:     -10.9      0.000      0.000
REMARK SMILES C[C@@H](C(=O)NCCCCCCNC(=O)c1ccc(-c2c3nc(c(-c4cccc(S(=O)(=O)[O-])c4F)c4ccc([nH]4)c(-c4cccc(S(=O)(=O)[O-])c4F)c4nc(c(-c5cccc(S(=O)(=O)[O-])c5F)c5ccc2[nH]5)C=C4)C=C3)cc1)c1ccc(-c2cccc(OC(=O)NCCC3CCCCC3)c2)c(F)c1
REMARK SMILES IDX 6 1 5 2 3 3 4 4 2 6 1 7 78 8 79 9 102 10 80 11 100 12 81 13
REMARK SMILES IDX 101 14 82 15 83 16 99 17 84 18 86 19 85 20 87 21 88 22 89 23
REMARK SMILES IDX 90 24 91 26 92 27 93 28 94 29 98 30 95 31 97 32 96 33 7 34
REMARK SMILES IDX 8 35 9 36 10 37 11 38 12 39 13 40 14 42 15 43 16 44 77 45
REMARK SMILES IDX 17 46 76 47 18 48 19 49 20 50 70 51 21 52 75 53 69 54 71 55
REMARK SMILES IDX 22 56 74 57 68 58 67 59 23 61 55 62 35 63 54 64 36 65 39 66
REMARK SMILES IDX 53 67 72 68 37 69 38 70 52 72 73 73 40 74 24 75 25 76 33 77
REMARK SMILES IDX 26 78 28 79 34 80 27 81 29 82 30 83 31 84 32 85 56 86 57 87
REMARK SMILES IDX 65 88 58 89 60 90 66 91 59 92 61 93 62 94 63 95 64 96 41 97
REMARK SMILES IDX 42 98 50 99 43 100 45 101 51 102 44 103 46 104 47 105 48 106
REMARK SMILES IDX 49 107
REMARK H PARENT 5 5 90 25 12 41 71 60 39 71
REMARK Flexibility Score: inf
ROOT
ATOM      1  C   UNL A   1      32.996  34.986  30.007  1.00  0.00     0.116 C 
ENDROOT
BRANCH   1   2
ATOM      2  N   UNL A   1      33.719  34.809  28.765  1.00  0.00    -0.356 N 
ATOM      3  C   UNL A   1      34.481  33.757  28.353  1.00  0.00     0.227 C 
ATOM      4  O   UNL A   1      35.211  33.948  27.377  1.00  0.00    -0.274 OA
ATOM      5  H   UNL A   1      33.649  35.555  28.127  1.00  0.00     0.163 HD
BRANCH   3   6
ATOM      6  C   UNL A   1      34.349  32.394  29.058  1.00  0.00     0.105 C 
ATOM      7  C   UNL A   1      35.578  32.085  29.925  1.00  0.00     0.023 C 
BRANCH   6   8
ATOM      8  C   UNL A   1      34.036  31.285  28.051  1.00  0.00    -0.033 A 
ATOM      9  C   UNL A   1      34.934  30.213  27.892  1.00  0.00     0.005 A 
ATOM     10  C   UNL A   1      32.869  31.284  27.279  1.00  0.00     0.044 A 
ATOM     11  C   UNL A   1      34.673  29.178  26.986  1.00  0.00     0.012 A 
ATOM     12  C   UNL A   1      32.620  30.259  26.376  1.00  0.00     0.131 A 
ATOM     13  C   UNL A   1      33.514  29.196  26.201  1.00  0.00     0.018 A 
ATOM     14  F   UNL A   1      31.496  30.327  25.646  1.00  0.00    -0.206 F 
BRANCH  13  15
ATOM     15  C   UNL A   1      33.280  28.208  25.146  1.00  0.00    -0.012 A 
ATOM     16  C   UNL A   1      33.919  28.255  23.902  1.00  0.00     0.009 A 
ATOM     17  C   UNL A   1      32.381  27.160  25.404  1.00  0.00     0.056 A 
ATOM     18  C   UNL A   1      33.675  27.262  22.948  1.00  0.00     0.004 A 
ATOM     19  C   UNL A   1      32.123  26.184  24.452  1.00  0.00     0.133 A 
ATOM     20  C   UNL A   1      32.779  26.224  23.222  1.00  0.00     0.047 A 
BRANCH  19  21
ATOM     21  O   UNL A   1      31.214  25.115  24.648  1.00  0.00    -0.410 OA
BRANCH  21  22
ATOM     22  C   UNL A   1      30.496  24.896  25.824  1.00  0.00     0.412 C 
ATOM     23  O   UNL A   1      29.884  25.729  26.483  1.00  0.00    -0.224 OA
ATOM     24  N   UNL A   1      30.480  23.596  26.229  1.00  0.00    -0.321 N 
ATOM     25  H   UNL A   1      29.944  23.402  27.032  1.00  0.00     0.167 HD
BRANCH  24  26
ATOM     26  C   UNL A   1      31.150  22.467  25.628  1.00  0.00     0.119 C 
BRANCH  26  27
ATOM     27  C   UNL A   1      32.551  22.286  26.212  1.00  0.00     0.025 C 
BRANCH  27  28
ATOM     28  C   UNL A   1      33.650  23.117  25.513  1.00  0.00    -0.009 C 
ATOM     29  C   UNL A   1      34.937  23.193  26.352  1.00  0.00     0.003 C 
ATOM     30  C   UNL A   1      33.941  22.531  24.121  1.00  0.00     0.003 C 
ATOM     31  C   UNL A   1      36.057  23.932  25.623  1.00  0.00     0.000 C 
ATOM     32  C   UNL A   1      35.053  23.295  23.406  1.00  0.00     0.000 C 
ATOM     33  C   UNL A   1      36.324  23.338  24.245  1.00  0.00     0.000 C 
ENDBRANCH  27  28
ENDBRANCH  26  27
ENDBRANCH  24  26
ENDBRANCH  21  22
ENDBRANCH  19  21
ENDBRANCH  13  15
ENDBRANCH   6   8
ENDBRANCH   3   6
ENDBRANCH   1   2
BRANCH   1  34
ATOM     34  C   UNL A   1      33.944  35.530  31.080  1.00  0.00     0.021 C 
BRANCH  34  35
ATOM     35  C   UNL A   1      34.070  34.617  32.306  1.00  0.00     0.002 C 
BRANCH  35  36
ATOM     36  C   UNL A   1      35.498  34.462  32.835  1.00  0.00     0.002 C 
BRANCH  36  37
ATOM     37  C   UNL A   1      35.680  33.324  33.842  1.00  0.00     0.021 C 
BRANCH  37  38
ATOM     38  C   UNL A   1      36.980  32.545  33.676  1.00  0.00     0.116 C 
BRANCH  38  39
ATOM     39  N   UNL A   1      36.731  31.129  33.459  1.00  0.00    -0.352 N 
ATOM     40  C   UNL A   1      37.363  30.253  32.614  1.00  0.00     0.251 C 
ATOM     41  H   UNL A   1      36.003  30.742  33.997  1.00  0.00     0.163 HD
ATOM     42  O   UNL A   1      36.861  29.155  32.391  1.00  0.00    -0.269 OA
BRANCH  40  43
ATOM     43  C   UNL A   1      38.637  30.634  31.967  1.00  0.00     0.039 A 
ATOM     44  C   UNL A   1      38.703  30.645  30.573  1.00  0.00     0.014 A 
ATOM     45  C   UNL A   1      39.767  30.954  32.726  1.00  0.00     0.014 A 
ATOM     46  C   UNL A   1      39.891  31.016  29.941  1.00  0.00     0.010 A 
ATOM     47  C   UNL A   1      40.926  31.402  32.095  1.00  0.00     0.010 A 
ATOM     48  C   UNL A   1      41.004  31.427  30.695  1.00  0.00    -0.014 A 
BRANCH  48  49
ATOM     49  C   UNL A   1      42.243  31.891  30.019  1.00  0.00     0.031 A 
ATOM     50  C   UNL A   1      42.428  33.342  29.658  1.00  0.00     0.074 A 
ATOM     51  C   UNL A   1      43.192  30.990  29.694  1.00  0.00     0.049 A 
ATOM     52  N   UNL A   1      43.450  33.921  29.082  1.00  0.00    -0.248 NA
ATOM     53  C   UNL A   1      41.316  34.257  29.962  1.00  0.00     0.031 C 
ATOM     54  C   UNL A   1      43.092  29.544  29.908  1.00  0.00     0.029 A 
ATOM     55  N   UNL A   1      44.419  31.153  29.101  1.00  0.00    -0.354 N 
ATOM     56  C   UNL A   1      43.103  35.259  28.944  1.00  0.00     0.074 A 
ATOM     57  C   UNL A   1      41.754  35.398  29.448  1.00  0.00     0.031 C 
ATOM     58  C   UNL A   1      44.213  28.955  29.463  1.00  0.00     0.029 A 
ATOM     59  C   UNL A   1      45.097  29.972  28.906  1.00  0.00     0.049 A 
ATOM     60  H   UNL A   1      44.779  32.031  28.840  1.00  0.00     0.167 HD
ATOM     61  C   UNL A   1      43.849  36.289  28.474  1.00  0.00     0.034 A 
ATOM     62  C   UNL A   1      46.294  29.734  28.334  1.00  0.00     0.034 A 
ATOM     63  C   UNL A   1      45.197  36.152  27.991  1.00  0.00     0.049 A 
ATOM     64  C   UNL A   1      47.113  30.898  27.847  1.00  0.00     0.074 A 
ATOM     65  C   UNL A   1      46.057  37.142  27.548  1.00  0.00     0.029 A 
ATOM     66  N   UNL A   1      45.881  34.951  27.880  1.00  0.00    -0.354 N 
ATOM     67  N   UNL A   1      46.824  32.177  27.865  1.00  0.00    -0.248 NA
ATOM     68  C   UNL A   1      48.442  30.591  27.301  1.00  0.00     0.031 C 
ATOM     69  C   UNL A   1      47.251  36.536  27.144  1.00  0.00     0.029 A 
ATOM     70  C   UNL A   1      47.150  35.173  27.372  1.00  0.00     0.049 A 
ATOM     71  H   UNL A   1      45.518  34.070  28.126  1.00  0.00     0.167 HD
ATOM     72  C   UNL A   1      47.946  32.827  27.363  1.00  0.00     0.074 A 
ATOM     73  C   UNL A   1      48.931  31.804  27.083  1.00  0.00     0.031 C 
ATOM     74  C   UNL A   1      48.138  34.151  27.140  1.00  0.00     0.034 A 
BRANCH  61  75
ATOM     75  C   UNL A   1      43.245  37.670  28.520  1.00  0.00     0.023 A 
ATOM     76  C   UNL A   1      42.356  38.071  27.501  1.00  0.00     0.012 A 
ATOM     77  C   UNL A   1      43.494  38.542  29.599  1.00  0.00     0.148 A 
ATOM     78  C   UNL A   1      41.752  39.326  27.534  1.00  0.00     0.002 A 
ATOM     79  C   UNL A   1      42.852  39.774  29.649  1.00  0.00     0.091 A 
ATOM     80  F   UNL A   1      44.354  38.152  30.551  1.00  0.00    -0.205 F 
ATOM     81  C   UNL A   1      41.991  40.173  28.613  1.00  0.00     0.022 A 
BRANCH  79  82
ATOM     82  S   UNL A   1      43.026  40.906  31.033  1.00  0.00     0.127 S 
ATOM     83  O   UNL A   1      44.395  41.389  30.847  1.00  0.00    -0.237 OA
ATOM     84  O   UNL A   1      41.987  41.897  30.749  1.00  0.00    -0.237 OA
ATOM     85  O   UNL A   1      42.805  40.115  32.234  1.00  0.00    -0.744 OA
ENDBRANCH  79  82
ENDBRANCH  61  75
BRANCH  62  86
ATOM     86  C   UNL A   1      46.807  28.339  28.226  1.00  0.00     0.023 A 
ATOM     87  C   UNL A   1      47.643  27.817  29.231  1.00  0.00     0.012 A 
ATOM     88  C   UNL A   1      46.463  27.526  27.129  1.00  0.00     0.148 A 
ATOM     89  C   UNL A   1      48.166  26.527  29.123  1.00  0.00     0.002 A 
ATOM     90  C   UNL A   1      46.936  26.221  27.059  1.00  0.00     0.091 A 
ATOM     91  F   UNL A   1      45.674  28.043  26.177  1.00  0.00    -0.205 F 
ATOM     92  C   UNL A   1      47.805  25.727  28.043  1.00  0.00     0.022 A 
BRANCH  90  93
ATOM     93  S   UNL A   1      46.408  25.080  25.776  1.00  0.00     0.127 S 
ATOM     94  O   UNL A   1      47.133  23.866  26.139  1.00  0.00    -0.237 OA
ATOM     95  O   UNL A   1      44.962  25.026  25.996  1.00  0.00    -0.237 OA
ATOM     96  O   UNL A   1      46.798  25.699  24.516  1.00  0.00    -0.744 OA
ENDBRANCH  90  93
ENDBRANCH  62  86
BRANCH  74  97
ATOM     97  C   UNL A   1      49.479  34.575  26.598  1.00  0.00     0.023 A 
ATOM     98  C   UNL A   1      49.665  34.722  25.209  1.00  0.00     0.012 A 
ATOM     99  C   UNL A   1      50.544  34.869  27.472  1.00  0.00     0.148 A 
ATOM    100  C   UNL A   1      50.904  35.107  24.696  1.00  0.00     0.002 A 
ATOM    101  C   UNL A   1      51.758  35.305  26.957  1.00  0.00     0.091 A 
ATOM    102  F   UNL A   1      50.354  34.707  28.790  1.00  0.00    -0.205 F 
ATOM    103  C   UNL A   1      51.946  35.408  25.569  1.00  0.00     0.022 A 
BRANCH 101 104
ATOM    104  S   UNL A   1      53.126  35.808  28.008  1.00  0.00     0.127 S 
ATOM    105  O   UNL A   1      53.437  34.564  28.708  1.00  0.00    -0.237 OA
ATOM    106  O   UNL A   1      54.130  36.225  27.029  1.00  0.00    -0.237 OA
ATOM    107  O   UNL A   1      52.614  36.886  28.845  1.00  0.00    -0.744 OA
ENDBRANCH 101 104
ENDBRANCH  74  97
ENDBRANCH  48  49
ENDBRANCH  40  43
ENDBRANCH  38  39
ENDBRANCH  37  38
ENDBRANCH  36  37
ENDBRANCH  35  36
ENDBRANCH  34  35
ENDBRANCH   1  34
TORSDOF 23
ENDMDL
MODEL 2
REMARK VINA RESULT:     -10.7      3.585      9.143
REMARK SMILES C[C@@H](C(=O)NCCCCCCNC(=O)c1ccc(-c2c3nc(c(-c4cccc(S(=O)(=O)[O-])c4F)c4ccc([nH]4)c(-c4cccc(S(=O)(=O)[O-])c4F)c4nc(c(-c5cccc(S(=O)(=O)[O-])c5F)c5ccc2[nH]5)C=C4)C=C3)cc1)c1ccc(-c2cccc(OC(=O)NCCC3CCCCC3)c2)c(F)c1
REMARK SMILES IDX 6 1 5 2 3 3 4 4 2 6 1 7 78 8 79 9 102 10 80 11 100 12 81 13
REMARK SMILES IDX 101 14 82 15 83 16 99 17 84 18 86 19 85 20 87 21 88 22 89 23
REMARK SMILES IDX 90 24 91 26 92 27 93 28 94 29 98 30 95 31 97 32 96 33 7 34
REMARK SMILES IDX 8 35 9 36 10 37 11 38 12 39 13 40 14 42 15 43 16 44 77 45
REMARK SMILES IDX 17 46 76 47 18 48 19 49 20 50 70 51 21 52 75 53 69 54 71 55
REMARK SMILES IDX 22 56 74 57 68 58 67 59 23 61 55 62 35 63 54 64 36 65 39 66
REMARK SMILES IDX 53 67 72 68 37 69 38 70 52 72 73 73 40 74 24 75 25 76 33 77
REMARK SMILES IDX 26 78 28 79 34 80 27 81 29 82 30 83 31 84 32 85 56 86 57 87
REMARK SMILES IDX 65 88 58 89 60 90 66 91 59 92 61 93 62 94 63 95 64 96 41 97
REMARK SMILES IDX 42 98 50 99 43 100 45 101 51 102 44 103 46 104 47 105 48 106
REMARK SMILES IDX 49 107
REMARK H PARENT 5 5 90 25 12 41 71 60 39 71
REMARK Flexibility Score: inf
ROOT
ATOM      1  C   UNL A   1      34.939  24.203  25.145  1.00  0.00     0.116 C 
ENDROOT
BRANCH   1   2
ATOM      2  N   UNL A   1      34.400  25.219  24.266  1.00  0.00    -0.356 N 
ATOM      3  C   UNL A   1      33.376  26.092  24.481  1.00  0.00     0.227 C 
ATOM      4  O   UNL A   1      32.926  26.676  23.492  1.00  0.00    -0.274 OA
ATOM      5  H   UNL A   1      34.836  25.289  23.386  1.00  0.00     0.163 HD
BRANCH   3   6
ATOM      6  C   UNL A   1      32.887  26.358  25.917  1.00  0.00     0.105 C 
ATOM      7  C   UNL A   1      31.422  25.937  26.102  1.00  0.00     0.023 C 
BRANCH   6   8
ATOM      8  C   UNL A   1      33.146  27.810  26.324  1.00  0.00    -0.033 A 
ATOM      9  C   UNL A   1      34.400  28.174  26.847  1.00  0.00     0.005 A 
ATOM     10  C   UNL A   1      32.177  28.810  26.183  1.00  0.00     0.044 A 
ATOM     11  C   UNL A   1      34.673  29.496  27.220  1.00  0.00     0.012 A 
ATOM     12  C   UNL A   1      32.450  30.116  26.563  1.00  0.00     0.131 A 
ATOM     13  C   UNL A   1      33.691  30.486  27.098  1.00  0.00     0.018 A 
ATOM     14  F   UNL A   1      31.472  31.026  26.428  1.00  0.00    -0.206 F 
BRANCH  13  15
ATOM     15  C   UNL A   1      33.893  31.843  27.608  1.00  0.00    -0.012 A 
ATOM     16  C   UNL A   1      32.880  32.808  27.629  1.00  0.00     0.009 A 
ATOM     17  C   UNL A   1      35.159  32.183  28.113  1.00  0.00     0.056 A 
ATOM     18  C   UNL A   1      33.129  34.078  28.160  1.00  0.00     0.004 A 
ATOM     19  C   UNL A   1      35.414  33.448  28.623  1.00  0.00     0.133 A 
ATOM     20  C   UNL A   1      34.395  34.399  28.659  1.00  0.00     0.047 A 
BRANCH  19  21
ATOM     21  O   UNL A   1      36.674  33.853  29.128  1.00  0.00    -0.410 OA
BRANCH  21  22
ATOM     22  C   UNL A   1      36.959  34.040  30.480  1.00  0.00     0.412 C 
ATOM     23  O   UNL A   1      36.220  33.811  31.431  1.00  0.00    -0.224 OA
ATOM     24  N   UNL A   1      38.216  34.504  30.723  1.00  0.00    -0.321 N 
ATOM     25  H   UNL A   1      38.462  34.605  31.670  1.00  0.00     0.167 HD
BRANCH  24  26
ATOM     26  C   UNL A   1      39.231  34.868  29.763  1.00  0.00     0.119 C 
BRANCH  26  27
ATOM     27  C   UNL A   1      40.610  34.381  30.211  1.00  0.00     0.025 C 
BRANCH  27  28
ATOM     28  C   UNL A   1      41.774  34.821  29.295  1.00  0.00    -0.009 C 
ATOM     29  C   UNL A   1      41.308  35.796  28.201  1.00  0.00     0.003 C 
ATOM     30  C   UNL A   1      42.896  35.447  30.141  1.00  0.00     0.003 C 
ATOM     31  C   UNL A   1      42.471  36.309  27.353  1.00  0.00     0.000 C 
ATOM     32  C   UNL A   1      44.053  35.938  29.274  1.00  0.00     0.000 C 
ATOM     33  C   UNL A   1      43.572  36.919  28.212  1.00  0.00     0.000 C 
ENDBRANCH  27  28
ENDBRANCH  26  27
ENDBRANCH  24  26
ENDBRANCH  21  22
ENDBRANCH  19  21
ENDBRANCH  13  15
ENDBRANCH   6   8
ENDBRANCH   3   6
ENDBRANCH   1   2
BRANCH   1  34
ATOM     34  C   UNL A   1      35.833  23.251  24.343  1.00  0.00     0.021 C 
BRANCH  34  35
ATOM     35  C   UNL A   1      36.699  22.340  25.222  1.00  0.00     0.002 C 
BRANCH  35  36
ATOM     36  C   UNL A   1      36.459  20.843  25.010  1.00  0.00     0.002 C 
BRANCH  36  37
ATOM     37  C   UNL A   1      37.735  19.998  24.961  1.00  0.00     0.021 C 
BRANCH  37  38
ATOM     38  C   UNL A   1      38.900  20.578  25.755  1.00  0.00     0.116 C 
BRANCH  38  39
ATOM     39  N   UNL A   1      39.958  19.599  25.944  1.00  0.00    -0.352 N 
ATOM     40  C   UNL A   1      41.302  19.795  26.133  1.00  0.00     0.251 C 
ATOM     41  H   UNL A   1      39.667  18.659  25.937  1.00  0.00     0.163 HD
ATOM     42  O   UNL A   1      42.074  18.845  26.036  1.00  0.00    -0.269 OA
BRANCH  40  43
ATOM     43  C   UNL A   1      41.819  21.146  26.440  1.00  0.00     0.039 A 
ATOM     44  C   UNL A   1      42.042  21.491  27.774  1.00  0.00     0.014 A 
ATOM     45  C   UNL A   1      42.058  22.078  25.425  1.00  0.00     0.014 A 
ATOM     46  C   UNL A   1      42.544  22.755  28.085  1.00  0.00     0.010 A 
ATOM     47  C   UNL A   1      42.635  23.309  25.731  1.00  0.00     0.010 A 
ATOM     48  C   UNL A   1      42.873  23.666  27.066  1.00  0.00    -0.014 A 
BRANCH  48  49
ATOM     49  C   UNL A   1      43.475  24.983  27.397  1.00  0.00     0.031 A 
ATOM     50  C   UNL A   1      42.627  26.108  27.929  1.00  0.00     0.074 A 
ATOM     51  C   UNL A   1      44.791  25.178  27.179  1.00  0.00     0.049 A 
ATOM     52  N   UNL A   1      42.990  27.313  28.285  1.00  0.00    -0.248 NA
ATOM     53  C   UNL A   1      41.182  25.856  28.060  1.00  0.00     0.031 C 
ATOM     54  C   UNL A   1      45.703  24.197  26.584  1.00  0.00     0.029 A 
ATOM     55  N   UNL A   1      45.589  26.269  27.418  1.00  0.00    -0.354 N 
ATOM     56  C   UNL A   1      41.824  27.966  28.668  1.00  0.00     0.074 A 
ATOM     57  C   UNL A   1      40.734  27.040  28.452  1.00  0.00     0.031 C 
ATOM     58  C   UNL A   1      46.934  24.727  26.513  1.00  0.00     0.029 A 
ATOM     59  C   UNL A   1      46.896  26.091  27.029  1.00  0.00     0.049 A 
ATOM     60  H   UNL A   1      45.257  27.099  27.829  1.00  0.00     0.167 HD
ATOM     61  C   UNL A   1      41.675  29.209  29.187  1.00  0.00     0.034 A 
ATOM     62  C   UNL A   1      47.946  26.935  27.074  1.00  0.00     0.034 A 
ATOM     63  C   UNL A   1      42.763  30.121  29.418  1.00  0.00     0.049 A 
ATOM     64  C   UNL A   1      47.759  28.298  27.681  1.00  0.00     0.074 A 
ATOM     65  C   UNL A   1      42.724  31.380  29.991  1.00  0.00     0.029 A 
ATOM     66  N   UNL A   1      44.086  29.878  29.083  1.00  0.00    -0.354 N 
ATOM     67  N   UNL A   1      46.673  28.840  28.176  1.00  0.00    -0.248 NA
ATOM     68  C   UNL A   1      48.951  29.151  27.775  1.00  0.00     0.031 C 
ATOM     69  C   UNL A   1      44.019  31.908  29.978  1.00  0.00     0.029 A 
ATOM     70  C   UNL A   1      44.872  30.963  29.433  1.00  0.00     0.049 A 
ATOM     71  H   UNL A   1      44.418  29.054  28.658  1.00  0.00     0.167 HD
ATOM     72  C   UNL A   1      47.057  30.082  28.669  1.00  0.00     0.074 A 
ATOM     73  C   UNL A   1      48.482  30.197  28.442  1.00  0.00     0.031 C 
ATOM     74  C   UNL A   1      46.297  31.047  29.242  1.00  0.00     0.034 A 
BRANCH  61  75
ATOM     75  C   UNL A   1      40.288  29.634  29.601  1.00  0.00     0.023 A 
ATOM     76  C   UNL A   1      39.441  30.246  28.654  1.00  0.00     0.012 A 
ATOM     77  C   UNL A   1      39.798  29.367  30.894  1.00  0.00     0.148 A 
ATOM     78  C   UNL A   1      38.141  30.616  28.995  1.00  0.00     0.002 A 
ATOM     79  C   UNL A   1      38.485  29.697  31.213  1.00  0.00     0.091 A 
ATOM     80  F   UNL A   1      40.622  28.799  31.787  1.00  0.00    -0.205 F 
ATOM     81  C   UNL A   1      37.660  30.331  30.270  1.00  0.00     0.022 A 
BRANCH  79  82
ATOM     82  S   UNL A   1      37.740  29.302  32.799  1.00  0.00     0.127 S 
ATOM     83  O   UNL A   1      38.566  30.088  33.716  1.00  0.00    -0.237 OA
ATOM     84  O   UNL A   1      36.375  29.801  32.628  1.00  0.00    -0.237 OA
ATOM     85  O   UNL A   1      37.848  27.858  32.949  1.00  0.00    -0.744 OA
ENDBRANCH  79  82
ENDBRANCH  61  75
BRANCH  62  86
ATOM     86  C   UNL A   1      49.277  26.500  26.563  1.00  0.00     0.023 A 
ATOM     87  C   UNL A   1      50.031  25.551  27.281  1.00  0.00     0.012 A 
ATOM     88  C   UNL A   1      49.797  27.023  25.363  1.00  0.00     0.148 A 
ATOM     89  C   UNL A   1      51.297  25.166  26.839  1.00  0.00     0.002 A 
ATOM     90  C   UNL A   1      51.031  26.588  24.896  1.00  0.00     0.091 A 
ATOM     91  F   UNL A   1      49.070  27.933  24.699  1.00  0.00    -0.205 F 
ATOM     92  C   UNL A   1      51.792  25.678  25.643  1.00  0.00     0.022 A 
BRANCH  90  93
ATOM     93  S   UNL A   1      51.679  27.090  23.297  1.00  0.00     0.127 S 
ATOM     94  O   UNL A   1      51.976  28.501  23.525  1.00  0.00    -0.237 OA
ATOM     95  O   UNL A   1      52.851  26.225  23.161  1.00  0.00    -0.237 OA
ATOM     96  O   UNL A   1      50.617  26.811  22.339  1.00  0.00    -0.744 OA
ENDBRANCH  90  93
ENDBRANCH  62  86
BRANCH  74  97
ATOM     97  C   UNL A   1      46.998  32.300  29.701  1.00  0.00     0.023 A 
ATOM     98  C   UNL A   1      47.444  32.412  31.033  1.00  0.00     0.012 A 
ATOM     99  C   UNL A   1      47.252  33.350  28.798  1.00  0.00     0.148 A 
ATOM    100  C   UNL A   1      48.088  33.569  31.471  1.00  0.00     0.002 A 
ATOM    101  C   UNL A   1      47.943  34.477  29.227  1.00  0.00     0.091 A 
ATOM    102  F   UNL A   1      46.806  33.234  27.539  1.00  0.00    -0.205 F 
ATOM    103  C   UNL A   1      48.346  34.596  30.567  1.00  0.00     0.022 A 
BRANCH 101 104
ATOM    104  S   UNL A   1      48.406  35.807  28.111  1.00  0.00     0.127 S 
ATOM    105  O   UNL A   1      49.225  36.652  28.978  1.00  0.00    -0.237 OA
ATOM    106  O   UNL A   1      49.150  35.094  27.073  1.00  0.00    -0.237 OA
ATOM    107  O   UNL A   1      47.156  36.403  27.657  1.00  0.00    -0.744 OA
ENDBRANCH 101 104
ENDBRANCH  74  97
ENDBRANCH  48  49
ENDBRANCH  40  43
ENDBRANCH  38  39
ENDBRANCH  37  38
ENDBRANCH  36  37
ENDBRANCH  35  36
ENDBRANCH  34  35
ENDBRANCH   1  34
TORSDOF 23
ENDMDL
MODEL 3
REMARK VINA RESULT:     -10.7      3.851     10.458
REMARK SMILES C[C@@H](C(=O)NCCCCCCNC(=O)c1ccc(-c2c3nc(c(-c4cccc(S(=O)(=O)[O-])c4F)c4ccc([nH]4)c(-c4cccc(S(=O)(=O)[O-])c4F)c4nc(c(-c5cccc(S(=O)(=O)[O-])c5F)c5ccc2[nH]5)C=C4)C=C3)cc1)c1ccc(-c2cccc(OC(=O)NCCC3CCCCC3)c2)c(F)c1
REMARK SMILES IDX 6 1 5 2 3 3 4 4 2 6 1 7 78 8 79 9 102 10 80 11 100 12 81 13
REMARK SMILES IDX 101 14 82 15 83 16 99 17 84 18 86 19 85 20 87 21 88 22 89 23
REMARK SMILES IDX 90 24 91 26 92 27 93 28 94 29 98 30 95 31 97 32 96 33 7 34
REMARK SMILES IDX 8 35 9 36 10 37 11 38 12 39 13 40 14 42 15 43 16 44 77 45
REMARK SMILES IDX 17 46 76 47 18 48 19 49 20 50 70 51 21 52 75 53 69 54 71 55
REMARK SMILES IDX 22 56 74 57 68 58 67 59 23 61 55 62 35 63 54 64 36 65 39 66
REMARK SMILES IDX 53 67 72 68 37 69 38 70 52 72 73 73 40 74 24 75 25 76 33 77
REMARK SMILES IDX 26 78 28 79 34 80 27 81 29 82 30 83 31 84 32 85 56 86 57 87
REMARK SMILES IDX 65 88 58 89 60 90 66 91 59 92 61 93 62 94 63 95 64 96 41 97
REMARK SMILES IDX 42 98 50 99 43 100 45 101 51 102 44 103 46 104 47 105 48 106
REMARK SMILES IDX 49 107
REMARK H PARENT 5 5 90 25 12 41 71 60 39 71
REMARK Flexibility Score: inf
ROOT
ATOM      1  C   UNL A   1      35.985  23.677  24.857  1.00  0.00     0.116 C 
ENDROOT
BRANCH   1   2
ATOM      2  N   UNL A   1      34.889  24.084  24.002  1.00  0.00    -0.356 N 
ATOM      3  C   UNL A   1      33.600  24.377  24.333  1.00  0.00     0.227 C 
ATOM      4  O   UNL A   1      32.788  24.436  23.406  1.00  0.00    -0.274 OA
ATOM      5  H   UNL A   1      35.107  24.161  23.045  1.00  0.00     0.163 HD
BRANCH   3   6
ATOM      6  C   UNL A   1      33.236  24.681  25.799  1.00  0.00     0.105 C 
ATOM      7  C   UNL A   1      32.075  23.803  26.287  1.00  0.00     0.023 C 
BRANCH   6   8
ATOM      8  C   UNL A   1      32.979  26.176  26.000  1.00  0.00    -0.033 A 
ATOM      9  C   UNL A   1      33.690  27.115  25.230  1.00  0.00     0.005 A 
ATOM     10  C   UNL A   1      32.042  26.656  26.921  1.00  0.00     0.044 A 
ATOM     11  C   UNL A   1      33.472  28.490  25.383  1.00  0.00     0.012 A 
ATOM     12  C   UNL A   1      31.837  28.020  27.075  1.00  0.00     0.131 A 
ATOM     13  C   UNL A   1      32.549  28.963  26.324  1.00  0.00     0.018 A 
ATOM     14  F   UNL A   1      30.943  28.420  27.993  1.00  0.00    -0.206 F 
BRANCH  13  15
ATOM     15  C   UNL A   1      32.399  30.391  26.609  1.00  0.00    -0.012 A 
ATOM     16  C   UNL A   1      31.371  31.172  26.069  1.00  0.00     0.009 A 
ATOM     17  C   UNL A   1      33.323  30.998  27.475  1.00  0.00     0.056 A 
ATOM     18  C   UNL A   1      31.264  32.525  26.406  1.00  0.00     0.004 A 
ATOM     19  C   UNL A   1      33.231  32.344  27.797  1.00  0.00     0.133 A 
ATOM     20  C   UNL A   1      32.192  33.112  27.272  1.00  0.00     0.047 A 
BRANCH  19  21
ATOM     21  O   UNL A   1      34.143  33.014  28.649  1.00  0.00    -0.410 OA
BRANCH  21  22
ATOM     22  C   UNL A   1      33.941  34.290  29.173  1.00  0.00     0.412 C 
ATOM     23  O   UNL A   1      33.653  35.308  28.554  1.00  0.00    -0.224 OA
ATOM     24  N   UNL A   1      34.061  34.358  30.529  1.00  0.00    -0.321 N 
ATOM     25  H   UNL A   1      33.881  35.237  30.933  1.00  0.00     0.167 HD
BRANCH  24  26
ATOM     26  C   UNL A   1      34.421  33.302  31.445  1.00  0.00     0.119 C 
BRANCH  26  27
ATOM     27  C   UNL A   1      34.789  33.867  32.817  1.00  0.00     0.025 C 
BRANCH  27  28
ATOM     28  C   UNL A   1      36.255  33.622  33.239  1.00  0.00    -0.009 C 
ATOM     29  C   UNL A   1      36.545  32.130  33.473  1.00  0.00     0.003 C 
ATOM     30  C   UNL A   1      37.207  34.203  32.181  1.00  0.00     0.003 C 
ATOM     31  C   UNL A   1      38.015  31.873  33.797  1.00  0.00     0.000 C 
ATOM     32  C   UNL A   1      38.670  33.948  32.533  1.00  0.00     0.000 C 
ATOM     33  C   UNL A   1      38.940  32.462  32.738  1.00  0.00     0.000 C 
ENDBRANCH  27  28
ENDBRANCH  26  27
ENDBRANCH  24  26
ENDBRANCH  21  22
ENDBRANCH  19  21
ENDBRANCH  13  15
ENDBRANCH   6   8
ENDBRANCH   3   6
ENDBRANCH   1   2
BRANCH   1  34
ATOM     34  C   UNL A   1      36.921  22.745  24.081  1.00  0.00     0.021 C 
BRANCH  34  35
ATOM     35  C   UNL A   1      37.701  21.777  24.979  1.00  0.00     0.002 C 
BRANCH  35  36
ATOM     36  C   UNL A   1      37.274  20.313  24.853  1.00  0.00     0.002 C 
BRANCH  36  37
ATOM     37  C   UNL A   1      38.355  19.301  25.240  1.00  0.00     0.021 C 
BRANCH  37  38
ATOM     38  C   UNL A   1      39.613  19.926  25.833  1.00  0.00     0.116 C 
BRANCH  38  39
ATOM     39  N   UNL A   1      40.725  18.989  25.838  1.00  0.00    -0.352 N 
ATOM     40  C   UNL A   1      42.072  19.236  25.905  1.00  0.00     0.251 C 
ATOM     41  H   UNL A   1      40.474  18.038  25.786  1.00  0.00     0.163 HD
ATOM     42  O   UNL A   1      42.868  18.335  25.657  1.00  0.00    -0.269 OA
BRANCH  40  43
ATOM     43  C   UNL A   1      42.561  20.585  26.265  1.00  0.00     0.039 A 
ATOM     44  C   UNL A   1      42.994  21.434  25.245  1.00  0.00     0.014 A 
ATOM     45  C   UNL A   1      42.620  21.002  27.598  1.00  0.00     0.014 A 
ATOM     46  C   UNL A   1      43.446  22.716  25.560  1.00  0.00     0.010 A 
ATOM     47  C   UNL A   1      42.994  22.309  27.902  1.00  0.00     0.010 A 
ATOM     48  C   UNL A   1      43.423  23.177  26.888  1.00  0.00    -0.014 A 
BRANCH  48  49
ATOM     49  C   UNL A   1      43.836  24.567  27.211  1.00  0.00     0.031 A 
ATOM     50  C   UNL A   1      45.232  25.047  26.914  1.00  0.00     0.074 A 
ATOM     51  C   UNL A   1      42.955  25.392  27.812  1.00  0.00     0.049 A 
ATOM     52  N   UNL A   1      45.755  26.229  27.114  1.00  0.00    -0.248 NA
ATOM     53  C   UNL A   1      46.170  24.069  26.337  1.00  0.00     0.031 C 
ATOM     54  C   UNL A   1      41.602  25.020  28.234  1.00  0.00     0.029 A 
ATOM     55  N   UNL A   1      43.068  26.707  28.188  1.00  0.00    -0.354 N 
ATOM     56  C   UNL A   1      47.079  26.136  26.703  1.00  0.00     0.074 A 
ATOM     57  C   UNL A   1      47.296  24.767  26.290  1.00  0.00     0.031 C 
ATOM     58  C   UNL A   1      41.009  26.082  28.800  1.00  0.00     0.029 A 
ATOM     59  C   UNL A   1      41.945  27.201  28.810  1.00  0.00     0.049 A 
ATOM     60  H   UNL A   1      43.876  27.245  28.028  1.00  0.00     0.167 HD
ATOM     61  C   UNL A   1      48.021  27.109  26.638  1.00  0.00     0.034 A 
ATOM     62  C   UNL A   1      41.699  28.417  29.337  1.00  0.00     0.034 A 
ATOM     63  C   UNL A   1      47.798  28.474  27.032  1.00  0.00     0.049 A 
ATOM     64  C   UNL A   1      42.752  29.485  29.227  1.00  0.00     0.074 A 
ATOM     65  C   UNL A   1      48.669  29.546  26.952  1.00  0.00     0.029 A 
ATOM     66  N   UNL A   1      46.622  28.957  27.585  1.00  0.00    -0.354 N 
ATOM     67  N   UNL A   1      43.949  29.414  28.695  1.00  0.00    -0.248 NA
ATOM     68  C   UNL A   1      42.406  30.814  29.749  1.00  0.00     0.031 C 
ATOM     69  C   UNL A   1      48.029  30.671  27.482  1.00  0.00     0.029 A 
ATOM     70  C   UNL A   1      46.746  30.309  27.856  1.00  0.00     0.049 A 
ATOM     71  H   UNL A   1      45.818  28.418  27.760  1.00  0.00     0.167 HD
ATOM     72  C   UNL A   1      44.484  30.694  28.790  1.00  0.00     0.074 A 
ATOM     73  C   UNL A   1      43.468  31.526  29.400  1.00  0.00     0.031 C 
ATOM     74  C   UNL A   1      45.711  31.137  28.422  1.00  0.00     0.034 A 
BRANCH  61  75
ATOM     75  C   UNL A   1      49.366  26.744  26.061  1.00  0.00     0.023 A 
ATOM     76  C   UNL A   1      50.238  25.920  26.805  1.00  0.00     0.012 A 
ATOM     77  C   UNL A   1      49.741  27.149  24.765  1.00  0.00     0.148 A 
ATOM     78  C   UNL A   1      51.471  25.534  26.285  1.00  0.00     0.002 A 
ATOM     79  C   UNL A   1      50.952  26.722  24.235  1.00  0.00     0.091 A 
ATOM     80  F   UNL A   1      48.908  27.945  24.078  1.00  0.00    -0.205 F 
ATOM     81  C   UNL A   1      51.824  25.925  24.996  1.00  0.00     0.022 A 
BRANCH  79  82
ATOM     82  S   UNL A   1      51.468  27.101  22.556  1.00  0.00     0.127 S 
ATOM     83  O   UNL A   1      52.673  26.282  22.426  1.00  0.00    -0.237 OA
ATOM     84  O   UNL A   1      50.325  26.631  21.772  1.00  0.00    -0.237 OA
ATOM     85  O   UNL A   1      51.687  28.540  22.515  1.00  0.00    -0.744 OA
ENDBRANCH  79  82
ENDBRANCH  61  75
BRANCH  62  86
ATOM     86  C   UNL A   1      40.387  28.700  29.983  1.00  0.00     0.023 A 
ATOM     87  C   UNL A   1      40.199  28.416  31.350  1.00  0.00     0.012 A 
ATOM     88  C   UNL A   1      39.322  29.254  29.246  1.00  0.00     0.148 A 
ATOM     89  C   UNL A   1      38.963  28.634  31.959  1.00  0.00     0.002 A 
ATOM     90  C   UNL A   1      38.114  29.528  29.874  1.00  0.00     0.091 A 
ATOM     91  F   UNL A   1      39.516  29.509  27.944  1.00  0.00    -0.205 F 
ATOM     92  C   UNL A   1      37.924  29.198  31.224  1.00  0.00     0.022 A 
BRANCH  90  93
ATOM     93  S   UNL A   1      36.773  30.382  29.037  1.00  0.00     0.127 S 
ATOM     94  O   UNL A   1      35.770  30.472  30.094  1.00  0.00    -0.237 OA
ATOM     95  O   UNL A   1      37.403  31.651  28.672  1.00  0.00    -0.237 OA
ATOM     96  O   UNL A   1      36.423  29.541  27.900  1.00  0.00    -0.744 OA
ENDBRANCH  90  93
ENDBRANCH  62  86
BRANCH  74  97
ATOM     97  C   UNL A   1      46.012  32.598  28.633  1.00  0.00     0.023 A 
ATOM     98  C   UNL A   1      46.648  33.025  29.816  1.00  0.00     0.012 A 
ATOM     99  C   UNL A   1      45.703  33.544  27.636  1.00  0.00     0.148 A 
ATOM    100  C   UNL A   1      46.925  34.376  30.025  1.00  0.00     0.002 A 
ATOM    101  C   UNL A   1      46.032  34.881  27.828  1.00  0.00     0.091 A 
ATOM    102  F   UNL A   1      45.083  33.123  26.524  1.00  0.00    -0.205 F 
ATOM    103  C   UNL A   1      46.627  35.301  29.028  1.00  0.00     0.022 A 
BRANCH 101 104
ATOM    104  S   UNL A   1      45.775  36.128  26.560  1.00  0.00     0.127 S 
ATOM    105  O   UNL A   1      46.417  35.512  25.401  1.00  0.00    -0.237 OA
ATOM    106  O   UNL A   1      44.316  36.195  26.486  1.00  0.00    -0.237 OA
ATOM    107  O   UNL A   1      46.411  37.342  27.056  1.00  0.00    -0.744 OA
ENDBRANCH 101 104
ENDBRANCH  74  97
ENDBRANCH  48  49
ENDBRANCH  40  43
ENDBRANCH  38  39
ENDBRANCH  37  38
ENDBRANCH  36  37
ENDBRANCH  35  36
ENDBRANCH  34  35
ENDBRANCH   1  34
TORSDOF 23
ENDMDL
