MODEL 1
REMARK VINA RESULT:     -13.0      0.000      0.000
REMARK SMILES CC(C)c1ccc(-c2cnc([C@@H]3[NH2+][C@H](C(=O)NCCCCCCNC(=O)c4ccc(-c5c6nc(c(-c7cccc(S(=O)(=O)[O-])c7F)c7ccc([nH]7)c(-c7cccc(S(=O)(=O)[O-])c7F)c7nc(c(-c8cccc(S(=O)(=O)[O-])c8F)c8ccc5[nH]8)C=C7)C=C6)cc4)C(C)(C)S3)s2)cc1
REMARK SMILES IDX 20 1 19 2 18 3 17 4 15 5 16 6 14 8 12 9 13 10 93 11 90 14
REMARK SMILES IDX 91 15 92 16 11 17 8 18 9 19 94 20 10 21 7 22 4 23 5 24 96 25
REMARK SMILES IDX 6 26 95 27 2 28 1 29 3 30 21 31 22 32 23 33 24 34 25 35
REMARK SMILES IDX 26 37 27 38 28 39 89 40 29 41 88 42 30 43 31 44 32 45 82 46
REMARK SMILES IDX 33 47 87 48 81 49 83 50 34 51 86 52 80 53 79 54 35 56 67 57
REMARK SMILES IDX 47 58 66 59 48 60 51 61 65 62 84 63 49 64 50 65 64 67 85 68
REMARK SMILES IDX 52 69 36 70 37 71 45 72 38 73 40 74 46 75 39 76 41 77 42 78
REMARK SMILES IDX 43 79 44 80 68 81 69 82 77 83 70 84 72 85 78 86 71 87 73 88
REMARK SMILES IDX 74 89 75 90 76 91 53 92 54 93 62 94 55 95 57 96 63 97 56 98
REMARK SMILES IDX 58 99 59 100 60 101 61 102
REMARK H PARENT 17 7 13 12 13 13 24 36 83 55 51 66
REMARK Flexibility Score: inf
ROOT
ATOM      1  C   UNL A   1      33.050  30.124  26.850  1.00  0.00     0.002 C 
ENDROOT
BRANCH   1   2
ATOM      2  C   UNL A   1      32.991  28.785  27.601  1.00  0.00     0.021 C 
BRANCH   2   3
ATOM      3  C   UNL A   1      31.601  28.135  27.671  1.00  0.00     0.116 C 
BRANCH   3   4
ATOM      4  N   UNL A   1      31.570  26.909  26.901  1.00  0.00    -0.351 N 
ATOM      5  C   UNL A   1      30.858  26.752  25.742  1.00  0.00     0.279 C 
ATOM      6  O   UNL A   1      30.065  25.818  25.715  1.00  0.00    -0.268 OA
ATOM      7  H   UNL A   1      32.092  26.142  27.231  1.00  0.00     0.163 HD
BRANCH   5   8
ATOM      8  C   UNL A   1      31.154  27.724  24.574  1.00  0.00     0.289 C 
ATOM      9  C   UNL A   1      32.774  26.659  23.118  1.00  0.00     0.304 C 
ATOM     10  N   UNL A   1      32.602  27.663  24.189  1.00  0.00    -0.318 N 
ATOM     11  S   UNL A   1      31.234  26.573  22.153  1.00  0.00    -0.079 SA
ATOM     12  H   UNL A   1      32.905  28.578  23.852  1.00  0.00     0.348 HD
ATOM     13  H   UNL A   1      33.164  27.404  25.000  1.00  0.00     0.348 HD
ATOM     14  C   UNL A   1      30.274  27.602  23.313  1.00  0.00     0.078 C 
ATOM     15  C   UNL A   1      30.111  28.980  22.642  1.00  0.00     0.030 C 
ATOM     16  C   UNL A   1      28.889  26.998  23.543  1.00  0.00     0.030 C 
BRANCH   9  17
ATOM     17  C   UNL A   1      33.229  25.296  23.602  1.00  0.00     0.162 A 
ATOM     18  C   UNL A   1      33.571  22.901  23.961  1.00  0.00     0.055 A 
ATOM     19  C   UNL A   1      34.342  23.757  24.723  1.00  0.00     0.132 A 
ATOM     20  S   UNL A   1      32.599  23.844  22.899  1.00  0.00    -0.112 S 
ATOM     21  N   UNL A   1      34.069  25.089  24.593  1.00  0.00    -0.242 NA
BRANCH  18  22
ATOM     22  C   UNL A   1      33.510  21.438  24.043  1.00  0.00    -0.007 A 
ATOM     23  C   UNL A   1      33.255  18.594  24.132  1.00  0.00    -0.045 A 
ATOM     24  C   UNL A   1      34.345  19.256  24.724  1.00  0.00     0.004 A 
ATOM     25  C   UNL A   1      32.279  19.394  23.526  1.00  0.00     0.004 A 
ATOM     26  C   UNL A   1      34.477  20.655  24.675  1.00  0.00     0.010 A 
ATOM     27  C   UNL A   1      32.410  20.783  23.474  1.00  0.00     0.010 A 
BRANCH  23  28
ATOM     28  C   UNL A   1      33.093  17.076  24.203  1.00  0.00     0.013 C 
ATOM     29  C   UNL A   1      34.372  16.297  23.843  1.00  0.00     0.012 C 
ATOM     30  C   UNL A   1      32.609  16.574  25.571  1.00  0.00     0.012 C 
ENDBRANCH  23  28
ENDBRANCH  18  22
ENDBRANCH   9  17
ENDBRANCH   5   8
ENDBRANCH   3   4
ENDBRANCH   2   3
ENDBRANCH   1   2
BRANCH   1  31
ATOM     31  C   UNL A   1      31.696  30.721  26.453  1.00  0.00     0.002 C 
BRANCH  31  32
ATOM     32  C   UNL A   1      31.531  32.210  26.752  1.00  0.00     0.021 C 
BRANCH  32  33
ATOM     33  C   UNL A   1      32.786  32.906  27.263  1.00  0.00     0.116 C 
BRANCH  33  34
ATOM     34  N   UNL A   1      32.537  34.281  27.662  1.00  0.00    -0.352 N 
ATOM     35  C   UNL A   1      33.114  34.996  28.681  1.00  0.00     0.251 C 
ATOM     36  H   UNL A   1      31.862  34.763  27.131  1.00  0.00     0.163 HD
ATOM     37  O   UNL A   1      32.668  36.103  28.984  1.00  0.00    -0.269 OA
BRANCH  35  38
ATOM     38  C   UNL A   1      34.258  34.428  29.428  1.00  0.00     0.039 A 
ATOM     39  C   UNL A   1      34.017  33.768  30.636  1.00  0.00     0.014 A 
ATOM     40  C   UNL A   1      35.563  34.545  28.941  1.00  0.00     0.014 A 
ATOM     41  C   UNL A   1      35.079  33.184  31.331  1.00  0.00     0.010 A 
ATOM     42  C   UNL A   1      36.609  33.901  29.597  1.00  0.00     0.010 A 
ATOM     43  C   UNL A   1      36.381  33.226  30.806  1.00  0.00    -0.014 A 
BRANCH  43  44
ATOM     44  C   UNL A   1      37.519  32.583  31.513  1.00  0.00     0.031 A 
ATOM     45  C   UNL A   1      38.254  31.436  30.872  1.00  0.00     0.074 A 
ATOM     46  C   UNL A   1      37.839  32.974  32.762  1.00  0.00     0.049 A 
ATOM     47  N   UNL A   1      39.236  30.717  31.350  1.00  0.00    -0.248 NA
ATOM     48  C   UNL A   1      37.808  31.023  29.531  1.00  0.00     0.031 C 
ATOM     49  C   UNL A   1      37.150  34.017  33.525  1.00  0.00     0.029 A 
ATOM     50  N   UNL A   1      38.809  32.520  33.621  1.00  0.00    -0.354 N 
ATOM     51  C   UNL A   1      39.498  29.747  30.390  1.00  0.00     0.074 A 
ATOM     52  C   UNL A   1      38.549  29.947  29.318  1.00  0.00     0.031 C 
ATOM     53  C   UNL A   1      37.723  34.126  34.735  1.00  0.00     0.029 A 
ATOM     54  C   UNL A   1      38.803  33.151  34.842  1.00  0.00     0.049 A 
ATOM     55  H   UNL A   1      39.449  31.810  33.384  1.00  0.00     0.167 HD
ATOM     56  C   UNL A   1      40.464  28.796  30.383  1.00  0.00     0.034 A 
ATOM     57  C   UNL A   1      39.584  32.966  35.926  1.00  0.00     0.034 A 
ATOM     58  C   UNL A   1      41.444  28.637  31.422  1.00  0.00     0.049 A 
ATOM     59  C   UNL A   1      40.692  31.950  35.866  1.00  0.00     0.074 A 
ATOM     60  C   UNL A   1      42.517  27.764  31.467  1.00  0.00     0.029 A 
ATOM     61  N   UNL A   1      41.474  29.368  32.599  1.00  0.00    -0.354 N 
ATOM     62  N   UNL A   1      41.027  31.152  34.882  1.00  0.00    -0.248 NA
ATOM     63  C   UNL A   1      41.559  31.841  37.049  1.00  0.00     0.031 C 
ATOM     64  C   UNL A   1      43.192  27.962  32.678  1.00  0.00     0.029 A 
ATOM     65  C   UNL A   1      42.547  28.969  33.378  1.00  0.00     0.049 A 
ATOM     66  H   UNL A   1      40.828  30.068  32.845  1.00  0.00     0.167 HD
ATOM     67  C   UNL A   1      42.163  30.474  35.309  1.00  0.00     0.074 A 
ATOM     68  C   UNL A   1      42.470  30.969  36.636  1.00  0.00     0.031 C 
ATOM     69  C   UNL A   1      42.877  29.516  34.669  1.00  0.00     0.034 A 
BRANCH  56  70
ATOM     70  C   UNL A   1      40.547  27.897  29.177  1.00  0.00     0.023 A 
ATOM     71  C   UNL A   1      39.688  26.784  29.084  1.00  0.00     0.012 A 
ATOM     72  C   UNL A   1      41.434  28.174  28.118  1.00  0.00     0.148 A 
ATOM     73  C   UNL A   1      39.735  25.938  27.976  1.00  0.00     0.002 A 
ATOM     74  C   UNL A   1      41.445  27.352  26.997  1.00  0.00     0.091 A 
ATOM     75  F   UNL A   1      42.262  29.223  28.234  1.00  0.00    -0.205 F 
ATOM     76  C   UNL A   1      40.605  26.228  26.930  1.00  0.00     0.022 A 
BRANCH  74  77
ATOM     77  S   UNL A   1      42.478  27.687  25.565  1.00  0.00     0.127 S 
ATOM     78  O   UNL A   1      43.792  27.855  26.181  1.00  0.00    -0.237 OA
ATOM     79  O   UNL A   1      42.324  26.462  24.778  1.00  0.00    -0.237 OA
ATOM     80  O   UNL A   1      41.918  28.878  24.942  1.00  0.00    -0.744 OA
ENDBRANCH  74  77
ENDBRANCH  56  70
BRANCH  57  81
ATOM     81  C   UNL A   1      39.400  33.830  37.127  1.00  0.00     0.023 A 
ATOM     82  C   UNL A   1      39.825  35.171  37.079  1.00  0.00     0.012 A 
ATOM     83  C   UNL A   1      38.777  33.348  38.294  1.00  0.00     0.148 A 
ATOM     84  C   UNL A   1      39.660  36.010  38.181  1.00  0.00     0.002 A 
ATOM     85  C   UNL A   1      38.569  34.203  39.370  1.00  0.00     0.091 A 
ATOM     86  F   UNL A   1      38.390  32.065  38.325  1.00  0.00    -0.205 F 
ATOM     87  C   UNL A   1      39.024  35.531  39.322  1.00  0.00     0.022 A 
BRANCH  85  88
ATOM     88  S   UNL A   1      37.642  33.707  40.828  1.00  0.00     0.127 S 
ATOM     89  O   UNL A   1      38.577  32.797  41.482  1.00  0.00    -0.237 OA
ATOM     90  O   UNL A   1      37.444  34.986  41.513  1.00  0.00    -0.237 OA
ATOM     91  O   UNL A   1      36.415  33.104  40.323  1.00  0.00    -0.744 OA
ENDBRANCH  85  88
ENDBRANCH  57  81
BRANCH  69  92
ATOM     92  C   UNL A   1      44.088  28.960  35.370  1.00  0.00     0.023 A 
ATOM     93  C   UNL A   1      45.344  29.572  35.188  1.00  0.00     0.012 A 
ATOM     94  C   UNL A   1      43.969  27.880  36.268  1.00  0.00     0.148 A 
ATOM     95  C   UNL A   1      46.468  29.100  35.865  1.00  0.00     0.002 A 
ATOM     96  C   UNL A   1      45.084  27.445  36.974  1.00  0.00     0.091 A 
ATOM     97  F   UNL A   1      42.770  27.296  36.411  1.00  0.00    -0.205 F 
ATOM     98  C   UNL A   1      46.336  28.047  36.766  1.00  0.00     0.022 A 
BRANCH  96  99
ATOM     99  S   UNL A   1      44.982  26.156  38.221  1.00  0.00     0.127 S 
ATOM    100  O   UNL A   1      43.962  26.692  39.121  1.00  0.00    -0.237 OA
ATOM    101  O   UNL A   1      44.554  24.995  37.439  1.00  0.00    -0.237 OA
ATOM    102  O   UNL A   1      46.321  26.041  38.783  1.00  0.00    -0.744 OA
ENDBRANCH  96  99
ENDBRANCH  69  92
ENDBRANCH  43  44
ENDBRANCH  35  38
ENDBRANCH  33  34
ENDBRANCH  32  33
ENDBRANCH  31  32
ENDBRANCH   1  31
TORSDOF 19
ENDMDL
MODEL 2
REMARK VINA RESULT:     -12.8      0.628      7.509
REMARK SMILES CC(C)c1ccc(-c2cnc([C@@H]3[NH2+][C@H](C(=O)NCCCCCCNC(=O)c4ccc(-c5c6nc(c(-c7cccc(S(=O)(=O)[O-])c7F)c7ccc([nH]7)c(-c7cccc(S(=O)(=O)[O-])c7F)c7nc(c(-c8cccc(S(=O)(=O)[O-])c8F)c8ccc5[nH]8)C=C7)C=C6)cc4)C(C)(C)S3)s2)cc1
REMARK SMILES IDX 20 1 19 2 18 3 17 4 15 5 16 6 14 8 12 9 13 10 93 11 90 14
REMARK SMILES IDX 91 15 92 16 11 17 8 18 9 19 94 20 10 21 7 22 4 23 5 24 96 25
REMARK SMILES IDX 6 26 95 27 2 28 1 29 3 30 21 31 22 32 23 33 24 34 25 35
REMARK SMILES IDX 26 37 27 38 28 39 89 40 29 41 88 42 30 43 31 44 32 45 82 46
REMARK SMILES IDX 33 47 87 48 81 49 83 50 34 51 86 52 80 53 79 54 35 56 67 57
REMARK SMILES IDX 47 58 66 59 48 60 51 61 65 62 84 63 49 64 50 65 64 67 85 68
REMARK SMILES IDX 52 69 36 70 37 71 45 72 38 73 40 74 46 75 39 76 41 77 42 78
REMARK SMILES IDX 43 79 44 80 68 81 69 82 77 83 70 84 72 85 78 86 71 87 73 88
REMARK SMILES IDX 74 89 75 90 76 91 53 92 54 93 62 94 55 95 57 96 63 97 56 98
REMARK SMILES IDX 58 99 59 100 60 101 61 102
REMARK H PARENT 17 7 13 12 13 13 24 36 83 55 51 66
REMARK Flexibility Score: inf
ROOT
ATOM      1  C   UNL A   1      32.933  30.230  26.662  1.00  0.00     0.002 C 
ENDROOT
BRANCH   1   2
ATOM      2  C   UNL A   1      32.938  28.984  27.562  1.00  0.00     0.021 C 
BRANCH   2   3
ATOM      3  C   UNL A   1      31.598  28.240  27.657  1.00  0.00     0.116 C 
BRANCH   3   4
ATOM      4  N   UNL A   1      31.637  27.013  26.890  1.00  0.00    -0.351 N 
ATOM      5  C   UNL A   1      30.889  26.791  25.764  1.00  0.00     0.279 C 
ATOM      6  O   UNL A   1      30.180  25.791  25.775  1.00  0.00    -0.268 OA
ATOM      7  H   UNL A   1      32.238  26.295  27.196  1.00  0.00     0.163 HD
BRANCH   5   8
ATOM      8  C   UNL A   1      31.047  27.779  24.584  1.00  0.00     0.289 C 
ATOM      9  C   UNL A   1      32.652  26.830  23.035  1.00  0.00     0.304 C 
ATOM     10  N   UNL A   1      32.471  27.821  24.116  1.00  0.00    -0.318 N 
ATOM     11  S   UNL A   1      31.069  26.632  22.160  1.00  0.00    -0.079 SA
ATOM     12  H   UNL A   1      32.688  28.755  23.764  1.00  0.00     0.348 HD
ATOM     13  H   UNL A   1      33.096  27.604  24.892  1.00  0.00     0.348 HD
ATOM     14  C   UNL A   1      30.107  27.592  23.375  1.00  0.00     0.078 C 
ATOM     15  C   UNL A   1      29.807  28.954  22.719  1.00  0.00     0.030 C 
ATOM     16  C   UNL A   1      28.784  26.891  23.684  1.00  0.00     0.030 C 
BRANCH   9  17
ATOM     17  C   UNL A   1      33.231  25.504  23.488  1.00  0.00     0.162 A 
ATOM     18  C   UNL A   1      33.691  23.139  23.910  1.00  0.00     0.055 A 
ATOM     19  C   UNL A   1      34.597  24.047  24.424  1.00  0.00     0.132 A 
ATOM     20  S   UNL A   1      32.488  24.006  23.037  1.00  0.00    -0.112 S 
ATOM     21  N   UNL A   1      34.276  25.367  24.276  1.00  0.00    -0.242 NA
BRANCH  18  22
ATOM     22  C   UNL A   1      33.679  21.684  24.095  1.00  0.00    -0.007 A 
ATOM     23  C   UNL A   1      33.796  18.861  24.515  1.00  0.00    -0.045 A 
ATOM     24  C   UNL A   1      32.691  19.469  23.893  1.00  0.00     0.004 A 
ATOM     25  C   UNL A   1      34.855  19.698  24.889  1.00  0.00     0.004 A 
ATOM     26  C   UNL A   1      32.628  20.859  23.692  1.00  0.00     0.010 A 
ATOM     27  C   UNL A   1      34.791  21.078  24.693  1.00  0.00     0.010 A 
BRANCH  23  28
ATOM     28  C   UNL A   1      33.883  17.349  24.714  1.00  0.00     0.013 C 
ATOM     29  C   UNL A   1      32.699  16.757  25.501  1.00  0.00     0.012 C 
ATOM     30  C   UNL A   1      34.011  16.563  23.401  1.00  0.00     0.012 C 
ENDBRANCH  23  28
ENDBRANCH  18  22
ENDBRANCH   9  17
ENDBRANCH   5   8
ENDBRANCH   3   4
ENDBRANCH   2   3
ENDBRANCH   1   2
BRANCH   1  31
ATOM     31  C   UNL A   1      31.560  30.861  26.414  1.00  0.00     0.002 C 
BRANCH  31  32
ATOM     32  C   UNL A   1      31.470  32.356  26.717  1.00  0.00     0.021 C 
BRANCH  32  33
ATOM     33  C   UNL A   1      32.723  32.963  27.337  1.00  0.00     0.116 C 
BRANCH  33  34
ATOM     34  N   UNL A   1      32.496  34.304  27.850  1.00  0.00    -0.352 N 
ATOM     35  C   UNL A   1      33.114  34.937  28.899  1.00  0.00     0.251 C 
ATOM     36  H   UNL A   1      31.805  34.827  27.383  1.00  0.00     0.163 HD
ATOM     37  O   UNL A   1      32.687  36.018  29.303  1.00  0.00    -0.269 OA
BRANCH  35  38
ATOM     38  C   UNL A   1      34.281  34.309  29.557  1.00  0.00     0.039 A 
ATOM     39  C   UNL A   1      34.070  33.474  30.658  1.00  0.00     0.014 A 
ATOM     40  C   UNL A   1      35.579  34.542  29.092  1.00  0.00     0.014 A 
ATOM     41  C   UNL A   1      35.156  32.835  31.262  1.00  0.00     0.010 A 
ATOM     42  C   UNL A   1      36.651  33.849  29.650  1.00  0.00     0.010 A 
ATOM     43  C   UNL A   1      36.453  33.000  30.749  1.00  0.00    -0.014 A 
BRANCH  43  44
ATOM     44  C   UNL A   1      37.617  32.303  31.356  1.00  0.00     0.031 A 
ATOM     45  C   UNL A   1      38.195  32.793  32.657  1.00  0.00     0.074 A 
ATOM     46  C   UNL A   1      38.205  31.284  30.699  1.00  0.00     0.049 A 
ATOM     47  N   UNL A   1      39.235  32.350  33.315  1.00  0.00    -0.248 NA
ATOM     48  C   UNL A   1      37.537  33.952  33.285  1.00  0.00     0.031 C 
ATOM     49  C   UNL A   1      37.792  30.769  29.393  1.00  0.00     0.029 A 
ATOM     50  N   UNL A   1      39.293  30.516  31.030  1.00  0.00    -0.354 N 
ATOM     51  C   UNL A   1      39.378  33.195  34.410  1.00  0.00     0.074 A 
ATOM     52  C   UNL A   1      38.342  34.198  34.308  1.00  0.00     0.031 C 
ATOM     53  C   UNL A   1      38.613  29.768  29.036  1.00  0.00     0.029 A 
ATOM     54  C   UNL A   1      39.621  29.582  30.075  1.00  0.00     0.049 A 
ATOM     55  H   UNL A   1      39.793  30.623  31.872  1.00  0.00     0.167 HD
ATOM     56  C   UNL A   1      40.271  33.124  35.428  1.00  0.00     0.034 A 
ATOM     57  C   UNL A   1      40.619  28.676  30.043  1.00  0.00     0.034 A 
ATOM     58  C   UNL A   1      41.262  32.092  35.558  1.00  0.00     0.049 A 
ATOM     59  C   UNL A   1      41.553  28.574  31.218  1.00  0.00     0.074 A 
ATOM     60  C   UNL A   1      42.152  31.880  36.596  1.00  0.00     0.029 A 
ATOM     61  N   UNL A   1      41.494  31.095  34.623  1.00  0.00    -0.354 N 
ATOM     62  N   UNL A   1      41.571  29.280  32.322  1.00  0.00    -0.248 NA
ATOM     63  C   UNL A   1      42.578  27.521  31.164  1.00  0.00     0.031 C 
ATOM     64  C   UNL A   1      42.930  30.758  36.283  1.00  0.00     0.029 A 
ATOM     65  C   UNL A   1      42.511  30.264  35.058  1.00  0.00     0.049 A 
ATOM     66  H   UNL A   1      41.006  30.994  33.774  1.00  0.00     0.167 HD
ATOM     67  C   UNL A   1      42.579  28.735  33.110  1.00  0.00     0.074 A 
ATOM     68  C   UNL A   1      43.137  27.626  32.362  1.00  0.00     0.031 C 
ATOM     69  C   UNL A   1      43.014  29.126  34.332  1.00  0.00     0.034 A 
BRANCH  56  70
ATOM     70  C   UNL A   1      40.166  34.158  36.518  1.00  0.00     0.023 A 
ATOM     71  C   UNL A   1      40.546  35.489  36.247  1.00  0.00     0.012 A 
ATOM     72  C   UNL A   1      39.652  33.832  37.788  1.00  0.00     0.148 A 
ATOM     73  C   UNL A   1      40.453  36.471  37.233  1.00  0.00     0.002 A 
ATOM     74  C   UNL A   1      39.521  34.826  38.752  1.00  0.00     0.091 A 
ATOM     75  F   UNL A   1      39.319  32.558  38.036  1.00  0.00    -0.205 F 
ATOM     76  C   UNL A   1      39.931  36.141  38.481  1.00  0.00     0.022 A 
BRANCH  74  77
ATOM     77  S   UNL A   1      38.790  34.514  40.364  1.00  0.00     0.127 S 
ATOM     78  O   UNL A   1      38.523  35.872  40.835  1.00  0.00    -0.237 OA
ATOM     79  O   UNL A   1      37.595  33.742  40.019  1.00  0.00    -0.237 OA
ATOM     80  O   UNL A   1      39.790  33.772  41.118  1.00  0.00    -0.744 OA
ENDBRANCH  74  77
ENDBRANCH  56  70
BRANCH  57  81
ATOM     81  C   UNL A   1      40.725  27.732  28.895  1.00  0.00     0.023 A 
ATOM     82  C   UNL A   1      39.800  26.676  28.788  1.00  0.00     0.012 A 
ATOM     83  C   UNL A   1      41.703  27.892  27.895  1.00  0.00     0.148 A 
ATOM     84  C   UNL A   1      39.864  25.779  27.722  1.00  0.00     0.002 A 
ATOM     85  C   UNL A   1      41.729  27.027  26.808  1.00  0.00     0.091 A 
ATOM     86  F   UNL A   1      42.582  28.897  28.021  1.00  0.00    -0.205 F 
ATOM     87  C   UNL A   1      40.820  25.959  26.727  1.00  0.00     0.022 A 
BRANCH  85  88
ATOM     88  S   UNL A   1      42.842  27.263  25.417  1.00  0.00     0.127 S 
ATOM     89  O   UNL A   1      42.689  26.003  24.694  1.00  0.00    -0.237 OA
ATOM     90  O   UNL A   1      42.257  28.429  24.753  1.00  0.00    -0.237 OA
ATOM     91  O   UNL A   1      44.153  27.505  26.003  1.00  0.00    -0.744 OA
ENDBRANCH  85  88
ENDBRANCH  57  81
BRANCH  69  92
ATOM     92  C   UNL A   1      44.125  28.332  34.967  1.00  0.00     0.023 A 
ATOM     93  C   UNL A   1      45.456  28.538  34.553  1.00  0.00     0.012 A 
ATOM     94  C   UNL A   1      43.860  27.440  36.025  1.00  0.00     0.148 A 
ATOM     95  C   UNL A   1      46.503  27.847  35.161  1.00  0.00     0.002 A 
ATOM     96  C   UNL A   1      44.913  26.789  36.657  1.00  0.00     0.091 A 
ATOM     97  F   UNL A   1      42.585  27.240  36.390  1.00  0.00    -0.205 F 
ATOM     98  C   UNL A   1      46.233  26.983  36.220  1.00  0.00     0.022 A 
BRANCH  96  99
ATOM     99  S   UNL A   1      44.661  25.733  38.089  1.00  0.00     0.127 S 
ATOM    100  O   UNL A   1      43.959  26.632  39.003  1.00  0.00    -0.237 OA
ATOM    101  O   UNL A   1      43.835  24.654  37.542  1.00  0.00    -0.237 OA
ATOM    102  O   UNL A   1      45.990  25.315  38.511  1.00  0.00    -0.744 OA
ENDBRANCH  96  99
ENDBRANCH  69  92
ENDBRANCH  43  44
ENDBRANCH  35  38
ENDBRANCH  33  34
ENDBRANCH  32  33
ENDBRANCH  31  32
ENDBRANCH   1  31
TORSDOF 19
ENDMDL
MODEL 3
REMARK VINA RESULT:     -12.6      5.752     12.198
REMARK SMILES CC(C)c1ccc(-c2cnc([C@@H]3[NH2+][C@H](C(=O)NCCCCCCNC(=O)c4ccc(-c5c6nc(c(-c7cccc(S(=O)(=O)[O-])c7F)c7ccc([nH]7)c(-c7cccc(S(=O)(=O)[O-])c7F)c7nc(c(-c8cccc(S(=O)(=O)[O-])c8F)c8ccc5[nH]8)C=C7)C=C6)cc4)C(C)(C)S3)s2)cc1
REMARK SMILES IDX 20 1 19 2 18 3 17 4 15 5 16 6 14 8 12 9 13 10 93 11 90 14
REMARK SMILES IDX 91 15 92 16 11 17 8 18 9 19 94 20 10 21 7 22 4 23 5 24 96 25
REMARK SMILES IDX 6 26 95 27 2 28 1 29 3 30 21 31 22 32 23 33 24 34 25 35
REMARK SMILES IDX 26 37 27 38 28 39 89 40 29 41 88 42 30 43 31 44 32 45 82 46
REMARK SMILES IDX 33 47 87 48 81 49 83 50 34 51 86 52 80 53 79 54 35 56 67 57
REMARK SMILES IDX 47 58 66 59 48 60 51 61 65 62 84 63 49 64 50 65 64 67 85 68
REMARK SMILES IDX 52 69 36 70 37 71 45 72 38 73 40 74 46 75 39 76 41 77 42 78
REMARK SMILES IDX 43 79 44 80 68 81 69 82 77 83 70 84 72 85 78 86 71 87 73 88
REMARK SMILES IDX 74 89 75 90 76 91 53 92 54 93 62 94 55 95 57 96 63 97 56 98
REMARK SMILES IDX 58 99 59 100 60 101 61 102
REMARK H PARENT 17 7 13 12 13 13 24 36 83 55 51 66
REMARK Flexibility Score: inf
ROOT
ATOM      1  C   UNL A   1      37.568  22.031  25.625  1.00  0.00     0.002 C 
ENDROOT
BRANCH   1   2
ATOM      2  C   UNL A   1      37.344  23.252  24.719  1.00  0.00     0.021 C 
BRANCH   2   3
ATOM      3  C   UNL A   1      36.657  22.954  23.378  1.00  0.00     0.116 C 
BRANCH   3   4
ATOM      4  N   UNL A   1      35.321  23.509  23.353  1.00  0.00    -0.351 N 
ATOM      5  C   UNL A   1      34.180  22.754  23.286  1.00  0.00     0.279 C 
ATOM      6  O   UNL A   1      33.414  23.013  22.364  1.00  0.00    -0.268 OA
ATOM      7  H   UNL A   1      35.226  24.490  23.387  1.00  0.00     0.163 HD
BRANCH   5   8
ATOM      8  C   UNL A   1      33.945  21.697  24.391  1.00  0.00     0.289 C 
ATOM      9  C   UNL A   1      32.634  22.740  26.144  1.00  0.00     0.304 C 
ATOM     10  N   UNL A   1      33.999  22.331  25.749  1.00  0.00    -0.318 N 
ATOM     11  S   UNL A   1      31.442  21.617  25.350  1.00  0.00    -0.079 SA
ATOM     12  H   UNL A   1      34.364  21.660  26.426  1.00  0.00     0.348 HD
ATOM     13  H   UNL A   1      34.611  23.147  25.725  1.00  0.00     0.348 HD
ATOM     14  C   UNL A   1      32.681  20.821  24.275  1.00  0.00     0.078 C 
ATOM     15  C   UNL A   1      32.944  19.425  24.870  1.00  0.00     0.030 C 
ATOM     16  C   UNL A   1      32.132  20.658  22.857  1.00  0.00     0.030 C 
BRANCH   9  17
ATOM     17  C   UNL A   1      32.315  24.199  25.885  1.00  0.00     0.162 A 
ATOM     18  C   UNL A   1      31.353  26.316  25.128  1.00  0.00     0.055 A 
ATOM     19  C   UNL A   1      32.421  26.399  26.001  1.00  0.00     0.132 A 
ATOM     20  S   UNL A   1      30.980  24.655  24.881  1.00  0.00    -0.112 S 
ATOM     21  N   UNL A   1      33.019  25.216  26.334  1.00  0.00    -0.242 NA
BRANCH  18  22
ATOM     22  C   UNL A   1      30.659  27.420  24.456  1.00  0.00    -0.007 A 
ATOM     23  C   UNL A   1      29.405  29.666  23.215  1.00  0.00    -0.045 A 
ATOM     24  C   UNL A   1      28.918  28.358  23.039  1.00  0.00     0.004 A 
ATOM     25  C   UNL A   1      30.513  29.823  24.057  1.00  0.00     0.004 A 
ATOM     26  C   UNL A   1      29.538  27.251  23.642  1.00  0.00     0.010 A 
ATOM     27  C   UNL A   1      31.131  28.724  24.654  1.00  0.00     0.010 A 
BRANCH  23  28
ATOM     28  C   UNL A   1      28.721  30.877  22.583  1.00  0.00     0.013 C 
ATOM     29  C   UNL A   1      28.032  30.571  21.240  1.00  0.00     0.012 C 
ATOM     30  C   UNL A   1      27.684  31.544  23.498  1.00  0.00     0.012 C 
ENDBRANCH  23  28
ENDBRANCH  18  22
ENDBRANCH   9  17
ENDBRANCH   5   8
ENDBRANCH   3   4
ENDBRANCH   2   3
ENDBRANCH   1   2
BRANCH   1  31
ATOM     31  C   UNL A   1      37.296  20.669  24.980  1.00  0.00     0.002 C 
BRANCH  31  32
ATOM     32  C   UNL A   1      38.427  19.651  25.114  1.00  0.00     0.021 C 
BRANCH  32  33
ATOM     33  C   UNL A   1      39.593  20.097  25.989  1.00  0.00     0.116 C 
BRANCH  33  34
ATOM     34  N   UNL A   1      40.633  19.087  26.087  1.00  0.00    -0.352 N 
ATOM     35  C   UNL A   1      41.987  19.261  26.225  1.00  0.00     0.251 C 
ATOM     36  H   UNL A   1      40.325  18.153  26.047  1.00  0.00     0.163 HD
ATOM     37  O   UNL A   1      42.744  18.295  26.130  1.00  0.00    -0.269 OA
BRANCH  35  38
ATOM     38  C   UNL A   1      42.538  20.612  26.468  1.00  0.00     0.039 A 
ATOM     39  C   UNL A   1      42.971  21.373  25.377  1.00  0.00     0.014 A 
ATOM     40  C   UNL A   1      42.629  21.129  27.763  1.00  0.00     0.014 A 
ATOM     41  C   UNL A   1      43.450  22.669  25.583  1.00  0.00     0.010 A 
ATOM     42  C   UNL A   1      43.039  22.446  27.958  1.00  0.00     0.010 A 
ATOM     43  C   UNL A   1      43.466  23.225  26.873  1.00  0.00    -0.014 A 
BRANCH  43  44
ATOM     44  C   UNL A   1      43.941  24.614  27.108  1.00  0.00     0.031 A 
ATOM     45  C   UNL A   1      42.995  25.653  27.646  1.00  0.00     0.074 A 
ATOM     46  C   UNL A   1      45.196  24.960  26.761  1.00  0.00     0.049 A 
ATOM     47  N   UNL A   1      43.207  26.924  27.870  1.00  0.00    -0.248 NA
ATOM     48  C   UNL A   1      41.620  25.215  27.943  1.00  0.00     0.031 C 
ATOM     49  C   UNL A   1      46.184  24.067  26.154  1.00  0.00     0.029 A 
ATOM     50  N   UNL A   1      45.847  26.165  26.847  1.00  0.00    -0.354 N 
ATOM     51  C   UNL A   1      41.990  27.443  28.295  1.00  0.00     0.074 A 
ATOM     52  C   UNL A   1      41.034  26.359  28.263  1.00  0.00     0.031 C 
ATOM     53  C   UNL A   1      47.316  24.753  25.927  1.00  0.00     0.029 A 
ATOM     54  C   UNL A   1      47.130  26.137  26.352  1.00  0.00     0.049 A 
ATOM     55  H   UNL A   1      45.435  26.975  27.228  1.00  0.00     0.167 HD
ATOM     56  C   UNL A   1      41.700  28.701  28.708  1.00  0.00     0.034 A 
ATOM     57  C   UNL A   1      48.053  27.114  26.256  1.00  0.00     0.034 A 
ATOM     58  C   UNL A   1      42.665  29.762  28.795  1.00  0.00     0.049 A 
ATOM     59  C   UNL A   1      47.726  28.485  26.784  1.00  0.00     0.074 A 
ATOM     60  C   UNL A   1      42.492  31.045  29.285  1.00  0.00     0.029 A 
ATOM     61  N   UNL A   1      43.986  29.666  28.386  1.00  0.00    -0.354 N 
ATOM     62  N   UNL A   1      46.617  28.914  27.334  1.00  0.00    -0.248 NA
ATOM     63  C   UNL A   1      48.794  29.494  26.721  1.00  0.00     0.031 C 
ATOM     64  C   UNL A   1      43.708  31.728  29.163  1.00  0.00     0.029 A 
ATOM     65  C   UNL A   1      44.641  30.864  28.612  1.00  0.00     0.049 A 
ATOM     66  H   UNL A   1      44.397  28.863  27.993  1.00  0.00     0.167 HD
ATOM     67  C   UNL A   1      46.863  30.228  27.717  1.00  0.00     0.074 A 
ATOM     68  C   UNL A   1      48.234  30.518  27.352  1.00  0.00     0.031 C 
ATOM     69  C   UNL A   1      46.025  31.118  28.302  1.00  0.00     0.034 A 
BRANCH  56  70
ATOM     70  C   UNL A   1      40.290  28.976  29.163  1.00  0.00     0.023 A 
ATOM     71  C   UNL A   1      39.305  29.296  28.207  1.00  0.00     0.012 A 
ATOM     72  C   UNL A   1      39.927  28.873  30.520  1.00  0.00     0.148 A 
ATOM     73  C   UNL A   1      37.990  29.548  28.596  1.00  0.00     0.002 A 
ATOM     74  C   UNL A   1      38.605  29.082  30.896  1.00  0.00     0.091 A 
ATOM     75  F   UNL A   1      40.881  28.592  31.419  1.00  0.00    -0.205 F 
ATOM     76  C   UNL A   1      37.638  29.431  29.938  1.00  0.00     0.022 A 
BRANCH  74  77
ATOM     77  S   UNL A   1      38.040  28.880  32.590  1.00  0.00     0.127 S 
ATOM     78  O   UNL A   1      36.654  29.335  32.496  1.00  0.00    -0.237 OA
ATOM     79  O   UNL A   1      38.196  27.440  32.799  1.00  0.00    -0.237 OA
ATOM     80  O   UNL A   1      38.920  29.706  33.404  1.00  0.00    -0.744 OA
ENDBRANCH  74  77
ENDBRANCH  56  70
BRANCH  57  81
ATOM     81  C   UNL A   1      49.407  26.804  25.716  1.00  0.00     0.023 A 
ATOM     82  C   UNL A   1      50.319  26.094  26.521  1.00  0.00     0.012 A 
ATOM     83  C   UNL A   1      49.783  27.169  24.409  1.00  0.00     0.148 A 
ATOM     84  C   UNL A   1      51.592  25.778  26.044  1.00  0.00     0.002 A 
ATOM     85  C   UNL A   1      51.033  26.805  23.922  1.00  0.00     0.091 A 
ATOM     86  F   UNL A   1      48.905  27.854  23.663  1.00  0.00    -0.205 F 
ATOM     87  C   UNL A   1      51.946  26.124  24.744  1.00  0.00     0.022 A 
BRANCH  85  88
ATOM     88  S   UNL A   1      51.523  27.094  22.218  1.00  0.00     0.127 S 
ATOM     89  O   UNL A   1      51.748  28.537  22.211  1.00  0.00    -0.237 OA
ATOM     90  O   UNL A   1      52.734  26.281  22.106  1.00  0.00    -0.237 OA
ATOM     91  O   UNL A   1      50.409  26.621  21.406  1.00  0.00    -0.744 OA
ENDBRANCH  85  88
ENDBRANCH  57  81
BRANCH  69  92
ATOM     92  C   UNL A   1      46.569  32.485  28.624  1.00  0.00     0.023 A 
ATOM     93  C   UNL A   1      47.164  32.722  29.879  1.00  0.00     0.012 A 
ATOM     94  C   UNL A   1      46.561  33.510  27.658  1.00  0.00     0.148 A 
ATOM     95  C   UNL A   1      47.715  33.967  30.178  1.00  0.00     0.002 A 
ATOM     96  C   UNL A   1      47.154  34.734  27.947  1.00  0.00     0.091 A 
ATOM     97  F   UNL A   1      45.971  33.273  26.477  1.00  0.00    -0.205 F 
ATOM     98  C   UNL A   1      47.722  34.967  29.209  1.00  0.00     0.022 A 
BRANCH  96  99
ATOM     99  S   UNL A   1      47.287  36.043  26.723  1.00  0.00     0.127 S 
ATOM    100  O   UNL A   1      47.791  37.154  27.528  1.00  0.00    -0.237 OA
ATOM    101  O   UNL A   1      48.256  35.489  25.775  1.00  0.00    -0.237 OA
ATOM    102  O   UNL A   1      45.947  36.215  26.179  1.00  0.00    -0.744 OA
ENDBRANCH  96  99
ENDBRANCH  69  92
ENDBRANCH  43  44
ENDBRANCH  35  38
ENDBRANCH  33  34
ENDBRANCH  32  33
ENDBRANCH  31  32
ENDBRANCH   1  31
TORSDOF 19
ENDMDL
