MODEL 1
REMARK VINA RESULT:     -12.7      0.000      0.000
REMARK SMILES O=C(NCCCCCCNC(=O)c1ccc(N2C(=O)[C@@H]3N=NC(c4ccccc4)=C3[C@H]2c2cccc(Br)c2)cc1)c1ccc(-c2c3nc(c(-c4cccc(S(=O)(=O)[O-])c4F)c4ccc([nH]4)c(-c4cccc(S(=O)(=O)[O-])c4F)c4nc(c(-c5cccc(S(=O)(=O)[O-])c5F)c5ccc2[nH]5)C=C4)C=C3)cc1
REMARK SMILES IDX 6 1 5 2 4 3 3 4 1 5 2 6 41 8 42 9 103 10 43 11 102 12 44 13
REMARK SMILES IDX 45 14 46 15 96 16 47 17 101 18 95 19 97 20 48 21 100 22
REMARK SMILES IDX 94 23 93 24 49 26 81 27 61 28 80 29 62 30 65 31 79 32 98 33
REMARK SMILES IDX 63 34 64 35 78 37 99 38 66 39 50 40 51 41 59 42 52 43 54 44
REMARK SMILES IDX 60 45 53 46 55 47 56 48 57 49 58 50 82 51 83 52 91 53 84 54
REMARK SMILES IDX 86 55 92 56 85 57 87 58 88 59 89 60 90 61 67 62 68 63 76 64
REMARK SMILES IDX 69 65 71 66 77 67 70 68 72 69 73 70 74 71 75 72 7 73 8 74
REMARK SMILES IDX 9 75 10 76 11 77 12 79 13 80 14 81 40 82 15 83 39 84 16 85
REMARK SMILES IDX 17 86 18 87 31 88 20 89 19 90 30 91 21 92 23 93 22 94 32 95
REMARK SMILES IDX 33 96 38 97 34 98 36 99 35 100 37 101 24 102 25 103 29 104
REMARK SMILES IDX 26 105 28 106 27 107
REMARK H PARENT 3 7 97 25 65 36 10 78
REMARK Flexibility Score: inf
ROOT
ATOM      1  C   UNL A   1      34.627  29.822  27.362  1.00  0.00     0.002 C 
ENDROOT
BRANCH   1   2
ATOM      2  C   UNL A   1      36.020  30.342  27.733  1.00  0.00     0.021 C 
BRANCH   2   3
ATOM      3  C   UNL A   1      36.040  31.678  28.476  1.00  0.00     0.116 C 
BRANCH   3   4
ATOM      4  N   UNL A   1      35.647  31.610  29.866  1.00  0.00    -0.352 N 
ATOM      5  O   UNL A   1      35.664  31.427  32.066  1.00  0.00    -0.269 OA
ATOM      6  C   UNL A   1      36.257  31.181  31.013  1.00  0.00     0.251 C 
ATOM      7  H   UNL A   1      34.735  31.946  30.023  1.00  0.00     0.163 HD
BRANCH   6   8
ATOM      8  C   UNL A   1      37.521  30.397  31.058  1.00  0.00     0.039 A 
ATOM      9  C   UNL A   1      37.610  29.003  31.056  1.00  0.00     0.014 A 
ATOM     10  C   UNL A   1      38.709  31.148  31.125  1.00  0.00     0.014 A 
ATOM     11  C   UNL A   1      38.840  28.373  31.209  1.00  0.00     0.010 A 
ATOM     12  C   UNL A   1      39.945  30.524  31.255  1.00  0.00     0.010 A 
ATOM     13  C   UNL A   1      40.002  29.135  31.325  1.00  0.00    -0.014 A 
BRANCH  13  14
ATOM     14  C   UNL A   1      41.282  28.432  31.311  1.00  0.00     0.031 A 
ATOM     15  C   UNL A   1      41.946  28.354  32.643  1.00  0.00     0.074 A 
ATOM     16  C   UNL A   1      41.745  27.761  30.239  1.00  0.00     0.049 A 
ATOM     17  N   UNL A   1      43.103  28.816  32.992  1.00  0.00    -0.248 NA
ATOM     18  C   UNL A   1      41.158  27.812  33.761  1.00  0.00     0.031 C 
ATOM     19  C   UNL A   1      41.030  27.519  28.985  1.00  0.00     0.029 A 
ATOM     20  N   UNL A   1      42.884  27.017  30.103  1.00  0.00    -0.354 N 
ATOM     21  C   UNL A   1      43.282  28.404  34.316  1.00  0.00     0.074 A 
ATOM     22  C   UNL A   1      41.988  27.996  34.785  1.00  0.00     0.031 C 
ATOM     23  C   UNL A   1      41.621  26.492  28.334  1.00  0.00     0.029 A 
ATOM     24  C   UNL A   1      42.808  26.088  29.068  1.00  0.00     0.049 A 
ATOM     25  H   UNL A   1      43.677  27.128  30.676  1.00  0.00     0.167 HD
ATOM     26  C   UNL A   1      44.525  28.157  34.817  1.00  0.00     0.034 A 
ATOM     27  C   UNL A   1      43.599  25.003  28.885  1.00  0.00     0.034 A 
ATOM     28  C   UNL A   1      45.546  28.787  34.013  1.00  0.00     0.049 A 
ATOM     29  C   UNL A   1      44.837  25.207  29.667  1.00  0.00     0.074 A 
ATOM     30  C   UNL A   1      45.840  30.072  33.604  1.00  0.00     0.029 A 
ATOM     31  N   UNL A   1      46.297  27.956  33.222  1.00  0.00    -0.354 N 
ATOM     32  N   UNL A   1      45.745  26.094  29.374  1.00  0.00    -0.248 NA
ATOM     33  C   UNL A   1      44.914  24.649  31.007  1.00  0.00     0.031 C 
ATOM     34  C   UNL A   1      46.427  29.928  32.311  1.00  0.00     0.029 A 
ATOM     35  C   UNL A   1      46.493  28.565  32.018  1.00  0.00     0.049 A 
ATOM     36  H   UNL A   1      46.638  27.069  33.480  1.00  0.00     0.167 HD
ATOM     37  C   UNL A   1      46.197  26.540  30.608  1.00  0.00     0.074 A 
ATOM     38  C   UNL A   1      45.767  25.516  31.556  1.00  0.00     0.031 C 
ATOM     39  C   UNL A   1      46.601  27.834  30.775  1.00  0.00     0.034 A 
BRANCH  26  40
ATOM     40  C   UNL A   1      44.873  26.975  35.723  1.00  0.00     0.023 A 
ATOM     41  C   UNL A   1      45.758  27.244  36.798  1.00  0.00     0.012 A 
ATOM     42  C   UNL A   1      44.684  25.612  35.395  1.00  0.00     0.148 A 
ATOM     43  C   UNL A   1      46.530  26.239  37.391  1.00  0.00     0.002 A 
ATOM     44  C   UNL A   1      45.410  24.608  36.029  1.00  0.00     0.091 A 
ATOM     45  F   UNL A   1      43.874  25.256  34.400  1.00  0.00    -0.205 F 
ATOM     46  C   UNL A   1      46.369  24.921  36.994  1.00  0.00     0.022 A 
BRANCH  44  47
ATOM     47  S   UNL A   1      45.216  22.876  35.583  1.00  0.00     0.127 S 
ATOM     48  O   UNL A   1      46.308  22.700  34.631  1.00  0.00    -0.237 OA
ATOM     49  O   UNL A   1      45.404  22.216  36.875  1.00  0.00    -0.237 OA
ATOM     50  O   UNL A   1      43.868  22.754  35.041  1.00  0.00    -0.744 OA
ENDBRANCH  44  47
ENDBRANCH  26  40
BRANCH  27  51
ATOM     51  C   UNL A   1      43.283  23.692  28.267  1.00  0.00     0.023 A 
ATOM     52  C   UNL A   1      42.084  23.032  28.606  1.00  0.00     0.012 A 
ATOM     53  C   UNL A   1      44.015  23.210  27.159  1.00  0.00     0.148 A 
ATOM     54  C   UNL A   1      41.615  21.952  27.850  1.00  0.00     0.002 A 
ATOM     55  C   UNL A   1      43.554  22.124  26.422  1.00  0.00     0.091 A 
ATOM     56  F   UNL A   1      45.110  23.873  26.766  1.00  0.00    -0.205 F 
ATOM     57  C   UNL A   1      42.346  21.500  26.756  1.00  0.00     0.022 A 
BRANCH  55  58
ATOM     58  S   UNL A   1      44.452  21.489  24.999  1.00  0.00     0.127 S 
ATOM     59  O   UNL A   1      45.825  21.441  25.502  1.00  0.00    -0.237 OA
ATOM     60  O   UNL A   1      43.827  20.185  24.801  1.00  0.00    -0.237 OA
ATOM     61  O   UNL A   1      44.243  22.462  23.933  1.00  0.00    -0.744 OA
ENDBRANCH  55  58
ENDBRANCH  27  51
BRANCH  39  62
ATOM     62  C   UNL A   1      46.917  28.645  29.548  1.00  0.00     0.023 A 
ATOM     63  C   UNL A   1      48.168  28.584  28.901  1.00  0.00     0.012 A 
ATOM     64  C   UNL A   1      45.874  29.373  28.951  1.00  0.00     0.148 A 
ATOM     65  C   UNL A   1      48.383  29.265  27.701  1.00  0.00     0.002 A 
ATOM     66  C   UNL A   1      46.077  30.005  27.731  1.00  0.00     0.091 A 
ATOM     67  F   UNL A   1      44.689  29.419  29.579  1.00  0.00    -0.205 F 
ATOM     68  C   UNL A   1      47.333  29.964  27.109  1.00  0.00     0.022 A 
BRANCH  66  69
ATOM     69  S   UNL A   1      44.728  30.806  26.861  1.00  0.00     0.127 S 
ATOM     70  O   UNL A   1      44.241  31.757  27.857  1.00  0.00    -0.237 OA
ATOM     71  O   UNL A   1      45.407  31.413  25.715  1.00  0.00    -0.237 OA
ATOM     72  O   UNL A   1      43.799  29.740  26.499  1.00  0.00    -0.744 OA
ENDBRANCH  66  69
ENDBRANCH  39  62
ENDBRANCH  13  14
ENDBRANCH   6   8
ENDBRANCH   3   4
ENDBRANCH   2   3
ENDBRANCH   1   2
BRANCH   1  73
ATOM     73  C   UNL A   1      33.526  30.879  27.248  1.00  0.00     0.002 C 
BRANCH  73  74
ATOM     74  C   UNL A   1      32.165  30.380  26.747  1.00  0.00     0.021 C 
BRANCH  74  75
ATOM     75  C   UNL A   1      32.200  29.123  25.874  1.00  0.00     0.116 C 
BRANCH  75  76
ATOM     76  N   UNL A   1      31.950  29.418  24.475  1.00  0.00    -0.352 N 
ATOM     77  C   UNL A   1      31.830  28.559  23.413  1.00  0.00     0.251 C 
ATOM     78  H   UNL A   1      31.851  30.373  24.257  1.00  0.00     0.163 HD
ATOM     79  O   UNL A   1      31.785  28.999  22.266  1.00  0.00    -0.269 OA
BRANCH  77  80
ATOM     80  C   UNL A   1      31.808  27.092  23.622  1.00  0.00     0.039 A 
ATOM     81  C   UNL A   1      33.021  26.465  23.897  1.00  0.00     0.016 A 
ATOM     82  C   UNL A   1      30.638  26.326  23.515  1.00  0.00     0.016 A 
ATOM     83  C   UNL A   1      33.048  25.090  24.137  1.00  0.00     0.027 A 
ATOM     84  C   UNL A   1      30.671  24.935  23.741  1.00  0.00     0.027 A 
ATOM     85  C   UNL A   1      31.874  24.314  24.084  1.00  0.00     0.045 A 
BRANCH  85  86
ATOM     86  N   UNL A   1      31.927  22.936  24.474  1.00  0.00    -0.299 N 
ATOM     87  C   UNL A   1      31.454  22.666  25.802  1.00  0.00     0.259 C 
ATOM     88  C   UNL A   1      33.138  22.128  24.180  1.00  0.00     0.152 C 
ATOM     89  C   UNL A   1      32.418  21.724  26.458  1.00  0.00     0.248 C 
ATOM     90  O   UNL A   1      30.476  23.169  26.346  1.00  0.00    -0.271 OA
ATOM     91  C   UNL A   1      33.582  21.976  25.581  1.00  0.00     0.021 C 
ATOM     92  N   UNL A   1      32.939  22.131  27.773  1.00  0.00    -0.170 NA
ATOM     93  C   UNL A   1      34.616  22.223  26.379  1.00  0.00     0.097 C 
ATOM     94  N   UNL A   1      34.199  22.267  27.696  1.00  0.00    -0.154 NA
BRANCH  88  95
ATOM     95  C   UNL A   1      32.876  20.740  23.554  1.00  0.00    -0.020 A 
ATOM     96  C   UNL A   1      32.178  20.606  22.324  1.00  0.00     0.006 A 
ATOM     97  C   UNL A   1      33.243  19.552  24.203  1.00  0.00     0.022 A 
ATOM     98  C   UNL A   1      31.899  19.367  21.746  1.00  0.00     0.002 A 
ATOM     99  C   UNL A   1      32.930  18.304  23.633  1.00  0.00     0.018 A 
ATOM    100  C   UNL A   1      32.271  18.207  22.407  1.00  0.00     0.016 A 
ATOM    101  Br  UNL A   1      33.374  16.707  24.545  1.00  0.00    -0.051 Br
ENDBRANCH  88  95
BRANCH  93 102
ATOM    102  C   UNL A   1      35.988  22.597  26.049  1.00  0.00     0.002 A 
ATOM    103  C   UNL A   1      36.932  21.613  25.729  1.00  0.00     0.010 A 
ATOM    104  C   UNL A   1      36.416  23.914  26.258  1.00  0.00     0.010 A 
ATOM    105  C   UNL A   1      38.294  21.928  25.704  1.00  0.00     0.001 A 
ATOM    106  C   UNL A   1      37.775  24.227  26.228  1.00  0.00     0.001 A 
ATOM    107  C   UNL A   1      38.715  23.229  25.976  1.00  0.00     0.000 A 
ENDBRANCH  93 102
ENDBRANCH  85  86
ENDBRANCH  77  80
ENDBRANCH  75  76
ENDBRANCH  74  75
ENDBRANCH  73  74
ENDBRANCH   1  73
TORSDOF 19
ENDMDL
MODEL 2
REMARK VINA RESULT:     -12.0      1.781      2.334
REMARK SMILES O=C(NCCCCCCNC(=O)c1ccc(N2C(=O)[C@@H]3N=NC(c4ccccc4)=C3[C@H]2c2cccc(Br)c2)cc1)c1ccc(-c2c3nc(c(-c4cccc(S(=O)(=O)[O-])c4F)c4ccc([nH]4)c(-c4cccc(S(=O)(=O)[O-])c4F)c4nc(c(-c5cccc(S(=O)(=O)[O-])c5F)c5ccc2[nH]5)C=C4)C=C3)cc1
REMARK SMILES IDX 6 1 5 2 4 3 3 4 1 5 2 6 41 8 42 9 103 10 43 11 102 12 44 13
REMARK SMILES IDX 45 14 46 15 96 16 47 17 101 18 95 19 97 20 48 21 100 22
REMARK SMILES IDX 94 23 93 24 49 26 81 27 61 28 80 29 62 30 65 31 79 32 98 33
REMARK SMILES IDX 63 34 64 35 78 37 99 38 66 39 50 40 51 41 59 42 52 43 54 44
REMARK SMILES IDX 60 45 53 46 55 47 56 48 57 49 58 50 82 51 83 52 91 53 84 54
REMARK SMILES IDX 86 55 92 56 85 57 87 58 88 59 89 60 90 61 67 62 68 63 76 64
REMARK SMILES IDX 69 65 71 66 77 67 70 68 72 69 73 70 74 71 75 72 7 73 8 74
REMARK SMILES IDX 9 75 10 76 11 77 12 79 13 80 14 81 40 82 15 83 39 84 16 85
REMARK SMILES IDX 17 86 18 87 31 88 20 89 19 90 30 91 21 92 23 93 22 94 32 95
REMARK SMILES IDX 33 96 38 97 34 98 36 99 35 100 37 101 24 102 25 103 29 104
REMARK SMILES IDX 26 105 28 106 27 107
REMARK H PARENT 3 7 97 25 65 36 10 78
REMARK Flexibility Score: inf
ROOT
ATOM      1  C   UNL A   1      33.255  29.734  25.728  1.00  0.00     0.002 C 
ENDROOT
BRANCH   1   2
ATOM      2  C   UNL A   1      33.177  29.582  27.251  1.00  0.00     0.021 C 
BRANCH   2   3
ATOM      3  C   UNL A   1      34.518  29.656  27.983  1.00  0.00     0.116 C 
BRANCH   3   4
ATOM      4  N   UNL A   1      35.110  30.974  28.042  1.00  0.00    -0.352 N 
ATOM      5  O   UNL A   1      36.536  32.659  28.027  1.00  0.00    -0.269 OA
ATOM      6  C   UNL A   1      36.387  31.444  28.183  1.00  0.00     0.251 C 
ATOM      7  H   UNL A   1      34.444  31.695  27.965  1.00  0.00     0.163 HD
BRANCH   6   8
ATOM      8  C   UNL A   1      37.557  30.614  28.571  1.00  0.00     0.039 A 
ATOM      9  C   UNL A   1      37.783  29.294  28.172  1.00  0.00     0.014 A 
ATOM     10  C   UNL A   1      38.493  31.228  29.425  1.00  0.00     0.014 A 
ATOM     11  C   UNL A   1      38.859  28.575  28.681  1.00  0.00     0.010 A 
ATOM     12  C   UNL A   1      39.583  30.522  29.920  1.00  0.00     0.010 A 
ATOM     13  C   UNL A   1      39.746  29.186  29.567  1.00  0.00    -0.014 A 
BRANCH  13  14
ATOM     14  C   UNL A   1      40.951  28.449  29.939  1.00  0.00     0.031 A 
ATOM     15  C   UNL A   1      41.268  28.501  31.394  1.00  0.00     0.074 A 
ATOM     16  C   UNL A   1      41.623  27.651  29.087  1.00  0.00     0.049 A 
ATOM     17  N   UNL A   1      42.330  28.965  31.969  1.00  0.00    -0.248 NA
ATOM     18  C   UNL A   1      40.205  28.108  32.332  1.00  0.00     0.031 C 
ATOM     19  C   UNL A   1      41.221  27.292  27.726  1.00  0.00     0.029 A 
ATOM     20  N   UNL A   1      42.719  26.865  29.310  1.00  0.00    -0.354 N 
ATOM     21  C   UNL A   1      42.161  28.697  33.331  1.00  0.00     0.074 A 
ATOM     22  C   UNL A   1      40.772  28.381  33.506  1.00  0.00     0.031 C 
ATOM     23  C   UNL A   1      41.894  26.184  27.347  1.00  0.00     0.029 A 
ATOM     24  C   UNL A   1      42.845  25.829  28.387  1.00  0.00     0.049 A 
ATOM     25  H   UNL A   1      43.354  27.016  30.047  1.00  0.00     0.167 HD
ATOM     26  C   UNL A   1      43.230  28.472  34.145  1.00  0.00     0.034 A 
ATOM     27  C   UNL A   1      43.597  24.709  28.515  1.00  0.00     0.034 A 
ATOM     28  C   UNL A   1      44.448  28.980  33.559  1.00  0.00     0.049 A 
ATOM     29  C   UNL A   1      44.618  24.963  29.553  1.00  0.00     0.074 A 
ATOM     30  C   UNL A   1      44.902  30.203  33.108  1.00  0.00     0.029 A 
ATOM     31  N   UNL A   1      45.322  28.046  33.064  1.00  0.00    -0.354 N 
ATOM     32  N   UNL A   1      45.617  25.787  29.405  1.00  0.00    -0.248 NA
ATOM     33  C   UNL A   1      44.338  24.554  30.919  1.00  0.00     0.031 C 
ATOM     34  C   UNL A   1      45.775  29.901  32.020  1.00  0.00     0.029 A 
ATOM     35  C   UNL A   1      45.836  28.513  31.891  1.00  0.00     0.049 A 
ATOM     36  H   UNL A   1      45.542  27.183  33.485  1.00  0.00     0.167 HD
ATOM     37  C   UNL A   1      45.780  26.353  30.662  1.00  0.00     0.074 A 
ATOM     38  C   UNL A   1      45.078  25.453  31.572  1.00  0.00     0.031 C 
ATOM     39  C   UNL A   1      46.201  27.646  30.792  1.00  0.00     0.034 A 
BRANCH  26  40
ATOM     40  C   UNL A   1      43.284  27.388  35.222  1.00  0.00     0.023 A 
ATOM     41  C   UNL A   1      42.151  26.542  35.321  1.00  0.00     0.012 A 
ATOM     42  C   UNL A   1      44.174  27.372  36.322  1.00  0.00     0.148 A 
ATOM     43  C   UNL A   1      41.836  25.860  36.502  1.00  0.00     0.002 A 
ATOM     44  C   UNL A   1      43.888  26.645  37.473  1.00  0.00     0.091 A 
ATOM     45  F   UNL A   1      45.267  28.133  36.325  1.00  0.00    -0.205 F 
ATOM     46  C   UNL A   1      42.698  25.926  37.586  1.00  0.00     0.022 A 
BRANCH  44  47
ATOM     47  S   UNL A   1      44.987  26.660  38.898  1.00  0.00     0.127 S 
ATOM     48  O   UNL A   1      44.063  26.325  39.976  1.00  0.00    -0.237 OA
ATOM     49  O   UNL A   1      45.941  25.608  38.546  1.00  0.00    -0.237 OA
ATOM     50  O   UNL A   1      45.563  27.999  38.941  1.00  0.00    -0.744 OA
ENDBRANCH  44  47
ENDBRANCH  26  40
BRANCH  27  51
ATOM     51  C   UNL A   1      43.368  23.348  27.972  1.00  0.00     0.023 A 
ATOM     52  C   UNL A   1      42.213  22.632  28.348  1.00  0.00     0.012 A 
ATOM     53  C   UNL A   1      44.135  22.851  26.894  1.00  0.00     0.148 A 
ATOM     54  C   UNL A   1      41.818  21.482  27.654  1.00  0.00     0.002 A 
ATOM     55  C   UNL A   1      43.748  21.697  26.220  1.00  0.00     0.091 A 
ATOM     56  F   UNL A   1      45.187  23.560  26.465  1.00  0.00    -0.205 F 
ATOM     57  C   UNL A   1      42.582  21.017  26.589  1.00  0.00     0.022 A 
BRANCH  55  58
ATOM     58  S   UNL A   1      44.692  21.042  24.836  1.00  0.00     0.127 S 
ATOM     59  O   UNL A   1      44.517  22.087  23.827  1.00  0.00    -0.237 OA
ATOM     60  O   UNL A   1      46.036  20.954  25.399  1.00  0.00    -0.237 OA
ATOM     61  O   UNL A   1      44.062  19.773  24.493  1.00  0.00    -0.744 OA
ENDBRANCH  55  58
ENDBRANCH  27  51
BRANCH  39  62
ATOM     62  C   UNL A   1      46.848  28.307  29.606  1.00  0.00     0.023 A 
ATOM     63  C   UNL A   1      48.242  28.289  29.396  1.00  0.00     0.012 A 
ATOM     64  C   UNL A   1      46.014  28.830  28.605  1.00  0.00     0.148 A 
ATOM     65  C   UNL A   1      48.793  28.815  28.224  1.00  0.00     0.002 A 
ATOM     66  C   UNL A   1      46.561  29.304  27.420  1.00  0.00     0.091 A 
ATOM     67  F   UNL A   1      44.689  28.838  28.820  1.00  0.00    -0.205 F 
ATOM     68  C   UNL A   1      47.951  29.310  27.231  1.00  0.00     0.022 A 
BRANCH  66  69
ATOM     69  S   UNL A   1      45.520  29.830  26.056  1.00  0.00     0.127 S 
ATOM     70  O   UNL A   1      46.420  29.695  24.913  1.00  0.00    -0.237 OA
ATOM     71  O   UNL A   1      44.430  28.852  26.096  1.00  0.00    -0.237 OA
ATOM     72  O   UNL A   1      45.104  31.191  26.375  1.00  0.00    -0.744 OA
ENDBRANCH  66  69
ENDBRANCH  39  62
ENDBRANCH  13  14
ENDBRANCH   6   8
ENDBRANCH   3   4
ENDBRANCH   2   3
ENDBRANCH   1   2
BRANCH   1  73
ATOM     73  C   UNL A   1      33.270  28.431  24.925  1.00  0.00     0.002 C 
BRANCH  73  74
ATOM     74  C   UNL A   1      33.072  28.574  23.411  1.00  0.00     0.021 C 
BRANCH  74  75
ATOM     75  C   UNL A   1      33.630  27.431  22.558  1.00  0.00     0.116 C 
BRANCH  75  76
ATOM     76  N   UNL A   1      32.836  27.197  21.365  1.00  0.00    -0.352 N 
ATOM     77  C   UNL A   1      32.217  26.048  20.944  1.00  0.00     0.251 C 
ATOM     78  H   UNL A   1      32.726  27.976  20.774  1.00  0.00     0.163 HD
ATOM     79  O   UNL A   1      31.726  25.989  19.819  1.00  0.00    -0.269 OA
BRANCH  77  80
ATOM     80  C   UNL A   1      32.177  24.847  21.811  1.00  0.00     0.039 A 
ATOM     81  C   UNL A   1      33.106  23.840  21.555  1.00  0.00     0.016 A 
ATOM     82  C   UNL A   1      31.230  24.675  22.831  1.00  0.00     0.016 A 
ATOM     83  C   UNL A   1      33.133  22.704  22.365  1.00  0.00     0.027 A 
ATOM     84  C   UNL A   1      31.248  23.519  23.637  1.00  0.00     0.027 A 
ATOM     85  C   UNL A   1      32.221  22.539  23.426  1.00  0.00     0.045 A 
BRANCH  85  86
ATOM     86  N   UNL A   1      32.376  21.426  24.316  1.00  0.00    -0.299 N 
ATOM     87  C   UNL A   1      31.821  21.619  25.626  1.00  0.00     0.259 C 
ATOM     88  C   UNL A   1      33.681  20.723  24.403  1.00  0.00     0.152 C 
ATOM     89  C   UNL A   1      32.814  21.118  26.632  1.00  0.00     0.248 C 
ATOM     90  O   UNL A   1      30.756  22.164  25.895  1.00  0.00    -0.271 OA
ATOM     91  C   UNL A   1      34.017  21.164  25.773  1.00  0.00     0.021 C 
ATOM     92  N   UNL A   1      33.179  22.050  27.710  1.00  0.00    -0.170 NA
ATOM     93  C   UNL A   1      34.951  21.817  26.458  1.00  0.00     0.097 C 
ATOM     94  N   UNL A   1      34.422  22.301  27.639  1.00  0.00    -0.154 NA
BRANCH  88  95
ATOM     95  C   UNL A   1      33.611  19.180  24.346  1.00  0.00    -0.020 A 
ATOM     96  C   UNL A   1      32.435  18.512  23.911  1.00  0.00     0.006 A 
ATOM     97  C   UNL A   1      34.667  18.372  24.791  1.00  0.00     0.022 A 
ATOM     98  C   UNL A   1      32.328  17.121  23.875  1.00  0.00     0.002 A 
ATOM     99  C   UNL A   1      34.542  16.971  24.785  1.00  0.00     0.018 A 
ATOM    100  C   UNL A   1      33.385  16.344  24.321  1.00  0.00     0.016 A 
ATOM    101  Br  UNL A   1      35.948  15.890  25.445  1.00  0.00    -0.051 Br
ENDBRANCH  88  95
BRANCH  93 102
ATOM    102  C   UNL A   1      36.302  22.207  26.066  1.00  0.00     0.002 A 
ATOM    103  C   UNL A   1      37.243  21.232  25.708  1.00  0.00     0.010 A 
ATOM    104  C   UNL A   1      36.723  23.529  26.251  1.00  0.00     0.010 A 
ATOM    105  C   UNL A   1      38.599  21.563  25.622  1.00  0.00     0.001 A 
ATOM    106  C   UNL A   1      38.076  23.858  26.160  1.00  0.00     0.001 A 
ATOM    107  C   UNL A   1      39.016  22.870  25.870  1.00  0.00     0.000 A 
ENDBRANCH  93 102
ENDBRANCH  85  86
ENDBRANCH  77  80
ENDBRANCH  75  76
ENDBRANCH  74  75
ENDBRANCH  73  74
ENDBRANCH   1  73
TORSDOF 19
ENDMDL
MODEL 3
REMARK VINA RESULT:     -11.7      1.506      2.026
REMARK SMILES O=C(NCCCCCCNC(=O)c1ccc(N2C(=O)[C@@H]3N=NC(c4ccccc4)=C3[C@H]2c2cccc(Br)c2)cc1)c1ccc(-c2c3nc(c(-c4cccc(S(=O)(=O)[O-])c4F)c4ccc([nH]4)c(-c4cccc(S(=O)(=O)[O-])c4F)c4nc(c(-c5cccc(S(=O)(=O)[O-])c5F)c5ccc2[nH]5)C=C4)C=C3)cc1
REMARK SMILES IDX 6 1 5 2 4 3 3 4 1 5 2 6 41 8 42 9 103 10 43 11 102 12 44 13
REMARK SMILES IDX 45 14 46 15 96 16 47 17 101 18 95 19 97 20 48 21 100 22
REMARK SMILES IDX 94 23 93 24 49 26 81 27 61 28 80 29 62 30 65 31 79 32 98 33
REMARK SMILES IDX 63 34 64 35 78 37 99 38 66 39 50 40 51 41 59 42 52 43 54 44
REMARK SMILES IDX 60 45 53 46 55 47 56 48 57 49 58 50 82 51 83 52 91 53 84 54
REMARK SMILES IDX 86 55 92 56 85 57 87 58 88 59 89 60 90 61 67 62 68 63 76 64
REMARK SMILES IDX 69 65 71 66 77 67 70 68 72 69 73 70 74 71 75 72 7 73 8 74
REMARK SMILES IDX 9 75 10 76 11 77 12 79 13 80 14 81 40 82 15 83 39 84 16 85
REMARK SMILES IDX 17 86 18 87 31 88 20 89 19 90 30 91 21 92 23 93 22 94 32 95
REMARK SMILES IDX 33 96 38 97 34 98 36 99 35 100 37 101 24 102 25 103 29 104
REMARK SMILES IDX 26 105 28 106 27 107
REMARK H PARENT 3 7 97 25 65 36 10 78
REMARK Flexibility Score: inf
ROOT
ATOM      1  C   UNL A   1      33.744  32.198  28.022  1.00  0.00     0.002 C 
ENDROOT
BRANCH   1   2
ATOM      2  C   UNL A   1      35.097  32.891  27.830  1.00  0.00     0.021 C 
BRANCH   2   3
ATOM      3  C   UNL A   1      35.848  33.223  29.119  1.00  0.00     0.116 C 
BRANCH   3   4
ATOM      4  N   UNL A   1      35.365  32.542  30.300  1.00  0.00    -0.352 N 
ATOM      5  O   UNL A   1      35.243  31.436  32.207  1.00  0.00    -0.269 OA
ATOM      6  C   UNL A   1      35.933  31.702  31.219  1.00  0.00     0.251 C 
ATOM      7  H   UNL A   1      34.415  32.721  30.483  1.00  0.00     0.163 HD
BRANCH   6   8
ATOM      8  C   UNL A   1      37.264  31.056  31.069  1.00  0.00     0.039 A 
ATOM      9  C   UNL A   1      38.497  31.703  31.179  1.00  0.00     0.014 A 
ATOM     10  C   UNL A   1      37.250  29.679  30.775  1.00  0.00     0.014 A 
ATOM     11  C   UNL A   1      39.680  31.022  30.914  1.00  0.00     0.010 A 
ATOM     12  C   UNL A   1      38.430  28.986  30.531  1.00  0.00     0.010 A 
ATOM     13  C   UNL A   1      39.642  29.670  30.574  1.00  0.00    -0.014 A 
BRANCH  13  14
ATOM     14  C   UNL A   1      40.914  28.958  30.473  1.00  0.00     0.031 A 
ATOM     15  C   UNL A   1      41.534  28.635  31.788  1.00  0.00     0.074 A 
ATOM     16  C   UNL A   1      41.403  28.481  29.313  1.00  0.00     0.049 A 
ATOM     17  N   UNL A   1      42.685  29.008  32.247  1.00  0.00    -0.248 NA
ATOM     18  C   UNL A   1      40.705  27.916  32.769  1.00  0.00     0.031 C 
ATOM     19  C   UNL A   1      40.725  28.477  28.015  1.00  0.00     0.029 A 
ATOM     20  N   UNL A   1      42.537  27.754  29.079  1.00  0.00    -0.354 N 
ATOM     21  C   UNL A   1      42.818  28.364  33.482  1.00  0.00     0.074 A 
ATOM     22  C   UNL A   1      41.505  27.902  33.833  1.00  0.00     0.031 C 
ATOM     23  C   UNL A   1      41.325  27.572  27.210  1.00  0.00     0.029 A 
ATOM     24  C   UNL A   1      42.483  27.024  27.894  1.00  0.00     0.049 A 
ATOM     25  H   UNL A   1      43.313  27.747  29.686  1.00  0.00     0.167 HD
ATOM     26  C   UNL A   1      44.041  28.012  33.967  1.00  0.00     0.034 A 
ATOM     27  C   UNL A   1      43.267  25.975  27.544  1.00  0.00     0.034 A 
ATOM     28  C   UNL A   1      45.094  28.756  33.318  1.00  0.00     0.049 A 
ATOM     29  C   UNL A   1      44.482  26.016  28.385  1.00  0.00     0.074 A 
ATOM     30  C   UNL A   1      45.415  30.088  33.152  1.00  0.00     0.029 A 
ATOM     31  N   UNL A   1      45.860  28.067  32.414  1.00  0.00    -0.354 N 
ATOM     32  N   UNL A   1      45.409  26.926  28.282  1.00  0.00    -0.248 NA
ATOM     33  C   UNL A   1      44.510  25.228  29.606  1.00  0.00     0.031 C 
ATOM     34  C   UNL A   1      46.041  30.167  31.872  1.00  0.00     0.029 A 
ATOM     35  C   UNL A   1      46.101  28.876  31.343  1.00  0.00     0.049 A 
ATOM     36  H   UNL A   1      46.182  27.142  32.519  1.00  0.00     0.167 HD
ATOM     37  C   UNL A   1      45.826  27.138  29.588  1.00  0.00     0.074 A 
ATOM     38  C   UNL A   1      45.355  25.970  30.326  1.00  0.00     0.031 C 
ATOM     39  C   UNL A   1      46.240  28.375  29.994  1.00  0.00     0.034 A 
BRANCH  26  40
ATOM     40  C   UNL A   1      44.347  26.681  34.657  1.00  0.00     0.023 A 
ATOM     41  C   UNL A   1      43.761  25.525  34.084  1.00  0.00     0.012 A 
ATOM     42  C   UNL A   1      44.852  26.540  35.971  1.00  0.00     0.148 A 
ATOM     43  C   UNL A   1      43.539  24.361  34.827  1.00  0.00     0.002 A 
ATOM     44  C   UNL A   1      44.682  25.360  36.688  1.00  0.00     0.091 A 
ATOM     45  F   UNL A   1      45.419  27.569  36.597  1.00  0.00    -0.205 F 
ATOM     46  C   UNL A   1      43.985  24.284  36.137  1.00  0.00     0.022 A 
BRANCH  44  47
ATOM     47  S   UNL A   1      45.274  25.187  38.379  1.00  0.00     0.127 S 
ATOM     48  O   UNL A   1      44.965  23.787  38.649  1.00  0.00    -0.237 OA
ATOM     49  O   UNL A   1      46.696  25.494  38.226  1.00  0.00    -0.237 OA
ATOM     50  O   UNL A   1      44.532  26.169  39.161  1.00  0.00    -0.744 OA
ENDBRANCH  44  47
ENDBRANCH  26  40
BRANCH  27  51
ATOM     51  C   UNL A   1      42.956  24.801  26.694  1.00  0.00     0.023 A 
ATOM     52  C   UNL A   1      43.563  24.676  25.427  1.00  0.00     0.012 A 
ATOM     53  C   UNL A   1      42.276  23.678  27.217  1.00  0.00     0.148 A 
ATOM     54  C   UNL A   1      43.522  23.468  24.722  1.00  0.00     0.002 A 
ATOM     55  C   UNL A   1      42.222  22.485  26.504  1.00  0.00     0.091 A 
ATOM     56  F   UNL A   1      41.767  23.746  28.453  1.00  0.00    -0.205 F 
ATOM     57  C   UNL A   1      42.856  22.371  25.261  1.00  0.00     0.022 A 
BRANCH  55  58
ATOM     58  S   UNL A   1      41.377  21.031  27.142  1.00  0.00     0.127 S 
ATOM     59  O   UNL A   1      40.954  20.361  25.912  1.00  0.00    -0.237 OA
ATOM     60  O   UNL A   1      42.445  20.354  27.872  1.00  0.00    -0.237 OA
ATOM     61  O   UNL A   1      40.276  21.538  27.952  1.00  0.00    -0.744 OA
ENDBRANCH  55  58
ENDBRANCH  27  51
BRANCH  39  62
ATOM     62  C   UNL A   1      46.604  29.385  28.941  1.00  0.00     0.023 A 
ATOM     63  C   UNL A   1      47.893  29.460  28.375  1.00  0.00     0.012 A 
ATOM     64  C   UNL A   1      45.577  30.180  28.405  1.00  0.00     0.148 A 
ATOM     65  C   UNL A   1      48.158  30.335  27.319  1.00  0.00     0.002 A 
ATOM     66  C   UNL A   1      45.832  31.010  27.321  1.00  0.00     0.091 A 
ATOM     67  F   UNL A   1      44.354  30.096  28.953  1.00  0.00    -0.205 F 
ATOM     68  C   UNL A   1      47.125  31.100  26.783  1.00  0.00     0.022 A 
BRANCH  66  69
ATOM     69  S   UNL A   1      44.514  31.916  26.509  1.00  0.00     0.127 S 
ATOM     70  O   UNL A   1      44.139  32.892  27.528  1.00  0.00    -0.237 OA
ATOM     71  O   UNL A   1      45.192  32.481  25.340  1.00  0.00    -0.237 OA
ATOM     72  O   UNL A   1      43.496  30.925  26.178  1.00  0.00    -0.744 OA
ENDBRANCH  66  69
ENDBRANCH  39  62
ENDBRANCH  13  14
ENDBRANCH   6   8
ENDBRANCH   3   4
ENDBRANCH   2   3
ENDBRANCH   1   2
BRANCH   1  73
ATOM     73  C   UNL A   1      33.435  31.053  27.053  1.00  0.00     0.002 C 
BRANCH  73  74
ATOM     74  C   UNL A   1      31.985  30.962  26.563  1.00  0.00     0.021 C 
BRANCH  74  75
ATOM     75  C   UNL A   1      31.624  29.690  25.791  1.00  0.00     0.116 C 
BRANCH  75  76
ATOM     76  N   UNL A   1      31.916  29.806  24.373  1.00  0.00    -0.352 N 
ATOM     77  C   UNL A   1      32.254  28.829  23.472  1.00  0.00     0.251 C 
ATOM     78  H   UNL A   1      31.864  30.718  24.006  1.00  0.00     0.163 HD
ATOM     79  O   UNL A   1      32.632  29.135  22.344  1.00  0.00    -0.269 OA
BRANCH  77  80
ATOM     80  C   UNL A   1      32.222  27.398  23.857  1.00  0.00     0.039 A 
ATOM     81  C   UNL A   1      31.036  26.701  23.637  1.00  0.00     0.016 A 
ATOM     82  C   UNL A   1      33.309  26.748  24.460  1.00  0.00     0.016 A 
ATOM     83  C   UNL A   1      30.966  25.343  23.949  1.00  0.00     0.027 A 
ATOM     84  C   UNL A   1      33.230  25.379  24.790  1.00  0.00     0.027 A 
ATOM     85  C   UNL A   1      32.065  24.662  24.508  1.00  0.00     0.045 A 
BRANCH  85  86
ATOM     86  N   UNL A   1      31.995  23.240  24.681  1.00  0.00    -0.299 N 
ATOM     87  C   UNL A   1      31.442  22.812  25.935  1.00  0.00     0.259 C 
ATOM     88  C   UNL A   1      33.153  22.390  24.307  1.00  0.00     0.152 C 
ATOM     89  C   UNL A   1      32.300  21.704  26.469  1.00  0.00     0.248 C 
ATOM     90  O   UNL A   1      30.481  23.305  26.516  1.00  0.00    -0.271 OA
ATOM     91  C   UNL A   1      33.519  21.990  25.682  1.00  0.00     0.021 C 
ATOM     92  N   UNL A   1      32.789  21.863  27.847  1.00  0.00    -0.170 NA
ATOM     93  C   UNL A   1      34.530  22.026  26.543  1.00  0.00     0.097 C 
ATOM     94  N   UNL A   1      34.058  21.904  27.836  1.00  0.00    -0.154 NA
BRANCH  88  95
ATOM     95  C   UNL A   1      32.815  21.139  23.464  1.00  0.00    -0.020 A 
ATOM     96  C   UNL A   1      32.077  21.243  22.255  1.00  0.00     0.006 A 
ATOM     97  C   UNL A   1      33.150  19.846  23.888  1.00  0.00     0.022 A 
ATOM     98  C   UNL A   1      31.730  20.132  21.485  1.00  0.00     0.002 A 
ATOM     99  C   UNL A   1      32.769  18.726  23.127  1.00  0.00     0.018 A 
ATOM    100  C   UNL A   1      32.071  18.864  21.926  1.00  0.00     0.016 A 
ATOM    101  Br  UNL A   1      33.172  16.981  23.738  1.00  0.00    -0.051 Br
ENDBRANCH  88  95
BRANCH  93 102
ATOM    102  C   UNL A   1      35.941  22.332  26.322  1.00  0.00     0.002 A 
ATOM    103  C   UNL A   1      36.426  23.629  26.541  1.00  0.00     0.010 A 
ATOM    104  C   UNL A   1      36.763  21.391  25.692  1.00  0.00     0.010 A 
ATOM    105  C   UNL A   1      37.684  23.998  26.056  1.00  0.00     0.001 A 
ATOM    106  C   UNL A   1      38.021  21.761  25.214  1.00  0.00     0.001 A 
ATOM    107  C   UNL A   1      38.470  23.070  25.373  1.00  0.00     0.000 A 
ENDBRANCH  93 102
ENDBRANCH  85  86
ENDBRANCH  77  80
ENDBRANCH  75  76
ENDBRANCH  74  75
ENDBRANCH  73  74
ENDBRANCH   1  73
TORSDOF 19
ENDMDL
