MODEL 1
REMARK VINA RESULT:     -10.4      0.000      0.000
REMARK SMILES CC(=O)Oc1ccccc1C(=O)NCCCCCCNC(=O)c1ccc(-c2c3nc(c(-c4cccc(S(=O)(=O)[O-])c4F)c4ccc([nH]4)c(-c4cccc(S(=O)(=O)[O-])c4F)c4nc(c(-c5cccc(S(=O)(=O)[O-])c5F)c5ccc2[nH]5)C=C4)C=C3)cc1
REMARK SMILES IDX 17 1 16 2 15 3 14 4 13 5 11 6 12 7 10 9 5 10 6 11 7 12 9 13
REMARK SMILES IDX 8 14 4 15 2 16 1 17 3 18 18 19 19 20 20 21 21 22 22 24 23 25
REMARK SMILES IDX 24 26 85 27 25 28 84 29 26 30 27 31 28 32 78 33 29 34 83 35
REMARK SMILES IDX 77 36 79 37 30 38 82 39 76 40 75 41 31 43 63 44 43 45 62 46
REMARK SMILES IDX 44 47 47 48 61 49 80 50 45 51 46 52 60 54 81 55 48 56 32 57
REMARK SMILES IDX 33 58 41 59 34 60 36 61 42 62 35 63 37 64 38 65 39 66 40 67
REMARK SMILES IDX 64 68 65 69 73 70 66 71 68 72 74 73 67 74 69 75 70 76 71 77
REMARK SMILES IDX 72 78 49 79 50 80 58 81 51 82 53 83 59 84 52 85 54 86 55 87
REMARK SMILES IDX 56 88 57 89
REMARK H PARENT 13 8 20 23 79 42 47 53
REMARK Flexibility Score: inf
ROOT
ATOM      1  C   UNL A   1      31.735  27.645  26.594  1.00  0.00     0.002 C 
ENDROOT
BRANCH   1   2
ATOM      2  C   UNL A   1      31.124  27.178  25.268  1.00  0.00     0.002 C 
BRANCH   2   3
ATOM      3  C   UNL A   1      30.459  25.797  25.231  1.00  0.00     0.021 C 
BRANCH   3   4
ATOM      4  C   UNL A   1      31.379  24.582  25.291  1.00  0.00     0.116 C 
BRANCH   4   5
ATOM      5  N   UNL A   1      31.578  24.014  26.602  1.00  0.00    -0.352 N 
ATOM      6  C   UNL A   1      32.306  22.919  27.008  1.00  0.00     0.255 C 
ATOM      7  O   UNL A   1      32.315  22.686  28.220  1.00  0.00    -0.269 OA
ATOM      8  H   UNL A   1      31.114  24.490  27.329  1.00  0.00     0.163 HD
BRANCH   6   9
ATOM      9  C   UNL A   1      32.998  21.954  26.093  1.00  0.00     0.082 A 
ATOM     10  C   UNL A   1      34.371  21.804  25.860  1.00  0.00     0.143 A 
ATOM     11  C   UNL A   1      34.856  20.874  24.924  1.00  0.00     0.048 A 
ATOM     12  C   UNL A   1      33.980  20.031  24.247  1.00  0.00     0.004 A 
ATOM     13  C   UNL A   1      32.136  21.065  25.413  1.00  0.00     0.018 A 
ATOM     14  C   UNL A   1      32.618  20.115  24.503  1.00  0.00     0.001 A 
BRANCH  10  15
ATOM     15  O   UNL A   1      35.367  22.583  26.452  1.00  0.00    -0.426 OA
BRANCH  15  16
ATOM     16  C   UNL A   1      35.792  23.685  25.717  1.00  0.00     0.308 C 
ATOM     17  C   UNL A   1      37.291  23.773  25.811  1.00  0.00     0.139 C 
ATOM     18  O   UNL A   1      35.085  24.454  25.087  1.00  0.00    -0.252 OA
ENDBRANCH  15  16
ENDBRANCH  10  15
ENDBRANCH   6   9
ENDBRANCH   4   5
ENDBRANCH   3   4
ENDBRANCH   2   3
ENDBRANCH   1   2
BRANCH   1  19
ATOM     19  C   UNL A   1      33.260  27.603  26.724  1.00  0.00     0.021 C 
BRANCH  19  20
ATOM     20  C   UNL A   1      34.044  28.718  26.042  1.00  0.00     0.116 C 
BRANCH  20  21
ATOM     21  N   UNL A   1      33.782  30.032  26.601  1.00  0.00    -0.352 N 
ATOM     22  C   UNL A   1      34.489  30.759  27.530  1.00  0.00     0.251 C 
ATOM     23  H   UNL A   1      32.970  30.472  26.261  1.00  0.00     0.163 HD
ATOM     24  O   UNL A   1      34.014  31.814  27.948  1.00  0.00    -0.269 OA
BRANCH  22  25
ATOM     25  C   UNL A   1      35.796  30.288  28.052  1.00  0.00     0.039 A 
ATOM     26  C   UNL A   1      35.831  29.671  29.309  1.00  0.00     0.014 A 
ATOM     27  C   UNL A   1      36.989  30.482  27.351  1.00  0.00     0.014 A 
ATOM     28  C   UNL A   1      37.042  29.204  29.830  1.00  0.00     0.010 A 
ATOM     29  C   UNL A   1      38.185  29.950  27.839  1.00  0.00     0.010 A 
ATOM     30  C   UNL A   1      38.229  29.313  29.089  1.00  0.00    -0.014 A 
BRANCH  30  31
ATOM     31  C   UNL A   1      39.518  28.771  29.605  1.00  0.00     0.031 A 
ATOM     32  C   UNL A   1      40.246  29.469  30.727  1.00  0.00     0.074 A 
ATOM     33  C   UNL A   1      40.077  27.694  29.014  1.00  0.00     0.049 A 
ATOM     34  N   UNL A   1      41.400  29.176  31.268  1.00  0.00    -0.248 NA
ATOM     35  C   UNL A   1      39.606  30.666  31.301  1.00  0.00     0.031 C 
ATOM     36  C   UNL A   1      39.517  26.968  27.871  1.00  0.00     0.029 A 
ATOM     37  N   UNL A   1      41.257  27.039  29.273  1.00  0.00    -0.354 N 
ATOM     38  C   UNL A   1      41.648  30.171  32.206  1.00  0.00     0.074 A 
ATOM     39  C   UNL A   1      40.532  31.089  32.151  1.00  0.00     0.031 C 
ATOM     40  C   UNL A   1      40.352  25.974  27.528  1.00  0.00     0.029 A 
ATOM     41  C   UNL A   1      41.519  26.005  28.403  1.00  0.00     0.049 A 
ATOM     42  H   UNL A   1      41.859  27.286  30.012  1.00  0.00     0.167 HD
ATOM     43  C   UNL A   1      42.697  30.299  33.055  1.00  0.00     0.034 A 
ATOM     44  C   UNL A   1      42.584  25.184  28.309  1.00  0.00     0.034 A 
ATOM     45  C   UNL A   1      43.775  29.353  33.156  1.00  0.00     0.049 A 
ATOM     46  C   UNL A   1      43.708  25.320  29.303  1.00  0.00     0.074 A 
ATOM     47  C   UNL A   1      44.819  29.337  34.064  1.00  0.00     0.029 A 
ATOM     48  N   UNL A   1      43.954  28.263  32.321  1.00  0.00    -0.354 N 
ATOM     49  N   UNL A   1      43.831  26.162  30.299  1.00  0.00    -0.248 NA
ATOM     50  C   UNL A   1      44.825  24.369  29.182  1.00  0.00     0.031 C 
ATOM     51  C   UNL A   1      45.648  28.254  33.759  1.00  0.00     0.029 A 
ATOM     52  C   UNL A   1      45.101  27.577  32.682  1.00  0.00     0.049 A 
ATOM     53  H   UNL A   1      43.355  28.012  31.581  1.00  0.00     0.167 HD
ATOM     54  C   UNL A   1      45.011  25.816  30.948  1.00  0.00     0.074 A 
ATOM     55  C   UNL A   1      45.555  24.673  30.246  1.00  0.00     0.031 C 
ATOM     56  C   UNL A   1      45.599  26.400  32.019  1.00  0.00     0.034 A 
BRANCH  43  57
ATOM     57  C   UNL A   1      42.720  31.479  33.990  1.00  0.00     0.023 A 
ATOM     58  C   UNL A   1      43.215  32.718  33.537  1.00  0.00     0.012 A 
ATOM     59  C   UNL A   1      42.148  31.389  35.275  1.00  0.00     0.148 A 
ATOM     60  C   UNL A   1      43.158  33.846  34.356  1.00  0.00     0.002 A 
ATOM     61  C   UNL A   1      42.054  32.527  36.067  1.00  0.00     0.091 A 
ATOM     62  F   UNL A   1      41.698  30.197  35.690  1.00  0.00    -0.205 F 
ATOM     63  C   UNL A   1      42.566  33.754  35.613  1.00  0.00     0.022 A 
BRANCH  61  64
ATOM     64  S   UNL A   1      41.237  32.534  37.666  1.00  0.00     0.127 S 
ATOM     65  O   UNL A   1      41.333  33.945  38.041  1.00  0.00    -0.237 OA
ATOM     66  O   UNL A   1      39.888  32.086  37.323  1.00  0.00    -0.237 OA
ATOM     67  O   UNL A   1      41.990  31.617  38.510  1.00  0.00    -0.744 OA
ENDBRANCH  61  64
ENDBRANCH  43  57
BRANCH  44  68
ATOM     68  C   UNL A   1      42.629  24.119  27.264  1.00  0.00     0.023 A 
ATOM     69  C   UNL A   1      43.271  24.377  26.036  1.00  0.00     0.012 A 
ATOM     70  C   UNL A   1      42.030  22.862  27.472  1.00  0.00     0.148 A 
ATOM     71  C   UNL A   1      43.272  23.422  25.018  1.00  0.00     0.002 A 
ATOM     72  C   UNL A   1      42.087  21.894  26.476  1.00  0.00     0.091 A 
ATOM     73  F   UNL A   1      41.410  22.637  28.639  1.00  0.00    -0.205 F 
ATOM     74  C   UNL A   1      42.688  22.179  25.240  1.00  0.00     0.022 A 
BRANCH  72  75
ATOM     75  S   UNL A   1      41.476  20.224  26.735  1.00  0.00     0.127 S 
ATOM     76  O   UNL A   1      40.067  20.463  27.034  1.00  0.00    -0.237 OA
ATOM     77  O   UNL A   1      41.735  19.599  25.437  1.00  0.00    -0.237 OA
ATOM     78  O   UNL A   1      42.279  19.685  27.825  1.00  0.00    -0.744 OA
ENDBRANCH  72  75
ENDBRANCH  44  68
BRANCH  56  79
ATOM     79  C   UNL A   1      46.874  25.793  32.541  1.00  0.00     0.023 A 
ATOM     80  C   UNL A   1      48.119  26.250  32.065  1.00  0.00     0.012 A 
ATOM     81  C   UNL A   1      46.839  24.821  33.562  1.00  0.00     0.148 A 
ATOM     82  C   UNL A   1      49.308  25.726  32.572  1.00  0.00     0.002 A 
ATOM     83  C   UNL A   1      48.028  24.342  34.098  1.00  0.00     0.091 A 
ATOM     84  F   UNL A   1      45.645  24.386  33.989  1.00  0.00    -0.205 F 
ATOM     85  C   UNL A   1      49.263  24.782  33.595  1.00  0.00     0.022 A 
BRANCH  83  86
ATOM     86  S   UNL A   1      48.065  23.202  35.486  1.00  0.00     0.127 S 
ATOM     87  O   UNL A   1      47.314  23.940  36.499  1.00  0.00    -0.237 OA
ATOM     88  O   UNL A   1      47.372  22.032  34.944  1.00  0.00    -0.237 OA
ATOM     89  O   UNL A   1      49.473  22.982  35.787  1.00  0.00    -0.744 OA
ENDBRANCH  83  86
ENDBRANCH  56  79
ENDBRANCH  30  31
ENDBRANCH  22  25
ENDBRANCH  20  21
ENDBRANCH  19  20
ENDBRANCH   1  19
TORSDOF 18
ENDMDL
MODEL 2
REMARK VINA RESULT:     -10.3      1.626      2.101
REMARK SMILES CC(=O)Oc1ccccc1C(=O)NCCCCCCNC(=O)c1ccc(-c2c3nc(c(-c4cccc(S(=O)(=O)[O-])c4F)c4ccc([nH]4)c(-c4cccc(S(=O)(=O)[O-])c4F)c4nc(c(-c5cccc(S(=O)(=O)[O-])c5F)c5ccc2[nH]5)C=C4)C=C3)cc1
REMARK SMILES IDX 17 1 16 2 15 3 14 4 13 5 11 6 12 7 10 9 5 10 6 11 7 12 9 13
REMARK SMILES IDX 8 14 4 15 2 16 1 17 3 18 18 19 19 20 20 21 21 22 22 24 23 25
REMARK SMILES IDX 24 26 85 27 25 28 84 29 26 30 27 31 28 32 78 33 29 34 83 35
REMARK SMILES IDX 77 36 79 37 30 38 82 39 76 40 75 41 31 43 63 44 43 45 62 46
REMARK SMILES IDX 44 47 47 48 61 49 80 50 45 51 46 52 60 54 81 55 48 56 32 57
REMARK SMILES IDX 33 58 41 59 34 60 36 61 42 62 35 63 37 64 38 65 39 66 40 67
REMARK SMILES IDX 64 68 65 69 73 70 66 71 68 72 74 73 67 74 69 75 70 76 71 77
REMARK SMILES IDX 72 78 49 79 50 80 58 81 51 82 53 83 59 84 52 85 54 86 55 87
REMARK SMILES IDX 56 88 57 89
REMARK H PARENT 13 8 20 23 79 42 47 53
REMARK Flexibility Score: inf
ROOT
ATOM      1  C   UNL A   1      31.804  27.903  26.609  1.00  0.00     0.002 C 
ENDROOT
BRANCH   1   2
ATOM      2  C   UNL A   1      31.021  26.643  26.224  1.00  0.00     0.002 C 
BRANCH   2   3
ATOM      3  C   UNL A   1      31.809  25.345  26.009  1.00  0.00     0.021 C 
BRANCH   3   4
ATOM      4  C   UNL A   1      31.396  24.469  24.831  1.00  0.00     0.116 C 
BRANCH   4   5
ATOM      5  N   UNL A   1      32.250  24.541  23.670  1.00  0.00    -0.352 N 
ATOM      6  C   UNL A   1      33.046  23.588  23.078  1.00  0.00     0.255 C 
ATOM      7  O   UNL A   1      33.652  23.936  22.059  1.00  0.00    -0.269 OA
ATOM      8  H   UNL A   1      32.265  25.420  23.227  1.00  0.00     0.163 HD
BRANCH   6   9
ATOM      9  C   UNL A   1      33.300  22.215  23.622  1.00  0.00     0.082 A 
ATOM     10  C   UNL A   1      34.363  21.775  24.421  1.00  0.00     0.143 A 
ATOM     11  C   UNL A   1      34.478  20.429  24.807  1.00  0.00     0.048 A 
ATOM     12  C   UNL A   1      33.499  19.506  24.455  1.00  0.00     0.004 A 
ATOM     13  C   UNL A   1      32.307  21.262  23.304  1.00  0.00     0.018 A 
ATOM     14  C   UNL A   1      32.401  19.926  23.714  1.00  0.00     0.001 A 
BRANCH  10  15
ATOM     15  O   UNL A   1      35.425  22.578  24.842  1.00  0.00    -0.426 OA
BRANCH  15  16
ATOM     16  C   UNL A   1      36.576  22.518  24.065  1.00  0.00     0.308 C 
ATOM     17  C   UNL A   1      37.714  22.051  24.931  1.00  0.00     0.139 C 
ATOM     18  O   UNL A   1      36.665  22.783  22.876  1.00  0.00    -0.252 OA
ENDBRANCH  15  16
ENDBRANCH  10  15
ENDBRANCH   6   9
ENDBRANCH   4   5
ENDBRANCH   3   4
ENDBRANCH   2   3
ENDBRANCH   1   2
BRANCH   1  19
ATOM     19  C   UNL A   1      33.332  27.815  26.605  1.00  0.00     0.021 C 
BRANCH  19  20
ATOM     20  C   UNL A   1      34.092  28.987  25.994  1.00  0.00     0.116 C 
BRANCH  20  21
ATOM     21  N   UNL A   1      33.868  30.242  26.688  1.00  0.00    -0.352 N 
ATOM     22  C   UNL A   1      34.577  30.831  27.710  1.00  0.00     0.251 C 
ATOM     23  H   UNL A   1      33.086  30.753  26.378  1.00  0.00     0.163 HD
ATOM     24  O   UNL A   1      34.134  31.854  28.230  1.00  0.00    -0.269 OA
BRANCH  22  25
ATOM     25  C   UNL A   1      35.846  30.246  28.210  1.00  0.00     0.039 A 
ATOM     26  C   UNL A   1      36.989  30.345  27.409  1.00  0.00     0.014 A 
ATOM     27  C   UNL A   1      35.920  29.566  29.429  1.00  0.00     0.014 A 
ATOM     28  C   UNL A   1      38.207  29.814  27.850  1.00  0.00     0.010 A 
ATOM     29  C   UNL A   1      37.151  29.102  29.901  1.00  0.00     0.010 A 
ATOM     30  C   UNL A   1      38.308  29.212  29.114  1.00  0.00    -0.014 A 
BRANCH  30  31
ATOM     31  C   UNL A   1      39.608  28.692  29.623  1.00  0.00     0.031 A 
ATOM     32  C   UNL A   1      40.331  29.402  30.741  1.00  0.00     0.074 A 
ATOM     33  C   UNL A   1      40.181  27.624  29.030  1.00  0.00     0.049 A 
ATOM     34  N   UNL A   1      41.493  29.129  31.275  1.00  0.00    -0.248 NA
ATOM     35  C   UNL A   1      39.675  30.589  31.318  1.00  0.00     0.031 C 
ATOM     36  C   UNL A   1      39.627  26.889  27.890  1.00  0.00     0.029 A 
ATOM     37  N   UNL A   1      41.374  26.989  29.282  1.00  0.00    -0.354 N 
ATOM     38  C   UNL A   1      41.730  30.128  32.212  1.00  0.00     0.074 A 
ATOM     39  C   UNL A   1      40.599  31.028  32.162  1.00  0.00     0.031 C 
ATOM     40  C   UNL A   1      40.476  25.908  27.542  1.00  0.00     0.029 A 
ATOM     41  C   UNL A   1      41.647  25.959  28.411  1.00  0.00     0.049 A 
ATOM     42  H   UNL A   1      41.976  27.246  30.018  1.00  0.00     0.167 HD
ATOM     43  C   UNL A   1      42.781  30.274  33.054  1.00  0.00     0.034 A 
ATOM     44  C   UNL A   1      42.726  25.155  28.311  1.00  0.00     0.034 A 
ATOM     45  C   UNL A   1      43.875  29.346  33.149  1.00  0.00     0.049 A 
ATOM     46  C   UNL A   1      43.853  25.311  29.299  1.00  0.00     0.074 A 
ATOM     47  C   UNL A   1      44.924  29.348  34.051  1.00  0.00     0.029 A 
ATOM     48  N   UNL A   1      44.068  28.259  32.314  1.00  0.00    -0.354 N 
ATOM     49  N   UNL A   1      43.968  26.155  30.294  1.00  0.00    -0.248 NA
ATOM     50  C   UNL A   1      44.984  24.378  29.172  1.00  0.00     0.031 C 
ATOM     51  C   UNL A   1      45.770  28.279  33.742  1.00  0.00     0.029 A 
ATOM     52  C   UNL A   1      45.228  27.592  32.669  1.00  0.00     0.049 A 
ATOM     53  H   UNL A   1      43.468  27.998  31.577  1.00  0.00     0.167 HD
ATOM     54  C   UNL A   1      45.157  25.828  30.936  1.00  0.00     0.074 A 
ATOM     55  C   UNL A   1      45.716  24.694  30.231  1.00  0.00     0.031 C 
ATOM     56  C   UNL A   1      45.741  26.423  32.003  1.00  0.00     0.034 A 
BRANCH  43  57
ATOM     57  C   UNL A   1      42.791  31.455  33.988  1.00  0.00     0.023 A 
ATOM     58  C   UNL A   1      43.270  32.700  33.534  1.00  0.00     0.012 A 
ATOM     59  C   UNL A   1      42.221  31.359  35.274  1.00  0.00     0.148 A 
ATOM     60  C   UNL A   1      43.198  33.827  34.352  1.00  0.00     0.002 A 
ATOM     61  C   UNL A   1      42.113  32.496  36.065  1.00  0.00     0.091 A 
ATOM     62  F   UNL A   1      41.786  30.161  35.690  1.00  0.00    -0.205 F 
ATOM     63  C   UNL A   1      42.610  33.728  35.610  1.00  0.00     0.022 A 
BRANCH  61  64
ATOM     64  S   UNL A   1      41.297  32.493  37.665  1.00  0.00     0.127 S 
ATOM     65  O   UNL A   1      40.009  31.882  37.338  1.00  0.00    -0.237 OA
ATOM     66  O   UNL A   1      42.187  31.650  38.462  1.00  0.00    -0.237 OA
ATOM     67  O   UNL A   1      41.231  33.885  38.089  1.00  0.00    -0.744 OA
ENDBRANCH  61  64
ENDBRANCH  43  57
BRANCH  44  68
ATOM     68  C   UNL A   1      42.782  24.091  27.267  1.00  0.00     0.023 A 
ATOM     69  C   UNL A   1      43.479  24.332  26.065  1.00  0.00     0.012 A 
ATOM     70  C   UNL A   1      42.141  22.851  27.448  1.00  0.00     0.148 A 
ATOM     71  C   UNL A   1      43.493  23.379  25.046  1.00  0.00     0.002 A 
ATOM     72  C   UNL A   1      42.210  21.883  26.453  1.00  0.00     0.091 A 
ATOM     73  F   UNL A   1      41.468  22.642  28.589  1.00  0.00    -0.205 F 
ATOM     74  C   UNL A   1      42.867  22.152  25.242  1.00  0.00     0.022 A 
BRANCH  72  75
ATOM     75  S   UNL A   1      41.543  20.230  26.684  1.00  0.00     0.127 S 
ATOM     76  O   UNL A   1      41.788  19.622  25.380  1.00  0.00    -0.237 OA
ATOM     77  O   UNL A   1      42.375  19.714  27.772  1.00  0.00    -0.237 OA
ATOM     78  O   UNL A   1      40.145  20.426  27.047  1.00  0.00    -0.744 OA
ENDBRANCH  72  75
ENDBRANCH  44  68
BRANCH  56  79
ATOM     79  C   UNL A   1      47.030  25.837  32.518  1.00  0.00     0.023 A 
ATOM     80  C   UNL A   1      47.013  24.961  33.622  1.00  0.00     0.012 A 
ATOM     81  C   UNL A   1      48.248  26.095  31.858  1.00  0.00     0.148 A 
ATOM     82  C   UNL A   1      48.193  24.378  34.081  1.00  0.00     0.002 A 
ATOM     83  C   UNL A   1      49.411  25.469  32.290  1.00  0.00     0.091 A 
ATOM     84  F   UNL A   1      48.246  26.945  30.821  1.00  0.00    -0.205 F 
ATOM     85  C   UNL A   1      49.389  24.622  33.409  1.00  0.00     0.022 A 
BRANCH  83  86
ATOM     86  S   UNL A   1      50.975  25.646  31.424  1.00  0.00     0.127 S 
ATOM     87  O   UNL A   1      50.622  25.200  30.077  1.00  0.00    -0.237 OA
ATOM     88  O   UNL A   1      51.235  27.081  31.543  1.00  0.00    -0.237 OA
ATOM     89  O   UNL A   1      51.925  24.800  32.134  1.00  0.00    -0.744 OA
ENDBRANCH  83  86
ENDBRANCH  56  79
ENDBRANCH  30  31
ENDBRANCH  22  25
ENDBRANCH  20  21
ENDBRANCH  19  20
ENDBRANCH   1  19
TORSDOF 18
ENDMDL
MODEL 3
REMARK VINA RESULT:     -10.3      1.553      2.136
REMARK SMILES CC(=O)Oc1ccccc1C(=O)NCCCCCCNC(=O)c1ccc(-c2c3nc(c(-c4cccc(S(=O)(=O)[O-])c4F)c4ccc([nH]4)c(-c4cccc(S(=O)(=O)[O-])c4F)c4nc(c(-c5cccc(S(=O)(=O)[O-])c5F)c5ccc2[nH]5)C=C4)C=C3)cc1
REMARK SMILES IDX 17 1 16 2 15 3 14 4 13 5 11 6 12 7 10 9 5 10 6 11 7 12 9 13
REMARK SMILES IDX 8 14 4 15 2 16 1 17 3 18 18 19 19 20 20 21 21 22 22 24 23 25
REMARK SMILES IDX 24 26 85 27 25 28 84 29 26 30 27 31 28 32 78 33 29 34 83 35
REMARK SMILES IDX 77 36 79 37 30 38 82 39 76 40 75 41 31 43 63 44 43 45 62 46
REMARK SMILES IDX 44 47 47 48 61 49 80 50 45 51 46 52 60 54 81 55 48 56 32 57
REMARK SMILES IDX 33 58 41 59 34 60 36 61 42 62 35 63 37 64 38 65 39 66 40 67
REMARK SMILES IDX 64 68 65 69 73 70 66 71 68 72 74 73 67 74 69 75 70 76 71 77
REMARK SMILES IDX 72 78 49 79 50 80 58 81 51 82 53 83 59 84 52 85 54 86 55 87
REMARK SMILES IDX 56 88 57 89
REMARK H PARENT 13 8 20 23 79 42 47 53
REMARK Flexibility Score: inf
ROOT
ATOM      1  C   UNL A   1      32.954  26.535  25.635  1.00  0.00     0.002 C 
ENDROOT
BRANCH   1   2
ATOM      2  C   UNL A   1      33.190  25.118  26.169  1.00  0.00     0.002 C 
BRANCH   2   3
ATOM      3  C   UNL A   1      31.963  24.236  26.430  1.00  0.00     0.021 C 
BRANCH   3   4
ATOM      4  C   UNL A   1      32.222  22.823  26.943  1.00  0.00     0.116 C 
BRANCH   4   5
ATOM      5  N   UNL A   1      32.018  21.764  25.985  1.00  0.00    -0.352 N 
ATOM      6  C   UNL A   1      32.851  21.254  25.017  1.00  0.00     0.255 C 
ATOM      7  O   UNL A   1      32.407  20.312  24.352  1.00  0.00    -0.269 OA
ATOM      8  H   UNL A   1      31.133  21.335  26.031  1.00  0.00     0.163 HD
BRANCH   6   9
ATOM      9  C   UNL A   1      34.196  21.807  24.654  1.00  0.00     0.082 A 
ATOM     10  C   UNL A   1      34.553  22.568  23.534  1.00  0.00     0.143 A 
ATOM     11  C   UNL A   1      35.882  22.970  23.317  1.00  0.00     0.048 A 
ATOM     12  C   UNL A   1      36.871  22.672  24.250  1.00  0.00     0.004 A 
ATOM     13  C   UNL A   1      35.215  21.546  25.597  1.00  0.00     0.018 A 
ATOM     14  C   UNL A   1      36.534  21.971  25.400  1.00  0.00     0.001 A 
BRANCH  10  15
ATOM     15  O   UNL A   1      33.677  22.933  22.509  1.00  0.00    -0.426 OA
BRANCH  15  16
ATOM     16  C   UNL A   1      33.218  24.245  22.542  1.00  0.00     0.308 C 
ATOM     17  C   UNL A   1      31.752  24.229  22.882  1.00  0.00     0.139 C 
ATOM     18  O   UNL A   1      33.879  25.252  22.344  1.00  0.00    -0.252 OA
ENDBRANCH  15  16
ENDBRANCH  10  15
ENDBRANCH   6   9
ENDBRANCH   4   5
ENDBRANCH   3   4
ENDBRANCH   2   3
ENDBRANCH   1   2
BRANCH   1  19
ATOM     19  C   UNL A   1      33.842  27.655  26.182  1.00  0.00     0.021 C 
BRANCH  19  20
ATOM     20  C   UNL A   1      33.291  28.470  27.347  1.00  0.00     0.116 C 
BRANCH  20  21
ATOM     21  N   UNL A   1      33.422  29.903  27.159  1.00  0.00    -0.352 N 
ATOM     22  C   UNL A   1      34.451  30.753  27.493  1.00  0.00     0.251 C 
ATOM     23  H   UNL A   1      32.652  30.336  26.724  1.00  0.00     0.163 HD
ATOM     24  O   UNL A   1      34.297  31.964  27.343  1.00  0.00    -0.269 OA
BRANCH  22  25
ATOM     25  C   UNL A   1      35.729  30.241  28.048  1.00  0.00     0.039 A 
ATOM     26  C   UNL A   1      35.753  29.806  29.379  1.00  0.00     0.014 A 
ATOM     27  C   UNL A   1      36.909  30.224  27.300  1.00  0.00     0.014 A 
ATOM     28  C   UNL A   1      36.936  29.308  29.935  1.00  0.00     0.010 A 
ATOM     29  C   UNL A   1      38.071  29.658  27.833  1.00  0.00     0.010 A 
ATOM     30  C   UNL A   1      38.102  29.202  29.160  1.00  0.00    -0.014 A 
BRANCH  30  31
ATOM     31  C   UNL A   1      39.355  28.622  29.720  1.00  0.00     0.031 A 
ATOM     32  C   UNL A   1      40.005  29.236  30.935  1.00  0.00     0.074 A 
ATOM     33  C   UNL A   1      39.955  27.589  29.092  1.00  0.00     0.049 A 
ATOM     34  N   UNL A   1      41.122  28.903  31.528  1.00  0.00    -0.248 NA
ATOM     35  C   UNL A   1      39.326  30.389  31.550  1.00  0.00     0.031 C 
ATOM     36  C   UNL A   1      39.474  26.949  27.865  1.00  0.00     0.029 A 
ATOM     37  N   UNL A   1      41.117  26.915  29.380  1.00  0.00    -0.354 N 
ATOM     38  C   UNL A   1      41.305  29.827  32.551  1.00  0.00     0.074 A 
ATOM     39  C   UNL A   1      40.192  30.749  32.488  1.00  0.00     0.031 C 
ATOM     40  C   UNL A   1      40.332  25.980  27.506  1.00  0.00     0.029 A 
ATOM     41  C   UNL A   1      41.439  25.946  28.457  1.00  0.00     0.049 A 
ATOM     42  H   UNL A   1      41.668  27.107  30.173  1.00  0.00     0.167 HD
ATOM     43  C   UNL A   1      42.295  29.891  33.473  1.00  0.00     0.034 A 
ATOM     44  C   UNL A   1      42.511  25.131  28.375  1.00  0.00     0.034 A 
ATOM     45  C   UNL A   1      43.366  28.938  33.577  1.00  0.00     0.049 A 
ATOM     46  C   UNL A   1      43.566  25.194  29.449  1.00  0.00     0.074 A 
ATOM     47  C   UNL A   1      44.348  28.855  34.549  1.00  0.00     0.029 A 
ATOM     48  N   UNL A   1      43.603  27.911  32.680  1.00  0.00    -0.354 N 
ATOM     49  N   UNL A   1      43.620  25.962  30.509  1.00  0.00    -0.248 NA
ATOM     50  C   UNL A   1      44.691  24.252  29.334  1.00  0.00     0.031 C 
ATOM     51  C   UNL A   1      45.199  27.796  34.223  1.00  0.00     0.029 A 
ATOM     52  C   UNL A   1      44.726  27.199  33.066  1.00  0.00     0.049 A 
ATOM     53  H   UNL A   1      43.055  27.716  31.885  1.00  0.00     0.167 HD
ATOM     54  C   UNL A   1      44.756  25.567  31.207  1.00  0.00     0.074 A 
ATOM     55  C   UNL A   1      45.349  24.477  30.462  1.00  0.00     0.031 C 
ATOM     56  C   UNL A   1      45.270  26.072  32.354  1.00  0.00     0.034 A 
BRANCH  43  57
ATOM     57  C   UNL A   1      42.253  31.002  34.490  1.00  0.00     0.023 A 
ATOM     58  C   UNL A   1      41.663  30.773  35.749  1.00  0.00     0.012 A 
ATOM     59  C   UNL A   1      42.897  32.230  34.240  1.00  0.00     0.148 A 
ATOM     60  C   UNL A   1      41.699  31.756  36.738  1.00  0.00     0.002 A 
ATOM     61  C   UNL A   1      42.967  33.187  35.245  1.00  0.00     0.091 A 
ATOM     62  F   UNL A   1      43.438  32.432  33.030  1.00  0.00    -0.205 F 
ATOM     63  C   UNL A   1      42.361  32.956  36.491  1.00  0.00     0.022 A 
BRANCH  61  64
ATOM     64  S   UNL A   1      43.867  34.730  35.057  1.00  0.00     0.127 S 
ATOM     65  O   UNL A   1      43.113  35.383  33.986  1.00  0.00    -0.237 OA
ATOM     66  O   UNL A   1      43.705  35.341  36.376  1.00  0.00    -0.237 OA
ATOM     67  O   UNL A   1      45.234  34.362  34.716  1.00  0.00    -0.744 OA
ENDBRANCH  61  64
ENDBRANCH  43  57
BRANCH  44  68
ATOM     68  C   UNL A   1      42.628  24.144  27.262  1.00  0.00     0.023 A 
ATOM     69  C   UNL A   1      43.327  24.498  26.090  1.00  0.00     0.012 A 
ATOM     70  C   UNL A   1      42.041  22.868  27.349  1.00  0.00     0.148 A 
ATOM     71  C   UNL A   1      43.396  23.618  25.009  1.00  0.00     0.002 A 
ATOM     72  C   UNL A   1      42.166  21.974  26.291  1.00  0.00     0.091 A 
ATOM     73  F   UNL A   1      41.366  22.552  28.463  1.00  0.00    -0.205 F 
ATOM     74  C   UNL A   1      42.824  22.354  25.112  1.00  0.00     0.022 A 
BRANCH  72  75
ATOM     75  S   UNL A   1      41.572  20.282  26.400  1.00  0.00     0.127 S 
ATOM     76  O   UNL A   1      42.296  19.638  25.308  1.00  0.00    -0.237 OA
ATOM     77  O   UNL A   1      42.004  19.891  27.743  1.00  0.00    -0.237 OA
ATOM     78  O   UNL A   1      40.125  20.370  26.244  1.00  0.00    -0.744 OA
ENDBRANCH  72  75
ENDBRANCH  44  68
BRANCH  56  79
ATOM     79  C   UNL A   1      46.510  25.426  32.915  1.00  0.00     0.023 A 
ATOM     80  C   UNL A   1      47.781  25.943  32.593  1.00  0.00     0.012 A 
ATOM     81  C   UNL A   1      46.410  24.353  33.823  1.00  0.00     0.148 A 
ATOM     82  C   UNL A   1      48.933  25.381  33.139  1.00  0.00     0.002 A 
ATOM     83  C   UNL A   1      47.560  23.833  34.404  1.00  0.00     0.091 A 
ATOM     84  F   UNL A   1      45.193  23.863  34.103  1.00  0.00    -0.205 F 
ATOM     85  C   UNL A   1      48.823  24.335  34.053  1.00  0.00     0.022 A 
BRANCH  83  86
ATOM     86  S   UNL A   1      47.505  22.554  35.665  1.00  0.00     0.127 S 
ATOM     87  O   UNL A   1      46.663  23.177  36.685  1.00  0.00    -0.237 OA
ATOM     88  O   UNL A   1      46.877  21.442  34.951  1.00  0.00    -0.237 OA
ATOM     89  O   UNL A   1      48.888  22.316  36.055  1.00  0.00    -0.744 OA
ENDBRANCH  83  86
ENDBRANCH  56  79
ENDBRANCH  30  31
ENDBRANCH  22  25
ENDBRANCH  20  21
ENDBRANCH  19  20
ENDBRANCH   1  19
TORSDOF 18
ENDMDL
