MODEL 1
REMARK VINA RESULT:     -11.0      0.000      0.000
REMARK SMILES CC(C)(C)OC(=O)N1CCC[C@H]1C(=O)N[C@@H](Cc1ccccc1)C(=O)NCCCCCCNC(=O)c1ccc(-c2c3nc(c(-c4cccc(S(=O)(=O)[O-])c4F)c4ccc([nH]4)c(-c4cccc(S(=O)(=O)[O-])c4F)c4nc(c(-c5cccc(S(=O)(=O)[O-])c5F)c5ccc2[nH]5)C=C4)C=C3)cc1
REMARK SMILES IDX 28 1 27 2 26 3 24 4 25 5 16 7 15 8 13 9 14 10 12 12 8 13
REMARK SMILES IDX 9 14 10 15 11 16 6 17 7 18 5 19 2 20 1 21 3 22 4 23 17 24
REMARK SMILES IDX 18 25 19 26 23 27 20 28 22 29 21 30 29 31 30 32 31 33 32 34
REMARK SMILES IDX 33 35 34 36 35 38 36 39 37 40 98 41 38 42 97 43 39 44 40 45
REMARK SMILES IDX 41 46 91 47 42 48 96 49 90 50 92 51 43 52 95 53 89 54 88 55
REMARK SMILES IDX 44 57 76 58 56 59 75 60 57 61 60 62 74 63 93 64 58 65 59 66
REMARK SMILES IDX 73 68 94 69 61 70 45 71 46 72 54 73 47 74 49 75 55 76 48 77
REMARK SMILES IDX 50 78 51 79 52 80 53 81 77 82 78 83 86 84 79 85 81 86 87 87
REMARK SMILES IDX 80 88 82 89 83 90 84 91 85 92 62 93 63 94 71 95 64 96 66 97
REMARK SMILES IDX 72 98 65 99 67 100 68 101 69 102 70 103
REMARK H PARENT 26 6 15 11 33 37 92 56 60 67
REMARK Flexibility Score: inf
ROOT
ATOM      1  C   UNL A   1      30.844  29.316  22.701  1.00  0.00     0.021 C 
ENDROOT
BRANCH   1   2
ATOM      2  C   UNL A   1      30.623  27.840  22.429  1.00  0.00     0.116 C 
BRANCH   2   3
ATOM      3  N   UNL A   1      29.704  27.184  23.321  1.00  0.00    -0.354 N 
ATOM      4  C   UNL A   1      29.977  26.184  24.206  1.00  0.00     0.242 C 
ATOM      5  O   UNL A   1      29.124  25.951  25.072  1.00  0.00    -0.273 OA
ATOM      6  H   UNL A   1      28.770  27.493  23.288  1.00  0.00     0.163 HD
BRANCH   4   7
ATOM      7  C   UNL A   1      31.297  25.365  24.189  1.00  0.00     0.175 C 
BRANCH   7   8
ATOM      8  N   UNL A   1      31.313  24.221  23.274  1.00  0.00    -0.342 N 
ATOM      9  C   UNL A   1      31.685  22.921  23.460  1.00  0.00     0.243 C 
ATOM     10  O   UNL A   1      31.901  22.287  22.421  1.00  0.00    -0.273 OA
ATOM     11  H   UNL A   1      30.997  24.425  22.364  1.00  0.00     0.164 HD
BRANCH   9  12
ATOM     12  C   UNL A   1      31.693  22.246  24.863  1.00  0.00     0.178 C 
ATOM     13  N   UNL A   1      32.987  22.411  25.535  1.00  0.00    -0.296 N 
ATOM     14  C   UNL A   1      32.881  23.272  26.693  1.00  0.00     0.124 C 
ATOM     15  C   UNL A   1      31.489  22.962  27.192  1.00  0.00     0.024 C 
ATOM     16  C   UNL A   1      30.705  22.812  25.895  1.00  0.00     0.037 C 
BRANCH  13  17
ATOM     17  C   UNL A   1      34.088  21.667  25.192  1.00  0.00     0.410 C 
ATOM     18  O   UNL A   1      34.023  20.604  24.586  1.00  0.00    -0.224 OA
BRANCH  17  19
ATOM     19  O   UNL A   1      35.227  22.217  25.679  1.00  0.00    -0.444 OA
BRANCH  19  20
ATOM     20  C   UNL A   1      36.314  22.668  24.832  1.00  0.00     0.106 C 
ATOM     21  C   UNL A   1      36.928  23.860  25.583  1.00  0.00     0.056 C 
ATOM     22  C   UNL A   1      35.711  23.152  23.513  1.00  0.00     0.056 C 
ATOM     23  C   UNL A   1      37.424  21.636  24.597  1.00  0.00     0.056 C 
ENDBRANCH  19  20
ENDBRANCH  17  19
ENDBRANCH  13  17
ENDBRANCH   9  12
ENDBRANCH   7   8
BRANCH   7  24
ATOM     24  C   UNL A   1      32.624  26.179  24.174  1.00  0.00     0.070 C 
BRANCH  24  25
ATOM     25  C   UNL A   1      33.018  27.091  25.318  1.00  0.00    -0.045 A 
ATOM     26  C   UNL A   1      32.338  26.988  26.543  1.00  0.00     0.004 A 
ATOM     27  C   UNL A   1      34.085  27.999  25.236  1.00  0.00     0.004 A 
ATOM     28  C   UNL A   1      32.632  27.848  27.603  1.00  0.00     0.000 A 
ATOM     29  C   UNL A   1      34.339  28.901  26.276  1.00  0.00     0.000 A 
ATOM     30  C   UNL A   1      33.603  28.833  27.455  1.00  0.00     0.000 A 
ENDBRANCH  24  25
ENDBRANCH   7  24
ENDBRANCH   4   7
ENDBRANCH   2   3
ENDBRANCH   1   2
BRANCH   1  31
ATOM     31  C   UNL A   1      30.166  29.851  23.957  1.00  0.00     0.002 C 
BRANCH  31  32
ATOM     32  C   UNL A   1      31.094  30.127  25.146  1.00  0.00     0.002 C 
BRANCH  32  33
ATOM     33  C   UNL A   1      31.073  31.556  25.698  1.00  0.00     0.021 C 
BRANCH  33  34
ATOM     34  C   UNL A   1      32.152  31.876  26.728  1.00  0.00     0.116 C 
BRANCH  34  35
ATOM     35  N   UNL A   1      32.162  33.285  27.093  1.00  0.00    -0.352 N 
ATOM     36  C   UNL A   1      32.974  33.966  27.965  1.00  0.00     0.251 C 
ATOM     37  H   UNL A   1      31.480  33.834  26.643  1.00  0.00     0.163 HD
ATOM     38  O   UNL A   1      32.682  35.112  28.296  1.00  0.00    -0.269 OA
BRANCH  36  39
ATOM     39  C   UNL A   1      34.185  33.323  28.517  1.00  0.00     0.039 A 
ATOM     40  C   UNL A   1      35.418  33.964  28.364  1.00  0.00     0.014 A 
ATOM     41  C   UNL A   1      34.117  32.086  29.165  1.00  0.00     0.014 A 
ATOM     42  C   UNL A   1      36.568  33.396  28.917  1.00  0.00     0.010 A 
ATOM     43  C   UNL A   1      35.250  31.562  29.783  1.00  0.00     0.010 A 
ATOM     44  C   UNL A   1      36.489  32.211  29.667  1.00  0.00    -0.014 A 
BRANCH  44  45
ATOM     45  C   UNL A   1      37.681  31.659  30.361  1.00  0.00     0.031 A 
ATOM     46  C   UNL A   1      38.574  30.659  29.677  1.00  0.00     0.074 A 
ATOM     47  C   UNL A   1      37.913  31.999  31.645  1.00  0.00     0.049 A 
ATOM     48  N   UNL A   1      39.624  30.036  30.147  1.00  0.00    -0.248 NA
ATOM     49  C   UNL A   1      38.231  30.293  28.293  1.00  0.00     0.031 C 
ATOM     50  C   UNL A   1      37.082  32.904  32.443  1.00  0.00     0.029 A 
ATOM     51  N   UNL A   1      38.901  31.606  32.515  1.00  0.00    -0.354 N 
ATOM     52  C   UNL A   1      40.048  29.185  29.134  1.00  0.00     0.074 A 
ATOM     53  C   UNL A   1      39.122  29.347  28.034  1.00  0.00     0.031 C 
ATOM     54  C   UNL A   1      37.596  33.000  33.678  1.00  0.00     0.029 A 
ATOM     55  C   UNL A   1      38.768  32.135  33.777  1.00  0.00     0.049 A 
ATOM     56  H   UNL A   1      39.635  31.002  32.258  1.00  0.00     0.167 HD
ATOM     57  C   UNL A   1      41.123  28.361  29.111  1.00  0.00     0.034 A 
ATOM     58  C   UNL A   1      39.493  31.935  34.895  1.00  0.00     0.034 A 
ATOM     59  C   UNL A   1      42.056  28.221  30.197  1.00  0.00     0.049 A 
ATOM     60  C   UNL A   1      40.684  31.018  34.840  1.00  0.00     0.074 A 
ATOM     61  C   UNL A   1      43.225  27.480  30.236  1.00  0.00     0.029 A 
ATOM     62  N   UNL A   1      41.920  28.817  31.441  1.00  0.00    -0.354 N 
ATOM     63  N   UNL A   1      41.163  30.347  33.821  1.00  0.00    -0.248 NA
ATOM     64  C   UNL A   1      41.453  30.852  36.082  1.00  0.00     0.031 C 
ATOM     65  C   UNL A   1      43.771  27.594  31.518  1.00  0.00     0.029 A 
ATOM     66  C   UNL A   1      42.967  28.439  32.265  1.00  0.00     0.049 A 
ATOM     67  H   UNL A   1      41.187  29.420  31.701  1.00  0.00     0.167 HD
ATOM     68  C   UNL A   1      42.301  29.703  34.289  1.00  0.00     0.074 A 
ATOM     69  C   UNL A   1      42.457  30.086  35.677  1.00  0.00     0.031 C 
ATOM     70  C   UNL A   1      43.135  28.858  33.634  1.00  0.00     0.034 A 
BRANCH  57  71
ATOM     71  C   UNL A   1      41.374  27.568  27.853  1.00  0.00     0.023 A 
ATOM     72  C   UNL A   1      41.774  28.232  26.675  1.00  0.00     0.012 A 
ATOM     73  C   UNL A   1      41.279  26.162  27.854  1.00  0.00     0.148 A 
ATOM     74  C   UNL A   1      42.039  27.515  25.510  1.00  0.00     0.002 A 
ATOM     75  C   UNL A   1      41.592  25.451  26.701  1.00  0.00     0.091 A 
ATOM     76  F   UNL A   1      40.881  25.548  28.977  1.00  0.00    -0.205 F 
ATOM     77  C   UNL A   1      41.959  26.126  25.525  1.00  0.00     0.022 A 
BRANCH  75  78
ATOM     78  S   UNL A   1      41.599  23.655  26.638  1.00  0.00     0.127 S 
ATOM     79  O   UNL A   1      40.168  23.355  26.639  1.00  0.00    -0.237 OA
ATOM     80  O   UNL A   1      42.276  23.397  25.367  1.00  0.00    -0.237 OA
ATOM     81  O   UNL A   1      42.328  23.214  27.819  1.00  0.00    -0.744 OA
ENDBRANCH  75  78
ENDBRANCH  57  71
BRANCH  58  82
ATOM     82  C   UNL A   1      39.134  32.648  36.155  1.00  0.00     0.023 A 
ATOM     83  C   UNL A   1      39.613  33.952  36.376  1.00  0.00     0.012 A 
ATOM     84  C   UNL A   1      38.305  32.047  37.122  1.00  0.00     0.148 A 
ATOM     85  C   UNL A   1      39.302  34.634  37.554  1.00  0.00     0.002 A 
ATOM     86  C   UNL A   1      37.950  32.753  38.264  1.00  0.00     0.091 A 
ATOM     87  F   UNL A   1      37.867  30.800  36.898  1.00  0.00    -0.205 F 
ATOM     88  C   UNL A   1      38.463  34.040  38.493  1.00  0.00     0.022 A 
BRANCH  86  89
ATOM     89  S   UNL A   1      36.769  32.121  39.462  1.00  0.00     0.127 S 
ATOM     90  O   UNL A   1      37.178  30.724  39.577  1.00  0.00    -0.237 OA
ATOM     91  O   UNL A   1      37.059  32.948  40.634  1.00  0.00    -0.237 OA
ATOM     92  O   UNL A   1      35.455  32.349  38.878  1.00  0.00    -0.744 OA
ENDBRANCH  86  89
ENDBRANCH  58  82
BRANCH  70  93
ATOM     93  C   UNL A   1      44.309  28.300  34.397  1.00  0.00     0.023 A 
ATOM     94  C   UNL A   1      45.513  29.030  34.465  1.00  0.00     0.012 A 
ATOM     95  C   UNL A   1      44.193  27.090  35.109  1.00  0.00     0.148 A 
ATOM     96  C   UNL A   1      46.594  28.548  35.202  1.00  0.00     0.002 A 
ATOM     97  C   UNL A   1      45.256  26.642  35.885  1.00  0.00     0.091 A 
ATOM     98  F   UNL A   1      43.045  26.403  35.021  1.00  0.00    -0.205 F 
ATOM     99  C   UNL A   1      46.461  27.362  35.921  1.00  0.00     0.022 A 
BRANCH  97 100
ATOM    100  S   UNL A   1      45.149  25.179  36.920  1.00  0.00     0.127 S 
ATOM    101  O   UNL A   1      45.126  24.109  35.922  1.00  0.00    -0.237 OA
ATOM    102  O   UNL A   1      46.387  25.260  37.696  1.00  0.00    -0.237 OA
ATOM    103  O   UNL A   1      43.930  25.323  37.703  1.00  0.00    -0.744 OA
ENDBRANCH  97 100
ENDBRANCH  70  93
ENDBRANCH  44  45
ENDBRANCH  36  39
ENDBRANCH  34  35
ENDBRANCH  33  34
ENDBRANCH  32  33
ENDBRANCH  31  32
ENDBRANCH   1  31
TORSDOF 23
ENDMDL
MODEL 2
REMARK VINA RESULT:     -10.9      1.666      2.228
REMARK SMILES CC(C)(C)OC(=O)N1CCC[C@H]1C(=O)N[C@@H](Cc1ccccc1)C(=O)NCCCCCCNC(=O)c1ccc(-c2c3nc(c(-c4cccc(S(=O)(=O)[O-])c4F)c4ccc([nH]4)c(-c4cccc(S(=O)(=O)[O-])c4F)c4nc(c(-c5cccc(S(=O)(=O)[O-])c5F)c5ccc2[nH]5)C=C4)C=C3)cc1
REMARK SMILES IDX 28 1 27 2 26 3 24 4 25 5 16 7 15 8 13 9 14 10 12 12 8 13
REMARK SMILES IDX 9 14 10 15 11 16 6 17 7 18 5 19 2 20 1 21 3 22 4 23 17 24
REMARK SMILES IDX 18 25 19 26 23 27 20 28 22 29 21 30 29 31 30 32 31 33 32 34
REMARK SMILES IDX 33 35 34 36 35 38 36 39 37 40 98 41 38 42 97 43 39 44 40 45
REMARK SMILES IDX 41 46 91 47 42 48 96 49 90 50 92 51 43 52 95 53 89 54 88 55
REMARK SMILES IDX 44 57 76 58 56 59 75 60 57 61 60 62 74 63 93 64 58 65 59 66
REMARK SMILES IDX 73 68 94 69 61 70 45 71 46 72 54 73 47 74 49 75 55 76 48 77
REMARK SMILES IDX 50 78 51 79 52 80 53 81 77 82 78 83 86 84 79 85 81 86 87 87
REMARK SMILES IDX 80 88 82 89 83 90 84 91 85 92 62 93 63 94 71 95 64 96 66 97
REMARK SMILES IDX 72 98 65 99 67 100 68 101 69 102 70 103
REMARK H PARENT 26 6 15 11 33 37 92 56 60 67
REMARK Flexibility Score: inf
ROOT
ATOM      1  C   UNL A   1      30.323  29.464  22.658  1.00  0.00     0.021 C 
ENDROOT
BRANCH   1   2
ATOM      2  C   UNL A   1      30.485  27.962  22.508  1.00  0.00     0.116 C 
BRANCH   2   3
ATOM      3  N   UNL A   1      29.620  27.167  23.338  1.00  0.00    -0.354 N 
ATOM      4  C   UNL A   1      29.981  26.201  24.228  1.00  0.00     0.242 C 
ATOM      5  O   UNL A   1      29.123  25.833  25.040  1.00  0.00    -0.273 OA
ATOM      6  H   UNL A   1      28.655  27.341  23.253  1.00  0.00     0.163 HD
BRANCH   4   7
ATOM      7  C   UNL A   1      31.403  25.577  24.281  1.00  0.00     0.175 C 
BRANCH   7   8
ATOM      8  N   UNL A   1      31.590  24.372  23.469  1.00  0.00    -0.342 N 
ATOM      9  C   UNL A   1      32.519  23.375  23.534  1.00  0.00     0.243 C 
ATOM     10  O   UNL A   1      32.614  22.683  22.514  1.00  0.00    -0.273 OA
ATOM     11  H   UNL A   1      30.926  24.261  22.750  1.00  0.00     0.164 HD
BRANCH   9  12
ATOM     12  C   UNL A   1      33.295  23.039  24.842  1.00  0.00     0.178 C 
ATOM     13  N   UNL A   1      33.682  21.624  24.894  1.00  0.00    -0.296 N 
ATOM     14  C   UNL A   1      35.116  21.459  24.798  1.00  0.00     0.124 C 
ATOM     15  C   UNL A   1      35.625  22.696  25.500  1.00  0.00     0.024 C 
ATOM     16  C   UNL A   1      34.637  23.761  25.040  1.00  0.00     0.037 C 
BRANCH  13  17
ATOM     17  C   UNL A   1      32.783  20.633  25.195  1.00  0.00     0.410 C 
ATOM     18  O   UNL A   1      31.583  20.830  25.341  1.00  0.00    -0.224 OA
BRANCH  17  19
ATOM     19  O   UNL A   1      33.405  19.443  25.387  1.00  0.00    -0.444 OA
BRANCH  19  20
ATOM     20  C   UNL A   1      33.243  18.310  24.496  1.00  0.00     0.106 C 
ATOM     21  C   UNL A   1      32.417  17.295  25.301  1.00  0.00     0.056 C 
ATOM     22  C   UNL A   1      34.630  17.732  24.215  1.00  0.00     0.056 C 
ATOM     23  C   UNL A   1      32.485  18.611  23.197  1.00  0.00     0.056 C 
ENDBRANCH  19  20
ENDBRANCH  17  19
ENDBRANCH  13  17
ENDBRANCH   9  12
ENDBRANCH   7   8
BRANCH   7  24
ATOM     24  C   UNL A   1      32.604  26.566  24.194  1.00  0.00     0.070 C 
BRANCH  24  25
ATOM     25  C   UNL A   1      33.034  27.411  25.376  1.00  0.00    -0.045 A 
ATOM     26  C   UNL A   1      32.245  27.417  26.539  1.00  0.00     0.004 A 
ATOM     27  C   UNL A   1      34.230  28.145  25.394  1.00  0.00     0.004 A 
ATOM     28  C   UNL A   1      32.575  28.225  27.628  1.00  0.00     0.000 A 
ATOM     29  C   UNL A   1      34.529  29.000  26.460  1.00  0.00     0.000 A 
ATOM     30  C   UNL A   1      33.694  29.049  27.573  1.00  0.00     0.000 A 
ENDBRANCH  24  25
ENDBRANCH   7  24
ENDBRANCH   4   7
ENDBRANCH   2   3
ENDBRANCH   1   2
BRANCH   1  31
ATOM     31  C   UNL A   1      29.966  29.939  24.063  1.00  0.00     0.002 C 
BRANCH  31  32
ATOM     32  C   UNL A   1      31.147  30.395  24.930  1.00  0.00     0.002 C 
BRANCH  32  33
ATOM     33  C   UNL A   1      30.894  31.613  25.823  1.00  0.00     0.021 C 
BRANCH  33  34
ATOM     34  C   UNL A   1      31.998  31.929  26.827  1.00  0.00     0.116 C 
BRANCH  34  35
ATOM     35  N   UNL A   1      32.114  33.356  27.084  1.00  0.00    -0.352 N 
ATOM     36  C   UNL A   1      32.997  34.042  27.879  1.00  0.00     0.251 C 
ATOM     37  H   UNL A   1      31.455  33.917  26.614  1.00  0.00     0.163 HD
ATOM     38  O   UNL A   1      32.794  35.227  28.131  1.00  0.00    -0.269 OA
BRANCH  36  39
ATOM     39  C   UNL A   1      34.181  33.359  28.445  1.00  0.00     0.039 A 
ATOM     40  C   UNL A   1      35.453  33.852  28.140  1.00  0.00     0.014 A 
ATOM     41  C   UNL A   1      34.046  32.227  29.254  1.00  0.00     0.014 A 
ATOM     42  C   UNL A   1      36.582  33.250  28.699  1.00  0.00     0.010 A 
ATOM     43  C   UNL A   1      35.167  31.678  29.872  1.00  0.00     0.010 A 
ATOM     44  C   UNL A   1      36.448  32.183  29.602  1.00  0.00    -0.014 A 
BRANCH  44  45
ATOM     45  C   UNL A   1      37.630  31.610  30.297  1.00  0.00     0.031 A 
ATOM     46  C   UNL A   1      38.453  30.529  29.648  1.00  0.00     0.074 A 
ATOM     47  C   UNL A   1      37.915  32.008  31.553  1.00  0.00     0.049 A 
ATOM     48  N   UNL A   1      39.483  29.881  30.127  1.00  0.00    -0.248 NA
ATOM     49  C   UNL A   1      38.054  30.106  28.296  1.00  0.00     0.031 C 
ATOM     50  C   UNL A   1      37.152  32.997  32.319  1.00  0.00     0.029 A 
ATOM     51  N   UNL A   1      38.905  31.614  32.419  1.00  0.00    -0.354 N 
ATOM     52  C   UNL A   1      39.836  28.954  29.153  1.00  0.00     0.074 A 
ATOM     53  C   UNL A   1      38.890  29.102  28.069  1.00  0.00     0.031 C 
ATOM     54  C   UNL A   1      37.704  33.135  33.534  1.00  0.00     0.029 A 
ATOM     55  C   UNL A   1      38.834  32.219  33.652  1.00  0.00     0.049 A 
ATOM     56  H   UNL A   1      39.601  30.960  32.179  1.00  0.00     0.167 HD
ATOM     57  C   UNL A   1      40.869  28.077  29.150  1.00  0.00     0.034 A 
ATOM     58  C   UNL A   1      39.579  32.044  34.761  1.00  0.00     0.034 A 
ATOM     59  C   UNL A   1      41.823  27.950  30.219  1.00  0.00     0.049 A 
ATOM     60  C   UNL A   1      40.721  31.065  34.729  1.00  0.00     0.074 A 
ATOM     61  C   UNL A   1      42.954  27.153  30.271  1.00  0.00     0.029 A 
ATOM     62  N   UNL A   1      41.752  28.620  31.430  1.00  0.00    -0.354 N 
ATOM     63  N   UNL A   1      41.137  30.316  33.737  1.00  0.00    -0.248 NA
ATOM     64  C   UNL A   1      41.515  30.929  35.959  1.00  0.00     0.031 C 
ATOM     65  C   UNL A   1      43.541  27.309  31.530  1.00  0.00     0.029 A 
ATOM     66  C   UNL A   1      42.801  28.235  32.247  1.00  0.00     0.049 A 
ATOM     67  H   UNL A   1      41.056  29.272  31.674  1.00  0.00     0.167 HD
ATOM     68  C   UNL A   1      42.255  29.641  34.213  1.00  0.00     0.074 A 
ATOM     69  C   UNL A   1      42.468  30.091  35.572  1.00  0.00     0.031 C 
ATOM     70  C   UNL A   1      43.027  28.719  33.586  1.00  0.00     0.034 A 
BRANCH  57  71
ATOM     71  C   UNL A   1      41.044  27.203  27.933  1.00  0.00     0.023 A 
ATOM     72  C   UNL A   1      41.623  27.740  26.765  1.00  0.00     0.012 A 
ATOM     73  C   UNL A   1      40.700  25.837  27.968  1.00  0.00     0.148 A 
ATOM     74  C   UNL A   1      41.822  26.943  25.638  1.00  0.00     0.002 A 
ATOM     75  C   UNL A   1      40.946  25.038  26.857  1.00  0.00     0.091 A 
ATOM     76  F   UNL A   1      40.137  25.347  29.080  1.00  0.00    -0.205 F 
ATOM     77  C   UNL A   1      41.493  25.591  25.688  1.00  0.00     0.022 A 
BRANCH  75  78
ATOM     78  S   UNL A   1      40.636  23.268  26.846  1.00  0.00     0.127 S 
ATOM     79  O   UNL A   1      41.540  22.818  25.788  1.00  0.00    -0.237 OA
ATOM     80  O   UNL A   1      41.037  22.879  28.198  1.00  0.00    -0.237 OA
ATOM     81  O   UNL A   1      39.217  23.109  26.561  1.00  0.00    -0.744 OA
ENDBRANCH  75  78
ENDBRANCH  57  71
BRANCH  58  82
ATOM     82  C   UNL A   1      39.291  32.842  35.988  1.00  0.00     0.023 A 
ATOM     83  C   UNL A   1      38.471  32.298  36.994  1.00  0.00     0.012 A 
ATOM     84  C   UNL A   1      39.842  34.125  36.170  1.00  0.00     0.148 A 
ATOM     85  C   UNL A   1      38.176  33.031  38.145  1.00  0.00     0.002 A 
ATOM     86  C   UNL A   1      39.594  34.825  37.343  1.00  0.00     0.091 A 
ATOM     87  F   UNL A   1      40.613  34.629  35.196  1.00  0.00    -0.205 F 
ATOM     88  C   UNL A   1      38.745  34.289  38.324  1.00  0.00     0.022 A 
BRANCH  86  89
ATOM     89  S   UNL A   1      40.391  36.391  37.720  1.00  0.00     0.127 S 
ATOM     90  O   UNL A   1      39.407  37.026  38.591  1.00  0.00    -0.237 OA
ATOM     91  O   UNL A   1      41.616  35.951  38.389  1.00  0.00    -0.237 OA
ATOM     92  O   UNL A   1      40.611  37.041  36.435  1.00  0.00    -0.744 OA
ENDBRANCH  86  89
ENDBRANCH  58  82
BRANCH  70  93
ATOM     93  C   UNL A   1      44.193  28.145  34.350  1.00  0.00     0.023 A 
ATOM     94  C   UNL A   1      45.411  28.851  34.406  1.00  0.00     0.012 A 
ATOM     95  C   UNL A   1      44.056  26.944  35.074  1.00  0.00     0.148 A 
ATOM     96  C   UNL A   1      46.485  28.355  35.144  1.00  0.00     0.002 A 
ATOM     97  C   UNL A   1      45.113  26.483  35.850  1.00  0.00     0.091 A 
ATOM     98  F   UNL A   1      42.894  26.280  34.997  1.00  0.00    -0.205 F 
ATOM     99  C   UNL A   1      46.332  27.179  35.875  1.00  0.00     0.022 A 
BRANCH  97 100
ATOM    100  S   UNL A   1      44.981  25.032  36.900  1.00  0.00     0.127 S 
ATOM    101  O   UNL A   1      44.347  24.070  35.999  1.00  0.00    -0.237 OA
ATOM    102  O   UNL A   1      46.382  24.747  37.209  1.00  0.00    -0.237 OA
ATOM    103  O   UNL A   1      44.174  25.432  38.046  1.00  0.00    -0.744 OA
ENDBRANCH  97 100
ENDBRANCH  70  93
ENDBRANCH  44  45
ENDBRANCH  36  39
ENDBRANCH  34  35
ENDBRANCH  33  34
ENDBRANCH  32  33
ENDBRANCH  31  32
ENDBRANCH   1  31
TORSDOF 23
ENDMDL
MODEL 3
REMARK VINA RESULT:     -10.6      1.415      7.591
REMARK SMILES CC(C)(C)OC(=O)N1CCC[C@H]1C(=O)N[C@@H](Cc1ccccc1)C(=O)NCCCCCCNC(=O)c1ccc(-c2c3nc(c(-c4cccc(S(=O)(=O)[O-])c4F)c4ccc([nH]4)c(-c4cccc(S(=O)(=O)[O-])c4F)c4nc(c(-c5cccc(S(=O)(=O)[O-])c5F)c5ccc2[nH]5)C=C4)C=C3)cc1
REMARK SMILES IDX 28 1 27 2 26 3 24 4 25 5 16 7 15 8 13 9 14 10 12 12 8 13
REMARK SMILES IDX 9 14 10 15 11 16 6 17 7 18 5 19 2 20 1 21 3 22 4 23 17 24
REMARK SMILES IDX 18 25 19 26 23 27 20 28 22 29 21 30 29 31 30 32 31 33 32 34
REMARK SMILES IDX 33 35 34 36 35 38 36 39 37 40 98 41 38 42 97 43 39 44 40 45
REMARK SMILES IDX 41 46 91 47 42 48 96 49 90 50 92 51 43 52 95 53 89 54 88 55
REMARK SMILES IDX 44 57 76 58 56 59 75 60 57 61 60 62 74 63 93 64 58 65 59 66
REMARK SMILES IDX 73 68 94 69 61 70 45 71 46 72 54 73 47 74 49 75 55 76 48 77
REMARK SMILES IDX 50 78 51 79 52 80 53 81 77 82 78 83 86 84 79 85 81 86 87 87
REMARK SMILES IDX 80 88 82 89 83 90 84 91 85 92 62 93 63 94 71 95 64 96 66 97
REMARK SMILES IDX 72 98 65 99 67 100 68 101 69 102 70 103
REMARK H PARENT 26 6 15 11 33 37 92 56 60 67
REMARK Flexibility Score: inf
ROOT
ATOM      1  C   UNL A   1      33.205  28.548  25.540  1.00  0.00     0.021 C 
ENDROOT
BRANCH   1   2
ATOM      2  C   UNL A   1      33.249  27.035  25.646  1.00  0.00     0.116 C 
BRANCH   2   3
ATOM      3  N   UNL A   1      34.107  26.379  24.697  1.00  0.00    -0.354 N 
ATOM      4  C   UNL A   1      33.834  25.266  23.961  1.00  0.00     0.242 C 
ATOM      5  O   UNL A   1      34.582  25.023  23.006  1.00  0.00    -0.273 OA
ATOM      6  H   UNL A   1      34.996  26.781  24.563  1.00  0.00     0.163 HD
BRANCH   4   7
ATOM      7  C   UNL A   1      32.630  24.326  24.248  1.00  0.00     0.175 C 
BRANCH   7   8
ATOM      8  N   UNL A   1      32.315  24.127  25.665  1.00  0.00    -0.342 N 
ATOM      9  C   UNL A   1      32.660  23.135  26.536  1.00  0.00     0.243 C 
ATOM     10  O   UNL A   1      31.969  23.075  27.559  1.00  0.00    -0.273 OA
ATOM     11  H   UNL A   1      31.756  24.835  26.059  1.00  0.00     0.164 HD
BRANCH   9  12
ATOM     12  C   UNL A   1      33.919  22.242  26.329  1.00  0.00     0.178 C 
ATOM     13  N   UNL A   1      33.812  21.429  25.112  1.00  0.00    -0.296 N 
ATOM     14  C   UNL A   1      34.769  21.843  24.109  1.00  0.00     0.124 C 
ATOM     15  C   UNL A   1      35.939  22.291  24.953  1.00  0.00     0.024 C 
ATOM     16  C   UNL A   1      35.250  22.981  26.123  1.00  0.00     0.037 C 
BRANCH  13  17
ATOM     17  C   UNL A   1      33.027  20.305  25.051  1.00  0.00     0.410 C 
ATOM     18  O   UNL A   1      31.822  20.310  25.270  1.00  0.00    -0.224 OA
BRANCH  17  19
ATOM     19  O   UNL A   1      33.769  19.198  24.801  1.00  0.00    -0.444 OA
BRANCH  19  20
ATOM     20  C   UNL A   1      33.235  18.015  24.154  1.00  0.00     0.106 C 
ATOM     21  C   UNL A   1      32.333  18.555  23.033  1.00  0.00     0.056 C 
ATOM     22  C   UNL A   1      32.382  17.265  25.178  1.00  0.00     0.056 C 
ATOM     23  C   UNL A   1      34.284  17.097  23.515  1.00  0.00     0.056 C 
ENDBRANCH  19  20
ENDBRANCH  17  19
ENDBRANCH  13  17
ENDBRANCH   9  12
ENDBRANCH   7   8
BRANCH   7  24
ATOM     24  C   UNL A   1      31.365  24.520  23.361  1.00  0.00     0.070 C 
BRANCH  24  25
ATOM     25  C   UNL A   1      30.655  25.854  23.256  1.00  0.00    -0.045 A 
ATOM     26  C   UNL A   1      29.433  26.035  23.924  1.00  0.00     0.004 A 
ATOM     27  C   UNL A   1      31.196  26.954  22.572  1.00  0.00     0.004 A 
ATOM     28  C   UNL A   1      28.719  27.230  23.808  1.00  0.00     0.000 A 
ATOM     29  C   UNL A   1      30.453  28.129  22.405  1.00  0.00     0.000 A 
ATOM     30  C   UNL A   1      29.209  28.261  23.013  1.00  0.00     0.000 A 
ENDBRANCH  24  25
ENDBRANCH   7  24
ENDBRANCH   4   7
ENDBRANCH   2   3
ENDBRANCH   1   2
BRANCH   1  31
ATOM     31  C   UNL A   1      32.098  29.222  26.344  1.00  0.00     0.002 C 
BRANCH  31  32
ATOM     32  C   UNL A   1      31.444  30.441  25.683  1.00  0.00     0.002 C 
BRANCH  32  33
ATOM     33  C   UNL A   1      31.354  31.705  26.543  1.00  0.00     0.021 C 
BRANCH  33  34
ATOM     34  C   UNL A   1      32.691  32.300  26.973  1.00  0.00     0.116 C 
BRANCH  34  35
ATOM     35  N   UNL A   1      32.569  33.697  27.363  1.00  0.00    -0.352 N 
ATOM     36  C   UNL A   1      33.197  34.391  28.366  1.00  0.00     0.251 C 
ATOM     37  H   UNL A   1      31.939  34.225  26.823  1.00  0.00     0.163 HD
ATOM     38  O   UNL A   1      32.797  35.512  28.670  1.00  0.00    -0.269 OA
BRANCH  36  39
ATOM     39  C   UNL A   1      34.339  33.793  29.091  1.00  0.00     0.039 A 
ATOM     40  C   UNL A   1      34.087  32.805  30.046  1.00  0.00     0.014 A 
ATOM     41  C   UNL A   1      35.650  34.213  28.849  1.00  0.00     0.014 A 
ATOM     42  C   UNL A   1      35.154  32.194  30.710  1.00  0.00     0.010 A 
ATOM     43  C   UNL A   1      36.715  33.549  29.454  1.00  0.00     0.010 A 
ATOM     44  C   UNL A   1      36.479  32.532  30.391  1.00  0.00    -0.014 A 
BRANCH  44  45
ATOM     45  C   UNL A   1      37.625  31.808  31.001  1.00  0.00     0.031 A 
ATOM     46  C   UNL A   1      38.045  32.090  32.418  1.00  0.00     0.074 A 
ATOM     47  C   UNL A   1      38.343  30.952  30.246  1.00  0.00     0.049 A 
ATOM     48  N   UNL A   1      39.049  31.593  33.093  1.00  0.00    -0.248 NA
ATOM     49  C   UNL A   1      37.249  33.076  33.168  1.00  0.00     0.031 C 
ATOM     50  C   UNL A   1      38.081  30.645  28.837  1.00  0.00     0.029 A 
ATOM     51  N   UNL A   1      39.453  30.201  30.545  1.00  0.00    -0.354 N 
ATOM     52  C   UNL A   1      39.025  32.223  34.332  1.00  0.00     0.074 A 
ATOM     53  C   UNL A   1      37.927  33.164  34.303  1.00  0.00     0.031 C 
ATOM     54  C   UNL A   1      38.998  29.770  28.399  1.00  0.00     0.029 A 
ATOM     55  C   UNL A   1      39.938  29.482  29.478  1.00  0.00     0.049 A 
ATOM     56  H   UNL A   1      39.862  30.180  31.440  1.00  0.00     0.167 HD
ATOM     57  C   UNL A   1      39.829  32.021  35.403  1.00  0.00     0.034 A 
ATOM     58  C   UNL A   1      41.026  28.694  29.371  1.00  0.00     0.034 A 
ATOM     59  C   UNL A   1      40.905  31.066  35.437  1.00  0.00     0.049 A 
ATOM     60  C   UNL A   1      41.899  28.484  30.577  1.00  0.00     0.074 A 
ATOM     61  C   UNL A   1      41.718  30.725  36.504  1.00  0.00     0.029 A 
ATOM     62  N   UNL A   1      41.331  30.313  34.354  1.00  0.00    -0.354 N 
ATOM     63  N   UNL A   1      41.762  28.966  31.789  1.00  0.00    -0.248 NA
ATOM     64  C   UNL A   1      43.061  27.599  30.412  1.00  0.00     0.031 C 
ATOM     65  C   UNL A   1      42.664  29.799  36.053  1.00  0.00     0.029 A 
ATOM     66  C   UNL A   1      42.413  29.530  34.718  1.00  0.00     0.049 A 
ATOM     67  H   UNL A   1      40.925  30.334  33.457  1.00  0.00     0.167 HD
ATOM     68  C   UNL A   1      42.801  28.423  32.535  1.00  0.00     0.074 A 
ATOM     69  C   UNL A   1      43.542  27.552  31.647  1.00  0.00     0.031 C 
ATOM     70  C   UNL A   1      43.121  28.636  33.835  1.00  0.00     0.034 A 
BRANCH  57  71
ATOM     71  C   UNL A   1      39.554  32.825  36.649  1.00  0.00     0.023 A 
ATOM     72  C   UNL A   1      40.168  34.083  36.819  1.00  0.00     0.012 A 
ATOM     73  C   UNL A   1      38.639  32.367  37.618  1.00  0.00     0.148 A 
ATOM     74  C   UNL A   1      39.905  34.855  37.950  1.00  0.00     0.002 A 
ATOM     75  C   UNL A   1      38.345  33.164  38.718  1.00  0.00     0.091 A 
ATOM     76  F   UNL A   1      38.078  31.162  37.449  1.00  0.00    -0.205 F 
ATOM     77  C   UNL A   1      38.986  34.401  38.893  1.00  0.00     0.022 A 
BRANCH  75  78
ATOM     78  S   UNL A   1      37.117  32.709  39.948  1.00  0.00     0.127 S 
ATOM     79  O   UNL A   1      35.913  32.584  39.128  1.00  0.00    -0.237 OA
ATOM     80  O   UNL A   1      37.646  31.443  40.454  1.00  0.00    -0.237 OA
ATOM     81  O   UNL A   1      37.099  33.794  40.919  1.00  0.00    -0.744 OA
ENDBRANCH  75  78
ENDBRANCH  57  71
BRANCH  58  82
ATOM     82  C   UNL A   1      41.330  28.014  28.079  1.00  0.00     0.023 A 
ATOM     83  C   UNL A   1      41.779  28.773  26.983  1.00  0.00     0.012 A 
ATOM     84  C   UNL A   1      41.199  26.619  27.941  1.00  0.00     0.148 A 
ATOM     85  C   UNL A   1      42.058  28.161  25.760  1.00  0.00     0.002 A 
ATOM     86  C   UNL A   1      41.535  26.008  26.739  1.00  0.00     0.091 A 
ATOM     87  F   UNL A   1      40.762  25.913  28.993  1.00  0.00    -0.205 F 
ATOM     88  C   UNL A   1      41.946  26.779  25.640  1.00  0.00     0.022 A 
BRANCH  86  89
ATOM     89  S   UNL A   1      41.551  24.222  26.536  1.00  0.00     0.127 S 
ATOM     90  O   UNL A   1      40.130  23.925  26.385  1.00  0.00    -0.237 OA
ATOM     91  O   UNL A   1      42.347  24.066  25.317  1.00  0.00    -0.237 OA
ATOM     92  O   UNL A   1      42.184  23.694  27.736  1.00  0.00    -0.744 OA
ENDBRANCH  86  89
ENDBRANCH  58  82
BRANCH  70  93
ATOM     93  C   UNL A   1      44.314  27.903  34.393  1.00  0.00     0.023 A 
ATOM     94  C   UNL A   1      45.587  28.505  34.360  1.00  0.00     0.012 A 
ATOM     95  C   UNL A   1      44.158  26.649  35.018  1.00  0.00     0.148 A 
ATOM     96  C   UNL A   1      46.693  27.858  34.910  1.00  0.00     0.002 A 
ATOM     97  C   UNL A   1      45.254  26.034  35.611  1.00  0.00     0.091 A 
ATOM     98  F   UNL A   1      42.941  26.086  35.027  1.00  0.00    -0.205 F 
ATOM     99  C   UNL A   1      46.523  26.629  35.546  1.00  0.00     0.022 A 
BRANCH  97 100
ATOM    100  S   UNL A   1      45.119  24.500  36.535  1.00  0.00     0.127 S 
ATOM    101  O   UNL A   1      46.522  24.204  36.827  1.00  0.00    -0.237 OA
ATOM    102  O   UNL A   1      44.329  24.908  37.696  1.00  0.00    -0.237 OA
ATOM    103  O   UNL A   1      44.457  23.550  35.651  1.00  0.00    -0.744 OA
ENDBRANCH  97 100
ENDBRANCH  70  93
ENDBRANCH  44  45
ENDBRANCH  36  39
ENDBRANCH  34  35
ENDBRANCH  33  34
ENDBRANCH  32  33
ENDBRANCH  31  32
ENDBRANCH   1  31
TORSDOF 23
ENDMDL
