MODEL 1
REMARK VINA RESULT:     -11.6      0.000      0.000
REMARK SMILES Cc1cccc2c(C(F)(F)F)cc(C(=O)NCCCCCCNC(=O)c3ccc(-c4c5nc(c(-c6cccc(S(=O)(=O)[O-])c6F)c6ccc([nH]6)c(-c6cccc(S(=O)(=O)[O-])c6F)c6nc(c(-c7cccc(S(=O)(=O)[O-])c7F)c7ccc4[nH]7)C=C6)C=C5)cc3)nc12
REMARK SMILES IDX 20 1 19 2 18 3 17 4 16 5 14 6 15 7 13 9 1 10 2 11 3 12 90 13
REMARK SMILES IDX 4 14 6 15 89 16 5 17 7 18 12 19 8 20 9 21 10 22 11 23 21 24
REMARK SMILES IDX 22 25 23 26 24 27 25 29 26 30 27 31 88 32 28 33 87 34 29 35
REMARK SMILES IDX 30 36 31 37 81 38 32 39 86 40 80 41 82 42 33 43 85 44 79 45
REMARK SMILES IDX 78 46 34 48 66 49 46 50 65 51 47 52 50 53 64 54 83 55 48 56
REMARK SMILES IDX 49 57 63 59 84 60 51 61 35 62 36 63 44 64 37 65 39 66 45 67
REMARK SMILES IDX 38 68 40 69 41 70 42 71 43 72 67 73 68 74 76 75 69 76 71 77
REMARK SMILES IDX 77 78 70 79 72 80 73 81 74 82 75 83 52 84 53 85 61 86 54 87
REMARK SMILES IDX 56 88 62 89 55 90 57 91 58 92 59 93 60 94
REMARK H PARENT 16 8 23 28 82 47 50 58
REMARK Flexibility Score: inf
ROOT
ATOM      1  C   UNL A   1      31.738  28.789  25.994  1.00  0.00     0.002 C 
ENDROOT
BRANCH   1   2
ATOM      2  C   UNL A   1      31.082  29.007  24.624  1.00  0.00     0.002 C 
BRANCH   2   3
ATOM      3  C   UNL A   1      31.822  28.361  23.448  1.00  0.00     0.021 C 
BRANCH   3   4
ATOM      4  C   UNL A   1      30.985  27.329  22.698  1.00  0.00     0.116 C 
BRANCH   4   5
ATOM      5  N   UNL A   1      31.743  26.724  21.616  1.00  0.00    -0.351 N 
ATOM      6  C   UNL A   1      32.692  25.728  21.613  1.00  0.00     0.269 C 
ATOM      7  O   UNL A   1      33.199  25.430  20.527  1.00  0.00    -0.268 OA
ATOM      8  H   UNL A   1      31.540  27.093  20.725  1.00  0.00     0.163 HD
BRANCH   6   9
ATOM      9  C   UNL A   1      33.119  24.985  22.845  1.00  0.00     0.129 A 
ATOM     10  C   UNL A   1      30.367  24.868  25.940  1.00  0.00     0.047 C 
ATOM     11  C   UNL A   1      31.692  24.152  26.041  1.00  0.00    -0.025 A 
ATOM     12  C   UNL A   1      31.967  23.414  27.198  1.00  0.00     0.005 A 
ATOM     13  C   UNL A   1      32.615  24.211  24.987  1.00  0.00     0.075 A 
ATOM     14  C   UNL A   1      33.168  22.735  27.315  1.00  0.00     0.001 A 
ATOM     15  C   UNL A   1      33.848  23.518  25.089  1.00  0.00     0.013 A 
ATOM     16  N   UNL A   1      32.287  24.924  23.898  1.00  0.00    -0.242 NA
ATOM     17  C   UNL A   1      34.097  22.787  26.277  1.00  0.00     0.011 A 
ATOM     18  C   UNL A   1      34.735  23.608  23.980  1.00  0.00     0.067 A 
ATOM     19  C   UNL A   1      34.346  24.353  22.852  1.00  0.00     0.048 A 
BRANCH  18  20
ATOM     20  C   UNL A   1      36.090  22.950  23.883  1.00  0.00     0.417 C 
ATOM     21  F   UNL A   1      36.615  23.054  22.627  1.00  0.00    -0.166 F 
ATOM     22  F   UNL A   1      37.001  23.547  24.705  1.00  0.00    -0.166 F 
ATOM     23  F   UNL A   1      36.148  21.628  24.186  1.00  0.00    -0.166 F 
ENDBRANCH  18  20
ENDBRANCH   6   9
ENDBRANCH   4   5
ENDBRANCH   3   4
ENDBRANCH   2   3
ENDBRANCH   1   2
BRANCH   1  24
ATOM     24  C   UNL A   1      33.038  27.980  25.968  1.00  0.00     0.021 C 
BRANCH  24  25
ATOM     25  C   UNL A   1      34.293  28.797  26.248  1.00  0.00     0.116 C 
BRANCH  25  26
ATOM     26  N   UNL A   1      33.972  30.125  26.751  1.00  0.00    -0.352 N 
ATOM     27  C   UNL A   1      34.580  30.848  27.743  1.00  0.00     0.251 C 
ATOM     28  H   UNL A   1      33.207  30.568  26.315  1.00  0.00     0.163 HD
ATOM     29  O   UNL A   1      34.038  31.861  28.186  1.00  0.00    -0.269 OA
BRANCH  27  30
ATOM     30  C   UNL A   1      35.880  30.404  28.288  1.00  0.00     0.039 A 
ATOM     31  C   UNL A   1      35.898  29.579  29.415  1.00  0.00     0.014 A 
ATOM     32  C   UNL A   1      37.079  30.808  27.690  1.00  0.00     0.014 A 
ATOM     33  C   UNL A   1      37.117  29.117  29.912  1.00  0.00     0.010 A 
ATOM     34  C   UNL A   1      38.286  30.283  28.141  1.00  0.00     0.010 A 
ATOM     35  C   UNL A   1      38.320  29.440  29.262  1.00  0.00    -0.014 A 
BRANCH  35  36
ATOM     36  C   UNL A   1      39.620  28.898  29.733  1.00  0.00     0.031 A 
ATOM     37  C   UNL A   1      40.373  29.582  30.842  1.00  0.00     0.074 A 
ATOM     38  C   UNL A   1      40.161  27.833  29.107  1.00  0.00     0.049 A 
ATOM     39  N   UNL A   1      41.541  29.285  31.349  1.00  0.00    -0.248 NA
ATOM     40  C   UNL A   1      39.746  30.772  31.440  1.00  0.00     0.031 C 
ATOM     41  C   UNL A   1      39.566  27.130  27.969  1.00  0.00     0.029 A 
ATOM     42  N   UNL A   1      41.346  27.175  29.320  1.00  0.00    -0.354 N 
ATOM     43  C   UNL A   1      41.804  30.266  32.299  1.00  0.00     0.074 A 
ATOM     44  C   UNL A   1      40.689  31.187  32.272  1.00  0.00     0.031 C 
ATOM     45  C   UNL A   1      40.385  26.136  27.589  1.00  0.00     0.029 A 
ATOM     46  C   UNL A   1      41.577  26.152  28.430  1.00  0.00     0.049 A 
ATOM     47  H   UNL A   1      41.973  27.412  30.042  1.00  0.00     0.167 HD
ATOM     48  C   UNL A   1      42.862  30.375  33.137  1.00  0.00     0.034 A 
ATOM     49  C   UNL A   1      42.634  25.328  28.297  1.00  0.00     0.034 A 
ATOM     50  C   UNL A   1      43.951  29.436  33.184  1.00  0.00     0.049 A 
ATOM     51  C   UNL A   1      43.784  25.453  29.259  1.00  0.00     0.074 A 
ATOM     52  C   UNL A   1      45.027  29.410  34.055  1.00  0.00     0.029 A 
ATOM     53  N   UNL A   1      44.113  28.366  32.318  1.00  0.00    -0.354 N 
ATOM     54  N   UNL A   1      43.940  26.292  30.254  1.00  0.00    -0.248 NA
ATOM     55  C   UNL A   1      44.887  24.494  29.105  1.00  0.00     0.031 C 
ATOM     56  C   UNL A   1      45.856  28.344  33.693  1.00  0.00     0.029 A 
ATOM     57  C   UNL A   1      45.277  27.682  32.622  1.00  0.00     0.049 A 
ATOM     58  H   UNL A   1      43.491  28.128  31.592  1.00  0.00     0.167 HD
ATOM     59  C   UNL A   1      45.138  25.940  30.866  1.00  0.00     0.074 A 
ATOM     60  C   UNL A   1      45.656  24.797  30.142  1.00  0.00     0.031 C 
ATOM     61  C   UNL A   1      45.758  26.517  31.924  1.00  0.00     0.034 A 
BRANCH  48  62
ATOM     62  C   UNL A   1      42.875  31.530  34.104  1.00  0.00     0.023 A 
ATOM     63  C   UNL A   1      43.438  32.763  33.713  1.00  0.00     0.012 A 
ATOM     64  C   UNL A   1      42.281  31.416  35.376  1.00  0.00     0.148 A 
ATOM     65  C   UNL A   1      43.443  33.851  34.585  1.00  0.00     0.002 A 
ATOM     66  C   UNL A   1      42.246  32.520  36.221  1.00  0.00     0.091 A 
ATOM     67  F   UNL A   1      41.768  30.232  35.740  1.00  0.00    -0.205 F 
ATOM     68  C   UNL A   1      42.837  33.733  35.832  1.00  0.00     0.022 A 
BRANCH  66  69
ATOM     69  S   UNL A   1      41.418  32.496  37.815  1.00  0.00     0.127 S 
ATOM     70  O   UNL A   1      41.486  33.904  38.203  1.00  0.00    -0.237 OA
ATOM     71  O   UNL A   1      40.080  32.025  37.459  1.00  0.00    -0.237 OA
ATOM     72  O   UNL A   1      42.182  31.581  38.652  1.00  0.00    -0.744 OA
ENDBRANCH  66  69
ENDBRANCH  48  62
BRANCH  49  73
ATOM     73  C   UNL A   1      42.630  24.274  27.243  1.00  0.00     0.023 A 
ATOM     74  C   UNL A   1      43.285  24.513  26.019  1.00  0.00     0.012 A 
ATOM     75  C   UNL A   1      42.002  23.032  27.455  1.00  0.00     0.148 A 
ATOM     76  C   UNL A   1      43.284  23.549  25.012  1.00  0.00     0.002 A 
ATOM     77  C   UNL A   1      42.053  22.054  26.469  1.00  0.00     0.091 A 
ATOM     78  F   UNL A   1      41.377  22.827  28.622  1.00  0.00    -0.205 F 
ATOM     79  C   UNL A   1      42.677  22.316  25.239  1.00  0.00     0.022 A 
BRANCH  77  80
ATOM     80  S   UNL A   1      41.413  20.395  26.723  1.00  0.00     0.127 S 
ATOM     81  O   UNL A   1      41.782  19.737  25.473  1.00  0.00    -0.237 OA
ATOM     82  O   UNL A   1      42.167  19.958  27.898  1.00  0.00    -0.237 OA
ATOM     83  O   UNL A   1      39.982  20.555  26.954  1.00  0.00    -0.744 OA
ENDBRANCH  77  80
ENDBRANCH  49  73
BRANCH  61  84
ATOM     84  C   UNL A   1      47.049  25.902  32.400  1.00  0.00     0.023 A 
ATOM     85  C   UNL A   1      48.275  26.314  31.843  1.00  0.00     0.012 A 
ATOM     86  C   UNL A   1      47.048  24.965  33.454  1.00  0.00     0.148 A 
ATOM     87  C   UNL A   1      49.478  25.777  32.301  1.00  0.00     0.002 A 
ATOM     88  C   UNL A   1      48.253  24.475  33.941  1.00  0.00     0.091 A 
ATOM     89  F   UNL A   1      45.870  24.573  33.960  1.00  0.00    -0.205 F 
ATOM     90  C   UNL A   1      49.468  24.869  33.357  1.00  0.00     0.022 A 
BRANCH  88  91
ATOM     91  S   UNL A   1      48.343  23.379  35.362  1.00  0.00     0.127 S 
ATOM     92  O   UNL A   1      49.787  23.195  35.505  1.00  0.00    -0.237 OA
ATOM     93  O   UNL A   1      47.724  24.186  36.414  1.00  0.00    -0.237 OA
ATOM     94  O   UNL A   1      47.596  22.184  34.997  1.00  0.00    -0.744 OA
ENDBRANCH  88  91
ENDBRANCH  61  84
ENDBRANCH  35  36
ENDBRANCH  27  30
ENDBRANCH  25  26
ENDBRANCH  24  25
ENDBRANCH   1  24
TORSDOF 17
ENDMDL
MODEL 2
REMARK VINA RESULT:     -11.4      2.572      8.025
REMARK SMILES Cc1cccc2c(C(F)(F)F)cc(C(=O)NCCCCCCNC(=O)c3ccc(-c4c5nc(c(-c6cccc(S(=O)(=O)[O-])c6F)c6ccc([nH]6)c(-c6cccc(S(=O)(=O)[O-])c6F)c6nc(c(-c7cccc(S(=O)(=O)[O-])c7F)c7ccc4[nH]7)C=C6)C=C5)cc3)nc12
REMARK SMILES IDX 20 1 19 2 18 3 17 4 16 5 14 6 15 7 13 9 1 10 2 11 3 12 90 13
REMARK SMILES IDX 4 14 6 15 89 16 5 17 7 18 12 19 8 20 9 21 10 22 11 23 21 24
REMARK SMILES IDX 22 25 23 26 24 27 25 29 26 30 27 31 88 32 28 33 87 34 29 35
REMARK SMILES IDX 30 36 31 37 81 38 32 39 86 40 80 41 82 42 33 43 85 44 79 45
REMARK SMILES IDX 78 46 34 48 66 49 46 50 65 51 47 52 50 53 64 54 83 55 48 56
REMARK SMILES IDX 49 57 63 59 84 60 51 61 35 62 36 63 44 64 37 65 39 66 45 67
REMARK SMILES IDX 38 68 40 69 41 70 42 71 43 72 67 73 68 74 76 75 69 76 71 77
REMARK SMILES IDX 77 78 70 79 72 80 73 81 74 82 75 83 52 84 53 85 61 86 54 87
REMARK SMILES IDX 56 88 62 89 55 90 57 91 58 92 59 93 60 94
REMARK H PARENT 16 8 23 28 82 47 50 58
REMARK Flexibility Score: inf
ROOT
ATOM      1  C   UNL A   1      32.269  26.962  25.237  1.00  0.00     0.002 C 
ENDROOT
BRANCH   1   2
ATOM      2  C   UNL A   1      31.280  26.433  24.191  1.00  0.00     0.002 C 
BRANCH   2   3
ATOM      3  C   UNL A   1      31.731  25.159  23.468  1.00  0.00     0.021 C 
BRANCH   3   4
ATOM      4  C   UNL A   1      30.711  24.026  23.540  1.00  0.00     0.116 C 
BRANCH   4   5
ATOM      5  N   UNL A   1      30.371  23.714  24.917  1.00  0.00    -0.351 N 
ATOM      6  C   UNL A   1      31.045  23.005  25.885  1.00  0.00     0.269 C 
ATOM      7  O   UNL A   1      30.491  22.872  26.981  1.00  0.00    -0.268 OA
ATOM      8  H   UNL A   1      29.502  24.074  25.210  1.00  0.00     0.163 HD
BRANCH   6   9
ATOM      9  C   UNL A   1      32.408  22.413  25.681  1.00  0.00     0.129 A 
ATOM     10  C   UNL A   1      32.525  18.346  24.899  1.00  0.00     0.047 C 
ATOM     11  C   UNL A   1      33.784  19.178  24.918  1.00  0.00    -0.025 A 
ATOM     12  C   UNL A   1      35.003  18.552  24.633  1.00  0.00     0.005 A 
ATOM     13  C   UNL A   1      33.727  20.551  25.194  1.00  0.00     0.075 A 
ATOM     14  C   UNL A   1      36.174  19.289  24.629  1.00  0.00     0.001 A 
ATOM     15  C   UNL A   1      34.916  21.323  25.189  1.00  0.00     0.013 A 
ATOM     16  N   UNL A   1      32.526  21.095  25.446  1.00  0.00    -0.242 NA
ATOM     17  C   UNL A   1      36.133  20.655  24.904  1.00  0.00     0.011 A 
ATOM     18  C   UNL A   1      34.788  22.713  25.465  1.00  0.00     0.067 A 
ATOM     19  C   UNL A   1      33.509  23.246  25.709  1.00  0.00     0.048 A 
BRANCH  18  20
ATOM     20  C   UNL A   1      35.922  23.708  25.509  1.00  0.00     0.417 C 
ATOM     21  F   UNL A   1      35.471  24.980  25.715  1.00  0.00    -0.166 F 
ATOM     22  F   UNL A   1      36.775  23.456  26.544  1.00  0.00    -0.166 F 
ATOM     23  F   UNL A   1      36.709  23.783  24.406  1.00  0.00    -0.166 F 
ENDBRANCH  18  20
ENDBRANCH   6   9
ENDBRANCH   4   5
ENDBRANCH   3   4
ENDBRANCH   2   3
ENDBRANCH   1   2
BRANCH   1  24
ATOM     24  C   UNL A   1      31.918  28.332  25.826  1.00  0.00     0.021 C 
BRANCH  24  25
ATOM     25  C   UNL A   1      32.822  29.467  25.361  1.00  0.00     0.116 C 
BRANCH  25  26
ATOM     26  N   UNL A   1      32.351  30.761  25.833  1.00  0.00    -0.352 N 
ATOM     27  C   UNL A   1      32.806  31.521  26.879  1.00  0.00     0.251 C 
ATOM     28  H   UNL A   1      31.598  31.146  25.329  1.00  0.00     0.163 HD
ATOM     29  O   UNL A   1      32.146  32.484  27.271  1.00  0.00    -0.269 OA
BRANCH  27  30
ATOM     30  C   UNL A   1      34.080  31.176  27.542  1.00  0.00     0.039 A 
ATOM     31  C   UNL A   1      35.047  32.170  27.715  1.00  0.00     0.014 A 
ATOM     32  C   UNL A   1      34.323  29.871  27.984  1.00  0.00     0.014 A 
ATOM     33  C   UNL A   1      36.236  31.866  28.378  1.00  0.00     0.010 A 
ATOM     34  C   UNL A   1      35.476  29.592  28.712  1.00  0.00     0.010 A 
ATOM     35  C   UNL A   1      36.449  30.584  28.909  1.00  0.00    -0.014 A 
BRANCH  35  36
ATOM     36  C   UNL A   1      37.676  30.264  29.682  1.00  0.00     0.031 A 
ATOM     37  C   UNL A   1      38.707  29.324  29.118  1.00  0.00     0.074 A 
ATOM     38  C   UNL A   1      37.824  30.758  30.928  1.00  0.00     0.049 A 
ATOM     39  N   UNL A   1      39.813  28.889  29.666  1.00  0.00    -0.248 NA
ATOM     40  C   UNL A   1      38.451  28.780  27.774  1.00  0.00     0.031 C 
ATOM     41  C   UNL A   1      36.858  31.617  31.616  1.00  0.00     0.029 A 
ATOM     42  N   UNL A   1      38.828  30.586  31.848  1.00  0.00    -0.354 N 
ATOM     43  C   UNL A   1      40.364  27.998  28.753  1.00  0.00     0.074 A 
ATOM     44  C   UNL A   1      39.454  27.927  27.631  1.00  0.00     0.031 C 
ATOM     45  C   UNL A   1      37.320  31.901  32.845  1.00  0.00     0.029 A 
ATOM     46  C   UNL A   1      38.593  31.218  33.046  1.00  0.00     0.049 A 
ATOM     47  H   UNL A   1      39.640  30.059  31.667  1.00  0.00     0.167 HD
ATOM     48  C   UNL A   1      41.535  27.321  28.827  1.00  0.00     0.034 A 
ATOM     49  C   UNL A   1      39.315  31.238  34.183  1.00  0.00     0.034 A 
ATOM     50  C   UNL A   1      42.453  27.422  29.931  1.00  0.00     0.049 A 
ATOM     51  C   UNL A   1      40.626  30.500  34.229  1.00  0.00     0.074 A 
ATOM     52  C   UNL A   1      43.704  26.844  30.063  1.00  0.00     0.029 A 
ATOM     53  N   UNL A   1      42.217  28.135  31.096  1.00  0.00    -0.354 N 
ATOM     54  N   UNL A   1      41.206  29.788  33.294  1.00  0.00    -0.248 NA
ATOM     55  C   UNL A   1      41.400  30.598  35.475  1.00  0.00     0.031 C 
ATOM     56  C   UNL A   1      44.210  27.180  31.322  1.00  0.00     0.029 A 
ATOM     57  C   UNL A   1      43.291  28.000  31.958  1.00  0.00     0.049 A 
ATOM     58  H   UNL A   1      41.405  28.659  31.282  1.00  0.00     0.167 HD
ATOM     59  C   UNL A   1      42.426  29.385  33.823  1.00  0.00     0.074 A 
ATOM     60  C   UNL A   1      42.511  29.950  35.154  1.00  0.00     0.031 C 
ATOM     61  C   UNL A   1      43.385  28.607  33.262  1.00  0.00     0.034 A 
BRANCH  48  62
ATOM     62  C   UNL A   1      41.912  26.440  27.665  1.00  0.00     0.023 A 
ATOM     63  C   UNL A   1      42.675  26.972  26.604  1.00  0.00     0.012 A 
ATOM     64  C   UNL A   1      41.566  25.075  27.647  1.00  0.00     0.148 A 
ATOM     65  C   UNL A   1      43.053  26.170  25.528  1.00  0.00     0.002 A 
ATOM     66  C   UNL A   1      41.989  24.270  26.596  1.00  0.00     0.091 A 
ATOM     67  F   UNL A   1      40.825  24.590  28.654  1.00  0.00    -0.205 F 
ATOM     68  C   UNL A   1      42.721  24.818  25.530  1.00  0.00     0.022 A 
BRANCH  66  69
ATOM     69  S   UNL A   1      41.684  22.501  26.544  1.00  0.00     0.127 S 
ATOM     70  O   UNL A   1      40.223  22.456  26.493  1.00  0.00    -0.237 OA
ATOM     71  O   UNL A   1      42.349  22.111  25.301  1.00  0.00    -0.237 OA
ATOM     72  O   UNL A   1      42.282  21.953  27.753  1.00  0.00    -0.744 OA
ENDBRANCH  66  69
ENDBRANCH  48  62
BRANCH  49  73
ATOM     73  C   UNL A   1      38.841  32.027  35.355  1.00  0.00     0.023 A 
ATOM     74  C   UNL A   1      38.962  33.430  35.342  1.00  0.00     0.012 A 
ATOM     75  C   UNL A   1      38.252  31.399  36.468  1.00  0.00     0.148 A 
ATOM     76  C   UNL A   1      38.539  34.191  36.432  1.00  0.00     0.002 A 
ATOM     77  C   UNL A   1      37.781  32.166  37.527  1.00  0.00     0.091 A 
ATOM     78  F   UNL A   1      38.153  30.062  36.465  1.00  0.00    -0.205 F 
ATOM     79  C   UNL A   1      37.940  33.561  37.520  1.00  0.00     0.022 A 
BRANCH  77  80
ATOM     80  S   UNL A   1      36.880  31.454  38.908  1.00  0.00     0.127 S 
ATOM     81  O   UNL A   1      37.831  31.619  40.003  1.00  0.00    -0.237 OA
ATOM     82  O   UNL A   1      35.701  32.318  38.977  1.00  0.00    -0.237 OA
ATOM     83  O   UNL A   1      36.592  30.077  38.524  1.00  0.00    -0.744 OA
ENDBRANCH  77  80
ENDBRANCH  49  73
BRANCH  61  84
ATOM     84  C   UNL A   1      44.636  28.351  34.062  1.00  0.00     0.023 A 
ATOM     85  C   UNL A   1      45.717  29.252  33.991  1.00  0.00     0.012 A 
ATOM     86  C   UNL A   1      44.710  27.252  34.941  1.00  0.00     0.148 A 
ATOM     87  C   UNL A   1      46.866  29.044  34.754  1.00  0.00     0.002 A 
ATOM     88  C   UNL A   1      45.834  27.080  35.738  1.00  0.00     0.091 A 
ATOM     89  F   UNL A   1      43.678  26.396  34.982  1.00  0.00    -0.205 F 
ATOM     90  C   UNL A   1      46.919  27.966  35.636  1.00  0.00     0.022 A 
BRANCH  88  91
ATOM     91  S   UNL A   1      45.952  25.780  36.972  1.00  0.00     0.127 S 
ATOM     92  O   UNL A   1      47.317  25.957  37.463  1.00  0.00    -0.237 OA
ATOM     93  O   UNL A   1      44.907  26.163  37.923  1.00  0.00    -0.237 OA
ATOM     94  O   UNL A   1      45.699  24.531  36.268  1.00  0.00    -0.744 OA
ENDBRANCH  88  91
ENDBRANCH  61  84
ENDBRANCH  35  36
ENDBRANCH  27  30
ENDBRANCH  25  26
ENDBRANCH  24  25
ENDBRANCH   1  24
TORSDOF 17
ENDMDL
MODEL 3
REMARK VINA RESULT:     -11.4      1.960      2.641
REMARK SMILES Cc1cccc2c(C(F)(F)F)cc(C(=O)NCCCCCCNC(=O)c3ccc(-c4c5nc(c(-c6cccc(S(=O)(=O)[O-])c6F)c6ccc([nH]6)c(-c6cccc(S(=O)(=O)[O-])c6F)c6nc(c(-c7cccc(S(=O)(=O)[O-])c7F)c7ccc4[nH]7)C=C6)C=C5)cc3)nc12
REMARK SMILES IDX 20 1 19 2 18 3 17 4 16 5 14 6 15 7 13 9 1 10 2 11 3 12 90 13
REMARK SMILES IDX 4 14 6 15 89 16 5 17 7 18 12 19 8 20 9 21 10 22 11 23 21 24
REMARK SMILES IDX 22 25 23 26 24 27 25 29 26 30 27 31 88 32 28 33 87 34 29 35
REMARK SMILES IDX 30 36 31 37 81 38 32 39 86 40 80 41 82 42 33 43 85 44 79 45
REMARK SMILES IDX 78 46 34 48 66 49 46 50 65 51 47 52 50 53 64 54 83 55 48 56
REMARK SMILES IDX 49 57 63 59 84 60 51 61 35 62 36 63 44 64 37 65 39 66 45 67
REMARK SMILES IDX 38 68 40 69 41 70 42 71 43 72 67 73 68 74 76 75 69 76 71 77
REMARK SMILES IDX 77 78 70 79 72 80 73 81 74 82 75 83 52 84 53 85 61 86 54 87
REMARK SMILES IDX 56 88 62 89 55 90 57 91 58 92 59 93 60 94
REMARK H PARENT 16 8 23 28 82 47 50 58
REMARK Flexibility Score: inf
ROOT
ATOM      1  C   UNL A   1      31.699  27.522  26.092  1.00  0.00     0.002 C 
ENDROOT
BRANCH   1   2
ATOM      2  C   UNL A   1      30.775  26.544  25.357  1.00  0.00     0.002 C 
BRANCH   2   3
ATOM      3  C   UNL A   1      31.261  26.124  23.965  1.00  0.00     0.021 C 
BRANCH   3   4
ATOM      4  C   UNL A   1      31.098  24.632  23.690  1.00  0.00     0.116 C 
BRANCH   4   5
ATOM      5  N   UNL A   1      30.483  23.955  24.818  1.00  0.00    -0.351 N 
ATOM      6  C   UNL A   1      30.874  22.855  25.546  1.00  0.00     0.269 C 
ATOM      7  O   UNL A   1      30.125  22.476  26.452  1.00  0.00    -0.268 OA
ATOM      8  H   UNL A   1      29.633  24.355  25.115  1.00  0.00     0.163 HD
BRANCH   6   9
ATOM      9  C   UNL A   1      32.159  22.117  25.307  1.00  0.00     0.129 A 
ATOM     10  C   UNL A   1      35.630  24.351  25.670  1.00  0.00     0.047 C 
ATOM     11  C   UNL A   1      35.676  22.872  25.372  1.00  0.00    -0.025 A 
ATOM     12  C   UNL A   1      36.926  22.254  25.248  1.00  0.00     0.005 A 
ATOM     13  C   UNL A   1      34.491  22.134  25.243  1.00  0.00     0.075 A 
ATOM     14  C   UNL A   1      37.003  20.897  24.988  1.00  0.00     0.001 A 
ATOM     15  C   UNL A   1      34.551  20.742  24.981  1.00  0.00     0.013 A 
ATOM     16  N   UNL A   1      33.324  22.782  25.385  1.00  0.00    -0.242 NA
ATOM     17  C   UNL A   1      35.833  20.150  24.854  1.00  0.00     0.011 A 
ATOM     18  C   UNL A   1      33.313  20.048  24.874  1.00  0.00     0.067 A 
ATOM     19  C   UNL A   1      32.114  20.763  25.045  1.00  0.00     0.048 A 
BRANCH  18  20
ATOM     20  C   UNL A   1      33.153  18.573  24.600  1.00  0.00     0.417 C 
ATOM     21  F   UNL A   1      34.066  18.126  23.689  1.00  0.00    -0.166 F 
ATOM     22  F   UNL A   1      33.366  17.825  25.721  1.00  0.00    -0.166 F 
ATOM     23  F   UNL A   1      31.947  18.170  24.124  1.00  0.00    -0.166 F 
ENDBRANCH  18  20
ENDBRANCH   6   9
ENDBRANCH   4   5
ENDBRANCH   3   4
ENDBRANCH   2   3
ENDBRANCH   1   2
BRANCH   1  24
ATOM     24  C   UNL A   1      32.944  27.951  25.309  1.00  0.00     0.021 C 
BRANCH  24  25
ATOM     25  C   UNL A   1      34.066  28.516  26.171  1.00  0.00     0.116 C 
BRANCH  25  26
ATOM     26  N   UNL A   1      33.844  29.917  26.496  1.00  0.00    -0.352 N 
ATOM     27  C   UNL A   1      34.503  30.715  27.395  1.00  0.00     0.251 C 
ATOM     28  H   UNL A   1      33.116  30.356  25.997  1.00  0.00     0.163 HD
ATOM     29  O   UNL A   1      34.037  31.814  27.698  1.00  0.00    -0.269 OA
BRANCH  27  30
ATOM     30  C   UNL A   1      35.764  30.249  28.008  1.00  0.00     0.039 A 
ATOM     31  C   UNL A   1      35.723  29.634  29.261  1.00  0.00     0.014 A 
ATOM     32  C   UNL A   1      36.985  30.426  27.349  1.00  0.00     0.014 A 
ATOM     33  C   UNL A   1      36.901  29.150  29.831  1.00  0.00     0.010 A 
ATOM     34  C   UNL A   1      38.145  29.875  27.884  1.00  0.00     0.010 A 
ATOM     35  C   UNL A   1      38.117  29.239  29.134  1.00  0.00    -0.014 A 
BRANCH  35  36
ATOM     36  C   UNL A   1      39.368  28.664  29.693  1.00  0.00     0.031 A 
ATOM     37  C   UNL A   1      40.014  29.280  30.904  1.00  0.00     0.074 A 
ATOM     38  C   UNL A   1      39.966  27.635  29.059  1.00  0.00     0.049 A 
ATOM     39  N   UNL A   1      41.130  28.948  31.500  1.00  0.00    -0.248 NA
ATOM     40  C   UNL A   1      39.334  30.436  31.509  1.00  0.00     0.031 C 
ATOM     41  C   UNL A   1      39.480  27.000  27.833  1.00  0.00     0.029 A 
ATOM     42  N   UNL A   1      41.127  26.960  29.343  1.00  0.00    -0.354 N 
ATOM     43  C   UNL A   1      41.303  29.872  32.525  1.00  0.00     0.074 A 
ATOM     44  C   UNL A   1      40.195  30.799  32.448  1.00  0.00     0.031 C 
ATOM     45  C   UNL A   1      40.331  26.026  27.474  1.00  0.00     0.029 A 
ATOM     46  C   UNL A   1      41.440  25.988  28.422  1.00  0.00     0.049 A 
ATOM     47  H   UNL A   1      41.683  27.152  30.133  1.00  0.00     0.167 HD
ATOM     48  C   UNL A   1      42.278  29.928  33.463  1.00  0.00     0.034 A 
ATOM     49  C   UNL A   1      42.505  25.168  28.340  1.00  0.00     0.034 A 
ATOM     50  C   UNL A   1      43.359  28.983  33.557  1.00  0.00     0.049 A 
ATOM     51  C   UNL A   1      43.561  25.232  29.411  1.00  0.00     0.074 A 
ATOM     52  C   UNL A   1      44.349  28.902  34.521  1.00  0.00     0.029 A 
ATOM     53  N   UNL A   1      43.602  27.963  32.649  1.00  0.00    -0.354 N 
ATOM     54  N   UNL A   1      43.623  26.012  30.463  1.00  0.00    -0.248 NA
ATOM     55  C   UNL A   1      44.674  24.279  29.305  1.00  0.00     0.031 C 
ATOM     56  C   UNL A   1      45.209  27.855  34.177  1.00  0.00     0.029 A 
ATOM     57  C   UNL A   1      44.733  27.258  33.021  1.00  0.00     0.049 A 
ATOM     58  H   UNL A   1      43.050  27.770  31.856  1.00  0.00     0.167 HD
ATOM     59  C   UNL A   1      44.758  25.619  31.162  1.00  0.00     0.074 A 
ATOM     60  C   UNL A   1      45.343  24.518  30.425  1.00  0.00     0.031 C 
ATOM     61  C   UNL A   1      45.277  26.132  32.305  1.00  0.00     0.034 A 
BRANCH  48  62
ATOM     62  C   UNL A   1      42.201  31.026  34.492  1.00  0.00     0.023 A 
ATOM     63  C   UNL A   1      41.493  30.810  35.692  1.00  0.00     0.012 A 
ATOM     64  C   UNL A   1      42.876  32.247  34.301  1.00  0.00     0.148 A 
ATOM     65  C   UNL A   1      41.425  31.804  36.668  1.00  0.00     0.002 A 
ATOM     66  C   UNL A   1      42.846  33.214  35.299  1.00  0.00     0.091 A 
ATOM     67  F   UNL A   1      43.529  32.443  33.147  1.00  0.00    -0.205 F 
ATOM     68  C   UNL A   1      42.111  33.000  36.476  1.00  0.00     0.022 A 
BRANCH  66  69
ATOM     69  S   UNL A   1      43.762  34.755  35.185  1.00  0.00     0.127 S 
ATOM     70  O   UNL A   1      45.132  34.272  35.014  1.00  0.00    -0.237 OA
ATOM     71  O   UNL A   1      43.180  35.371  33.992  1.00  0.00    -0.237 OA
ATOM     72  O   UNL A   1      43.503  35.470  36.427  1.00  0.00    -0.744 OA
ENDBRANCH  66  69
ENDBRANCH  48  62
BRANCH  49  73
ATOM     73  C   UNL A   1      42.600  24.176  27.232  1.00  0.00     0.023 A 
ATOM     74  C   UNL A   1      43.286  24.518  26.050  1.00  0.00     0.012 A 
ATOM     75  C   UNL A   1      42.036  22.892  27.351  1.00  0.00     0.148 A 
ATOM     76  C   UNL A   1      43.377  23.614  24.993  1.00  0.00     0.002 A 
ATOM     77  C   UNL A   1      42.178  21.974  26.316  1.00  0.00     0.091 A 
ATOM     78  F   UNL A   1      41.380  22.588  28.480  1.00  0.00    -0.205 F 
ATOM     79  C   UNL A   1      42.832  22.339  25.129  1.00  0.00     0.022 A 
BRANCH  77  80
ATOM     80  S   UNL A   1      41.624  20.272  26.455  1.00  0.00     0.127 S 
ATOM     81  O   UNL A   1      42.280  19.650  25.308  1.00  0.00    -0.237 OA
ATOM     82  O   UNL A   1      42.162  19.886  27.760  1.00  0.00    -0.237 OA
ATOM     83  O   UNL A   1      40.168  20.325  26.397  1.00  0.00    -0.744 OA
ENDBRANCH  77  80
ENDBRANCH  49  73
BRANCH  61  84
ATOM     84  C   UNL A   1      46.518  25.484  32.863  1.00  0.00     0.023 A 
ATOM     85  C   UNL A   1      47.789  26.010  32.555  1.00  0.00     0.012 A 
ATOM     86  C   UNL A   1      46.418  24.396  33.753  1.00  0.00     0.148 A 
ATOM     87  C   UNL A   1      48.942  25.440  33.094  1.00  0.00     0.002 A 
ATOM     88  C   UNL A   1      47.566  23.868  34.329  1.00  0.00     0.091 A 
ATOM     89  F   UNL A   1      45.201  23.899  34.021  1.00  0.00    -0.205 F 
ATOM     90  C   UNL A   1      48.830  24.379  33.990  1.00  0.00     0.022 A 
BRANCH  88  91
ATOM     91  S   UNL A   1      47.513  22.568  35.567  1.00  0.00     0.127 S 
ATOM     92  O   UNL A   1      46.931  21.460  34.812  1.00  0.00    -0.237 OA
ATOM     93  O   UNL A   1      48.929  22.401  35.900  1.00  0.00    -0.237 OA
ATOM     94  O   UNL A   1      46.693  23.080  36.655  1.00  0.00    -0.744 OA
ENDBRANCH  88  91
ENDBRANCH  61  84
ENDBRANCH  35  36
ENDBRANCH  27  30
ENDBRANCH  25  26
ENDBRANCH  24  25
ENDBRANCH   1  24
TORSDOF 17
ENDMDL
