MODEL 1
REMARK VINA RESULT:     -10.7      0.000      0.000
REMARK SMILES COCCNS(=O)(=O)c1c[nH]c(C(=O)NCCCCCCNC(=O)c2ccc(-c3c4nc(c(-c5cccc(S(=O)(=O)[O-])c5F)c5ccc([nH]5)c(-c5cccc(S(=O)(=O)[O-])c5F)c5nc(c(-c6cccc(S(=O)(=O)[O-])c6F)c6ccc3[nH]6)C=C5)C=C4)cc2)c1
REMARK SMILES IDX 17 1 16 2 15 3 13 4 14 5 12 7 9 8 10 9 88 10 11 11 6 13 7 14
REMARK SMILES IDX 8 15 5 16 4 18 3 19 2 20 1 21 18 22 19 23 20 24 21 25 22 26
REMARK SMILES IDX 23 27 24 29 25 30 26 31 87 32 27 33 86 34 28 35 29 36 30 37
REMARK SMILES IDX 80 38 31 39 85 40 79 41 81 42 32 43 84 44 78 45 77 46 33 48
REMARK SMILES IDX 65 49 45 50 64 51 46 52 49 53 63 54 82 55 47 56 48 57 62 59
REMARK SMILES IDX 83 60 50 61 34 62 35 63 43 64 36 65 38 66 44 67 37 68 39 69
REMARK SMILES IDX 40 70 41 71 42 72 66 73 67 74 75 75 68 76 70 77 76 78 69 79
REMARK SMILES IDX 71 80 72 81 73 82 74 83 51 84 52 85 60 86 53 87 55 88 61 89
REMARK SMILES IDX 54 90 56 91 57 92 58 93 59 94
REMARK H PARENT 15 6 11 12 5 17 22 28 81 47 49 58
REMARK Flexibility Score: inf
ROOT
ATOM      1  C   UNL A   1      33.103  21.300  23.993  1.00  0.00     0.021 C 
ENDROOT
BRANCH   1   2
ATOM      2  C   UNL A   1      31.891  21.396  24.916  1.00  0.00     0.116 C 
BRANCH   2   3
ATOM      3  N   UNL A   1      32.301  21.576  26.296  1.00  0.00    -0.351 N 
ATOM      4  C   UNL A   1      32.363  22.688  27.089  1.00  0.00     0.267 C 
ATOM      5  O   UNL A   1      32.689  22.516  28.266  1.00  0.00    -0.268 OA
ATOM      6  H   UNL A   1      32.586  20.747  26.743  1.00  0.00     0.163 HD
BRANCH   4   7
ATOM      7  C   UNL A   1      31.992  24.002  26.609  1.00  0.00     0.105 A 
ATOM      8  C   UNL A   1      31.727  26.030  25.621  1.00  0.00     0.100 A 
ATOM      9  C   UNL A   1      30.494  25.621  26.077  1.00  0.00     0.104 A 
ATOM     10  C   UNL A   1      32.677  25.064  26.041  1.00  0.00     0.055 A 
ATOM     11  N   UNL A   1      30.678  24.427  26.718  1.00  0.00    -0.356 N 
ATOM     12  H   UNL A   1      29.970  23.935  27.194  1.00  0.00     0.166 HD
BRANCH   8  13
ATOM     13  S   UNL A   1      32.087  27.430  24.685  1.00  0.00     0.242 S 
ATOM     14  O   UNL A   1      33.438  27.259  24.239  1.00  0.00    -0.207 OA
ATOM     15  O   UNL A   1      31.641  28.545  25.502  1.00  0.00    -0.207 OA
BRANCH  13  16
ATOM     16  N   UNL A   1      31.093  27.426  23.308  1.00  0.00    -0.209 NA
ATOM     17  H   UNL A   1      31.674  27.655  22.501  1.00  0.00     0.141 HD
BRANCH  16  18
ATOM     18  C   UNL A   1      29.956  28.381  23.340  1.00  0.00     0.127 C 
BRANCH  18  19
ATOM     19  C   UNL A   1      30.207  29.550  22.376  1.00  0.00     0.176 C 
BRANCH  19  20
ATOM     20  O   UNL A   1      29.177  29.745  21.402  1.00  0.00    -0.383 OA
ATOM     21  C   UNL A   1      27.958  30.251  21.924  1.00  0.00     0.194 C 
ENDBRANCH  19  20
ENDBRANCH  18  19
ENDBRANCH  16  18
ENDBRANCH  13  16
ENDBRANCH   8  13
ENDBRANCH   4   7
ENDBRANCH   2   3
ENDBRANCH   1   2
BRANCH   1  22
ATOM     22  C   UNL A   1      33.413  22.615  23.263  1.00  0.00     0.002 C 
BRANCH  22  23
ATOM     23  C   UNL A   1      34.806  23.197  23.544  1.00  0.00     0.002 C 
BRANCH  23  24
ATOM     24  C   UNL A   1      35.599  22.476  24.646  1.00  0.00     0.021 C 
BRANCH  24  25
ATOM     25  C   UNL A   1      37.039  22.982  24.781  1.00  0.00     0.116 C 
BRANCH  25  26
ATOM     26  N   UNL A   1      37.868  21.930  25.352  1.00  0.00    -0.352 N 
ATOM     27  C   UNL A   1      39.047  21.983  26.041  1.00  0.00     0.251 C 
ATOM     28  H   UNL A   1      37.516  21.020  25.220  1.00  0.00     0.163 HD
ATOM     29  O   UNL A   1      39.736  20.962  26.077  1.00  0.00    -0.269 OA
BRANCH  27  30
ATOM     30  C   UNL A   1      39.519  23.199  26.737  1.00  0.00     0.039 A 
ATOM     31  C   UNL A   1      40.479  23.030  27.749  1.00  0.00     0.014 A 
ATOM     32  C   UNL A   1      38.962  24.459  26.510  1.00  0.00     0.014 A 
ATOM     33  C   UNL A   1      40.927  24.125  28.484  1.00  0.00     0.010 A 
ATOM     34  C   UNL A   1      39.401  25.557  27.253  1.00  0.00     0.010 A 
ATOM     35  C   UNL A   1      40.411  25.397  28.210  1.00  0.00    -0.014 A 
BRANCH  35  36
ATOM     36  C   UNL A   1      41.144  26.588  28.719  1.00  0.00     0.031 A 
ATOM     37  C   UNL A   1      40.139  27.565  29.441  1.00  0.00     0.074 A 
ATOM     38  C   UNL A   1      42.495  26.631  28.473  1.00  0.00     0.049 A 
ATOM     39  N   UNL A   1      40.155  28.862  29.609  1.00  0.00    -0.248 NA
ATOM     40  C   UNL A   1      38.851  27.002  29.957  1.00  0.00     0.031 C 
ATOM     41  C   UNL A   1      43.287  25.577  27.788  1.00  0.00     0.029 A 
ATOM     42  N   UNL A   1      43.491  27.546  28.742  1.00  0.00    -0.354 N 
ATOM     43  C   UNL A   1      39.039  29.194  30.436  1.00  0.00     0.074 A 
ATOM     44  C   UNL A   1      38.204  28.041  30.487  1.00  0.00     0.031 C 
ATOM     45  C   UNL A   1      44.579  25.953  27.623  1.00  0.00     0.029 A 
ATOM     46  C   UNL A   1      44.781  27.267  28.198  1.00  0.00     0.049 A 
ATOM     47  H   UNL A   1      43.321  28.351  29.283  1.00  0.00     0.167 HD
ATOM     48  C   UNL A   1      38.965  30.332  31.194  1.00  0.00     0.034 A 
ATOM     49  C   UNL A   1      45.898  28.077  28.164  1.00  0.00     0.034 A 
ATOM     50  C   UNL A   1      40.153  31.091  31.021  1.00  0.00     0.049 A 
ATOM     51  C   UNL A   1      45.490  29.263  28.920  1.00  0.00     0.074 A 
ATOM     52  C   UNL A   1      40.588  32.144  30.263  1.00  0.00     0.029 A 
ATOM     53  N   UNL A   1      41.181  30.652  31.812  1.00  0.00    -0.354 N 
ATOM     54  N   UNL A   1      45.316  29.301  30.202  1.00  0.00    -0.248 NA
ATOM     55  C   UNL A   1      44.944  30.359  28.131  1.00  0.00     0.031 C 
ATOM     56  C   UNL A   1      41.971  32.252  30.545  1.00  0.00     0.029 A 
ATOM     57  C   UNL A   1      42.334  31.106  31.252  1.00  0.00     0.049 A 
ATOM     58  H   UNL A   1      41.100  30.112  32.630  1.00  0.00     0.167 HD
ATOM     59  C   UNL A   1      44.356  30.271  30.356  1.00  0.00     0.074 A 
ATOM     60  C   UNL A   1      44.222  30.947  29.071  1.00  0.00     0.031 C 
ATOM     61  C   UNL A   1      43.478  30.261  31.387  1.00  0.00     0.034 A 
BRANCH  48  62
ATOM     62  C   UNL A   1      38.135  30.774  32.408  1.00  0.00     0.023 A 
ATOM     63  C   UNL A   1      37.094  31.708  32.105  1.00  0.00     0.012 A 
ATOM     64  C   UNL A   1      38.516  30.684  33.759  1.00  0.00     0.148 A 
ATOM     65  C   UNL A   1      36.614  32.640  33.024  1.00  0.00     0.002 A 
ATOM     66  C   UNL A   1      37.968  31.571  34.700  1.00  0.00     0.091 A 
ATOM     67  F   UNL A   1      39.454  29.803  34.122  1.00  0.00    -0.205 F 
ATOM     68  C   UNL A   1      37.071  32.584  34.323  1.00  0.00     0.022 A 
BRANCH  66  69
ATOM     69  S   UNL A   1      38.348  31.514  36.458  1.00  0.00     0.127 S 
ATOM     70  O   UNL A   1      39.726  31.994  36.490  1.00  0.00    -0.237 OA
ATOM     71  O   UNL A   1      37.368  32.458  37.006  1.00  0.00    -0.237 OA
ATOM     72  O   UNL A   1      38.128  30.133  36.861  1.00  0.00    -0.744 OA
ENDBRANCH  66  69
ENDBRANCH  48  62
BRANCH  49  73
ATOM     73  C   UNL A   1      47.219  28.172  27.421  1.00  0.00     0.023 A 
ATOM     74  C   UNL A   1      48.474  28.186  28.040  1.00  0.00     0.012 A 
ATOM     75  C   UNL A   1      47.238  28.141  25.985  1.00  0.00     0.148 A 
ATOM     76  C   UNL A   1      49.663  28.061  27.285  1.00  0.00     0.002 A 
ATOM     77  C   UNL A   1      48.396  27.886  25.255  1.00  0.00     0.091 A 
ATOM     78  F   UNL A   1      46.115  28.390  25.300  1.00  0.00    -0.205 F 
ATOM     79  C   UNL A   1      49.624  27.857  25.905  1.00  0.00     0.022 A 
BRANCH  77  80
ATOM     80  S   UNL A   1      48.350  27.412  23.510  1.00  0.00     0.127 S 
ATOM     81  O   UNL A   1      49.658  27.851  23.028  1.00  0.00    -0.237 OA
ATOM     82  O   UNL A   1      48.189  25.961  23.605  1.00  0.00    -0.237 OA
ATOM     83  O   UNL A   1      47.211  28.107  22.925  1.00  0.00    -0.744 OA
ENDBRANCH  77  80
ENDBRANCH  49  73
BRANCH  61  84
ATOM     84  C   UNL A   1      43.629  29.108  32.380  1.00  0.00     0.023 A 
ATOM     85  C   UNL A   1      43.638  27.803  31.868  1.00  0.00     0.012 A 
ATOM     86  C   UNL A   1      43.665  29.254  33.797  1.00  0.00     0.148 A 
ATOM     87  C   UNL A   1      43.694  26.690  32.716  1.00  0.00     0.002 A 
ATOM     88  C   UNL A   1      43.707  28.141  34.645  1.00  0.00     0.091 A 
ATOM     89  F   UNL A   1      43.677  30.485  34.309  1.00  0.00    -0.205 F 
ATOM     90  C   UNL A   1      43.730  26.856  34.099  1.00  0.00     0.022 A 
BRANCH  88  91
ATOM     91  S   UNL A   1      43.683  28.235  36.451  1.00  0.00     0.127 S 
ATOM     92  O   UNL A   1      43.168  26.917  36.829  1.00  0.00    -0.237 OA
ATOM     93  O   UNL A   1      45.092  28.438  36.773  1.00  0.00    -0.237 OA
ATOM     94  O   UNL A   1      42.800  29.343  36.797  1.00  0.00    -0.744 OA
ENDBRANCH  88  91
ENDBRANCH  61  84
ENDBRANCH  35  36
ENDBRANCH  27  30
ENDBRANCH  25  26
ENDBRANCH  24  25
ENDBRANCH  23  24
ENDBRANCH  22  23
ENDBRANCH   1  22
TORSDOF 21
ENDMDL
MODEL 2
REMARK VINA RESULT:     -10.3      3.493      6.829
REMARK SMILES COCCNS(=O)(=O)c1c[nH]c(C(=O)NCCCCCCNC(=O)c2ccc(-c3c4nc(c(-c5cccc(S(=O)(=O)[O-])c5F)c5ccc([nH]5)c(-c5cccc(S(=O)(=O)[O-])c5F)c5nc(c(-c6cccc(S(=O)(=O)[O-])c6F)c6ccc3[nH]6)C=C5)C=C4)cc2)c1
REMARK SMILES IDX 17 1 16 2 15 3 13 4 14 5 12 7 9 8 10 9 88 10 11 11 6 13 7 14
REMARK SMILES IDX 8 15 5 16 4 18 3 19 2 20 1 21 18 22 19 23 20 24 21 25 22 26
REMARK SMILES IDX 23 27 24 29 25 30 26 31 87 32 27 33 86 34 28 35 29 36 30 37
REMARK SMILES IDX 80 38 31 39 85 40 79 41 81 42 32 43 84 44 78 45 77 46 33 48
REMARK SMILES IDX 65 49 45 50 64 51 46 52 49 53 63 54 82 55 47 56 48 57 62 59
REMARK SMILES IDX 83 60 50 61 34 62 35 63 43 64 36 65 38 66 44 67 37 68 39 69
REMARK SMILES IDX 40 70 41 71 42 72 66 73 67 74 75 75 68 76 70 77 76 78 69 79
REMARK SMILES IDX 71 80 72 81 73 82 74 83 51 84 52 85 60 86 53 87 55 88 61 89
REMARK SMILES IDX 54 90 56 91 57 92 58 93 59 94
REMARK H PARENT 15 6 11 12 5 17 22 28 81 47 49 58
REMARK Flexibility Score: inf
ROOT
ATOM      1  C   UNL A   1      35.507  29.335  27.295  1.00  0.00     0.021 C 
ENDROOT
BRANCH   1   2
ATOM      2  C   UNL A   1      34.343  29.008  26.363  1.00  0.00     0.116 C 
BRANCH   2   3
ATOM      3  N   UNL A   1      33.167  28.618  27.118  1.00  0.00    -0.351 N 
ATOM      4  C   UNL A   1      32.176  27.713  26.856  1.00  0.00     0.267 C 
ATOM      5  O   UNL A   1      31.329  27.544  27.737  1.00  0.00    -0.268 OA
ATOM      6  H   UNL A   1      33.063  29.093  27.975  1.00  0.00     0.163 HD
BRANCH   4   7
ATOM      7  C   UNL A   1      32.151  26.923  25.644  1.00  0.00     0.105 A 
ATOM      8  C   UNL A   1      32.495  25.615  23.819  1.00  0.00     0.100 A 
ATOM      9  C   UNL A   1      31.155  25.557  24.132  1.00  0.00     0.104 A 
ATOM     10  C   UNL A   1      33.097  26.546  24.704  1.00  0.00     0.055 A 
ATOM     11  N   UNL A   1      30.953  26.391  25.195  1.00  0.00    -0.356 N 
ATOM     12  H   UNL A   1      30.072  26.588  25.590  1.00  0.00     0.166 HD
BRANCH   8  13
ATOM     13  S   UNL A   1      33.330  24.719  22.608  1.00  0.00     0.242 S 
ATOM     14  O   UNL A   1      33.640  25.663  21.575  1.00  0.00    -0.207 OA
ATOM     15  O   UNL A   1      32.519  23.533  22.402  1.00  0.00    -0.207 OA
BRANCH  13  16
ATOM     16  N   UNL A   1      34.802  24.178  23.260  1.00  0.00    -0.209 NA
ATOM     17  H   UNL A   1      35.554  24.502  22.652  1.00  0.00     0.141 HD
BRANCH  16  18
ATOM     18  C   UNL A   1      34.931  22.705  23.404  1.00  0.00     0.127 C 
BRANCH  18  19
ATOM     19  C   UNL A   1      34.889  22.303  24.886  1.00  0.00     0.176 C 
BRANCH  19  20
ATOM     20  O   UNL A   1      36.158  21.938  25.437  1.00  0.00    -0.383 OA
ATOM     21  C   UNL A   1      37.179  21.721  24.475  1.00  0.00     0.194 C 
ENDBRANCH  19  20
ENDBRANCH  18  19
ENDBRANCH  16  18
ENDBRANCH  13  16
ENDBRANCH   8  13
ENDBRANCH   4   7
ENDBRANCH   2   3
ENDBRANCH   1   2
BRANCH   1  22
ATOM     22  C   UNL A   1      35.173  30.429  28.319  1.00  0.00     0.002 C 
BRANCH  22  23
ATOM     23  C   UNL A   1      34.950  31.826  27.722  1.00  0.00     0.002 C 
BRANCH  23  24
ATOM     24  C   UNL A   1      33.829  32.642  28.385  1.00  0.00     0.021 C 
BRANCH  24  25
ATOM     25  C   UNL A   1      34.328  33.940  29.029  1.00  0.00     0.116 C 
BRANCH  25  26
ATOM     26  N   UNL A   1      34.078  33.894  30.462  1.00  0.00    -0.352 N 
ATOM     27  C   UNL A   1      34.594  33.093  31.443  1.00  0.00     0.251 C 
ATOM     28  H   UNL A   1      33.424  34.556  30.782  1.00  0.00     0.163 HD
ATOM     29  O   UNL A   1      33.952  32.985  32.490  1.00  0.00    -0.269 OA
BRANCH  27  30
ATOM     30  C   UNL A   1      35.873  32.367  31.300  1.00  0.00     0.039 A 
ATOM     31  C   UNL A   1      36.880  32.981  30.538  1.00  0.00     0.014 A 
ATOM     32  C   UNL A   1      36.059  31.070  31.783  1.00  0.00     0.014 A 
ATOM     33  C   UNL A   1      38.091  32.329  30.315  1.00  0.00     0.010 A 
ATOM     34  C   UNL A   1      37.267  30.410  31.552  1.00  0.00     0.010 A 
ATOM     35  C   UNL A   1      38.297  31.054  30.854  1.00  0.00    -0.014 A 
BRANCH  35  36
ATOM     36  C   UNL A   1      39.688  30.530  30.935  1.00  0.00     0.031 A 
ATOM     37  C   UNL A   1      40.533  31.410  31.933  1.00  0.00     0.074 A 
ATOM     38  C   UNL A   1      39.979  29.436  30.157  1.00  0.00     0.049 A 
ATOM     39  N   UNL A   1      41.811  31.679  31.989  1.00  0.00    -0.248 NA
ATOM     40  C   UNL A   1      39.800  32.209  32.968  1.00  0.00     0.031 C 
ATOM     41  C   UNL A   1      39.020  28.710  29.285  1.00  0.00     0.029 A 
ATOM     42  N   UNL A   1      41.120  28.695  29.932  1.00  0.00    -0.354 N 
ATOM     43  C   UNL A   1      42.031  32.445  33.174  1.00  0.00     0.074 A 
ATOM     44  C   UNL A   1      40.750  32.860  33.641  1.00  0.00     0.031 C 
ATOM     45  C   UNL A   1      39.632  27.727  28.582  1.00  0.00     0.029 A 
ATOM     46  C   UNL A   1      41.038  27.681  28.931  1.00  0.00     0.049 A 
ATOM     47  H   UNL A   1      41.949  28.857  30.437  1.00  0.00     0.167 HD
ATOM     48  C   UNL A   1      43.237  32.529  33.814  1.00  0.00     0.034 A 
ATOM     49  C   UNL A   1      42.052  26.919  28.388  1.00  0.00     0.034 A 
ATOM     50  C   UNL A   1      44.195  31.743  33.119  1.00  0.00     0.049 A 
ATOM     51  C   UNL A   1      43.233  27.312  29.159  1.00  0.00     0.074 A 
ATOM     52  C   UNL A   1      45.171  31.923  32.178  1.00  0.00     0.029 A 
ATOM     53  N   UNL A   1      44.130  30.416  33.451  1.00  0.00    -0.354 N 
ATOM     54  N   UNL A   1      43.451  26.994  30.395  1.00  0.00    -0.248 NA
ATOM     55  C   UNL A   1      44.034  28.385  28.586  1.00  0.00     0.031 C 
ATOM     56  C   UNL A   1      45.623  30.618  31.863  1.00  0.00     0.029 A 
ATOM     57  C   UNL A   1      44.721  29.725  32.440  1.00  0.00     0.049 A 
ATOM     58  H   UNL A   1      43.733  30.035  34.267  1.00  0.00     0.167 HD
ATOM     59  C   UNL A   1      44.201  28.046  30.858  1.00  0.00     0.074 A 
ATOM     60  C   UNL A   1      44.603  28.828  29.696  1.00  0.00     0.031 C 
ATOM     61  C   UNL A   1      44.178  28.434  32.155  1.00  0.00     0.034 A 
BRANCH  48  62
ATOM     62  C   UNL A   1      43.690  32.926  35.227  1.00  0.00     0.023 A 
ATOM     63  C   UNL A   1      44.807  33.822  35.261  1.00  0.00     0.012 A 
ATOM     64  C   UNL A   1      43.411  32.236  36.420  1.00  0.00     0.148 A 
ATOM     65  C   UNL A   1      45.711  33.873  36.320  1.00  0.00     0.002 A 
ATOM     66  C   UNL A   1      44.281  32.353  37.516  1.00  0.00     0.091 A 
ATOM     67  F   UNL A   1      42.358  31.413  36.473  1.00  0.00    -0.205 F 
ATOM     68  C   UNL A   1      45.457  33.117  37.444  1.00  0.00     0.022 A 
BRANCH  66  69
ATOM     69  S   UNL A   1      43.994  31.554  39.103  1.00  0.00     0.127 S 
ATOM     70  O   UNL A   1      44.500  30.205  38.863  1.00  0.00    -0.237 OA
ATOM     71  O   UNL A   1      44.829  32.360  39.998  1.00  0.00    -0.237 OA
ATOM     72  O   UNL A   1      42.566  31.680  39.352  1.00  0.00    -0.744 OA
ENDBRANCH  66  69
ENDBRANCH  48  62
BRANCH  49  73
ATOM     73  C   UNL A   1      42.302  26.051  27.166  1.00  0.00     0.023 A 
ATOM     74  C   UNL A   1      43.105  26.425  26.082  1.00  0.00     0.012 A 
ATOM     75  C   UNL A   1      41.787  24.711  27.122  1.00  0.00     0.148 A 
ATOM     76  C   UNL A   1      43.465  25.492  25.084  1.00  0.00     0.002 A 
ATOM     77  C   UNL A   1      42.247  23.761  26.214  1.00  0.00     0.091 A 
ATOM     78  F   UNL A   1      40.809  24.346  27.960  1.00  0.00    -0.205 F 
ATOM     79  C   UNL A   1      43.084  24.152  25.175  1.00  0.00     0.022 A 
BRANCH  77  80
ATOM     80  S   UNL A   1      41.939  21.991  26.433  1.00  0.00     0.127 S 
ATOM     81  O   UNL A   1      40.506  21.885  26.170  1.00  0.00    -0.237 OA
ATOM     82  O   UNL A   1      42.795  21.415  25.395  1.00  0.00    -0.237 OA
ATOM     83  O   UNL A   1      42.344  21.669  27.795  1.00  0.00    -0.744 OA
ENDBRANCH  77  80
ENDBRANCH  49  73
BRANCH  61  84
ATOM     84  C   UNL A   1      43.272  27.619  33.079  1.00  0.00     0.023 A 
ATOM     85  C   UNL A   1      42.014  28.149  33.393  1.00  0.00     0.012 A 
ATOM     86  C   UNL A   1      43.648  26.404  33.723  1.00  0.00     0.148 A 
ATOM     87  C   UNL A   1      41.156  27.503  34.292  1.00  0.00     0.002 A 
ATOM     88  C   UNL A   1      42.797  25.766  34.633  1.00  0.00     0.091 A 
ATOM     89  F   UNL A   1      44.832  25.868  33.427  1.00  0.00    -0.205 F 
ATOM     90  C   UNL A   1      41.543  26.317  34.910  1.00  0.00     0.022 A 
BRANCH  88  91
ATOM     91  S   UNL A   1      43.222  24.264  35.545  1.00  0.00     0.127 S 
ATOM     92  O   UNL A   1      42.059  24.082  36.416  1.00  0.00    -0.237 OA
ATOM     93  O   UNL A   1      43.329  23.269  34.481  1.00  0.00    -0.237 OA
ATOM     94  O   UNL A   1      44.463  24.548  36.256  1.00  0.00    -0.744 OA
ENDBRANCH  88  91
ENDBRANCH  61  84
ENDBRANCH  35  36
ENDBRANCH  27  30
ENDBRANCH  25  26
ENDBRANCH  24  25
ENDBRANCH  23  24
ENDBRANCH  22  23
ENDBRANCH   1  22
TORSDOF 21
ENDMDL
MODEL 3
REMARK VINA RESULT:     -10.2      4.118      8.431
REMARK SMILES COCCNS(=O)(=O)c1c[nH]c(C(=O)NCCCCCCNC(=O)c2ccc(-c3c4nc(c(-c5cccc(S(=O)(=O)[O-])c5F)c5ccc([nH]5)c(-c5cccc(S(=O)(=O)[O-])c5F)c5nc(c(-c6cccc(S(=O)(=O)[O-])c6F)c6ccc3[nH]6)C=C5)C=C4)cc2)c1
REMARK SMILES IDX 17 1 16 2 15 3 13 4 14 5 12 7 9 8 10 9 88 10 11 11 6 13 7 14
REMARK SMILES IDX 8 15 5 16 4 18 3 19 2 20 1 21 18 22 19 23 20 24 21 25 22 26
REMARK SMILES IDX 23 27 24 29 25 30 26 31 87 32 27 33 86 34 28 35 29 36 30 37
REMARK SMILES IDX 80 38 31 39 85 40 79 41 81 42 32 43 84 44 78 45 77 46 33 48
REMARK SMILES IDX 65 49 45 50 64 51 46 52 49 53 63 54 82 55 47 56 48 57 62 59
REMARK SMILES IDX 83 60 50 61 34 62 35 63 43 64 36 65 38 66 44 67 37 68 39 69
REMARK SMILES IDX 40 70 41 71 42 72 66 73 67 74 75 75 68 76 70 77 76 78 69 79
REMARK SMILES IDX 71 80 72 81 73 82 74 83 51 84 52 85 60 86 53 87 55 88 61 89
REMARK SMILES IDX 54 90 56 91 57 92 58 93 59 94
REMARK H PARENT 15 6 11 12 5 17 22 28 81 47 49 58
REMARK Flexibility Score: inf
ROOT
ATOM      1  C   UNL A   1      37.764  23.608  25.338  1.00  0.00     0.021 C 
ENDROOT
BRANCH   1   2
ATOM      2  C   UNL A   1      36.769  22.471  25.560  1.00  0.00     0.116 C 
BRANCH   2   3
ATOM      3  N   UNL A   1      35.893  22.759  26.679  1.00  0.00    -0.351 N 
ATOM      4  C   UNL A   1      34.607  22.379  26.949  1.00  0.00     0.267 C 
ATOM      5  O   UNL A   1      34.140  22.727  28.036  1.00  0.00    -0.268 OA
ATOM      6  H   UNL A   1      36.297  23.331  27.371  1.00  0.00     0.163 HD
BRANCH   4   7
ATOM      7  C   UNL A   1      33.842  21.543  26.049  1.00  0.00     0.105 A 
ATOM      8  C   UNL A   1      32.939  19.970  24.682  1.00  0.00     0.100 A 
ATOM      9  C   UNL A   1      31.911  20.750  25.163  1.00  0.00     0.104 A 
ATOM     10  C   UNL A   1      34.153  20.528  25.158  1.00  0.00     0.055 A 
ATOM     11  N   UNL A   1      32.474  21.726  25.938  1.00  0.00    -0.356 N 
ATOM     12  H   UNL A   1      31.972  22.460  26.361  1.00  0.00     0.166 HD
BRANCH   8  13
ATOM     13  S   UNL A   1      32.816  18.556  23.707  1.00  0.00     0.242 S 
ATOM     14  O   UNL A   1      34.148  18.036  23.610  1.00  0.00    -0.207 OA
ATOM     15  O   UNL A   1      32.023  18.965  22.561  1.00  0.00    -0.207 OA
BRANCH  13  16
ATOM     16  N   UNL A   1      31.882  17.408  24.541  1.00  0.00    -0.209 NA
ATOM     17  H   UNL A   1      30.970  17.823  24.731  1.00  0.00     0.141 HD
BRANCH  16  18
ATOM     18  C   UNL A   1      32.451  16.940  25.831  1.00  0.00     0.127 C 
BRANCH  18  19
ATOM     19  C   UNL A   1      32.871  15.466  25.732  1.00  0.00     0.176 C 
BRANCH  19  20
ATOM     20  O   UNL A   1      34.019  15.232  24.910  1.00  0.00    -0.383 OA
ATOM     21  C   UNL A   1      35.237  15.728  25.442  1.00  0.00     0.194 C 
ENDBRANCH  19  20
ENDBRANCH  18  19
ENDBRANCH  16  18
ENDBRANCH  13  16
ENDBRANCH   8  13
ENDBRANCH   4   7
ENDBRANCH   2   3
ENDBRANCH   1   2
BRANCH   1  22
ATOM     22  C   UNL A   1      38.712  23.824  26.526  1.00  0.00     0.002 C 
BRANCH  22  23
ATOM     23  C   UNL A   1      39.543  22.594  26.921  1.00  0.00     0.002 C 
BRANCH  23  24
ATOM     24  C   UNL A   1      40.449  22.040  25.810  1.00  0.00     0.021 C 
BRANCH  24  25
ATOM     25  C   UNL A   1      41.811  21.564  26.325  1.00  0.00     0.116 C 
BRANCH  25  26
ATOM     26  N   UNL A   1      42.868  22.207  25.555  1.00  0.00    -0.352 N 
ATOM     27  C   UNL A   1      43.245  23.517  25.458  1.00  0.00     0.251 C 
ATOM     28  H   UNL A   1      43.406  21.588  25.010  1.00  0.00     0.163 HD
ATOM     29  O   UNL A   1      43.896  23.854  24.467  1.00  0.00    -0.269 OA
BRANCH  27  30
ATOM     30  C   UNL A   1      42.911  24.529  26.482  1.00  0.00     0.039 A 
ATOM     31  C   UNL A   1      43.095  25.878  26.138  1.00  0.00     0.014 A 
ATOM     32  C   UNL A   1      42.547  24.187  27.786  1.00  0.00     0.014 A 
ATOM     33  C   UNL A   1      42.853  26.882  27.073  1.00  0.00     0.010 A 
ATOM     34  C   UNL A   1      42.314  25.190  28.728  1.00  0.00     0.010 A 
ATOM     35  C   UNL A   1      42.428  26.538  28.361  1.00  0.00    -0.014 A 
BRANCH  35  36
ATOM     36  C   UNL A   1      41.821  27.593  29.218  1.00  0.00     0.031 A 
ATOM     37  C   UNL A   1      42.587  27.669  30.594  1.00  0.00     0.074 A 
ATOM     38  C   UNL A   1      40.749  28.271  28.691  1.00  0.00     0.049 A 
ATOM     39  N   UNL A   1      42.197  28.030  31.788  1.00  0.00    -0.248 NA
ATOM     40  C   UNL A   1      43.988  27.143  30.654  1.00  0.00     0.031 C 
ATOM     41  C   UNL A   1      40.177  28.075  27.335  1.00  0.00     0.029 A 
ATOM     42  N   UNL A   1      39.916  29.264  29.164  1.00  0.00    -0.354 N 
ATOM     43  C   UNL A   1      43.347  28.004  32.634  1.00  0.00     0.074 A 
ATOM     44  C   UNL A   1      44.368  27.313  31.921  1.00  0.00     0.031 C 
ATOM     45  C   UNL A   1      39.071  28.834  27.145  1.00  0.00     0.029 A 
ATOM     46  C   UNL A   1      38.813  29.624  28.332  1.00  0.00     0.049 A 
ATOM     47  H   UNL A   1      40.075  29.704  30.030  1.00  0.00     0.167 HD
ATOM     48  C   UNL A   1      43.457  28.725  33.792  1.00  0.00     0.034 A 
ATOM     49  C   UNL A   1      37.744  30.447  28.623  1.00  0.00     0.034 A 
ATOM     50  C   UNL A   1      42.271  29.480  33.992  1.00  0.00     0.049 A 
ATOM     51  C   UNL A   1      38.057  30.964  29.957  1.00  0.00     0.074 A 
ATOM     52  C   UNL A   1      41.096  29.367  34.684  1.00  0.00     0.029 A 
ATOM     53  N   UNL A   1      42.264  30.651  33.284  1.00  0.00    -0.354 N 
ATOM     54  N   UNL A   1      38.986  31.827  30.219  1.00  0.00    -0.248 NA
ATOM     55  C   UNL A   1      37.497  30.213  31.073  1.00  0.00     0.031 C 
ATOM     56  C   UNL A   1      40.318  30.476  34.270  1.00  0.00     0.029 A 
ATOM     57  C   UNL A   1      40.966  31.040  33.171  1.00  0.00     0.049 A 
ATOM     58  H   UNL A   1      43.049  31.123  32.924  1.00  0.00     0.167 HD
ATOM     59  C   UNL A   1      39.358  31.501  31.500  1.00  0.00     0.074 A 
ATOM     60  C   UNL A   1      38.363  30.566  32.009  1.00  0.00     0.031 C 
ATOM     61  C   UNL A   1      40.611  31.720  31.965  1.00  0.00     0.034 A 
BRANCH  48  62
ATOM     62  C   UNL A   1      44.627  29.190  34.673  1.00  0.00     0.023 A 
ATOM     63  C   UNL A   1      44.798  28.435  35.877  1.00  0.00     0.012 A 
ATOM     64  C   UNL A   1      45.254  30.448  34.634  1.00  0.00     0.148 A 
ATOM     65  C   UNL A   1      45.361  28.965  37.036  1.00  0.00     0.002 A 
ATOM     66  C   UNL A   1      45.894  30.947  35.781  1.00  0.00     0.091 A 
ATOM     67  F   UNL A   1      45.171  31.192  33.526  1.00  0.00    -0.205 F 
ATOM     68  C   UNL A   1      45.892  30.237  36.993  1.00  0.00     0.022 A 
BRANCH  66  69
ATOM     69  S   UNL A   1      46.767  32.519  35.828  1.00  0.00     0.127 S 
ATOM     70  O   UNL A   1      45.684  33.478  35.634  1.00  0.00    -0.237 OA
ATOM     71  O   UNL A   1      47.328  32.509  37.183  1.00  0.00    -0.237 OA
ATOM     72  O   UNL A   1      47.768  32.442  34.774  1.00  0.00    -0.744 OA
ENDBRANCH  66  69
ENDBRANCH  48  62
BRANCH  49  73
ATOM     73  C   UNL A   1      36.351  30.742  28.094  1.00  0.00     0.023 A 
ATOM     74  C   UNL A   1      35.417  29.762  27.739  1.00  0.00     0.012 A 
ATOM     75  C   UNL A   1      35.878  32.097  28.037  1.00  0.00     0.148 A 
ATOM     76  C   UNL A   1      34.074  30.101  27.458  1.00  0.00     0.002 A 
ATOM     77  C   UNL A   1      34.531  32.416  27.891  1.00  0.00     0.091 A 
ATOM     78  F   UNL A   1      36.752  33.110  28.098  1.00  0.00    -0.205 F 
ATOM     79  C   UNL A   1      33.618  31.413  27.586  1.00  0.00     0.022 A 
BRANCH  77  80
ATOM     80  S   UNL A   1      33.887  34.066  28.258  1.00  0.00     0.127 S 
ATOM     81  O   UNL A   1      34.607  34.906  27.303  1.00  0.00    -0.237 OA
ATOM     82  O   UNL A   1      32.463  33.895  27.967  1.00  0.00    -0.237 OA
ATOM     83  O   UNL A   1      34.189  34.323  29.660  1.00  0.00    -0.744 OA
ENDBRANCH  77  80
ENDBRANCH  49  73
BRANCH  61  84
ATOM     84  C   UNL A   1      41.586  32.364  30.979  1.00  0.00     0.023 A 
ATOM     85  C   UNL A   1      41.485  33.746  30.771  1.00  0.00     0.012 A 
ATOM     86  C   UNL A   1      42.528  31.650  30.182  1.00  0.00     0.148 A 
ATOM     87  C   UNL A   1      42.287  34.399  29.827  1.00  0.00     0.002 A 
ATOM     88  C   UNL A   1      43.320  32.301  29.229  1.00  0.00     0.091 A 
ATOM     89  F   UNL A   1      42.657  30.338  30.374  1.00  0.00    -0.205 F 
ATOM     90  C   UNL A   1      43.202  33.683  29.060  1.00  0.00     0.022 A 
BRANCH  88  91
ATOM     91  S   UNL A   1      44.485  31.463  28.129  1.00  0.00     0.127 S 
ATOM     92  O   UNL A   1      43.684  30.356  27.603  1.00  0.00    -0.237 OA
ATOM     93  O   UNL A   1      44.788  32.499  27.145  1.00  0.00    -0.237 OA
ATOM     94  O   UNL A   1      45.610  31.046  28.957  1.00  0.00    -0.744 OA
ENDBRANCH  88  91
ENDBRANCH  61  84
ENDBRANCH  35  36
ENDBRANCH  27  30
ENDBRANCH  25  26
ENDBRANCH  24  25
ENDBRANCH  23  24
ENDBRANCH  22  23
ENDBRANCH   1  22
TORSDOF 21
ENDMDL
