MODEL 1
REMARK VINA RESULT:     -13.9      0.000      0.000
REMARK SMILES CC1(C)OC(=O)C(=CNc2ccccc2C(=O)NCCCCCCNC(=O)c2ccc(-c3c4nc(c(-c5cccc(S(=O)(=O)[O-])c5F)c5ccc([nH]5)c(-c5cccc(S(=O)(=O)[O-])c5F)c5nc(c(-c6cccc(S(=O)(=O)[O-])c6F)c6ccc3[nH]6)C=C5)C=C4)cc2)C(=O)O1
REMARK SMILES IDX 22 1 21 2 20 3 19 4 18 5 16 6 17 7 15 9 10 10 11 11 12 12
REMARK SMILES IDX 14 13 13 14 9 15 8 17 1 18 2 19 3 20 4 21 93 22 5 23 91 24
REMARK SMILES IDX 6 25 7 26 92 27 23 28 24 29 25 30 26 31 27 33 28 34 29 35
REMARK SMILES IDX 90 36 30 37 89 38 31 39 32 40 33 41 83 42 34 43 88 44 82 45
REMARK SMILES IDX 84 46 35 47 87 48 81 49 80 50 36 52 68 53 48 54 67 55 49 56
REMARK SMILES IDX 52 57 66 58 85 59 50 60 51 61 65 63 86 64 53 65 37 66 38 67
REMARK SMILES IDX 46 68 39 69 41 70 47 71 40 72 42 73 43 74 44 75 45 76 69 77
REMARK SMILES IDX 70 78 78 79 71 80 73 81 79 82 72 83 74 84 75 85 76 86 77 87
REMARK SMILES IDX 54 88 55 89 63 90 56 91 58 92 64 93 57 94 59 95 60 96 61 97
REMARK SMILES IDX 62 98
REMARK H PARENT 18 8 9 16 25 32 84 51 52 62
REMARK Flexibility Score: inf
ROOT
ATOM      1  C   UNL A   1      35.972  21.175  25.058  1.00  0.00     0.002 C 
ENDROOT
BRANCH   1   2
ATOM      2  C   UNL A   1      35.483  22.741  25.635  1.00  0.00     0.002 C 
BRANCH   2   3
ATOM      3  C   UNL A   1      34.784  23.007  26.982  1.00  0.00     0.021 C 
BRANCH   3   4
ATOM      4  C   UNL A   1      33.830  21.959  27.514  1.00  0.00     0.116 C 
BRANCH   4   5
ATOM      5  N   UNL A   1      32.497  22.459  27.754  1.00  0.00    -0.352 N 
ATOM      6  C   UNL A   1      31.513  22.686  26.824  1.00  0.00     0.253 C 
ATOM      7  O   UNL A   1      30.450  23.185  27.184  1.00  0.00    -0.269 OA
ATOM      8  H   UNL A   1      32.269  22.662  28.690  1.00  0.00     0.163 HD
BRANCH   6   9
ATOM      9  C   UNL A   1      31.802  22.515  25.381  1.00  0.00     0.063 A 
ATOM     10  C   UNL A   1      31.731  23.510  24.379  1.00  0.00     0.051 A 
ATOM     11  C   UNL A   1      31.931  23.089  23.049  1.00  0.00     0.027 A 
ATOM     12  C   UNL A   1      32.153  21.748  22.716  1.00  0.00     0.002 A 
ATOM     13  C   UNL A   1      32.044  21.165  25.037  1.00  0.00     0.016 A 
ATOM     14  C   UNL A   1      32.204  20.782  23.711  1.00  0.00     0.001 A 
BRANCH  10  15
ATOM     15  N   UNL A   1      31.425  24.883  24.555  1.00  0.00    -0.360 N 
ATOM     16  H   UNL A   1      32.174  25.458  24.835  1.00  0.00     0.166 HD
BRANCH  15  17
ATOM     17  C   UNL A   1      30.219  25.512  24.388  1.00  0.00     0.106 C 
ATOM     18  C   UNL A   1      28.690  30.470  21.341  1.00  0.00     0.106 C 
ATOM     19  C   UNL A   1      28.693  29.973  22.818  1.00  0.00     0.252 C 
ATOM     20  C   UNL A   1      27.791  31.050  23.539  1.00  0.00     0.106 C 
ATOM     21  O   UNL A   1      27.686  28.495  23.129  1.00  0.00    -0.419 OA
ATOM     22  O   UNL A   1      30.489  29.701  23.279  1.00  0.00    -0.419 OA
ATOM     23  C   UNL A   1      28.130  27.108  23.854  1.00  0.00     0.350 C 
ATOM     24  C   UNL A   1      31.141  28.241  24.051  1.00  0.00     0.350 C 
ATOM     25  O   UNL A   1      27.279  26.248  24.056  1.00  0.00    -0.246 OA
ATOM     26  C   UNL A   1      29.912  26.820  24.285  1.00  0.00     0.161 C 
ATOM     27  O   UNL A   1      32.303  28.210  24.428  1.00  0.00    -0.246 OA
ENDBRANCH  15  17
ENDBRANCH  10  15
ENDBRANCH   6   9
ENDBRANCH   4   5
ENDBRANCH   3   4
ENDBRANCH   2   3
ENDBRANCH   1   2
BRANCH   1  28
ATOM     28  C   UNL A   1      37.894  20.185  25.029  1.00  0.00     0.021 C 
BRANCH  28  29
ATOM     29  C   UNL A   1      39.405  20.596  25.951  1.00  0.00     0.116 C 
BRANCH  29  30
ATOM     30  N   UNL A   1      40.403  19.517  26.162  1.00  0.00    -0.352 N 
ATOM     31  C   UNL A   1      41.766  19.525  26.040  1.00  0.00     0.251 C 
ATOM     32  H   UNL A   1      40.021  18.652  26.437  1.00  0.00     0.163 HD
ATOM     33  O   UNL A   1      42.427  18.512  25.865  1.00  0.00    -0.269 OA
BRANCH  31  34
ATOM     34  C   UNL A   1      42.392  20.821  26.233  1.00  0.00     0.039 A 
ATOM     35  C   UNL A   1      42.645  21.700  25.182  1.00  0.00     0.014 A 
ATOM     36  C   UNL A   1      42.630  21.144  27.568  1.00  0.00     0.014 A 
ATOM     37  C   UNL A   1      43.140  22.961  25.493  1.00  0.00     0.010 A 
ATOM     38  C   UNL A   1      43.039  22.414  27.875  1.00  0.00     0.010 A 
ATOM     39  C   UNL A   1      43.329  23.315  26.840  1.00  0.00    -0.014 A 
BRANCH  39  40
ATOM     40  C   UNL A   1      43.913  24.597  27.258  1.00  0.00     0.031 A 
ATOM     41  C   UNL A   1      42.977  25.645  27.792  1.00  0.00     0.074 A 
ATOM     42  C   UNL A   1      45.198  24.859  26.974  1.00  0.00     0.049 A 
ATOM     43  N   UNL A   1      43.188  26.917  27.983  1.00  0.00    -0.248 NA
ATOM     44  C   UNL A   1      41.594  25.213  28.077  1.00  0.00     0.031 C 
ATOM     45  C   UNL A   1      46.146  23.919  26.369  1.00  0.00     0.029 A 
ATOM     46  N   UNL A   1      45.914  26.017  27.109  1.00  0.00    -0.354 N 
ATOM     47  C   UNL A   1      41.959  27.443  28.362  1.00  0.00     0.074 A 
ATOM     48  C   UNL A   1      40.995  26.370  28.311  1.00  0.00     0.031 C 
ATOM     49  C   UNL A   1      47.323  24.542  26.186  1.00  0.00     0.029 A 
ATOM     50  C   UNL A   1      47.196  25.928  26.623  1.00  0.00     0.049 A 
ATOM     51  H   UNL A   1      45.546  26.835  27.515  1.00  0.00     0.167 HD
ATOM     52  C   UNL A   1      41.674  28.703  28.757  1.00  0.00     0.034 A 
ATOM     53  C   UNL A   1      48.147  26.874  26.539  1.00  0.00     0.034 A 
ATOM     54  C   UNL A   1      42.668  29.732  28.852  1.00  0.00     0.049 A 
ATOM     55  C   UNL A   1      47.819  28.255  27.044  1.00  0.00     0.074 A 
ATOM     56  C   UNL A   1      42.533  31.023  29.322  1.00  0.00     0.029 A 
ATOM     57  N   UNL A   1      43.995  29.573  28.477  1.00  0.00    -0.354 N 
ATOM     58  N   UNL A   1      46.688  28.708  27.532  1.00  0.00    -0.248 NA
ATOM     59  C   UNL A   1      48.906  29.241  27.024  1.00  0.00     0.031 C 
ATOM     60  C   UNL A   1      43.778  31.652  29.219  1.00  0.00     0.029 A 
ATOM     61  C   UNL A   1      44.694  30.741  28.713  1.00  0.00     0.049 A 
ATOM     62  H   UNL A   1      44.381  28.751  28.100  1.00  0.00     0.167 HD
ATOM     63  C   UNL A   1      46.941  30.018  27.923  1.00  0.00     0.074 A 
ATOM     64  C   UNL A   1      48.337  30.275  27.628  1.00  0.00     0.031 C 
ATOM     65  C   UNL A   1      46.099  30.933  28.463  1.00  0.00     0.034 A 
BRANCH  52  66
ATOM     66  C   UNL A   1      40.260  29.002  29.180  1.00  0.00     0.023 A 
ATOM     67  C   UNL A   1      39.299  29.332  28.202  1.00  0.00     0.012 A 
ATOM     68  C   UNL A   1      39.870  28.921  30.530  1.00  0.00     0.148 A 
ATOM     69  C   UNL A   1      37.983  29.618  28.563  1.00  0.00     0.002 A 
ATOM     70  C   UNL A   1      38.544  29.156  30.877  1.00  0.00     0.091 A 
ATOM     71  F   UNL A   1      40.801  28.629  31.450  1.00  0.00    -0.205 F 
ATOM     72  C   UNL A   1      37.604  29.519  29.898  1.00  0.00     0.022 A 
BRANCH  70  73
ATOM     73  S   UNL A   1      37.930  28.975  32.555  1.00  0.00     0.127 S 
ATOM     74  O   UNL A   1      38.081  27.537  32.772  1.00  0.00    -0.237 OA
ATOM     75  O   UNL A   1      38.865  29.808  33.312  1.00  0.00    -0.237 OA
ATOM     76  O   UNL A   1      36.556  29.459  32.537  1.00  0.00    -0.744 OA
ENDBRANCH  70  73
ENDBRANCH  52  66
BRANCH  53  77
ATOM     77  C   UNL A   1      49.509  26.535  26.041  1.00  0.00     0.023 A 
ATOM     78  C   UNL A   1      50.347  25.732  26.840  1.00  0.00     0.012 A 
ATOM     79  C   UNL A   1      49.977  26.983  24.792  1.00  0.00     0.148 A 
ATOM     80  C   UNL A   1      51.644  25.424  26.427  1.00  0.00     0.002 A 
ATOM     81  C   UNL A   1      51.250  26.627  24.361  1.00  0.00     0.091 A 
ATOM     82  F   UNL A   1      49.165  27.746  24.046  1.00  0.00    -0.205 F 
ATOM     83  C   UNL A   1      52.093  25.865  25.187  1.00  0.00     0.022 A 
BRANCH  81  84
ATOM     84  S   UNL A   1      51.865  27.044  22.726  1.00  0.00     0.127 S 
ATOM     85  O   UNL A   1      50.653  26.951  21.918  1.00  0.00    -0.237 OA
ATOM     86  O   UNL A   1      52.371  28.402  22.929  1.00  0.00    -0.237 OA
ATOM     87  O   UNL A   1      52.899  26.058  22.437  1.00  0.00    -0.744 OA
ENDBRANCH  81  84
ENDBRANCH  53  77
BRANCH  65  88
ATOM     88  C   UNL A   1      46.678  32.272  28.828  1.00  0.00     0.023 A 
ATOM     89  C   UNL A   1      47.252  32.468  30.099  1.00  0.00     0.012 A 
ATOM     90  C   UNL A   1      46.723  33.307  27.874  1.00  0.00     0.148 A 
ATOM     91  C   UNL A   1      47.833  33.691  30.427  1.00  0.00     0.002 A 
ATOM     92  C   UNL A   1      47.353  34.503  28.190  1.00  0.00     0.091 A 
ATOM     93  F   UNL A   1      46.156  33.099  26.677  1.00  0.00    -0.205 F 
ATOM     94  C   UNL A   1      47.895  34.703  29.470  1.00  0.00     0.022 A 
BRANCH  92  95
ATOM     95  S   UNL A   1      47.577  35.816  26.987  1.00  0.00     0.127 S 
ATOM     96  O   UNL A   1      46.217  36.336  26.859  1.00  0.00    -0.237 OA
ATOM     97  O   UNL A   1      48.510  36.709  27.675  1.00  0.00    -0.237 OA
ATOM     98  O   UNL A   1      48.117  35.182  25.792  1.00  0.00    -0.744 OA
ENDBRANCH  92  95
ENDBRANCH  65  88
ENDBRANCH  39  40
ENDBRANCH  31  34
ENDBRANCH  29  30
ENDBRANCH  28  29
ENDBRANCH   1  28
TORSDOF 18
ENDMDL
MODEL 2
REMARK VINA RESULT:     -13.9      5.751     11.352
REMARK SMILES CC1(C)OC(=O)C(=CNc2ccccc2C(=O)NCCCCCCNC(=O)c2ccc(-c3c4nc(c(-c5cccc(S(=O)(=O)[O-])c5F)c5ccc([nH]5)c(-c5cccc(S(=O)(=O)[O-])c5F)c5nc(c(-c6cccc(S(=O)(=O)[O-])c6F)c6ccc3[nH]6)C=C5)C=C4)cc2)C(=O)O1
REMARK SMILES IDX 22 1 21 2 20 3 19 4 18 5 16 6 17 7 15 9 10 10 11 11 12 12
REMARK SMILES IDX 14 13 13 14 9 15 8 17 1 18 2 19 3 20 4 21 93 22 5 23 91 24
REMARK SMILES IDX 6 25 7 26 92 27 23 28 24 29 25 30 26 31 27 33 28 34 29 35
REMARK SMILES IDX 90 36 30 37 89 38 31 39 32 40 33 41 83 42 34 43 88 44 82 45
REMARK SMILES IDX 84 46 35 47 87 48 81 49 80 50 36 52 68 53 48 54 67 55 49 56
REMARK SMILES IDX 52 57 66 58 85 59 50 60 51 61 65 63 86 64 53 65 37 66 38 67
REMARK SMILES IDX 46 68 39 69 41 70 47 71 40 72 42 73 43 74 44 75 45 76 69 77
REMARK SMILES IDX 70 78 78 79 71 80 73 81 79 82 72 83 74 84 75 85 76 86 77 87
REMARK SMILES IDX 54 88 55 89 63 90 56 91 58 92 64 93 57 94 59 95 60 96 61 97
REMARK SMILES IDX 62 98
REMARK H PARENT 18 8 9 16 25 32 84 51 52 62
REMARK Flexibility Score: inf
ROOT
ATOM      1  C   UNL A   1      31.460  29.799  25.713  1.00  0.00     0.002 C 
ENDROOT
BRANCH   1   2
ATOM      2  C   UNL A   1      32.177  28.270  26.124  1.00  0.00     0.002 C 
BRANCH   2   3
ATOM      3  C   UNL A   1      33.380  27.635  25.401  1.00  0.00     0.021 C 
BRANCH   3   4
ATOM      4  C   UNL A   1      33.425  26.127  25.271  1.00  0.00     0.116 C 
BRANCH   4   5
ATOM      5  N   UNL A   1      34.302  25.664  24.223  1.00  0.00    -0.352 N 
ATOM      6  C   UNL A   1      34.271  24.449  23.587  1.00  0.00     0.253 C 
ATOM      7  O   UNL A   1      35.138  24.179  22.759  1.00  0.00    -0.269 OA
ATOM      8  H   UNL A   1      35.003  26.291  23.932  1.00  0.00     0.163 HD
BRANCH   6   9
ATOM      9  C   UNL A   1      33.322  23.401  24.034  1.00  0.00     0.063 A 
ATOM     10  C   UNL A   1      31.935  23.344  23.765  1.00  0.00     0.051 A 
ATOM     11  C   UNL A   1      31.206  22.317  24.397  1.00  0.00     0.027 A 
ATOM     12  C   UNL A   1      31.806  21.412  25.281  1.00  0.00     0.002 A 
ATOM     13  C   UNL A   1      33.922  22.472  24.914  1.00  0.00     0.016 A 
ATOM     14  C   UNL A   1      33.165  21.492  25.546  1.00  0.00     0.001 A 
BRANCH  10  15
ATOM     15  N   UNL A   1      31.178  24.242  22.970  1.00  0.00    -0.360 N 
ATOM     16  H   UNL A   1      31.419  24.278  22.016  1.00  0.00     0.166 HD
BRANCH  15  17
ATOM     17  C   UNL A   1      30.156  25.067  23.360  1.00  0.00     0.106 C 
ATOM     18  C   UNL A   1      28.171  30.292  21.134  1.00  0.00     0.106 C 
ATOM     19  C   UNL A   1      28.800  29.761  22.457  1.00  0.00     0.252 C 
ATOM     20  C   UNL A   1      28.537  30.954  23.458  1.00  0.00     0.106 C 
ATOM     21  O   UNL A   1      27.843  28.464  23.290  1.00  0.00    -0.419 OA
ATOM     22  O   UNL A   1      30.528  29.181  22.024  1.00  0.00    -0.419 OA
ATOM     23  C   UNL A   1      28.351  27.003  23.795  1.00  0.00     0.350 C 
ATOM     24  C   UNL A   1      31.228  27.612  22.474  1.00  0.00     0.350 C 
ATOM     25  O   UNL A   1      27.575  26.292  24.424  1.00  0.00    -0.246 OA
ATOM     26  C   UNL A   1      30.051  26.410  23.343  1.00  0.00     0.161 C 
ATOM     27  O   UNL A   1      32.406  27.378  22.255  1.00  0.00    -0.246 OA
ENDBRANCH  15  17
ENDBRANCH  10  15
ENDBRANCH   6   9
ENDBRANCH   4   5
ENDBRANCH   3   4
ENDBRANCH   2   3
ENDBRANCH   1   2
BRANCH   1  28
ATOM     28  C   UNL A   1      31.498  31.722  26.702  1.00  0.00     0.021 C 
BRANCH  28  29
ATOM     29  C   UNL A   1      32.922  32.646  27.348  1.00  0.00     0.116 C 
BRANCH  29  30
ATOM     30  N   UNL A   1      32.691  34.035  27.822  1.00  0.00    -0.352 N 
ATOM     31  C   UNL A   1      33.182  34.700  28.913  1.00  0.00     0.251 C 
ATOM     32  H   UNL A   1      32.084  34.565  27.257  1.00  0.00     0.163 HD
ATOM     33  O   UNL A   1      32.636  35.678  29.401  1.00  0.00    -0.269 OA
BRANCH  31  34
ATOM     34  C   UNL A   1      34.463  34.219  29.398  1.00  0.00     0.039 A 
ATOM     35  C   UNL A   1      35.677  34.605  28.833  1.00  0.00     0.014 A 
ATOM     36  C   UNL A   1      34.375  33.412  30.532  1.00  0.00     0.014 A 
ATOM     37  C   UNL A   1      36.847  34.176  29.450  1.00  0.00     0.010 A 
ATOM     38  C   UNL A   1      35.528  33.061  31.182  1.00  0.00     0.010 A 
ATOM     39  C   UNL A   1      36.767  33.411  30.626  1.00  0.00    -0.014 A 
BRANCH  39  40
ATOM     40  C   UNL A   1      37.948  32.857  31.304  1.00  0.00     0.031 A 
ATOM     41  C   UNL A   1      38.613  31.664  30.678  1.00  0.00     0.074 A 
ATOM     42  C   UNL A   1      38.268  33.297  32.531  1.00  0.00     0.049 A 
ATOM     43  N   UNL A   1      39.488  30.846  31.191  1.00  0.00    -0.248 NA
ATOM     44  C   UNL A   1      38.174  31.301  29.315  1.00  0.00     0.031 C 
ATOM     45  C   UNL A   1      37.606  34.394  33.243  1.00  0.00     0.029 A 
ATOM     46  N   UNL A   1      39.202  32.837  33.418  1.00  0.00    -0.354 N 
ATOM     47  C   UNL A   1      39.667  29.850  30.238  1.00  0.00     0.074 A 
ATOM     48  C   UNL A   1      38.764  30.129  29.147  1.00  0.00     0.031 C 
ATOM     49  C   UNL A   1      38.158  34.520  34.462  1.00  0.00     0.029 A 
ATOM     50  C   UNL A   1      39.180  33.493  34.625  1.00  0.00     0.049 A 
ATOM     51  H   UNL A   1      39.829  32.107  33.211  1.00  0.00     0.167 HD
ATOM     52  C   UNL A   1      40.540  28.819  30.259  1.00  0.00     0.034 A 
ATOM     53  C   UNL A   1      39.906  33.268  35.735  1.00  0.00     0.034 A 
ATOM     54  C   UNL A   1      41.465  28.605  31.334  1.00  0.00     0.049 A 
ATOM     55  C   UNL A   1      40.914  32.149  35.706  1.00  0.00     0.074 A 
ATOM     56  C   UNL A   1      42.461  27.654  31.440  1.00  0.00     0.029 A 
ATOM     57  N   UNL A   1      41.509  29.370  32.491  1.00  0.00    -0.354 N 
ATOM     58  N   UNL A   1      41.174  31.296  34.743  1.00  0.00    -0.248 NA
ATOM     59  C   UNL A   1      41.755  31.988  36.898  1.00  0.00     0.031 C 
ATOM     60  C   UNL A   1      43.102  27.837  32.669  1.00  0.00     0.029 A 
ATOM     61  C   UNL A   1      42.523  28.921  33.315  1.00  0.00     0.049 A 
ATOM     62  H   UNL A   1      40.909  30.123  32.694  1.00  0.00     0.167 HD
ATOM     63  C   UNL A   1      42.241  30.528  35.194  1.00  0.00     0.074 A 
ATOM     64  C   UNL A   1      42.586  31.031  36.509  1.00  0.00     0.031 C 
ATOM     65  C   UNL A   1      42.874  29.492  34.589  1.00  0.00     0.034 A 
BRANCH  52  66
ATOM     66  C   UNL A   1      40.578  27.909  29.060  1.00  0.00     0.023 A 
ATOM     67  C   UNL A   1      39.640  26.861  28.956  1.00  0.00     0.012 A 
ATOM     68  C   UNL A   1      41.508  28.107  28.023  1.00  0.00     0.148 A 
ATOM     69  C   UNL A   1      39.652  25.999  27.860  1.00  0.00     0.002 A 
ATOM     70  C   UNL A   1      41.481  27.276  26.908  1.00  0.00     0.091 A 
ATOM     71  F   UNL A   1      42.408  29.094  28.149  1.00  0.00    -0.205 F 
ATOM     72  C   UNL A   1      40.565  26.214  26.833  1.00  0.00     0.022 A 
BRANCH  70  73
ATOM     73  S   UNL A   1      42.556  27.515  25.489  1.00  0.00     0.127 S 
ATOM     74  O   UNL A   1      43.879  27.471  26.111  1.00  0.00    -0.237 OA
ATOM     75  O   UNL A   1      42.231  26.352  24.664  1.00  0.00    -0.237 OA
ATOM     76  O   UNL A   1      42.184  28.799  24.911  1.00  0.00    -0.744 OA
ENDBRANCH  70  73
ENDBRANCH  52  66
BRANCH  53  77
ATOM     77  C   UNL A   1      39.771  34.159  36.920  1.00  0.00     0.023 A 
ATOM     78  C   UNL A   1      40.199  35.498  36.818  1.00  0.00     0.012 A 
ATOM     79  C   UNL A   1      39.218  33.707  38.132  1.00  0.00     0.148 A 
ATOM     80  C   UNL A   1      40.126  36.355  37.917  1.00  0.00     0.002 A 
ATOM     81  C   UNL A   1      39.097  34.581  39.206  1.00  0.00     0.091 A 
ATOM     82  F   UNL A   1      38.816  32.430  38.209  1.00  0.00    -0.205 F 
ATOM     83  C   UNL A   1      39.570  35.899  39.108  1.00  0.00     0.022 A 
BRANCH  81  84
ATOM     84  S   UNL A   1      38.279  34.117  40.736  1.00  0.00     0.127 S 
ATOM     85  O   UNL A   1      37.021  33.561  40.246  1.00  0.00    -0.237 OA
ATOM     86  O   UNL A   1      39.212  33.138  41.295  1.00  0.00    -0.237 OA
ATOM     87  O   UNL A   1      38.172  35.349  41.508  1.00  0.00    -0.744 OA
ENDBRANCH  81  84
ENDBRANCH  53  77
BRANCH  65  88
ATOM     88  C   UNL A   1      44.040  28.878  35.313  1.00  0.00     0.023 A 
ATOM     89  C   UNL A   1      45.339  29.379  35.106  1.00  0.00     0.012 A 
ATOM     90  C   UNL A   1      43.826  27.857  36.259  1.00  0.00     0.148 A 
ATOM     91  C   UNL A   1      46.418  28.846  35.809  1.00  0.00     0.002 A 
ATOM     92  C   UNL A   1      44.897  27.371  36.995  1.00  0.00     0.091 A 
ATOM     93  F   UNL A   1      42.581  27.388  36.425  1.00  0.00    -0.205 F 
ATOM     94  C   UNL A   1      46.196  27.853  36.762  1.00  0.00     0.022 A 
BRANCH  92  95
ATOM     95  S   UNL A   1      44.690  26.174  38.316  1.00  0.00     0.127 S 
ATOM     96  O   UNL A   1      44.845  24.910  37.599  1.00  0.00    -0.237 OA
ATOM     97  O   UNL A   1      45.796  26.508  39.213  1.00  0.00    -0.237 OA
ATOM     98  O   UNL A   1      43.365  26.414  38.874  1.00  0.00    -0.744 OA
ENDBRANCH  92  95
ENDBRANCH  65  88
ENDBRANCH  39  40
ENDBRANCH  31  34
ENDBRANCH  29  30
ENDBRANCH  28  29
ENDBRANCH   1  28
TORSDOF 18
ENDMDL
MODEL 3
REMARK VINA RESULT:     -13.6      1.598      3.706
REMARK SMILES CC1(C)OC(=O)C(=CNc2ccccc2C(=O)NCCCCCCNC(=O)c2ccc(-c3c4nc(c(-c5cccc(S(=O)(=O)[O-])c5F)c5ccc([nH]5)c(-c5cccc(S(=O)(=O)[O-])c5F)c5nc(c(-c6cccc(S(=O)(=O)[O-])c6F)c6ccc3[nH]6)C=C5)C=C4)cc2)C(=O)O1
REMARK SMILES IDX 22 1 21 2 20 3 19 4 18 5 16 6 17 7 15 9 10 10 11 11 12 12
REMARK SMILES IDX 14 13 13 14 9 15 8 17 1 18 2 19 3 20 4 21 93 22 5 23 91 24
REMARK SMILES IDX 6 25 7 26 92 27 23 28 24 29 25 30 26 31 27 33 28 34 29 35
REMARK SMILES IDX 90 36 30 37 89 38 31 39 32 40 33 41 83 42 34 43 88 44 82 45
REMARK SMILES IDX 84 46 35 47 87 48 81 49 80 50 36 52 68 53 48 54 67 55 49 56
REMARK SMILES IDX 52 57 66 58 85 59 50 60 51 61 65 63 86 64 53 65 37 66 38 67
REMARK SMILES IDX 46 68 39 69 41 70 47 71 40 72 42 73 43 74 44 75 45 76 69 77
REMARK SMILES IDX 70 78 78 79 71 80 73 81 79 82 72 83 74 84 75 85 76 86 77 87
REMARK SMILES IDX 54 88 55 89 63 90 56 91 58 92 64 93 57 94 59 95 60 96 61 97
REMARK SMILES IDX 62 98
REMARK H PARENT 18 8 9 16 25 32 84 51 52 62
REMARK Flexibility Score: inf
ROOT
ATOM      1  C   UNL A   1      37.750  23.162  25.844  1.00  0.00     0.002 C 
ENDROOT
BRANCH   1   2
ATOM      2  C   UNL A   1      36.028  23.400  25.904  1.00  0.00     0.002 C 
BRANCH   2   3
ATOM      3  C   UNL A   1      35.152  23.817  24.708  1.00  0.00     0.021 C 
BRANCH   3   4
ATOM      4  C   UNL A   1      34.610  25.231  24.674  1.00  0.00     0.116 C 
BRANCH   4   5
ATOM      5  N   UNL A   1      33.775  25.503  23.529  1.00  0.00    -0.352 N 
ATOM      6  C   UNL A   1      32.832  26.491  23.402  1.00  0.00     0.253 C 
ATOM      7  O   UNL A   1      32.150  26.544  22.381  1.00  0.00    -0.269 OA
ATOM      8  H   UNL A   1      33.896  24.911  22.751  1.00  0.00     0.163 HD
BRANCH   6   9
ATOM      9  C   UNL A   1      32.504  27.358  24.559  1.00  0.00     0.063 A 
ATOM     10  C   UNL A   1      31.660  27.036  25.646  1.00  0.00     0.051 A 
ATOM     11  C   UNL A   1      31.396  28.064  26.573  1.00  0.00     0.027 A 
ATOM     12  C   UNL A   1      31.908  29.358  26.417  1.00  0.00     0.002 A 
ATOM     13  C   UNL A   1      33.031  28.662  24.419  1.00  0.00     0.016 A 
ATOM     14  C   UNL A   1      32.722  29.660  25.335  1.00  0.00     0.001 A 
BRANCH  10  15
ATOM     15  N   UNL A   1      30.999  25.804  25.883  1.00  0.00    -0.360 N 
ATOM     16  H   UNL A   1      30.077  25.739  25.544  1.00  0.00     0.166 HD
BRANCH  15  17
ATOM     17  C   UNL A   1      31.480  24.693  26.525  1.00  0.00     0.106 C 
ATOM     18  C   UNL A   1      34.790  20.067  24.564  1.00  0.00     0.106 C 
ATOM     19  C   UNL A   1      33.370  20.305  25.160  1.00  0.00     0.252 C 
ATOM     20  C   UNL A   1      32.910  18.840  25.531  1.00  0.00     0.106 C 
ATOM     21  O   UNL A   1      33.352  21.045  26.817  1.00  0.00    -0.419 OA
ATOM     22  O   UNL A   1      32.446  21.359  23.917  1.00  0.00    -0.419 OA
ATOM     23  C   UNL A   1      32.543  22.363  27.323  1.00  0.00     0.350 C 
ATOM     24  C   UNL A   1      31.537  22.836  24.297  1.00  0.00     0.350 C 
ATOM     25  O   UNL A   1      32.583  22.661  28.512  1.00  0.00    -0.246 OA
ATOM     26  C   UNL A   1      31.651  23.428  26.092  1.00  0.00     0.161 C 
ATOM     27  O   UNL A   1      30.863  23.383  23.438  1.00  0.00    -0.246 OA
ENDBRANCH  15  17
ENDBRANCH  10  15
ENDBRANCH   6   9
ENDBRANCH   4   5
ENDBRANCH   3   4
ENDBRANCH   2   3
ENDBRANCH   1   2
BRANCH   1  28
ATOM     28  C   UNL A   1      38.950  21.407  25.448  1.00  0.00     0.021 C 
BRANCH  28  29
ATOM     29  C   UNL A   1      39.540  20.140  26.609  1.00  0.00     0.116 C 
BRANCH  29  30
ATOM     30  N   UNL A   1      40.692  19.301  26.193  1.00  0.00    -0.352 N 
ATOM     31  C   UNL A   1      41.960  19.651  25.812  1.00  0.00     0.251 C 
ATOM     32  H   UNL A   1      40.516  18.333  26.191  1.00  0.00     0.163 HD
ATOM     33  O   UNL A   1      42.679  18.928  25.140  1.00  0.00    -0.269 OA
BRANCH  31  34
ATOM     34  C   UNL A   1      42.436  20.913  26.351  1.00  0.00     0.039 A 
ATOM     35  C   UNL A   1      42.650  21.119  27.712  1.00  0.00     0.014 A 
ATOM     36  C   UNL A   1      42.744  21.864  25.380  1.00  0.00     0.014 A 
ATOM     37  C   UNL A   1      43.217  22.326  28.106  1.00  0.00     0.010 A 
ATOM     38  C   UNL A   1      43.377  23.016  25.765  1.00  0.00     0.010 A 
ATOM     39  C   UNL A   1      43.583  23.268  27.129  1.00  0.00    -0.014 A 
BRANCH  39  40
ATOM     40  C   UNL A   1      44.122  24.595  27.457  1.00  0.00     0.031 A 
ATOM     41  C   UNL A   1      43.155  25.638  27.942  1.00  0.00     0.074 A 
ATOM     42  C   UNL A   1      45.393  24.887  27.134  1.00  0.00     0.049 A 
ATOM     43  N   UNL A   1      43.320  26.926  28.051  1.00  0.00    -0.248 NA
ATOM     44  C   UNL A   1      41.795  25.172  28.278  1.00  0.00     0.031 C 
ATOM     45  C   UNL A   1      46.366  23.948  26.572  1.00  0.00     0.029 A 
ATOM     46  N   UNL A   1      46.065  26.077  27.186  1.00  0.00    -0.354 N 
ATOM     47  C   UNL A   1      42.077  27.427  28.418  1.00  0.00     0.074 A 
ATOM     48  C   UNL A   1      41.155  26.317  28.451  1.00  0.00     0.031 C 
ATOM     49  C   UNL A   1      47.515  24.602  26.330  1.00  0.00     0.029 A 
ATOM     50  C   UNL A   1      47.342  26.006  26.684  1.00  0.00     0.049 A 
ATOM     51  H   UNL A   1      45.672  26.904  27.548  1.00  0.00     0.167 HD
ATOM     52  C   UNL A   1      41.750  28.698  28.741  1.00  0.00     0.034 A 
ATOM     53  C   UNL A   1      48.254  26.981  26.525  1.00  0.00     0.034 A 
ATOM     54  C   UNL A   1      42.705  29.768  28.755  1.00  0.00     0.049 A 
ATOM     55  C   UNL A   1      47.881  28.377  26.950  1.00  0.00     0.074 A 
ATOM     56  C   UNL A   1      42.527  31.080  29.147  1.00  0.00     0.029 A 
ATOM     57  N   UNL A   1      44.031  29.636  28.367  1.00  0.00    -0.354 N 
ATOM     58  N   UNL A   1      46.741  28.817  27.429  1.00  0.00    -0.248 NA
ATOM     59  C   UNL A   1      48.928  29.400  26.850  1.00  0.00     0.031 C 
ATOM     60  C   UNL A   1      43.745  31.747  28.984  1.00  0.00     0.029 A 
ATOM     61  C   UNL A   1      44.688  30.842  28.518  1.00  0.00     0.049 A 
ATOM     62  H   UNL A   1      44.443  28.807  28.034  1.00  0.00     0.167 HD
ATOM     63  C   UNL A   1      46.948  30.156  27.734  1.00  0.00     0.074 A 
ATOM     64  C   UNL A   1      48.329  30.447  27.399  1.00  0.00     0.031 C 
ATOM     65  C   UNL A   1      46.080  31.071  28.233  1.00  0.00     0.034 A 
BRANCH  52  66
ATOM     66  C   UNL A   1      40.332  28.969  29.170  1.00  0.00     0.023 A 
ATOM     67  C   UNL A   1      39.355  29.257  28.194  1.00  0.00     0.012 A 
ATOM     68  C   UNL A   1      39.955  28.903  30.524  1.00  0.00     0.148 A 
ATOM     69  C   UNL A   1      38.036  29.517  28.560  1.00  0.00     0.002 A 
ATOM     70  C   UNL A   1      38.625  29.111  30.878  1.00  0.00     0.091 A 
ATOM     71  F   UNL A   1      40.900  28.651  31.442  1.00  0.00    -0.205 F 
ATOM     72  C   UNL A   1      37.669  29.432  29.899  1.00  0.00     0.022 A 
BRANCH  70  73
ATOM     73  S   UNL A   1      38.029  28.945  32.563  1.00  0.00     0.127 S 
ATOM     74  O   UNL A   1      38.178  27.508  32.790  1.00  0.00    -0.237 OA
ATOM     75  O   UNL A   1      38.974  29.781  33.303  1.00  0.00    -0.237 OA
ATOM     76  O   UNL A   1      36.656  29.432  32.556  1.00  0.00    -0.744 OA
ENDBRANCH  70  73
ENDBRANCH  52  66
BRANCH  53  77
ATOM     77  C   UNL A   1      49.620  26.663  26.024  1.00  0.00     0.023 A 
ATOM     78  C   UNL A   1      50.501  25.942  26.856  1.00  0.00     0.012 A 
ATOM     79  C   UNL A   1      50.052  27.051  24.742  1.00  0.00     0.148 A 
ATOM     80  C   UNL A   1      51.802  25.658  26.440  1.00  0.00     0.002 A 
ATOM     81  C   UNL A   1      51.331  26.717  24.312  1.00  0.00     0.091 A 
ATOM     82  F   UNL A   1      49.200  27.736  23.966  1.00  0.00    -0.205 F 
ATOM     83  C   UNL A   1      52.215  26.039  25.167  1.00  0.00     0.022 A 
BRANCH  81  84
ATOM     84  S   UNL A   1      51.905  27.055  22.644  1.00  0.00     0.127 S 
ATOM     85  O   UNL A   1      50.736  26.694  21.847  1.00  0.00    -0.237 OA
ATOM     86  O   UNL A   1      52.191  28.489  22.707  1.00  0.00    -0.237 OA
ATOM     87  O   UNL A   1      53.083  26.218  22.461  1.00  0.00    -0.744 OA
ENDBRANCH  81  84
ENDBRANCH  53  77
BRANCH  65  88
ATOM     88  C   UNL A   1      46.613  32.451  28.504  1.00  0.00     0.023 A 
ATOM     89  C   UNL A   1      47.110  32.775  29.781  1.00  0.00     0.012 A 
ATOM     90  C   UNL A   1      46.692  33.397  27.463  1.00  0.00     0.148 A 
ATOM     91  C   UNL A   1      47.648  34.036  30.027  1.00  0.00     0.002 A 
ATOM     92  C   UNL A   1      47.280  34.630  27.702  1.00  0.00     0.091 A 
ATOM     93  F   UNL A   1      46.197  33.068  26.262  1.00  0.00    -0.205 F 
ATOM     94  C   UNL A   1      47.746  34.958  28.986  1.00  0.00     0.022 A 
BRANCH  92  95
ATOM     95  S   UNL A   1      47.547  35.835  26.398  1.00  0.00     0.127 S 
ATOM     96  O   UNL A   1      46.204  36.384  26.223  1.00  0.00    -0.237 OA
ATOM     97  O   UNL A   1      48.507  36.751  27.015  1.00  0.00    -0.237 OA
ATOM     98  O   UNL A   1      48.069  35.089  25.260  1.00  0.00    -0.744 OA
ENDBRANCH  92  95
ENDBRANCH  65  88
ENDBRANCH  39  40
ENDBRANCH  31  34
ENDBRANCH  29  30
ENDBRANCH  28  29
ENDBRANCH   1  28
TORSDOF 18
ENDMDL
