MODEL 1
REMARK VINA RESULT:     -12.3      0.000      0.000
REMARK SMILES O=C(NCCCCCCNC(=O)c1ccc(F)cc1-c1ccc(F)c(Cl)c1)c1ccc(-c2c3nc(c(-c4cccc(S(=O)(=O)[O-])c4F)c4ccc([nH]4)c(-c4cccc(S(=O)(=O)[O-])c4F)c4nc(c(-c5cccc(S(=O)(=O)[O-])c5F)c5ccc2[nH]5)C=C4)C=C3)cc1
REMARK SMILES IDX 5 1 4 2 3 3 1 4 2 5 28 7 29 8 90 9 30 10 89 11 31 12 32 13
REMARK SMILES IDX 33 14 83 15 34 16 88 17 82 18 84 19 35 20 87 21 81 22 80 23
REMARK SMILES IDX 36 25 68 26 48 27 67 28 49 29 52 30 66 31 85 32 50 33 51 34
REMARK SMILES IDX 65 36 86 37 53 38 37 39 38 40 46 41 39 42 41 43 47 44 40 45
REMARK SMILES IDX 42 46 43 47 44 48 45 49 69 50 70 51 78 52 71 53 73 54 79 55
REMARK SMILES IDX 72 56 74 57 75 58 76 59 77 60 54 61 55 62 63 63 56 64 58 65
REMARK SMILES IDX 64 66 57 67 59 68 60 69 61 70 62 71 6 72 7 73 8 74 9 75
REMARK SMILES IDX 10 76 11 77 12 79 13 80 14 81 19 82 15 83 18 84 16 85 17 86
REMARK SMILES IDX 20 87 21 88 27 89 22 90 25 91 23 92 26 93 24 94
REMARK H PARENT 3 6 84 24 52 35 10 78
REMARK Flexibility Score: inf
ROOT
ATOM      1  C   UNL A   1      31.649  30.425  25.863  1.00  0.00     0.021 C 
ENDROOT
BRANCH   1   2
ATOM      2  C   UNL A   1      32.438  30.933  27.062  1.00  0.00     0.116 C 
BRANCH   2   3
ATOM      3  N   UNL A   1      32.585  32.376  27.051  1.00  0.00    -0.352 N 
ATOM      4  O   UNL A   1      33.428  34.363  27.695  1.00  0.00    -0.269 OA
ATOM      5  C   UNL A   1      33.562  33.144  27.635  1.00  0.00     0.251 C 
ATOM      6  H   UNL A   1      31.892  32.872  26.557  1.00  0.00     0.163 HD
BRANCH   5   7
ATOM      7  C   UNL A   1      34.760  32.489  28.205  1.00  0.00     0.039 A 
ATOM      8  C   UNL A   1      35.968  33.186  28.305  1.00  0.00     0.014 A 
ATOM      9  C   UNL A   1      34.664  31.175  28.667  1.00  0.00     0.014 A 
ATOM     10  C   UNL A   1      37.104  32.538  28.775  1.00  0.00     0.010 A 
ATOM     11  C   UNL A   1      35.787  30.550  29.213  1.00  0.00     0.010 A 
ATOM     12  C   UNL A   1      37.015  31.226  29.266  1.00  0.00    -0.014 A 
BRANCH  12  13
ATOM     13  C   UNL A   1      38.173  30.636  29.980  1.00  0.00     0.031 A 
ATOM     14  C   UNL A   1      38.509  31.013  31.391  1.00  0.00     0.074 A 
ATOM     15  C   UNL A   1      38.941  29.757  29.307  1.00  0.00     0.049 A 
ATOM     16  N   UNL A   1      39.496  30.592  32.138  1.00  0.00    -0.248 NA
ATOM     17  C   UNL A   1      37.630  31.991  32.050  1.00  0.00     0.031 C 
ATOM     18  C   UNL A   1      38.717  29.343  27.920  1.00  0.00     0.029 A 
ATOM     19  N   UNL A   1      40.056  29.058  29.686  1.00  0.00    -0.354 N 
ATOM     20  C   UNL A   1      39.377  31.264  33.347  1.00  0.00     0.074 A 
ATOM     21  C   UNL A   1      38.225  32.136  33.228  1.00  0.00     0.031 C 
ATOM     22  C   UNL A   1      39.642  28.440  27.575  1.00  0.00     0.029 A 
ATOM     23  C   UNL A   1      40.561  28.256  28.691  1.00  0.00     0.049 A 
ATOM     24  H   UNL A   1      40.456  29.123  30.584  1.00  0.00     0.167 HD
ATOM     25  C   UNL A   1      40.148  31.152  34.455  1.00  0.00     0.034 A 
ATOM     26  C   UNL A   1      41.652  27.469  28.668  1.00  0.00     0.034 A 
ATOM     27  C   UNL A   1      41.293  30.281  34.553  1.00  0.00     0.049 A 
ATOM     28  C   UNL A   1      42.497  27.372  29.901  1.00  0.00     0.074 A 
ATOM     29  C   UNL A   1      42.134  30.084  35.634  1.00  0.00     0.029 A 
ATOM     30  N   UNL A   1      41.763  29.465  33.533  1.00  0.00    -0.354 N 
ATOM     31  N   UNL A   1      42.328  27.959  31.060  1.00  0.00    -0.248 NA
ATOM     32  C   UNL A   1      43.666  26.485  29.836  1.00  0.00     0.031 C 
ATOM     33  C   UNL A   1      43.123  29.167  35.261  1.00  0.00     0.029 A 
ATOM     34  C   UNL A   1      42.879  28.762  33.958  1.00  0.00     0.049 A 
ATOM     35  H   UNL A   1      41.361  29.394  32.636  1.00  0.00     0.167 HD
ATOM     36  C   UNL A   1      43.346  27.490  31.877  1.00  0.00     0.074 A 
ATOM     37  C   UNL A   1      44.122  26.558  31.080  1.00  0.00     0.031 C 
ATOM     38  C   UNL A   1      43.618  27.808  33.168  1.00  0.00     0.034 A 
BRANCH  25  39
ATOM     39  C   UNL A   1      39.763  31.965  35.666  1.00  0.00     0.023 A 
ATOM     40  C   UNL A   1      40.279  33.269  35.817  1.00  0.00     0.012 A 
ATOM     41  C   UNL A   1      38.845  31.476  36.616  1.00  0.00     0.148 A 
ATOM     42  C   UNL A   1      39.915  34.059  36.907  1.00  0.00     0.002 A 
ATOM     43  C   UNL A   1      38.451  32.286  37.677  1.00  0.00     0.091 A 
ATOM     44  F   UNL A   1      38.379  30.227  36.473  1.00  0.00    -0.205 F 
ATOM     45  C   UNL A   1      38.994  33.572  37.831  1.00  0.00     0.022 A 
BRANCH  43  46
ATOM     46  S   UNL A   1      37.207  31.779  38.871  1.00  0.00     0.127 S 
ATOM     47  O   UNL A   1      37.935  31.913  40.130  1.00  0.00    -0.237 OA
ATOM     48  O   UNL A   1      36.155  32.776  38.666  1.00  0.00    -0.237 OA
ATOM     49  O   UNL A   1      36.832  30.421  38.501  1.00  0.00    -0.744 OA
ENDBRANCH  43  46
ENDBRANCH  25  39
BRANCH  26  50
ATOM     50  C   UNL A   1      41.930  26.661  27.448  1.00  0.00     0.023 A 
ATOM     51  C   UNL A   1      42.618  27.257  26.375  1.00  0.00     0.012 A 
ATOM     52  C   UNL A   1      41.640  25.283  27.404  1.00  0.00     0.148 A 
ATOM     53  C   UNL A   1      43.013  26.494  25.276  1.00  0.00     0.002 A 
ATOM     54  C   UNL A   1      42.089  24.518  26.335  1.00  0.00     0.091 A 
ATOM     55  F   UNL A   1      40.985  24.741  28.441  1.00  0.00    -0.205 F 
ATOM     56  C   UNL A   1      42.764  25.124  25.263  1.00  0.00     0.022 A 
BRANCH  54  57
ATOM     57  S   UNL A   1      41.956  22.727  26.302  1.00  0.00     0.127 S 
ATOM     58  O   UNL A   1      40.509  22.533  26.337  1.00  0.00    -0.237 OA
ATOM     59  O   UNL A   1      42.590  22.406  25.023  1.00  0.00    -0.237 OA
ATOM     60  O   UNL A   1      42.680  22.252  27.474  1.00  0.00    -0.744 OA
ENDBRANCH  54  57
ENDBRANCH  26  50
BRANCH  38  61
ATOM     61  C   UNL A   1      44.784  27.117  33.823  1.00  0.00     0.023 A 
ATOM     62  C   UNL A   1      46.079  27.662  33.714  1.00  0.00     0.012 A 
ATOM     63  C   UNL A   1      44.581  25.970  34.615  1.00  0.00     0.148 A 
ATOM     64  C   UNL A   1      47.157  27.058  34.360  1.00  0.00     0.002 A 
ATOM     65  C   UNL A   1      45.651  25.404  35.296  1.00  0.00     0.091 A 
ATOM     66  F   UNL A   1      43.346  25.451  34.687  1.00  0.00    -0.205 F 
ATOM     67  C   UNL A   1      46.942  25.939  35.160  1.00  0.00     0.022 A 
BRANCH  65  68
ATOM     68  S   UNL A   1      45.445  24.024  36.429  1.00  0.00     0.127 S 
ATOM     69  O   UNL A   1      44.574  24.603  37.449  1.00  0.00    -0.237 OA
ATOM     70  O   UNL A   1      44.806  23.017  35.581  1.00  0.00    -0.237 OA
ATOM     71  O   UNL A   1      46.787  23.671  36.875  1.00  0.00    -0.744 OA
ENDBRANCH  65  68
ENDBRANCH  38  61
ENDBRANCH  12  13
ENDBRANCH   5   7
ENDBRANCH   2   3
ENDBRANCH   1   2
BRANCH   1  72
ATOM     72  C   UNL A   1      31.669  28.907  25.677  1.00  0.00     0.002 C 
BRANCH  72  73
ATOM     73  C   UNL A   1      33.021  28.231  25.918  1.00  0.00     0.002 C 
BRANCH  73  74
ATOM     74  C   UNL A   1      34.086  28.470  24.843  1.00  0.00     0.021 C 
BRANCH  74  75
ATOM     75  C   UNL A   1      33.556  28.955  23.497  1.00  0.00     0.116 C 
BRANCH  75  76
ATOM     76  N   UNL A   1      33.772  27.988  22.434  1.00  0.00    -0.352 N 
ATOM     77  C   UNL A   1      32.966  26.957  22.020  1.00  0.00     0.251 C 
ATOM     78  H   UNL A   1      34.618  28.085  21.940  1.00  0.00     0.163 HD
ATOM     79  O   UNL A   1      33.319  26.210  21.114  1.00  0.00    -0.269 OA
BRANCH  77  80
ATOM     80  C   UNL A   1      31.653  26.763  22.674  1.00  0.00     0.047 A 
ATOM     81  C   UNL A   1      30.656  27.728  22.438  1.00  0.00     0.017 A 
ATOM     82  C   UNL A   1      31.394  25.627  23.471  1.00  0.00    -0.003 A 
ATOM     83  C   UNL A   1      29.409  27.606  23.044  1.00  0.00     0.040 A 
ATOM     84  C   UNL A   1      30.123  25.529  24.068  1.00  0.00     0.048 A 
ATOM     85  C   UNL A   1      29.157  26.511  23.859  1.00  0.00     0.123 A 
ATOM     86  F   UNL A   1      27.960  26.390  24.447  1.00  0.00    -0.207 F 
BRANCH  82  87
ATOM     87  C   UNL A   1      32.373  24.547  23.684  1.00  0.00    -0.016 A 
ATOM     88  C   UNL A   1      32.235  23.294  23.063  1.00  0.00     0.012 A 
ATOM     89  C   UNL A   1      33.479  24.759  24.528  1.00  0.00     0.032 A 
ATOM     90  C   UNL A   1      33.169  22.278  23.287  1.00  0.00     0.041 A 
ATOM     91  C   UNL A   1      34.413  23.743  24.748  1.00  0.00     0.077 A 
ATOM     92  C   UNL A   1      34.252  22.509  24.127  1.00  0.00     0.141 A 
ATOM     93  Cl  UNL A   1      35.757  24.041  25.783  1.00  0.00    -0.081 Cl
ATOM     94  F   UNL A   1      35.139  21.522  24.324  1.00  0.00    -0.205 F 
ENDBRANCH  82  87
ENDBRANCH  77  80
ENDBRANCH  75  76
ENDBRANCH  74  75
ENDBRANCH  73  74
ENDBRANCH  72  73
ENDBRANCH   1  72
TORSDOF 17
ENDMDL
MODEL 2
REMARK VINA RESULT:     -12.2      1.730      2.944
REMARK SMILES O=C(NCCCCCCNC(=O)c1ccc(F)cc1-c1ccc(F)c(Cl)c1)c1ccc(-c2c3nc(c(-c4cccc(S(=O)(=O)[O-])c4F)c4ccc([nH]4)c(-c4cccc(S(=O)(=O)[O-])c4F)c4nc(c(-c5cccc(S(=O)(=O)[O-])c5F)c5ccc2[nH]5)C=C4)C=C3)cc1
REMARK SMILES IDX 5 1 4 2 3 3 1 4 2 5 28 7 29 8 90 9 30 10 89 11 31 12 32 13
REMARK SMILES IDX 33 14 83 15 34 16 88 17 82 18 84 19 35 20 87 21 81 22 80 23
REMARK SMILES IDX 36 25 68 26 48 27 67 28 49 29 52 30 66 31 85 32 50 33 51 34
REMARK SMILES IDX 65 36 86 37 53 38 37 39 38 40 46 41 39 42 41 43 47 44 40 45
REMARK SMILES IDX 42 46 43 47 44 48 45 49 69 50 70 51 78 52 71 53 73 54 79 55
REMARK SMILES IDX 72 56 74 57 75 58 76 59 77 60 54 61 55 62 63 63 56 64 58 65
REMARK SMILES IDX 64 66 57 67 59 68 60 69 61 70 62 71 6 72 7 73 8 74 9 75
REMARK SMILES IDX 10 76 11 77 12 79 13 80 14 81 19 82 15 83 18 84 16 85 17 86
REMARK SMILES IDX 20 87 21 88 27 89 22 90 25 91 23 92 26 93 24 94
REMARK H PARENT 3 6 84 24 52 35 10 78
REMARK Flexibility Score: inf
ROOT
ATOM      1  C   UNL A   1      31.403  32.150  26.643  1.00  0.00     0.021 C 
ENDROOT
BRANCH   1   2
ATOM      2  C   UNL A   1      32.736  32.860  26.839  1.00  0.00     0.116 C 
BRANCH   2   3
ATOM      3  N   UNL A   1      32.587  34.119  27.546  1.00  0.00    -0.352 N 
ATOM      4  O   UNL A   1      32.854  35.562  29.255  1.00  0.00    -0.269 OA
ATOM      5  C   UNL A   1      33.241  34.552  28.673  1.00  0.00     0.251 C 
ATOM      6  H   UNL A   1      31.931  34.747  27.166  1.00  0.00     0.163 HD
BRANCH   5   7
ATOM      7  C   UNL A   1      34.395  33.783  29.187  1.00  0.00     0.039 A 
ATOM      8  C   UNL A   1      35.702  34.205  28.923  1.00  0.00     0.014 A 
ATOM      9  C   UNL A   1      34.166  32.645  29.963  1.00  0.00     0.014 A 
ATOM     10  C   UNL A   1      36.777  33.436  29.351  1.00  0.00     0.010 A 
ATOM     11  C   UNL A   1      35.249  31.916  30.460  1.00  0.00     0.010 A 
ATOM     12  C   UNL A   1      36.561  32.304  30.152  1.00  0.00    -0.014 A 
BRANCH  12  13
ATOM     13  C   UNL A   1      37.717  31.636  30.796  1.00  0.00     0.031 A 
ATOM     14  C   UNL A   1      38.140  31.959  32.196  1.00  0.00     0.074 A 
ATOM     15  C   UNL A   1      38.404  30.734  30.066  1.00  0.00     0.049 A 
ATOM     16  N   UNL A   1      39.138  31.467  32.884  1.00  0.00    -0.248 NA
ATOM     17  C   UNL A   1      37.350  32.966  32.919  1.00  0.00     0.031 C 
ATOM     18  C   UNL A   1      38.091  30.367  28.683  1.00  0.00     0.029 A 
ATOM     19  N   UNL A   1      39.495  29.966  30.375  1.00  0.00    -0.354 N 
ATOM     20  C   UNL A   1      39.114  32.115  34.112  1.00  0.00     0.074 A 
ATOM     21  C   UNL A   1      38.007  33.049  34.069  1.00  0.00     0.031 C 
ATOM     22  C   UNL A   1      38.947  29.424  28.273  1.00  0.00     0.029 A 
ATOM     23  C   UNL A   1      39.907  29.164  29.338  1.00  0.00     0.049 A 
ATOM     24  H   UNL A   1      39.940  29.987  31.253  1.00  0.00     0.167 HD
ATOM     25  C   UNL A   1      39.930  31.934  35.178  1.00  0.00     0.034 A 
ATOM     26  C   UNL A   1      40.951  28.320  29.244  1.00  0.00     0.034 A 
ATOM     27  C   UNL A   1      41.028  31.000  35.201  1.00  0.00     0.049 A 
ATOM     28  C   UNL A   1      41.848  28.147  30.432  1.00  0.00     0.074 A 
ATOM     29  C   UNL A   1      41.908  30.732  36.235  1.00  0.00     0.029 A 
ATOM     30  N   UNL A   1      41.403  30.186  34.141  1.00  0.00    -0.354 N 
ATOM     31  N   UNL A   1      41.767  28.713  31.611  1.00  0.00    -0.248 NA
ATOM     32  C   UNL A   1      42.961  27.201  30.290  1.00  0.00     0.031 C 
ATOM     33  C   UNL A   1      42.826  29.773  35.794  1.00  0.00     0.029 A 
ATOM     34  C   UNL A   1      42.498  29.414  34.495  1.00  0.00     0.049 A 
ATOM     35  H   UNL A   1      40.955  30.159  33.264  1.00  0.00     0.167 HD
ATOM     36  C   UNL A   1      42.795  28.170  32.366  1.00  0.00     0.074 A 
ATOM     37  C   UNL A   1      43.480  27.218  31.512  1.00  0.00     0.031 C 
ATOM     38  C   UNL A   1      43.145  28.441  33.649  1.00  0.00     0.034 A 
BRANCH  25  39
ATOM     39  C   UNL A   1      39.648  32.737  36.424  1.00  0.00     0.023 A 
ATOM     40  C   UNL A   1      40.273  33.988  36.598  1.00  0.00     0.012 A 
ATOM     41  C   UNL A   1      38.721  32.293  37.388  1.00  0.00     0.148 A 
ATOM     42  C   UNL A   1      40.007  34.770  37.722  1.00  0.00     0.002 A 
ATOM     43  C   UNL A   1      38.426  33.098  38.484  1.00  0.00     0.091 A 
ATOM     44  F   UNL A   1      38.150  31.092  37.223  1.00  0.00    -0.205 F 
ATOM     45  C   UNL A   1      39.077  34.330  38.659  1.00  0.00     0.022 A 
BRANCH  43  46
ATOM     46  S   UNL A   1      37.179  32.655  39.701  1.00  0.00     0.127 S 
ATOM     47  O   UNL A   1      37.302  33.751  40.660  1.00  0.00    -0.237 OA
ATOM     48  O   UNL A   1      35.950  32.675  38.908  1.00  0.00    -0.237 OA
ATOM     49  O   UNL A   1      37.557  31.339  40.196  1.00  0.00    -0.744 OA
ENDBRANCH  43  46
ENDBRANCH  25  39
BRANCH  26  50
ATOM     50  C   UNL A   1      41.125  27.529  27.995  1.00  0.00     0.023 A 
ATOM     51  C   UNL A   1      41.749  28.129  26.887  1.00  0.00     0.012 A 
ATOM     52  C   UNL A   1      40.804  26.157  27.948  1.00  0.00     0.148 A 
ATOM     53  C   UNL A   1      42.050  27.378  25.750  1.00  0.00     0.002 A 
ATOM     54  C   UNL A   1      41.160  25.403  26.838  1.00  0.00     0.091 A 
ATOM     55  F   UNL A   1      40.211  25.610  29.019  1.00  0.00    -0.205 F 
ATOM     56  C   UNL A   1      41.772  26.014  25.731  1.00  0.00     0.022 A 
BRANCH  54  57
ATOM     57  S   UNL A   1      40.988  23.615  26.785  1.00  0.00     0.127 S 
ATOM     58  O   UNL A   1      39.560  23.461  26.519  1.00  0.00    -0.237 OA
ATOM     59  O   UNL A   1      41.864  23.266  25.667  1.00  0.00    -0.237 OA
ATOM     60  O   UNL A   1      41.438  23.133  28.083  1.00  0.00    -0.744 OA
ENDBRANCH  54  57
ENDBRANCH  26  50
BRANCH  38  61
ATOM     61  C   UNL A   1      44.302  27.673  34.231  1.00  0.00     0.023 A 
ATOM     62  C   UNL A   1      45.608  28.192  34.144  1.00  0.00     0.012 A 
ATOM     63  C   UNL A   1      44.080  26.473  34.936  1.00  0.00     0.148 A 
ATOM     64  C   UNL A   1      46.679  27.513  34.724  1.00  0.00     0.002 A 
ATOM     65  C   UNL A   1      45.144  25.829  35.554  1.00  0.00     0.091 A 
ATOM     66  F   UNL A   1      42.832  25.981  34.986  1.00  0.00    -0.205 F 
ATOM     67  C   UNL A   1      46.447  26.341  35.440  1.00  0.00     0.022 A 
BRANCH  65  68
ATOM     68  S   UNL A   1      44.917  24.372  36.580  1.00  0.00     0.127 S 
ATOM     69  O   UNL A   1      44.345  23.422  35.627  1.00  0.00    -0.237 OA
ATOM     70  O   UNL A   1      46.286  24.067  36.996  1.00  0.00    -0.237 OA
ATOM     71  O   UNL A   1      44.034  24.781  37.665  1.00  0.00    -0.744 OA
ENDBRANCH  65  68
ENDBRANCH  38  61
ENDBRANCH  12  13
ENDBRANCH   5   7
ENDBRANCH   2   3
ENDBRANCH   1   2
BRANCH   1  72
ATOM     72  C   UNL A   1      31.463  30.627  26.765  1.00  0.00     0.002 C 
BRANCH  72  73
ATOM     73  C   UNL A   1      31.750  29.872  25.464  1.00  0.00     0.002 C 
BRANCH  73  74
ATOM     74  C   UNL A   1      33.222  29.539  25.200  1.00  0.00     0.021 C 
BRANCH  74  75
ATOM     75  C   UNL A   1      33.631  28.101  25.508  1.00  0.00     0.116 C 
BRANCH  75  76
ATOM     76  N   UNL A   1      32.647  27.407  26.322  1.00  0.00    -0.352 N 
ATOM     77  C   UNL A   1      32.040  26.195  26.104  1.00  0.00     0.251 C 
ATOM     78  H   UNL A   1      32.377  27.871  27.146  1.00  0.00     0.163 HD
ATOM     79  O   UNL A   1      31.202  25.765  26.889  1.00  0.00    -0.269 OA
BRANCH  77  80
ATOM     80  C   UNL A   1      32.418  25.404  24.913  1.00  0.00     0.047 A 
ATOM     81  C   UNL A   1      33.477  24.487  25.047  1.00  0.00     0.017 A 
ATOM     82  C   UNL A   1      31.714  25.532  23.697  1.00  0.00    -0.003 A 
ATOM     83  C   UNL A   1      33.888  23.731  23.952  1.00  0.00     0.040 A 
ATOM     84  C   UNL A   1      32.150  24.752  22.608  1.00  0.00     0.048 A 
ATOM     85  C   UNL A   1      33.225  23.876  22.742  1.00  0.00     0.123 A 
ATOM     86  F   UNL A   1      33.618  23.154  21.686  1.00  0.00    -0.207 F 
BRANCH  82  87
ATOM     87  C   UNL A   1      30.548  26.416  23.525  1.00  0.00    -0.016 A 
ATOM     88  C   UNL A   1      29.276  26.061  24.008  1.00  0.00     0.012 A 
ATOM     89  C   UNL A   1      30.693  27.650  22.863  1.00  0.00     0.032 A 
ATOM     90  C   UNL A   1      28.180  26.909  23.826  1.00  0.00     0.041 A 
ATOM     91  C   UNL A   1      29.597  28.497  22.684  1.00  0.00     0.077 A 
ATOM     92  C   UNL A   1      28.347  28.121  23.165  1.00  0.00     0.141 A 
ATOM     93  Cl  UNL A   1      29.814  30.001  21.874  1.00  0.00    -0.081 Cl
ATOM     94  F   UNL A   1      27.282  28.922  23.006  1.00  0.00    -0.205 F 
ENDBRANCH  82  87
ENDBRANCH  77  80
ENDBRANCH  75  76
ENDBRANCH  74  75
ENDBRANCH  73  74
ENDBRANCH  72  73
ENDBRANCH   1  72
TORSDOF 17
ENDMDL
MODEL 3
REMARK VINA RESULT:     -12.2      2.030      8.135
REMARK SMILES O=C(NCCCCCCNC(=O)c1ccc(F)cc1-c1ccc(F)c(Cl)c1)c1ccc(-c2c3nc(c(-c4cccc(S(=O)(=O)[O-])c4F)c4ccc([nH]4)c(-c4cccc(S(=O)(=O)[O-])c4F)c4nc(c(-c5cccc(S(=O)(=O)[O-])c5F)c5ccc2[nH]5)C=C4)C=C3)cc1
REMARK SMILES IDX 5 1 4 2 3 3 1 4 2 5 28 7 29 8 90 9 30 10 89 11 31 12 32 13
REMARK SMILES IDX 33 14 83 15 34 16 88 17 82 18 84 19 35 20 87 21 81 22 80 23
REMARK SMILES IDX 36 25 68 26 48 27 67 28 49 29 52 30 66 31 85 32 50 33 51 34
REMARK SMILES IDX 65 36 86 37 53 38 37 39 38 40 46 41 39 42 41 43 47 44 40 45
REMARK SMILES IDX 42 46 43 47 44 48 45 49 69 50 70 51 78 52 71 53 73 54 79 55
REMARK SMILES IDX 72 56 74 57 75 58 76 59 77 60 54 61 55 62 63 63 56 64 58 65
REMARK SMILES IDX 64 66 57 67 59 68 60 69 61 70 62 71 6 72 7 73 8 74 9 75
REMARK SMILES IDX 10 76 11 77 12 79 13 80 14 81 19 82 15 83 18 84 16 85 17 86
REMARK SMILES IDX 20 87 21 88 27 89 22 90 25 91 23 92 26 93 24 94
REMARK H PARENT 3 6 84 24 52 35 10 78
REMARK Flexibility Score: inf
ROOT
ATOM      1  C   UNL A   1      34.031  29.005  23.550  1.00  0.00     0.021 C 
ENDROOT
BRANCH   1   2
ATOM      2  C   UNL A   1      33.562  28.902  24.995  1.00  0.00     0.116 C 
BRANCH   2   3
ATOM      3  N   UNL A   1      32.855  30.093  25.428  1.00  0.00    -0.352 N 
ATOM      4  O   UNL A   1      32.232  31.704  26.874  1.00  0.00    -0.269 OA
ATOM      5  C   UNL A   1      33.049  30.841  26.562  1.00  0.00     0.251 C 
ATOM      6  H   UNL A   1      32.140  30.407  24.827  1.00  0.00     0.163 HD
BRANCH   5   7
ATOM      7  C   UNL A   1      34.234  30.585  27.410  1.00  0.00     0.039 A 
ATOM      8  C   UNL A   1      34.439  29.325  27.980  1.00  0.00     0.014 A 
ATOM      9  C   UNL A   1      35.161  31.610  27.614  1.00  0.00     0.014 A 
ATOM     10  C   UNL A   1      35.517  29.119  28.833  1.00  0.00     0.010 A 
ATOM     11  C   UNL A   1      36.286  31.378  28.407  1.00  0.00     0.010 A 
ATOM     12  C   UNL A   1      36.469  30.132  29.025  1.00  0.00    -0.014 A 
BRANCH  12  13
ATOM     13  C   UNL A   1      37.730  29.820  29.740  1.00  0.00     0.031 A 
ATOM     14  C   UNL A   1      38.773  28.920  29.150  1.00  0.00     0.074 A 
ATOM     15  C   UNL A   1      37.904  30.356  30.964  1.00  0.00     0.049 A 
ATOM     16  N   UNL A   1      39.916  28.546  29.663  1.00  0.00    -0.248 NA
ATOM     17  C   UNL A   1      38.500  28.363  27.817  1.00  0.00     0.031 C 
ATOM     18  C   UNL A   1      36.936  31.223  31.641  1.00  0.00     0.029 A 
ATOM     19  N   UNL A   1      38.940  30.256  31.855  1.00  0.00    -0.354 N 
ATOM     20  C   UNL A   1      40.494  27.694  28.732  1.00  0.00     0.074 A 
ATOM     21  C   UNL A   1      39.565  27.594  27.625  1.00  0.00     0.031 C 
ATOM     22  C   UNL A   1      37.436  31.602  32.823  1.00  0.00     0.029 A 
ATOM     23  C   UNL A   1      38.728  30.957  33.017  1.00  0.00     0.049 A 
ATOM     24  H   UNL A   1      39.755  29.733  31.678  1.00  0.00     0.167 HD
ATOM     25  C   UNL A   1      41.693  27.067  28.793  1.00  0.00     0.034 A 
ATOM     26  C   UNL A   1      39.481  31.062  34.128  1.00  0.00     0.034 A 
ATOM     27  C   UNL A   1      42.604  27.176  29.905  1.00  0.00     0.049 A 
ATOM     28  C   UNL A   1      40.798  30.349  34.176  1.00  0.00     0.074 A 
ATOM     29  C   UNL A   1      43.848  26.592  30.060  1.00  0.00     0.029 A 
ATOM     30  N   UNL A   1      42.368  27.915  31.057  1.00  0.00    -0.354 N 
ATOM     31  N   UNL A   1      41.362  29.605  33.256  1.00  0.00    -0.248 NA
ATOM     32  C   UNL A   1      41.595  30.508  35.398  1.00  0.00     0.031 C 
ATOM     33  C   UNL A   1      44.355  26.958  31.311  1.00  0.00     0.029 A 
ATOM     34  C   UNL A   1      43.443  27.802  31.925  1.00  0.00     0.049 A 
ATOM     35  H   UNL A   1      41.555  28.443  31.232  1.00  0.00     0.167 HD
ATOM     36  C   UNL A   1      42.596  29.233  33.770  1.00  0.00     0.074 A 
ATOM     37  C   UNL A   1      42.701  29.846  35.081  1.00  0.00     0.031 C 
ATOM     38  C   UNL A   1      43.551  28.450  33.210  1.00  0.00     0.034 A 
BRANCH  25  39
ATOM     39  C   UNL A   1      42.111  26.231  27.608  1.00  0.00     0.023 A 
ATOM     40  C   UNL A   1      42.877  26.820  26.581  1.00  0.00     0.012 A 
ATOM     41  C   UNL A   1      41.809  24.857  27.537  1.00  0.00     0.148 A 
ATOM     42  C   UNL A   1      43.308  26.066  25.489  1.00  0.00     0.002 A 
ATOM     43  C   UNL A   1      42.280  24.101  26.467  1.00  0.00     0.091 A 
ATOM     44  F   UNL A   1      41.060  24.314  28.507  1.00  0.00    -0.205 F 
ATOM     45  C   UNL A   1      43.018  24.706  25.438  1.00  0.00     0.022 A 
BRANCH  43  46
ATOM     46  S   UNL A   1      42.029  22.324  26.355  1.00  0.00     0.127 S 
ATOM     47  O   UNL A   1      42.588  21.867  27.625  1.00  0.00    -0.237 OA
ATOM     48  O   UNL A   1      40.572  22.221  26.259  1.00  0.00    -0.237 OA
ATOM     49  O   UNL A   1      42.745  21.897  25.161  1.00  0.00    -0.744 OA
ENDBRANCH  43  46
ENDBRANCH  25  39
BRANCH  26  50
ATOM     50  C   UNL A   1      39.018  31.949  35.229  1.00  0.00     0.023 A 
ATOM     51  C   UNL A   1      38.155  31.428  36.210  1.00  0.00     0.012 A 
ATOM     52  C   UNL A   1      39.533  33.252  35.384  1.00  0.00     0.148 A 
ATOM     53  C   UNL A   1      37.810  32.188  37.328  1.00  0.00     0.002 A 
ATOM     54  C   UNL A   1      39.233  33.981  36.528  1.00  0.00     0.091 A 
ATOM     55  F   UNL A   1      40.354  33.724  34.435  1.00  0.00    -0.205 F 
ATOM     56  C   UNL A   1      38.361  33.456  37.495  1.00  0.00     0.022 A 
BRANCH  54  57
ATOM     57  S   UNL A   1      40.016  35.552  36.908  1.00  0.00     0.127 S 
ATOM     58  O   UNL A   1      39.433  35.870  38.209  1.00  0.00    -0.237 OA
ATOM     59  O   UNL A   1      41.430  35.178  36.941  1.00  0.00    -0.237 OA
ATOM     60  O   UNL A   1      39.652  36.452  35.822  1.00  0.00    -0.744 OA
ENDBRANCH  54  57
ENDBRANCH  26  50
BRANCH  38  61
ATOM     61  C   UNL A   1      44.819  28.234  33.992  1.00  0.00     0.023 A 
ATOM     62  C   UNL A   1      45.884  29.149  33.877  1.00  0.00     0.012 A 
ATOM     63  C   UNL A   1      44.922  27.164  34.904  1.00  0.00     0.148 A 
ATOM     64  C   UNL A   1      47.042  28.986  34.636  1.00  0.00     0.002 A 
ATOM     65  C   UNL A   1      46.059  27.037  35.693  1.00  0.00     0.091 A 
ATOM     66  F   UNL A   1      43.909  26.288  34.981  1.00  0.00    -0.205 F 
ATOM     67  C   UNL A   1      47.125  27.940  35.552  1.00  0.00     0.022 A 
BRANCH  65  68
ATOM     68  S   UNL A   1      46.204  25.781  36.969  1.00  0.00     0.127 S 
ATOM     69  O   UNL A   1      46.271  24.555  36.174  1.00  0.00    -0.237 OA
ATOM     70  O   UNL A   1      47.458  26.149  37.627  1.00  0.00    -0.237 OA
ATOM     71  O   UNL A   1      45.020  25.922  37.805  1.00  0.00    -0.744 OA
ENDBRANCH  65  68
ENDBRANCH  38  61
ENDBRANCH  12  13
ENDBRANCH   5   7
ENDBRANCH   2   3
ENDBRANCH   1   2
BRANCH   1  72
ATOM     72  C   UNL A   1      33.713  27.786  22.683  1.00  0.00     0.002 C 
BRANCH  72  73
ATOM     73  C   UNL A   1      32.229  27.557  22.387  1.00  0.00     0.002 C 
BRANCH  73  74
ATOM     74  C   UNL A   1      31.883  26.224  21.714  1.00  0.00     0.021 C 
BRANCH  74  75
ATOM     75  C   UNL A   1      33.008  25.194  21.692  1.00  0.00     0.116 C 
BRANCH  75  76
ATOM     76  N   UNL A   1      32.529  23.842  21.929  1.00  0.00    -0.352 N 
ATOM     77  C   UNL A   1      32.993  22.899  22.811  1.00  0.00     0.251 C 
ATOM     78  H   UNL A   1      31.763  23.564  21.378  1.00  0.00     0.163 HD
ATOM     79  O   UNL A   1      32.482  21.785  22.862  1.00  0.00    -0.269 OA
BRANCH  77  80
ATOM     80  C   UNL A   1      34.112  23.246  23.714  1.00  0.00     0.047 A 
ATOM     81  C   UNL A   1      35.417  22.944  23.283  1.00  0.00     0.017 A 
ATOM     82  C   UNL A   1      33.882  23.896  24.946  1.00  0.00    -0.003 A 
ATOM     83  C   UNL A   1      36.506  23.229  24.102  1.00  0.00     0.040 A 
ATOM     84  C   UNL A   1      35.003  24.175  25.751  1.00  0.00     0.048 A 
ATOM     85  C   UNL A   1      36.287  23.836  25.331  1.00  0.00     0.123 A 
ATOM     86  F   UNL A   1      37.331  24.110  26.124  1.00  0.00    -0.207 F 
BRANCH  82  87
ATOM     87  C   UNL A   1      32.546  24.307  25.408  1.00  0.00    -0.016 A 
ATOM     88  C   UNL A   1      32.079  25.622  25.238  1.00  0.00     0.012 A 
ATOM     89  C   UNL A   1      31.702  23.373  26.038  1.00  0.00     0.032 A 
ATOM     90  C   UNL A   1      30.811  25.996  25.692  1.00  0.00     0.041 A 
ATOM     91  C   UNL A   1      30.435  23.748  26.490  1.00  0.00     0.077 A 
ATOM     92  C   UNL A   1      29.997  25.057  26.316  1.00  0.00     0.141 A 
ATOM     93  Cl  UNL A   1      29.428  22.576  27.252  1.00  0.00    -0.081 Cl
ATOM     94  F   UNL A   1      28.782  25.435  26.740  1.00  0.00    -0.205 F 
ENDBRANCH  82  87
ENDBRANCH  77  80
ENDBRANCH  75  76
ENDBRANCH  74  75
ENDBRANCH  73  74
ENDBRANCH  72  73
ENDBRANCH   1  72
TORSDOF 17
ENDMDL
