MODEL 1
REMARK VINA RESULT:     -11.0      0.000      0.000
REMARK SMILES C[NH+](C)CC[NH2+][C@@H](C(=O)NCCCCCCNC(=O)c1ccc(-c2c3nc(c(-c4cccc(S(=O)(=O)[O-])c4F)c4ccc([nH]4)c(-c4cccc(S(=O)(=O)[O-])c4F)c4nc(c(-c5cccc(S(=O)(=O)[O-])c5F)c5ccc2[nH]5)C=C4)C=C3)cc1)c1cccc(C2CC2)c1
REMARK SMILES IDX 13 1 12 2 11 3 10 4 8 5 9 6 7 8 6 9 5 12 4 13 2 14 1 15 3 16
REMARK SMILES IDX 83 18 84 19 91 20 85 21 87 22 86 23 88 24 89 25 90 26 14 27
REMARK SMILES IDX 15 28 16 29 17 30 18 31 19 33 20 34 21 35 82 36 22 37 81 38
REMARK SMILES IDX 23 39 24 40 25 41 75 42 26 43 80 44 74 45 76 46 27 47 79 48
REMARK SMILES IDX 73 49 72 50 28 52 60 53 40 54 59 55 41 56 44 57 58 58 77 59
REMARK SMILES IDX 42 60 43 61 57 63 78 64 45 65 29 66 30 67 38 68 31 69 33 70
REMARK SMILES IDX 39 71 32 72 34 73 35 74 36 75 37 76 61 77 62 78 70 79 63 80
REMARK SMILES IDX 65 81 71 82 64 83 66 84 67 85 68 86 69 87 46 88 47 89 55 90
REMARK SMILES IDX 48 91 50 92 56 93 49 94 51 95 52 96 53 97 54 98
REMARK H PARENT 10 7 6 10 6 11 2 17 17 32 76 51 44 62
REMARK Flexibility Score: inf
ROOT
ATOM      1  C   UNL A   1      32.454  29.900  27.056  1.00  0.00     0.002 C 
ENDROOT
BRANCH   1   2
ATOM      2  C   UNL A   1      31.829  28.589  27.537  1.00  0.00     0.021 C 
BRANCH   2   3
ATOM      3  C   UNL A   1      32.154  27.354  26.678  1.00  0.00     0.116 C 
BRANCH   3   4
ATOM      4  N   UNL A   1      31.130  26.346  26.877  1.00  0.00    -0.351 N 
ATOM      5  C   UNL A   1      30.333  25.701  25.973  1.00  0.00     0.283 C 
ATOM      6  O   UNL A   1      29.253  25.310  26.433  1.00  0.00    -0.268 OA
ATOM      7  H   UNL A   1      30.985  26.085  27.815  1.00  0.00     0.163 HD
BRANCH   5   8
ATOM      8  C   UNL A   1      30.788  25.427  24.489  1.00  0.00     0.304 C 
BRANCH   8   9
ATOM      9  N   UNL A   1      32.098  24.736  24.366  1.00  0.00    -0.328 N 
ATOM     10  H   UNL A   1      32.792  25.442  24.121  1.00  0.00     0.347 HD
ATOM     11  H   UNL A   1      32.234  24.281  25.269  1.00  0.00     0.347 HD
BRANCH   9  12
ATOM     12  C   UNL A   1      32.209  23.668  23.400  1.00  0.00     0.323 C 
BRANCH  12  13
ATOM     13  C   UNL A   1      32.726  22.329  23.981  1.00  0.00     0.323 C 
BRANCH  13  14
ATOM     14  N   UNL A   1      33.859  22.352  24.926  1.00  0.00    -0.335 N 
ATOM     15  C   UNL A   1      33.714  21.476  26.079  1.00  0.00     0.332 C 
ATOM     16  C   UNL A   1      35.167  22.196  24.300  1.00  0.00     0.332 C 
ATOM     17  H   UNL A   1      33.820  23.303  25.290  1.00  0.00     0.347 HD
ENDBRANCH  13  14
ENDBRANCH  12  13
ENDBRANCH   9  12
ENDBRANCH   8   9
BRANCH   8  18
ATOM     18  C   UNL A   1      30.974  26.768  23.750  1.00  0.00     0.019 A 
ATOM     19  C   UNL A   1      32.221  27.365  23.563  1.00  0.00     0.010 A 
ATOM     20  C   UNL A   1      29.827  27.481  23.325  1.00  0.00     0.014 A 
ATOM     21  C   UNL A   1      32.298  28.635  22.981  1.00  0.00     0.001 A 
ATOM     22  C   UNL A   1      29.862  28.768  22.778  1.00  0.00    -0.044 A 
ATOM     23  C   UNL A   1      31.136  29.325  22.607  1.00  0.00     0.004 A 
BRANCH  22  24
ATOM     24  C   UNL A   1      28.602  29.534  22.421  1.00  0.00     0.019 C 
ATOM     25  C   UNL A   1      27.276  29.337  23.126  1.00  0.00     0.009 C 
ATOM     26  C   UNL A   1      28.088  30.565  23.405  1.00  0.00     0.009 C 
ENDBRANCH  22  24
ENDBRANCH   8  18
ENDBRANCH   5   8
ENDBRANCH   3   4
ENDBRANCH   2   3
ENDBRANCH   1   2
BRANCH   1  27
ATOM     27  C   UNL A   1      31.560  30.741  26.151  1.00  0.00     0.002 C 
BRANCH  27  28
ATOM     28  C   UNL A   1      31.471  32.225  26.522  1.00  0.00     0.021 C 
BRANCH  28  29
ATOM     29  C   UNL A   1      32.683  32.783  27.264  1.00  0.00     0.116 C 
BRANCH  29  30
ATOM     30  N   UNL A   1      32.502  34.179  27.626  1.00  0.00    -0.352 N 
ATOM     31  C   UNL A   1      33.070  34.886  28.659  1.00  0.00     0.251 C 
ATOM     32  H   UNL A   1      31.887  34.690  27.053  1.00  0.00     0.163 HD
ATOM     33  O   UNL A   1      32.633  35.991  28.962  1.00  0.00    -0.269 OA
BRANCH  31  34
ATOM     34  C   UNL A   1      34.206  34.304  29.406  1.00  0.00     0.039 A 
ATOM     35  C   UNL A   1      33.954  33.598  30.583  1.00  0.00     0.014 A 
ATOM     36  C   UNL A   1      35.517  34.468  28.948  1.00  0.00     0.014 A 
ATOM     37  C   UNL A   1      35.015  33.015  31.280  1.00  0.00     0.010 A 
ATOM     38  C   UNL A   1      36.564  33.829  29.605  1.00  0.00     0.010 A 
ATOM     39  C   UNL A   1      36.327  33.106  30.784  1.00  0.00    -0.014 A 
BRANCH  39  40
ATOM     40  C   UNL A   1      37.461  32.454  31.486  1.00  0.00     0.031 A 
ATOM     41  C   UNL A   1      38.207  31.321  30.834  1.00  0.00     0.074 A 
ATOM     42  C   UNL A   1      37.770  32.829  32.743  1.00  0.00     0.049 A 
ATOM     43  N   UNL A   1      39.210  30.619  31.298  1.00  0.00    -0.248 NA
ATOM     44  C   UNL A   1      37.749  30.901  29.500  1.00  0.00     0.031 C 
ATOM     45  C   UNL A   1      37.071  33.861  33.513  1.00  0.00     0.029 A 
ATOM     46  N   UNL A   1      38.738  32.373  33.602  1.00  0.00    -0.354 N 
ATOM     47  C   UNL A   1      39.475  29.654  30.334  1.00  0.00     0.074 A 
ATOM     48  C   UNL A   1      38.508  29.838  29.275  1.00  0.00     0.031 C 
ATOM     49  C   UNL A   1      37.644  33.970  34.722  1.00  0.00     0.029 A 
ATOM     50  C   UNL A   1      38.732  33.002  34.824  1.00  0.00     0.049 A 
ATOM     51  H   UNL A   1      39.377  31.663  33.365  1.00  0.00     0.167 HD
ATOM     52  C   UNL A   1      40.454  28.717  30.317  1.00  0.00     0.034 A 
ATOM     53  C   UNL A   1      39.520  32.824  35.903  1.00  0.00     0.034 A 
ATOM     54  C   UNL A   1      41.446  28.572  31.349  1.00  0.00     0.049 A 
ATOM     55  C   UNL A   1      40.628  31.808  35.840  1.00  0.00     0.074 A 
ATOM     56  C   UNL A   1      42.544  27.731  31.375  1.00  0.00     0.029 A 
ATOM     57  N   UNL A   1      41.454  29.277  32.541  1.00  0.00    -0.354 N 
ATOM     58  N   UNL A   1      40.977  31.028  34.847  1.00  0.00    -0.248 NA
ATOM     59  C   UNL A   1      41.474  31.676  37.035  1.00  0.00     0.031 C 
ATOM     60  C   UNL A   1      43.203  27.912  32.596  1.00  0.00     0.029 A 
ATOM     61  C   UNL A   1      42.527  28.881  33.320  1.00  0.00     0.049 A 
ATOM     62  H   UNL A   1      40.792  29.960  32.799  1.00  0.00     0.167 HD
ATOM     63  C   UNL A   1      42.105  30.340  35.280  1.00  0.00     0.074 A 
ATOM     64  C   UNL A   1      42.391  30.811  36.620  1.00  0.00     0.031 C 
ATOM     65  C   UNL A   1      42.831  29.394  34.632  1.00  0.00     0.034 A 
BRANCH  52  66
ATOM     66  C   UNL A   1      40.528  27.809  29.117  1.00  0.00     0.023 A 
ATOM     67  C   UNL A   1      39.670  26.693  29.032  1.00  0.00     0.012 A 
ATOM     68  C   UNL A   1      41.415  28.077  28.055  1.00  0.00     0.148 A 
ATOM     69  C   UNL A   1      39.722  25.836  27.934  1.00  0.00     0.002 A 
ATOM     70  C   UNL A   1      41.430  27.243  26.943  1.00  0.00     0.091 A 
ATOM     71  F   UNL A   1      42.242  29.127  28.161  1.00  0.00    -0.205 F 
ATOM     72  C   UNL A   1      40.595  26.115  26.886  1.00  0.00     0.022 A 
BRANCH  70  73
ATOM     73  S   UNL A   1      42.463  27.568  25.509  1.00  0.00     0.127 S 
ATOM     74  O   UNL A   1      41.906  28.830  25.025  1.00  0.00    -0.237 OA
ATOM     75  O   UNL A   1      43.795  27.678  26.104  1.00  0.00    -0.237 OA
ATOM     76  O   UNL A   1      42.288  26.422  24.627  1.00  0.00    -0.744 OA
ENDBRANCH  70  73
ENDBRANCH  52  66
BRANCH  53  77
ATOM     77  C   UNL A   1      39.349  33.696  37.100  1.00  0.00     0.023 A 
ATOM     78  C   UNL A   1      39.795  35.031  37.042  1.00  0.00     0.012 A 
ATOM     79  C   UNL A   1      38.720  33.232  38.272  1.00  0.00     0.148 A 
ATOM     80  C   UNL A   1      39.645  35.881  38.138  1.00  0.00     0.002 A 
ATOM     81  C   UNL A   1      38.526  34.100  39.341  1.00  0.00     0.091 A 
ATOM     82  F   UNL A   1      38.310  31.957  38.310  1.00  0.00    -0.205 F 
ATOM     83  C   UNL A   1      39.003  35.418  39.283  1.00  0.00     0.022 A 
BRANCH  81  84
ATOM     84  S   UNL A   1      37.596  33.632  40.806  1.00  0.00     0.127 S 
ATOM     85  O   UNL A   1      37.446  34.915  41.488  1.00  0.00    -0.237 OA
ATOM     86  O   UNL A   1      36.365  33.096  40.223  1.00  0.00    -0.237 OA
ATOM     87  O   UNL A   1      38.415  32.642  41.493  1.00  0.00    -0.744 OA
ENDBRANCH  81  84
ENDBRANCH  53  77
BRANCH  65  88
ATOM     88  C   UNL A   1      44.027  28.823  35.348  1.00  0.00     0.023 A 
ATOM     89  C   UNL A   1      45.300  29.396  35.150  1.00  0.00     0.012 A 
ATOM     90  C   UNL A   1      43.879  27.767  36.267  1.00  0.00     0.148 A 
ATOM     91  C   UNL A   1      46.413  28.902  35.830  1.00  0.00     0.002 A 
ATOM     92  C   UNL A   1      44.984  27.312  36.979  1.00  0.00     0.091 A 
ATOM     93  F   UNL A   1      42.665  27.221  36.428  1.00  0.00    -0.205 F 
ATOM     94  C   UNL A   1      46.253  27.869  36.752  1.00  0.00     0.022 A 
BRANCH  92  95
ATOM     95  S   UNL A   1      44.852  26.054  38.255  1.00  0.00     0.127 S 
ATOM     96  O   UNL A   1      46.183  26.101  38.858  1.00  0.00    -0.237 OA
ATOM     97  O   UNL A   1      43.780  26.579  39.101  1.00  0.00    -0.237 OA
ATOM     98  O   UNL A   1      44.520  24.817  37.562  1.00  0.00    -0.744 OA
ENDBRANCH  92  95
ENDBRANCH  65  88
ENDBRANCH  39  40
ENDBRANCH  31  34
ENDBRANCH  29  30
ENDBRANCH  28  29
ENDBRANCH  27  28
ENDBRANCH   1  27
TORSDOF 22
ENDMDL
MODEL 2
REMARK VINA RESULT:     -10.6      2.369      8.618
REMARK SMILES C[NH+](C)CC[NH2+][C@@H](C(=O)NCCCCCCNC(=O)c1ccc(-c2c3nc(c(-c4cccc(S(=O)(=O)[O-])c4F)c4ccc([nH]4)c(-c4cccc(S(=O)(=O)[O-])c4F)c4nc(c(-c5cccc(S(=O)(=O)[O-])c5F)c5ccc2[nH]5)C=C4)C=C3)cc1)c1cccc(C2CC2)c1
REMARK SMILES IDX 13 1 12 2 11 3 10 4 8 5 9 6 7 8 6 9 5 12 4 13 2 14 1 15 3 16
REMARK SMILES IDX 83 18 84 19 91 20 85 21 87 22 86 23 88 24 89 25 90 26 14 27
REMARK SMILES IDX 15 28 16 29 17 30 18 31 19 33 20 34 21 35 82 36 22 37 81 38
REMARK SMILES IDX 23 39 24 40 25 41 75 42 26 43 80 44 74 45 76 46 27 47 79 48
REMARK SMILES IDX 73 49 72 50 28 52 60 53 40 54 59 55 41 56 44 57 58 58 77 59
REMARK SMILES IDX 42 60 43 61 57 63 78 64 45 65 29 66 30 67 38 68 31 69 33 70
REMARK SMILES IDX 39 71 32 72 34 73 35 74 36 75 37 76 61 77 62 78 70 79 63 80
REMARK SMILES IDX 65 81 71 82 64 83 66 84 67 85 68 86 69 87 46 88 47 89 55 90
REMARK SMILES IDX 48 91 50 92 56 93 49 94 51 95 52 96 53 97 54 98
REMARK H PARENT 10 7 6 10 6 11 2 17 17 32 76 51 44 62
REMARK Flexibility Score: inf
ROOT
ATOM      1  C   UNL A   1      33.279  29.040  23.900  1.00  0.00     0.002 C 
ENDROOT
BRANCH   1   2
ATOM      2  C   UNL A   1      33.637  28.535  22.501  1.00  0.00     0.021 C 
BRANCH   2   3
ATOM      3  C   UNL A   1      33.712  27.005  22.356  1.00  0.00     0.116 C 
BRANCH   3   4
ATOM      4  N   UNL A   1      34.099  26.420  23.625  1.00  0.00    -0.351 N 
ATOM      5  C   UNL A   1      33.985  25.136  24.081  1.00  0.00     0.283 C 
ATOM      6  O   UNL A   1      33.909  25.037  25.312  1.00  0.00    -0.268 OA
ATOM      7  H   UNL A   1      34.509  27.049  24.262  1.00  0.00     0.163 HD
BRANCH   5   8
ATOM      8  C   UNL A   1      34.013  23.890  23.116  1.00  0.00     0.304 C 
BRANCH   8   9
ATOM      9  N   UNL A   1      32.671  23.407  22.699  1.00  0.00    -0.328 N 
ATOM     10  H   UNL A   1      32.702  23.250  21.692  1.00  0.00     0.347 HD
ATOM     11  H   UNL A   1      32.509  22.576  23.269  1.00  0.00     0.347 HD
BRANCH   9  12
ATOM     12  C   UNL A   1      31.535  24.259  22.968  1.00  0.00     0.323 C 
BRANCH  12  13
ATOM     13  C   UNL A   1      30.647  23.790  24.147  1.00  0.00     0.323 C 
BRANCH  13  14
ATOM     14  N   UNL A   1      30.992  24.218  25.515  1.00  0.00    -0.335 N 
ATOM     15  C   UNL A   1      30.303  25.414  25.977  1.00  0.00     0.332 C 
ATOM     16  C   UNL A   1      30.936  23.153  26.510  1.00  0.00     0.332 C 
ATOM     17  H   UNL A   1      31.972  24.479  25.422  1.00  0.00     0.347 HD
ENDBRANCH  13  14
ENDBRANCH  12  13
ENDBRANCH   9  12
ENDBRANCH   8   9
BRANCH   8  18
ATOM     18  C   UNL A   1      34.660  22.691  23.840  1.00  0.00     0.019 A 
ATOM     19  C   UNL A   1      36.034  22.587  24.056  1.00  0.00     0.010 A 
ATOM     20  C   UNL A   1      33.845  21.598  24.217  1.00  0.00     0.014 A 
ATOM     21  C   UNL A   1      36.557  21.419  24.621  1.00  0.00     0.001 A 
ATOM     22  C   UNL A   1      34.335  20.399  24.745  1.00  0.00    -0.044 A 
ATOM     23  C   UNL A   1      35.720  20.342  24.948  1.00  0.00     0.004 A 
BRANCH  22  24
ATOM     24  C   UNL A   1      33.436  19.216  25.051  1.00  0.00     0.019 C 
ATOM     25  C   UNL A   1      32.649  18.470  23.994  1.00  0.00     0.009 C 
ATOM     26  C   UNL A   1      33.875  17.843  24.585  1.00  0.00     0.009 C 
ENDBRANCH  22  24
ENDBRANCH   8  18
ENDBRANCH   5   8
ENDBRANCH   3   4
ENDBRANCH   2   3
ENDBRANCH   1   2
BRANCH   1  27
ATOM     27  C   UNL A   1      31.788  29.253  24.142  1.00  0.00     0.002 C 
BRANCH  27  28
ATOM     28  C   UNL A   1      31.396  29.517  25.599  1.00  0.00     0.021 C 
BRANCH  28  29
ATOM     29  C   UNL A   1      32.522  30.036  26.490  1.00  0.00     0.116 C 
BRANCH  29  30
ATOM     30  N   UNL A   1      32.476  31.481  26.639  1.00  0.00    -0.352 N 
ATOM     31  C   UNL A   1      33.267  32.298  27.410  1.00  0.00     0.251 C 
ATOM     32  H   UNL A   1      31.780  31.939  26.115  1.00  0.00     0.163 HD
ATOM     33  O   UNL A   1      32.945  33.466  27.600  1.00  0.00    -0.269 OA
BRANCH  31  34
ATOM     34  C   UNL A   1      34.504  31.759  28.016  1.00  0.00     0.039 A 
ATOM     35  C   UNL A   1      35.628  32.581  28.109  1.00  0.00     0.014 A 
ATOM     36  C   UNL A   1      34.553  30.441  28.478  1.00  0.00     0.014 A 
ATOM     37  C   UNL A   1      36.792  32.094  28.709  1.00  0.00     0.010 A 
ATOM     38  C   UNL A   1      35.689  29.981  29.137  1.00  0.00     0.010 A 
ATOM     39  C   UNL A   1      36.825  30.797  29.249  1.00  0.00    -0.014 A 
BRANCH  39  40
ATOM     40  C   UNL A   1      38.037  30.279  29.932  1.00  0.00     0.031 A 
ATOM     41  C   UNL A   1      38.360  30.710  31.338  1.00  0.00     0.074 A 
ATOM     42  C   UNL A   1      38.890  29.482  29.259  1.00  0.00     0.049 A 
ATOM     43  N   UNL A   1      39.379  30.378  32.088  1.00  0.00    -0.248 NA
ATOM     44  C   UNL A   1      37.432  31.659  31.973  1.00  0.00     0.031 C 
ATOM     45  C   UNL A   1      38.730  29.057  27.866  1.00  0.00     0.029 A 
ATOM     46  N   UNL A   1      40.072  28.903  29.648  1.00  0.00    -0.354 N 
ATOM     47  C   UNL A   1      39.238  31.106  33.263  1.00  0.00     0.074 A 
ATOM     48  C   UNL A   1      38.053  31.922  33.115  1.00  0.00     0.031 C 
ATOM     49  C   UNL A   1      39.764  28.274  27.524  1.00  0.00     0.029 A 
ATOM     50  C   UNL A   1      40.673  28.159  28.661  1.00  0.00     0.049 A 
ATOM     51  H   UNL A   1      40.453  29.011  30.549  1.00  0.00     0.167 HD
ATOM     52  C   UNL A   1      40.007  31.076  34.378  1.00  0.00     0.034 A 
ATOM     53  C   UNL A   1      41.823  27.457  28.673  1.00  0.00     0.034 A 
ATOM     54  C   UNL A   1      41.155  30.225  34.541  1.00  0.00     0.049 A 
ATOM     55  C   UNL A   1      42.634  27.405  29.939  1.00  0.00     0.074 A 
ATOM     56  C   UNL A   1      41.935  30.037  35.667  1.00  0.00     0.029 A 
ATOM     57  N   UNL A   1      41.693  29.426  33.544  1.00  0.00    -0.354 N 
ATOM     58  N   UNL A   1      42.388  27.957  31.102  1.00  0.00    -0.248 NA
ATOM     59  C   UNL A   1      43.866  26.601  29.905  1.00  0.00     0.031 C 
ATOM     60  C   UNL A   1      42.961  29.141  35.344  1.00  0.00     0.029 A 
ATOM     61  C   UNL A   1      42.806  28.756  34.023  1.00  0.00     0.049 A 
ATOM     62  H   UNL A   1      41.338  29.348  32.629  1.00  0.00     0.167 HD
ATOM     63  C   UNL A   1      43.408  27.538  31.948  1.00  0.00     0.074 A 
ATOM     64  C   UNL A   1      44.266  26.670  31.168  1.00  0.00     0.031 C 
ATOM     65  C   UNL A   1      43.623  27.854  33.250  1.00  0.00     0.034 A 
BRANCH  52  66
ATOM     66  C   UNL A   1      39.599  31.958  35.530  1.00  0.00     0.023 A 
ATOM     67  C   UNL A   1      40.042  33.296  35.575  1.00  0.00     0.012 A 
ATOM     68  C   UNL A   1      38.748  31.481  36.546  1.00  0.00     0.148 A 
ATOM     69  C   UNL A   1      39.681  34.131  36.632  1.00  0.00     0.002 A 
ATOM     70  C   UNL A   1      38.355  32.332  37.573  1.00  0.00     0.091 A 
ATOM     71  F   UNL A   1      38.354  30.199  36.502  1.00  0.00    -0.205 F 
ATOM     72  C   UNL A   1      38.831  33.652  37.625  1.00  0.00     0.022 A 
BRANCH  70  73
ATOM     73  S   UNL A   1      37.199  31.829  38.853  1.00  0.00     0.127 S 
ATOM     74  O   UNL A   1      36.864  30.470  38.430  1.00  0.00    -0.237 OA
ATOM     75  O   UNL A   1      38.020  31.907  40.061  1.00  0.00    -0.237 OA
ATOM     76  O   UNL A   1      36.108  32.792  38.801  1.00  0.00    -0.744 OA
ENDBRANCH  70  73
ENDBRANCH  52  66
BRANCH  53  77
ATOM     77  C   UNL A   1      42.224  26.667  27.474  1.00  0.00     0.023 A 
ATOM     78  C   UNL A   1      42.907  27.315  26.427  1.00  0.00     0.012 A 
ATOM     79  C   UNL A   1      41.973  25.284  27.379  1.00  0.00     0.148 A 
ATOM     80  C   UNL A   1      43.307  26.609  25.292  1.00  0.00     0.002 A 
ATOM     81  C   UNL A   1      42.422  24.576  26.270  1.00  0.00     0.091 A 
ATOM     82  F   UNL A   1      41.315  24.688  28.383  1.00  0.00    -0.205 F 
ATOM     83  C   UNL A   1      43.073  25.239  25.218  1.00  0.00     0.022 A 
BRANCH  81  84
ATOM     84  S   UNL A   1      42.281  22.789  26.145  1.00  0.00     0.127 S 
ATOM     85  O   UNL A   1      40.834  22.598  26.186  1.00  0.00    -0.237 OA
ATOM     86  O   UNL A   1      42.901  22.527  24.845  1.00  0.00    -0.237 OA
ATOM     87  O   UNL A   1      43.022  22.256  27.281  1.00  0.00    -0.744 OA
ENDBRANCH  81  84
ENDBRANCH  53  77
BRANCH  65  88
ATOM     88  C   UNL A   1      44.817  27.234  33.929  1.00  0.00     0.023 A 
ATOM     89  C   UNL A   1      46.034  27.942  33.987  1.00  0.00     0.012 A 
ATOM     90  C   UNL A   1      44.712  25.984  34.569  1.00  0.00     0.148 A 
ATOM     91  C   UNL A   1      47.139  27.398  34.640  1.00  0.00     0.002 A 
ATOM     92  C   UNL A   1      45.803  25.470  35.261  1.00  0.00     0.091 A 
ATOM     93  F   UNL A   1      43.552  25.316  34.486  1.00  0.00    -0.205 F 
ATOM     94  C   UNL A   1      47.020  26.169  35.287  1.00  0.00     0.022 A 
BRANCH  92  95
ATOM     95  S   UNL A   1      45.709  23.943  36.202  1.00  0.00     0.127 S 
ATOM     96  O   UNL A   1      47.088  23.790  36.662  1.00  0.00    -0.237 OA
ATOM     97  O   UNL A   1      44.750  24.283  37.254  1.00  0.00    -0.237 OA
ATOM     98  O   UNL A   1      45.242  22.927  35.268  1.00  0.00    -0.744 OA
ENDBRANCH  92  95
ENDBRANCH  65  88
ENDBRANCH  39  40
ENDBRANCH  31  34
ENDBRANCH  29  30
ENDBRANCH  28  29
ENDBRANCH  27  28
ENDBRANCH   1  27
TORSDOF 22
ENDMDL
MODEL 3
REMARK VINA RESULT:     -10.6      3.824      9.359
REMARK SMILES C[NH+](C)CC[NH2+][C@@H](C(=O)NCCCCCCNC(=O)c1ccc(-c2c3nc(c(-c4cccc(S(=O)(=O)[O-])c4F)c4ccc([nH]4)c(-c4cccc(S(=O)(=O)[O-])c4F)c4nc(c(-c5cccc(S(=O)(=O)[O-])c5F)c5ccc2[nH]5)C=C4)C=C3)cc1)c1cccc(C2CC2)c1
REMARK SMILES IDX 13 1 12 2 11 3 10 4 8 5 9 6 7 8 6 9 5 12 4 13 2 14 1 15 3 16
REMARK SMILES IDX 83 18 84 19 91 20 85 21 87 22 86 23 88 24 89 25 90 26 14 27
REMARK SMILES IDX 15 28 16 29 17 30 18 31 19 33 20 34 21 35 82 36 22 37 81 38
REMARK SMILES IDX 23 39 24 40 25 41 75 42 26 43 80 44 74 45 76 46 27 47 79 48
REMARK SMILES IDX 73 49 72 50 28 52 60 53 40 54 59 55 41 56 44 57 58 58 77 59
REMARK SMILES IDX 42 60 43 61 57 63 78 64 45 65 29 66 30 67 38 68 31 69 33 70
REMARK SMILES IDX 39 71 32 72 34 73 35 74 36 75 37 76 61 77 62 78 70 79 63 80
REMARK SMILES IDX 65 81 71 82 64 83 66 84 67 85 68 86 69 87 46 88 47 89 55 90
REMARK SMILES IDX 48 91 50 92 56 93 49 94 51 95 52 96 53 97 54 98
REMARK H PARENT 10 7 6 10 6 11 2 17 17 32 76 51 44 62
REMARK Flexibility Score: inf
ROOT
ATOM      1  C   UNL A   1      33.867  28.926  23.769  1.00  0.00     0.002 C 
ENDROOT
BRANCH   1   2
ATOM      2  C   UNL A   1      33.506  28.321  22.412  1.00  0.00     0.021 C 
BRANCH   2   3
ATOM      3  C   UNL A   1      33.554  26.784  22.345  1.00  0.00     0.116 C 
BRANCH   3   4
ATOM      4  N   UNL A   1      34.035  26.262  23.610  1.00  0.00    -0.351 N 
ATOM      5  C   UNL A   1      34.031  24.987  24.103  1.00  0.00     0.283 C 
ATOM      6  O   UNL A   1      34.015  24.917  25.338  1.00  0.00    -0.268 OA
ATOM      7  H   UNL A   1      34.427  26.936  24.211  1.00  0.00     0.163 HD
BRANCH   5   8
ATOM      8  C   UNL A   1      34.104  23.719  23.169  1.00  0.00     0.304 C 
BRANCH   8   9
ATOM      9  N   UNL A   1      32.782  23.132  22.827  1.00  0.00    -0.328 N 
ATOM     10  H   UNL A   1      32.758  23.003  21.816  1.00  0.00     0.347 HD
ATOM     11  H   UNL A   1      32.730  22.277  23.381  1.00  0.00     0.347 HD
BRANCH   9  12
ATOM     12  C   UNL A   1      31.599  23.878  23.195  1.00  0.00     0.323 C 
BRANCH  12  13
ATOM     13  C   UNL A   1      30.829  23.298  24.407  1.00  0.00     0.323 C 
BRANCH  13  14
ATOM     14  N   UNL A   1      30.994  23.934  25.728  1.00  0.00    -0.335 N 
ATOM     15  C   UNL A   1      30.520  25.307  25.812  1.00  0.00     0.332 C 
ATOM     16  C   UNL A   1      30.507  23.133  26.845  1.00  0.00     0.332 C 
ATOM     17  H   UNL A   1      32.007  23.982  25.822  1.00  0.00     0.347 HD
ENDBRANCH  13  14
ENDBRANCH  12  13
ENDBRANCH   9  12
ENDBRANCH   8   9
BRANCH   8  18
ATOM     18  C   UNL A   1      34.866  22.589  23.891  1.00  0.00     0.019 A 
ATOM     19  C   UNL A   1      36.241  22.629  24.124  1.00  0.00     0.010 A 
ATOM     20  C   UNL A   1      34.166  21.413  24.251  1.00  0.00     0.014 A 
ATOM     21  C   UNL A   1      36.878  21.518  24.687  1.00  0.00     0.001 A 
ATOM     22  C   UNL A   1      34.774  20.268  24.776  1.00  0.00    -0.044 A 
ATOM     23  C   UNL A   1      36.156  20.355  24.995  1.00  0.00     0.004 A 
BRANCH  22  24
ATOM     24  C   UNL A   1      34.001  18.994  25.062  1.00  0.00     0.019 C 
ATOM     25  C   UNL A   1      32.596  18.738  24.558  1.00  0.00     0.009 C 
ATOM     26  C   UNL A   1      33.752  18.035  23.915  1.00  0.00     0.009 C 
ENDBRANCH  22  24
ENDBRANCH   8  18
ENDBRANCH   5   8
ENDBRANCH   3   4
ENDBRANCH   2   3
ENDBRANCH   1   2
BRANCH   1  27
ATOM     27  C   UNL A   1      32.681  29.169  24.698  1.00  0.00     0.002 C 
BRANCH  27  28
ATOM     28  C   UNL A   1      32.641  28.284  25.947  1.00  0.00     0.021 C 
BRANCH  28  29
ATOM     29  C   UNL A   1      33.570  28.716  27.079  1.00  0.00     0.116 C 
BRANCH  29  30
ATOM     30  N   UNL A   1      33.596  30.161  27.239  1.00  0.00    -0.352 N 
ATOM     31  C   UNL A   1      34.515  30.943  27.896  1.00  0.00     0.251 C 
ATOM     32  H   UNL A   1      32.851  30.647  26.820  1.00  0.00     0.163 HD
ATOM     33  O   UNL A   1      34.265  32.120  28.133  1.00  0.00    -0.269 OA
BRANCH  31  34
ATOM     34  C   UNL A   1      35.804  30.356  28.320  1.00  0.00     0.039 A 
ATOM     35  C   UNL A   1      36.919  30.493  27.491  1.00  0.00     0.014 A 
ATOM     36  C   UNL A   1      35.906  29.663  29.530  1.00  0.00     0.014 A 
ATOM     37  C   UNL A   1      38.150  29.972  27.896  1.00  0.00     0.010 A 
ATOM     38  C   UNL A   1      37.147  29.206  29.963  1.00  0.00     0.010 A 
ATOM     39  C   UNL A   1      38.280  29.344  29.146  1.00  0.00    -0.014 A 
BRANCH  39  40
ATOM     40  C   UNL A   1      39.590  28.826  29.614  1.00  0.00     0.031 A 
ATOM     41  C   UNL A   1      40.320  29.511  30.739  1.00  0.00     0.074 A 
ATOM     42  C   UNL A   1      40.161  27.786  28.975  1.00  0.00     0.049 A 
ATOM     43  N   UNL A   1      41.478  29.214  31.270  1.00  0.00    -0.248 NA
ATOM     44  C   UNL A   1      39.680  30.700  31.323  1.00  0.00     0.031 C 
ATOM     45  C   UNL A   1      39.591  27.087  27.821  1.00  0.00     0.029 A 
ATOM     46  N   UNL A   1      41.356  27.148  29.192  1.00  0.00    -0.354 N 
ATOM     47  C   UNL A   1      41.723  30.199  32.220  1.00  0.00     0.074 A 
ATOM     48  C   UNL A   1      40.609  31.121  32.169  1.00  0.00     0.031 C 
ATOM     49  C   UNL A   1      40.427  26.108  27.443  1.00  0.00     0.029 A 
ATOM     50  C   UNL A   1      41.602  26.124  28.308  1.00  0.00     0.049 A 
ATOM     51  H   UNL A   1      41.978  27.399  29.911  1.00  0.00     0.167 HD
ATOM     52  C   UNL A   1      42.765  30.312  33.078  1.00  0.00     0.034 A 
ATOM     53  C   UNL A   1      42.654  25.286  28.211  1.00  0.00     0.034 A 
ATOM     54  C   UNL A   1      43.845  29.365  33.160  1.00  0.00     0.049 A 
ATOM     55  C   UNL A   1      43.777  25.405  29.206  1.00  0.00     0.074 A 
ATOM     56  C   UNL A   1      44.888  29.326  34.067  1.00  0.00     0.029 A 
ATOM     57  N   UNL A   1      44.025  28.295  32.297  1.00  0.00    -0.354 N 
ATOM     58  N   UNL A   1      43.904  26.234  30.214  1.00  0.00    -0.248 NA
ATOM     59  C   UNL A   1      44.886  24.448  29.072  1.00  0.00     0.031 C 
ATOM     60  C   UNL A   1      45.714  28.245  33.737  1.00  0.00     0.029 A 
ATOM     61  C   UNL A   1      45.171  27.599  32.638  1.00  0.00     0.049 A 
ATOM     62  H   UNL A   1      43.426  28.065  31.550  1.00  0.00     0.167 HD
ATOM     63  C   UNL A   1      45.082  25.875  30.857  1.00  0.00     0.074 A 
ATOM     64  C   UNL A   1      45.623  24.742  30.135  1.00  0.00     0.031 C 
ATOM     65  C   UNL A   1      45.672  26.440  31.941  1.00  0.00     0.034 A 
BRANCH  52  66
ATOM     66  C   UNL A   1      42.760  31.478  34.032  1.00  0.00     0.023 A 
ATOM     67  C   UNL A   1      43.400  32.680  33.668  1.00  0.00     0.012 A 
ATOM     68  C   UNL A   1      42.090  31.403  35.269  1.00  0.00     0.148 A 
ATOM     69  C   UNL A   1      43.412  33.772  34.535  1.00  0.00     0.002 A 
ATOM     70  C   UNL A   1      42.067  32.510  36.110  1.00  0.00     0.091 A 
ATOM     71  F   UNL A   1      41.506  30.245  35.612  1.00  0.00    -0.205 F 
ATOM     72  C   UNL A   1      42.738  33.691  35.751  1.00  0.00     0.022 A 
BRANCH  70  73
ATOM     73  S   UNL A   1      41.158  32.526  37.659  1.00  0.00     0.127 S 
ATOM     74  O   UNL A   1      41.991  31.668  38.499  1.00  0.00    -0.237 OA
ATOM     75  O   UNL A   1      41.184  33.944  38.020  1.00  0.00    -0.237 OA
ATOM     76  O   UNL A   1      39.833  32.008  37.345  1.00  0.00    -0.744 OA
ENDBRANCH  70  73
ENDBRANCH  52  66
BRANCH  53  77
ATOM     77  C   UNL A   1      42.648  24.199  27.192  1.00  0.00     0.023 A 
ATOM     78  C   UNL A   1      43.307  24.410  25.965  1.00  0.00     0.012 A 
ATOM     79  C   UNL A   1      42.033  22.956  27.437  1.00  0.00     0.148 A 
ATOM     80  C   UNL A   1      43.330  23.414  24.988  1.00  0.00     0.002 A 
ATOM     81  C   UNL A   1      42.106  21.949  26.481  1.00  0.00     0.091 A 
ATOM     82  F   UNL A   1      41.404  22.778  28.607  1.00  0.00    -0.205 F 
ATOM     83  C   UNL A   1      42.739  22.181  25.250  1.00  0.00     0.022 A 
BRANCH  81  84
ATOM     84  S   UNL A   1      41.488  20.289  26.779  1.00  0.00     0.127 S 
ATOM     85  O   UNL A   1      40.097  20.547  27.139  1.00  0.00    -0.237 OA
ATOM     86  O   UNL A   1      41.680  19.656  25.474  1.00  0.00    -0.237 OA
ATOM     87  O   UNL A   1      42.324  19.742  27.840  1.00  0.00    -0.744 OA
ENDBRANCH  81  84
ENDBRANCH  53  77
BRANCH  65  88
ATOM     88  C   UNL A   1      46.955  25.826  32.436  1.00  0.00     0.023 A 
ATOM     89  C   UNL A   1      46.928  24.927  33.520  1.00  0.00     0.012 A 
ATOM     90  C   UNL A   1      48.176  26.086  31.784  1.00  0.00     0.148 A 
ATOM     91  C   UNL A   1      48.102  24.323  33.970  1.00  0.00     0.002 A 
ATOM     92  C   UNL A   1      49.334  25.443  32.205  1.00  0.00     0.091 A 
ATOM     93  F   UNL A   1      48.187  26.960  30.767  1.00  0.00    -0.205 F 
ATOM     94  C   UNL A   1      49.301  24.572  33.306  1.00  0.00     0.022 A 
BRANCH  92  95
ATOM     95  S   UNL A   1      50.902  25.628  31.348  1.00  0.00     0.127 S 
ATOM     96  O   UNL A   1      50.533  25.290  29.974  1.00  0.00    -0.237 OA
ATOM     97  O   UNL A   1      51.212  27.042  31.566  1.00  0.00    -0.237 OA
ATOM     98  O   UNL A   1      51.823  24.704  31.997  1.00  0.00    -0.744 OA
ENDBRANCH  92  95
ENDBRANCH  65  88
ENDBRANCH  39  40
ENDBRANCH  31  34
ENDBRANCH  29  30
ENDBRANCH  28  29
ENDBRANCH  27  28
ENDBRANCH   1  27
TORSDOF 22
ENDMDL
