MODEL 1
REMARK VINA RESULT:     -11.2      0.000      0.000
REMARK SMILES Cc1ccc(S(=O)(=O)n2cc(C(=O)C(=O)N[C@@H](Cc3cnc[nH]3)C(=O)NCCCCCCNC(=O)c3ccc(-c4c5nc(c(-c6cccc(S(=O)(=O)[O-])c6F)c6ccc([nH]6)c(-c6cccc(S(=O)(=O)[O-])c6F)c6nc(c(-c7cccc(S(=O)(=O)[O-])c7F)c7ccc4[nH]7)C=C6)C=C5)cc3)c3ccccc32)cc1
REMARK SMILES IDX 28 1 27 2 26 3 24 4 25 5 17 7 16 8 14 9 15 10 12 12 13 13
REMARK SMILES IDX 11 14 9 15 10 16 104 17 99 18 103 19 100 20 102 21 101 22
REMARK SMILES IDX 6 23 7 24 8 25 5 26 1 27 2 28 3 29 106 30 4 31 105 32 18 33
REMARK SMILES IDX 19 34 20 35 23 36 21 37 22 38 29 40 30 41 31 42 32 43 33 44
REMARK SMILES IDX 34 45 35 47 36 48 37 49 98 50 38 51 97 52 39 53 40 54 41 55
REMARK SMILES IDX 91 56 42 57 96 58 90 59 92 60 43 61 95 62 89 63 88 64 44 66
REMARK SMILES IDX 76 67 56 68 75 69 57 70 60 71 74 72 93 73 58 74 59 75 73 77
REMARK SMILES IDX 94 78 61 79 45 80 46 81 54 82 47 83 49 84 55 85 48 86 50 87
REMARK SMILES IDX 51 88 52 89 53 90 77 91 78 92 86 93 79 94 81 95 87 96 80 97
REMARK SMILES IDX 82 98 83 99 84 100 85 101 62 102 63 103 71 104 64 105 66 106
REMARK SMILES IDX 72 107 65 108 67 109 68 110 69 111 70 112
REMARK H PARENT 26 6 16 11 23 39 33 46 92 65 60 76
REMARK Flexibility Score: inf
ROOT
ATOM      1  C   UNL A   1      39.783  28.330  28.892  1.00  0.00     0.021 C 
ENDROOT
BRANCH   1   2
ATOM      2  C   UNL A   1      38.989  29.101  29.933  1.00  0.00     0.116 C 
BRANCH   2   3
ATOM      3  N   UNL A   1      38.558  28.332  31.075  1.00  0.00    -0.354 N 
ATOM      4  C   UNL A   1      38.277  28.798  32.327  1.00  0.00     0.242 C 
ATOM      5  O   UNL A   1      37.416  28.184  32.969  1.00  0.00    -0.273 OA
ATOM      6  H   UNL A   1      38.456  27.363  30.935  1.00  0.00     0.163 HD
BRANCH   4   7
ATOM      7  C   UNL A   1      38.896  30.099  32.898  1.00  0.00     0.177 C 
BRANCH   7   8
ATOM      8  N   UNL A   1      38.011  30.835  33.811  1.00  0.00    -0.337 N 
ATOM      9  C   UNL A   1      37.317  32.014  33.650  1.00  0.00     0.293 C 
ATOM     10  O   UNL A   1      36.478  32.303  34.496  1.00  0.00    -0.265 OA
ATOM     11  H   UNL A   1      37.893  30.411  34.692  1.00  0.00     0.164 HD
BRANCH   9  12
ATOM     12  C   UNL A   1      37.609  32.980  32.477  1.00  0.00     0.252 C 
ATOM     13  O   UNL A   1      38.741  33.436  32.357  1.00  0.00    -0.283 OA
BRANCH  12  14
ATOM     14  C   UNL A   1      36.565  33.406  31.535  1.00  0.00     0.054 A 
ATOM     15  N   UNL A   1      35.259  33.631  29.739  1.00  0.00    -0.240 N 
ATOM     16  C   UNL A   1      36.396  33.030  30.214  1.00  0.00     0.117 A 
ATOM     17  C   UNL A   1      34.666  34.417  30.704  1.00  0.00     0.065 A 
ATOM     18  C   UNL A   1      35.490  34.319  31.834  1.00  0.00     0.012 A 
ATOM     19  C   UNL A   1      33.512  35.222  30.699  1.00  0.00     0.028 A 
ATOM     20  C   UNL A   1      35.145  35.066  32.983  1.00  0.00     0.011 A 
ATOM     21  C   UNL A   1      33.208  35.958  31.848  1.00  0.00     0.002 A 
ATOM     22  C   UNL A   1      34.014  35.884  32.976  1.00  0.00     0.001 A 
BRANCH  15  23
ATOM     23  S   UNL A   1      34.691  33.454  28.144  1.00  0.00     0.268 S 
ATOM     24  O   UNL A   1      35.792  33.870  27.303  1.00  0.00    -0.201 OA
ATOM     25  O   UNL A   1      33.396  34.114  28.106  1.00  0.00    -0.201 OA
BRANCH  23  26
ATOM     26  C   UNL A   1      34.411  31.728  27.848  1.00  0.00     0.088 A 
ATOM     27  C   UNL A   1      33.521  27.665  26.758  1.00  0.00     0.044 C 
ATOM     28  C   UNL A   1      33.834  29.074  27.162  1.00  0.00    -0.051 A 
ATOM     29  C   UNL A   1      32.808  30.025  27.228  1.00  0.00     0.005 A 
ATOM     30  C   UNL A   1      35.144  29.458  27.480  1.00  0.00     0.005 A 
ATOM     31  C   UNL A   1      33.094  31.348  27.565  1.00  0.00     0.022 A 
ATOM     32  C   UNL A   1      35.433  30.778  27.837  1.00  0.00     0.022 A 
ENDBRANCH  23  26
ENDBRANCH  15  23
ENDBRANCH  12  14
ENDBRANCH   9  12
ENDBRANCH   7   8
BRANCH   7  33
ATOM     33  C   UNL A   1      40.346  29.967  33.402  1.00  0.00     0.090 C 
BRANCH  33  34
ATOM     34  C   UNL A   1      41.423  29.914  32.373  1.00  0.00     0.037 A 
ATOM     35  C   UNL A   1      42.202  28.884  31.888  1.00  0.00     0.134 A 
ATOM     36  N   UNL A   1      41.887  31.032  31.720  1.00  0.00    -0.348 N 
ATOM     37  N   UNL A   1      43.052  29.337  30.914  1.00  0.00    -0.245 NA
ATOM     38  C   UNL A   1      42.852  30.630  30.842  1.00  0.00     0.196 A 
ATOM     39  H   UNL A   1      41.578  31.957  31.860  1.00  0.00     0.167 HD
ENDBRANCH  33  34
ENDBRANCH   7  33
ENDBRANCH   4   7
ENDBRANCH   2   3
ENDBRANCH   1   2
BRANCH   1  40
ATOM     40  C   UNL A   1      39.040  27.172  28.221  1.00  0.00     0.002 C 
BRANCH  40  41
ATOM     41  C   UNL A   1      39.348  25.751  28.723  1.00  0.00     0.002 C 
BRANCH  41  42
ATOM     42  C   UNL A   1      38.828  24.583  27.888  1.00  0.00     0.021 C 
BRANCH  42  43
ATOM     43  C   UNL A   1      39.302  24.551  26.452  1.00  0.00     0.116 C 
BRANCH  43  44
ATOM     44  N   UNL A   1      40.243  23.491  26.174  1.00  0.00    -0.352 N 
ATOM     45  C   UNL A   1      41.604  23.465  26.419  1.00  0.00     0.251 C 
ATOM     46  H   UNL A   1      39.867  22.682  25.756  1.00  0.00     0.163 HD
ATOM     47  O   UNL A   1      42.290  22.640  25.822  1.00  0.00    -0.269 OA
BRANCH  45  48
ATOM     48  C   UNL A   1      42.175  24.291  27.519  1.00  0.00     0.039 A 
ATOM     49  C   UNL A   1      42.540  25.596  27.167  1.00  0.00     0.014 A 
ATOM     50  C   UNL A   1      42.704  23.713  28.669  1.00  0.00     0.014 A 
ATOM     51  C   UNL A   1      43.689  26.146  27.714  1.00  0.00     0.010 A 
ATOM     52  C   UNL A   1      43.890  24.202  29.146  1.00  0.00     0.010 A 
ATOM     53  C   UNL A   1      44.431  25.352  28.572  1.00  0.00    -0.014 A 
BRANCH  53  54
ATOM     54  C   UNL A   1      45.772  25.644  29.019  1.00  0.00     0.031 A 
ATOM     55  C   UNL A   1      46.873  25.234  28.134  1.00  0.00     0.074 A 
ATOM     56  C   UNL A   1      45.894  26.513  30.051  1.00  0.00     0.049 A 
ATOM     57  N   UNL A   1      48.104  25.140  28.487  1.00  0.00    -0.248 NA
ATOM     58  C   UNL A   1      46.636  24.854  26.742  1.00  0.00     0.031 C 
ATOM     59  C   UNL A   1      47.043  27.345  30.369  1.00  0.00     0.029 A 
ATOM     60  N   UNL A   1      45.002  26.780  31.102  1.00  0.00    -0.354 N 
ATOM     61  C   UNL A   1      48.841  25.022  27.323  1.00  0.00     0.074 A 
ATOM     62  C   UNL A   1      47.885  24.687  26.300  1.00  0.00     0.031 C 
ATOM     63  C   UNL A   1      46.915  27.797  31.630  1.00  0.00     0.029 A 
ATOM     64  C   UNL A   1      45.801  27.073  32.221  1.00  0.00     0.049 A 
ATOM     65  H   UNL A   1      44.018  26.765  31.063  1.00  0.00     0.167 HD
ATOM     66  C   UNL A   1      50.140  25.435  27.332  1.00  0.00     0.034 A 
ATOM     67  C   UNL A   1      45.898  26.265  33.327  1.00  0.00     0.034 A 
ATOM     68  C   UNL A   1      50.500  25.890  28.688  1.00  0.00     0.049 A 
ATOM     69  C   UNL A   1      47.311  25.731  33.538  1.00  0.00     0.074 A 
ATOM     70  C   UNL A   1      50.504  27.149  29.267  1.00  0.00     0.029 A 
ATOM     71  N   UNL A   1      50.540  24.978  29.737  1.00  0.00    -0.354 N 
ATOM     72  N   UNL A   1      48.270  25.845  32.659  1.00  0.00    -0.248 NA
ATOM     73  C   UNL A   1      47.749  25.003  34.729  1.00  0.00     0.031 C 
ATOM     74  C   UNL A   1      50.446  26.983  30.677  1.00  0.00     0.029 A 
ATOM     75  C   UNL A   1      50.444  25.627  30.961  1.00  0.00     0.049 A 
ATOM     76  H   UNL A   1      50.625  24.003  29.626  1.00  0.00     0.167 HD
ATOM     77  C   UNL A   1      49.355  25.110  33.049  1.00  0.00     0.074 A 
ATOM     78  C   UNL A   1      49.012  24.681  34.395  1.00  0.00     0.031 C 
ATOM     79  C   UNL A   1      50.406  24.859  32.205  1.00  0.00     0.034 A 
BRANCH  66  80
ATOM     80  C   UNL A   1      50.980  25.773  26.104  1.00  0.00     0.023 A 
ATOM     81  C   UNL A   1      52.213  25.092  25.976  1.00  0.00     0.012 A 
ATOM     82  C   UNL A   1      50.701  26.723  25.089  1.00  0.00     0.148 A 
ATOM     83  C   UNL A   1      53.143  25.382  24.971  1.00  0.00     0.002 A 
ATOM     84  C   UNL A   1      51.646  27.046  24.106  1.00  0.00     0.091 A 
ATOM     85  F   UNL A   1      49.493  27.282  25.008  1.00  0.00    -0.205 F 
ATOM     86  C   UNL A   1      52.871  26.379  24.049  1.00  0.00     0.022 A 
BRANCH  84  87
ATOM     87  S   UNL A   1      51.383  28.346  22.882  1.00  0.00     0.127 S 
ATOM     88  O   UNL A   1      51.591  29.561  23.673  1.00  0.00    -0.237 OA
ATOM     89  O   UNL A   1      52.435  28.073  21.905  1.00  0.00    -0.237 OA
ATOM     90  O   UNL A   1      50.019  28.180  22.393  1.00  0.00    -0.744 OA
ENDBRANCH  84  87
ENDBRANCH  66  80
BRANCH  67  91
ATOM     91  C   UNL A   1      44.654  25.481  33.602  1.00  0.00     0.023 A 
ATOM     92  C   UNL A   1      44.726  24.080  33.423  1.00  0.00     0.012 A 
ATOM     93  C   UNL A   1      43.657  26.011  34.438  1.00  0.00     0.148 A 
ATOM     94  C   UNL A   1      43.983  23.225  34.237  1.00  0.00     0.002 A 
ATOM     95  C   UNL A   1      42.920  25.151  35.248  1.00  0.00     0.091 A 
ATOM     96  F   UNL A   1      43.490  27.338  34.485  1.00  0.00    -0.205 F 
ATOM     97  C   UNL A   1      43.126  23.764  35.193  1.00  0.00     0.022 A 
BRANCH  95  98
ATOM     98  S   UNL A   1      41.798  25.808  36.487  1.00  0.00     0.127 S 
ATOM     99  O   UNL A   1      40.867  26.575  35.667  1.00  0.00    -0.237 OA
ATOM    100  O   UNL A   1      41.233  24.599  37.083  1.00  0.00    -0.237 OA
ATOM    101  O   UNL A   1      42.653  26.572  37.385  1.00  0.00    -0.744 OA
ENDBRANCH  95  98
ENDBRANCH  67  91
BRANCH  79 102
ATOM    102  C   UNL A   1      51.508  23.857  32.487  1.00  0.00     0.023 A 
ATOM    103  C   UNL A   1      51.271  22.469  32.511  1.00  0.00     0.012 A 
ATOM    104  C   UNL A   1      52.859  24.275  32.610  1.00  0.00     0.148 A 
ATOM    105  C   UNL A   1      52.294  21.549  32.754  1.00  0.00     0.002 A 
ATOM    106  C   UNL A   1      53.889  23.348  32.721  1.00  0.00     0.091 A 
ATOM    107  F   UNL A   1      53.154  25.582  32.645  1.00  0.00    -0.205 F 
ATOM    108  C   UNL A   1      53.607  21.986  32.842  1.00  0.00     0.022 A 
BRANCH 106 109
ATOM    109  S   UNL A   1      55.612  23.837  32.563  1.00  0.00     0.127 S 
ATOM    110  O   UNL A   1      55.571  25.227  33.009  1.00  0.00    -0.237 OA
ATOM    111  O   UNL A   1      56.281  22.920  33.488  1.00  0.00    -0.237 OA
ATOM    112  O   UNL A   1      55.949  23.622  31.163  1.00  0.00    -0.744 OA
ENDBRANCH 106 109
ENDBRANCH  79 102
ENDBRANCH  53  54
ENDBRANCH  45  48
ENDBRANCH  43  44
ENDBRANCH  42  43
ENDBRANCH  41  42
ENDBRANCH  40  41
ENDBRANCH   1  40
TORSDOF 23
ENDMDL
MODEL 2
REMARK VINA RESULT:      -9.9      7.440     10.568
REMARK SMILES Cc1ccc(S(=O)(=O)n2cc(C(=O)C(=O)N[C@@H](Cc3cnc[nH]3)C(=O)NCCCCCCNC(=O)c3ccc(-c4c5nc(c(-c6cccc(S(=O)(=O)[O-])c6F)c6ccc([nH]6)c(-c6cccc(S(=O)(=O)[O-])c6F)c6nc(c(-c7cccc(S(=O)(=O)[O-])c7F)c7ccc4[nH]7)C=C6)C=C5)cc3)c3ccccc32)cc1
REMARK SMILES IDX 28 1 27 2 26 3 24 4 25 5 17 7 16 8 14 9 15 10 12 12 13 13
REMARK SMILES IDX 11 14 9 15 10 16 104 17 99 18 103 19 100 20 102 21 101 22
REMARK SMILES IDX 6 23 7 24 8 25 5 26 1 27 2 28 3 29 106 30 4 31 105 32 18 33
REMARK SMILES IDX 19 34 20 35 23 36 21 37 22 38 29 40 30 41 31 42 32 43 33 44
REMARK SMILES IDX 34 45 35 47 36 48 37 49 98 50 38 51 97 52 39 53 40 54 41 55
REMARK SMILES IDX 91 56 42 57 96 58 90 59 92 60 43 61 95 62 89 63 88 64 44 66
REMARK SMILES IDX 76 67 56 68 75 69 57 70 60 71 74 72 93 73 58 74 59 75 73 77
REMARK SMILES IDX 94 78 61 79 45 80 46 81 54 82 47 83 49 84 55 85 48 86 50 87
REMARK SMILES IDX 51 88 52 89 53 90 77 91 78 92 86 93 79 94 81 95 87 96 80 97
REMARK SMILES IDX 82 98 83 99 84 100 85 101 62 102 63 103 71 104 64 105 66 106
REMARK SMILES IDX 72 107 65 108 67 109 68 110 69 111 70 112
REMARK H PARENT 26 6 16 11 23 39 33 46 92 65 60 76
REMARK Flexibility Score: inf
ROOT
ATOM      1  C   UNL A   1      41.774  34.677  30.270  1.00  0.00     0.021 C 
ENDROOT
BRANCH   1   2
ATOM      2  C   UNL A   1      42.692  35.598  29.486  1.00  0.00     0.116 C 
BRANCH   2   3
ATOM      3  N   UNL A   1      42.372  35.747  28.088  1.00  0.00    -0.354 N 
ATOM      4  C   UNL A   1      43.067  36.457  27.152  1.00  0.00     0.242 C 
ATOM      5  O   UNL A   1      43.026  36.036  25.989  1.00  0.00    -0.273 OA
ATOM      6  H   UNL A   1      41.562  35.284  27.774  1.00  0.00     0.163 HD
BRANCH   4   7
ATOM      7  C   UNL A   1      43.971  37.663  27.512  1.00  0.00     0.177 C 
BRANCH   7   8
ATOM      8  N   UNL A   1      43.320  38.670  28.361  1.00  0.00    -0.337 N 
ATOM      9  C   UNL A   1      43.552  40.019  28.512  1.00  0.00     0.293 C 
ATOM     10  O   UNL A   1      42.724  40.677  29.132  1.00  0.00    -0.265 OA
ATOM     11  H   UNL A   1      42.588  38.319  28.920  1.00  0.00     0.164 HD
BRANCH   9  12
ATOM     12  C   UNL A   1      44.836  40.692  27.970  1.00  0.00     0.252 C 
ATOM     13  O   UNL A   1      45.917  40.372  28.454  1.00  0.00    -0.283 OA
BRANCH  12  14
ATOM     14  C   UNL A   1      44.798  41.734  26.935  1.00  0.00     0.054 A 
ATOM     15  N   UNL A   1      44.427  42.874  25.053  1.00  0.00    -0.240 N 
ATOM     16  C   UNL A   1      44.308  41.643  25.644  1.00  0.00     0.117 A 
ATOM     17  C   UNL A   1      45.002  43.789  25.909  1.00  0.00     0.065 A 
ATOM     18  C   UNL A   1      45.276  43.085  27.089  1.00  0.00     0.012 A 
ATOM     19  C   UNL A   1      45.332  45.149  25.766  1.00  0.00     0.028 A 
ATOM     20  C   UNL A   1      45.915  43.772  28.146  1.00  0.00     0.011 A 
ATOM     21  C   UNL A   1      45.975  45.793  26.827  1.00  0.00     0.002 A 
ATOM     22  C   UNL A   1      46.266  45.115  28.003  1.00  0.00     0.001 A 
BRANCH  15  23
ATOM     23  S   UNL A   1      43.961  43.202  23.449  1.00  0.00     0.268 S 
ATOM     24  O   UNL A   1      43.468  44.563  23.470  1.00  0.00    -0.201 OA
ATOM     25  O   UNL A   1      43.126  42.084  23.039  1.00  0.00    -0.201 OA
BRANCH  23  26
ATOM     26  C   UNL A   1      45.415  43.173  22.435  1.00  0.00     0.088 A 
ATOM     27  C   UNL A   1      49.124  42.840  20.285  1.00  0.00     0.044 C 
ATOM     28  C   UNL A   1      47.826  42.978  21.022  1.00  0.00    -0.051 A 
ATOM     29  C   UNL A   1      47.826  43.372  22.366  1.00  0.00     0.005 A 
ATOM     30  C   UNL A   1      46.605  42.721  20.385  1.00  0.00     0.005 A 
ATOM     31  C   UNL A   1      46.627  43.466  23.073  1.00  0.00     0.022 A 
ATOM     32  C   UNL A   1      45.399  42.831  21.083  1.00  0.00     0.022 A 
ENDBRANCH  23  26
ENDBRANCH  15  23
ENDBRANCH  12  14
ENDBRANCH   9  12
ENDBRANCH   7   8
BRANCH   7  33
ATOM     33  C   UNL A   1      45.400  37.300  27.957  1.00  0.00     0.090 C 
BRANCH  33  34
ATOM     34  C   UNL A   1      46.110  36.246  27.177  1.00  0.00     0.037 A 
ATOM     35  C   UNL A   1      46.844  35.140  27.553  1.00  0.00     0.134 A 
ATOM     36  N   UNL A   1      46.187  36.258  25.804  1.00  0.00    -0.348 N 
ATOM     37  N   UNL A   1      47.283  34.453  26.453  1.00  0.00    -0.245 NA
ATOM     38  C   UNL A   1      46.887  35.152  25.417  1.00  0.00     0.196 A 
ATOM     39  H   UNL A   1      45.805  36.942  25.207  1.00  0.00     0.167 HD
ENDBRANCH  33  34
ENDBRANCH   7  33
ENDBRANCH   4   7
ENDBRANCH   2   3
ENDBRANCH   1   2
BRANCH   1  40
ATOM     40  C   UNL A   1      40.306  34.684  29.835  1.00  0.00     0.002 C 
BRANCH  40  41
ATOM     41  C   UNL A   1      39.262  34.225  30.868  1.00  0.00     0.002 C 
BRANCH  41  42
ATOM     42  C   UNL A   1      37.832  34.017  30.374  1.00  0.00     0.021 C 
BRANCH  42  43
ATOM     43  C   UNL A   1      37.559  32.681  29.721  1.00  0.00     0.116 C 
BRANCH  43  44
ATOM     44  N   UNL A   1      36.153  32.384  29.568  1.00  0.00    -0.352 N 
ATOM     45  C   UNL A   1      35.568  31.315  28.913  1.00  0.00     0.251 C 
ATOM     46  H   UNL A   1      35.532  33.025  29.984  1.00  0.00     0.163 HD
ATOM     47  O   UNL A   1      34.385  31.400  28.597  1.00  0.00    -0.269 OA
BRANCH  45  48
ATOM     48  C   UNL A   1      36.314  30.033  28.774  1.00  0.00     0.039 A 
ATOM     49  C   UNL A   1      36.587  29.361  29.971  1.00  0.00     0.014 A 
ATOM     50  C   UNL A   1      37.052  29.736  27.633  1.00  0.00     0.014 A 
ATOM     51  C   UNL A   1      37.805  28.719  30.122  1.00  0.00     0.010 A 
ATOM     52  C   UNL A   1      38.296  29.189  27.796  1.00  0.00     0.010 A 
ATOM     53  C   UNL A   1      38.704  28.799  29.071  1.00  0.00    -0.014 A 
BRANCH  53  54
ATOM     54  C   UNL A   1      40.098  28.434  29.144  1.00  0.00     0.031 A 
ATOM     55  C   UNL A   1      40.440  27.038  28.832  1.00  0.00     0.074 A 
ATOM     56  C   UNL A   1      40.991  29.451  29.205  1.00  0.00     0.049 A 
ATOM     57  N   UNL A   1      41.553  26.470  29.126  1.00  0.00    -0.248 NA
ATOM     58  C   UNL A   1      39.488  26.147  28.170  1.00  0.00     0.031 C 
ATOM     59  C   UNL A   1      42.386  29.424  28.796  1.00  0.00     0.029 A 
ATOM     60  N   UNL A   1      40.836  30.744  29.733  1.00  0.00    -0.354 N 
ATOM     61  C   UNL A   1      41.591  25.285  28.415  1.00  0.00     0.074 A 
ATOM     62  C   UNL A   1      40.238  25.059  27.978  1.00  0.00     0.031 C 
ATOM     63  C   UNL A   1      43.012  30.492  29.322  1.00  0.00     0.029 A 
ATOM     64  C   UNL A   1      42.087  31.095  30.267  1.00  0.00     0.049 A 
ATOM     65  H   UNL A   1      40.017  31.292  29.729  1.00  0.00     0.167 HD
ATOM     66  C   UNL A   1      42.808  24.755  28.102  1.00  0.00     0.034 A 
ATOM     67  C   UNL A   1      42.334  31.243  31.610  1.00  0.00     0.034 A 
ATOM     68  C   UNL A   1      43.872  25.593  28.684  1.00  0.00     0.049 A 
ATOM     69  C   UNL A   1      43.360  30.239  32.129  1.00  0.00     0.074 A 
ATOM     70  C   UNL A   1      44.624  26.629  28.151  1.00  0.00     0.029 A 
ATOM     71  N   UNL A   1      44.006  25.683  30.065  1.00  0.00    -0.354 N 
ATOM     72  N   UNL A   1      43.793  29.221  31.438  1.00  0.00    -0.248 NA
ATOM     73  C   UNL A   1      43.950  30.281  33.466  1.00  0.00     0.031 C 
ATOM     74  C   UNL A   1      45.130  27.402  29.231  1.00  0.00     0.029 A 
ATOM     75  C   UNL A   1      44.721  26.820  30.420  1.00  0.00     0.049 A 
ATOM     76  H   UNL A   1      43.644  25.028  30.705  1.00  0.00     0.167 HD
ATOM     77  C   UNL A   1      44.553  28.405  32.229  1.00  0.00     0.074 A 
ATOM     78  C   UNL A   1      44.698  29.162  33.462  1.00  0.00     0.031 C 
ATOM     79  C   UNL A   1      44.935  27.150  31.829  1.00  0.00     0.034 A 
BRANCH  66  80
ATOM     80  C   UNL A   1      43.080  23.724  27.011  1.00  0.00     0.023 A 
ATOM     81  C   UNL A   1      43.604  24.218  25.792  1.00  0.00     0.012 A 
ATOM     82  C   UNL A   1      42.832  22.329  27.046  1.00  0.00     0.148 A 
ATOM     83  C   UNL A   1      43.791  23.413  24.662  1.00  0.00     0.002 A 
ATOM     84  C   UNL A   1      42.979  21.527  25.904  1.00  0.00     0.091 A 
ATOM     85  F   UNL A   1      42.519  21.733  28.196  1.00  0.00    -0.205 F 
ATOM     86  C   UNL A   1      43.454  22.071  24.709  1.00  0.00     0.022 A 
BRANCH  84  87
ATOM     87  S   UNL A   1      42.541  19.777  25.872  1.00  0.00     0.127 S 
ATOM     88  O   UNL A   1      43.423  19.258  24.825  1.00  0.00    -0.237 OA
ATOM     89  O   UNL A   1      42.888  19.344  27.225  1.00  0.00    -0.237 OA
ATOM     90  O   UNL A   1      41.123  19.714  25.542  1.00  0.00    -0.744 OA
ENDBRANCH  84  87
ENDBRANCH  66  80
BRANCH  67  91
ATOM     91  C   UNL A   1      41.142  31.702  32.387  1.00  0.00     0.023 A 
ATOM     92  C   UNL A   1      40.007  30.858  32.380  1.00  0.00     0.012 A 
ATOM     93  C   UNL A   1      41.294  32.629  33.432  1.00  0.00     0.148 A 
ATOM     94  C   UNL A   1      39.180  30.776  33.501  1.00  0.00     0.002 A 
ATOM     95  C   UNL A   1      40.466  32.540  34.547  1.00  0.00     0.091 A 
ATOM     96  F   UNL A   1      42.281  33.530  33.357  1.00  0.00    -0.205 F 
ATOM     97  C   UNL A   1      39.450  31.574  34.610  1.00  0.00     0.022 A 
BRANCH  95  98
ATOM     98  S   UNL A   1      40.778  33.559  35.994  1.00  0.00     0.127 S 
ATOM     99  O   UNL A   1      42.173  33.246  36.281  1.00  0.00    -0.237 OA
ATOM    100  O   UNL A   1      40.547  34.911  35.492  1.00  0.00    -0.237 OA
ATOM    101  O   UNL A   1      39.798  33.111  36.974  1.00  0.00    -0.744 OA
ENDBRANCH  95  98
ENDBRANCH  67  91
BRANCH  79 102
ATOM    102  C   UNL A   1      45.556  26.113  32.743  1.00  0.00     0.023 A 
ATOM    103  C   UNL A   1      46.950  25.974  32.881  1.00  0.00     0.012 A 
ATOM    104  C   UNL A   1      44.749  25.321  33.602  1.00  0.00     0.148 A 
ATOM    105  C   UNL A   1      47.518  25.028  33.739  1.00  0.00     0.002 A 
ATOM    106  C   UNL A   1      45.321  24.476  34.546  1.00  0.00     0.091 A 
ATOM    107  F   UNL A   1      43.414  25.365  33.493  1.00  0.00    -0.205 F 
ATOM    108  C   UNL A   1      46.705  24.290  34.584  1.00  0.00     0.022 A 
BRANCH 106 109
ATOM    109  S   UNL A   1      44.335  23.711  35.839  1.00  0.00     0.127 S 
ATOM    110  O   UNL A   1      43.540  24.838  36.318  1.00  0.00    -0.237 OA
ATOM    111  O   UNL A   1      43.576  22.702  35.095  1.00  0.00    -0.237 OA
ATOM    112  O   UNL A   1      45.296  23.157  36.783  1.00  0.00    -0.744 OA
ENDBRANCH 106 109
ENDBRANCH  79 102
ENDBRANCH  53  54
ENDBRANCH  45  48
ENDBRANCH  43  44
ENDBRANCH  42  43
ENDBRANCH  41  42
ENDBRANCH  40  41
ENDBRANCH   1  40
TORSDOF 23
ENDMDL
MODEL 3
REMARK VINA RESULT:      -9.6      1.644      2.940
REMARK SMILES Cc1ccc(S(=O)(=O)n2cc(C(=O)C(=O)N[C@@H](Cc3cnc[nH]3)C(=O)NCCCCCCNC(=O)c3ccc(-c4c5nc(c(-c6cccc(S(=O)(=O)[O-])c6F)c6ccc([nH]6)c(-c6cccc(S(=O)(=O)[O-])c6F)c6nc(c(-c7cccc(S(=O)(=O)[O-])c7F)c7ccc4[nH]7)C=C6)C=C5)cc3)c3ccccc32)cc1
REMARK SMILES IDX 28 1 27 2 26 3 24 4 25 5 17 7 16 8 14 9 15 10 12 12 13 13
REMARK SMILES IDX 11 14 9 15 10 16 104 17 99 18 103 19 100 20 102 21 101 22
REMARK SMILES IDX 6 23 7 24 8 25 5 26 1 27 2 28 3 29 106 30 4 31 105 32 18 33
REMARK SMILES IDX 19 34 20 35 23 36 21 37 22 38 29 40 30 41 31 42 32 43 33 44
REMARK SMILES IDX 34 45 35 47 36 48 37 49 98 50 38 51 97 52 39 53 40 54 41 55
REMARK SMILES IDX 91 56 42 57 96 58 90 59 92 60 43 61 95 62 89 63 88 64 44 66
REMARK SMILES IDX 76 67 56 68 75 69 57 70 60 71 74 72 93 73 58 74 59 75 73 77
REMARK SMILES IDX 94 78 61 79 45 80 46 81 54 82 47 83 49 84 55 85 48 86 50 87
REMARK SMILES IDX 51 88 52 89 53 90 77 91 78 92 86 93 79 94 81 95 87 96 80 97
REMARK SMILES IDX 82 98 83 99 84 100 85 101 62 102 63 103 71 104 64 105 66 106
REMARK SMILES IDX 72 107 65 108 67 109 68 110 69 111 70 112
REMARK H PARENT 26 6 16 11 23 39 33 46 92 65 60 76
REMARK Flexibility Score: inf
ROOT
ATOM      1  C   UNL A   1      42.627  31.667  33.923  1.00  0.00     0.021 C 
ENDROOT
BRANCH   1   2
ATOM      2  C   UNL A   1      41.615  32.426  34.764  1.00  0.00     0.116 C 
BRANCH   2   3
ATOM      3  N   UNL A   1      40.901  31.634  35.734  1.00  0.00    -0.354 N 
ATOM      4  C   UNL A   1      39.588  31.262  35.694  1.00  0.00     0.242 C 
ATOM      5  O   UNL A   1      39.298  30.182  36.223  1.00  0.00    -0.273 OA
ATOM      6  H   UNL A   1      41.418  31.327  36.514  1.00  0.00     0.163 HD
BRANCH   4   7
ATOM      7  C   UNL A   1      38.509  32.067  34.925  1.00  0.00     0.177 C 
BRANCH   7   8
ATOM      8  N   UNL A   1      37.506  31.235  34.248  1.00  0.00    -0.337 N 
ATOM      9  C   UNL A   1      37.026  31.261  32.956  1.00  0.00     0.293 C 
ATOM     10  O   UNL A   1      36.341  30.315  32.582  1.00  0.00    -0.265 OA
ATOM     11  H   UNL A   1      37.108  30.536  34.815  1.00  0.00     0.164 HD
BRANCH   9  12
ATOM     12  C   UNL A   1      37.288  32.458  32.012  1.00  0.00     0.252 C 
ATOM     13  O   UNL A   1      38.427  32.905  31.929  1.00  0.00    -0.283 OA
BRANCH  12  14
ATOM     14  C   UNL A   1      36.211  33.105  31.251  1.00  0.00     0.054 A 
ATOM     15  N   UNL A   1      34.711  33.640  29.686  1.00  0.00    -0.240 N 
ATOM     16  C   UNL A   1      35.775  32.823  29.968  1.00  0.00     0.117 A 
ATOM     17  C   UNL A   1      34.429  34.479  30.743  1.00  0.00     0.065 A 
ATOM     18  C   UNL A   1      35.382  34.185  31.727  1.00  0.00     0.012 A 
ATOM     19  C   UNL A   1      33.457  35.479  30.930  1.00  0.00     0.028 A 
ATOM     20  C   UNL A   1      35.361  34.933  32.926  1.00  0.00     0.011 A 
ATOM     21  C   UNL A   1      33.474  36.209  32.123  1.00  0.00     0.002 A 
ATOM     22  C   UNL A   1      34.414  35.942  33.109  1.00  0.00     0.001 A 
BRANCH  15  23
ATOM     23  S   UNL A   1      33.884  33.636  28.199  1.00  0.00     0.268 S 
ATOM     24  O   UNL A   1      34.797  34.251  27.258  1.00  0.00    -0.201 OA
ATOM     25  O   UNL A   1      32.568  34.189  28.472  1.00  0.00    -0.201 OA
BRANCH  23  26
ATOM     26  C   UNL A   1      33.655  31.950  27.700  1.00  0.00     0.088 A 
ATOM     27  C   UNL A   1      32.932  28.020  26.111  1.00  0.00     0.044 C 
ATOM     28  C   UNL A   1      33.184  29.380  26.689  1.00  0.00    -0.051 A 
ATOM     29  C   UNL A   1      32.151  30.325  26.722  1.00  0.00     0.005 A 
ATOM     30  C   UNL A   1      34.442  29.723  27.202  1.00  0.00     0.005 A 
ATOM     31  C   UNL A   1      32.385  31.607  27.221  1.00  0.00     0.022 A 
ATOM     32  C   UNL A   1      34.676  31.000  27.721  1.00  0.00     0.022 A 
ENDBRANCH  23  26
ENDBRANCH  15  23
ENDBRANCH  12  14
ENDBRANCH   9  12
ENDBRANCH   7   8
BRANCH   7  33
ATOM     33  C   UNL A   1      37.915  33.263  35.693  1.00  0.00     0.090 C 
BRANCH  33  34
ATOM     34  C   UNL A   1      38.002  33.230  37.180  1.00  0.00     0.037 A 
ATOM     35  C   UNL A   1      37.197  32.671  38.151  1.00  0.00     0.134 A 
ATOM     36  N   UNL A   1      38.990  33.877  37.885  1.00  0.00    -0.348 N 
ATOM     37  N   UNL A   1      37.717  32.893  39.399  1.00  0.00    -0.245 NA
ATOM     38  C   UNL A   1      38.784  33.630  39.212  1.00  0.00     0.196 A 
ATOM     39  H   UNL A   1      39.716  34.421  37.501  1.00  0.00     0.167 HD
ENDBRANCH  33  34
ENDBRANCH   7  33
ENDBRANCH   4   7
ENDBRANCH   2   3
ENDBRANCH   1   2
BRANCH   1  40
ATOM     40  C   UNL A   1      42.213  31.404  32.473  1.00  0.00     0.002 C 
BRANCH  40  41
ATOM     41  C   UNL A   1      42.456  29.991  31.915  1.00  0.00     0.002 C 
BRANCH  41  42
ATOM     42  C   UNL A   1      41.290  29.306  31.206  1.00  0.00     0.021 C 
BRANCH  42  43
ATOM     43  C   UNL A   1      41.571  27.911  30.693  1.00  0.00     0.116 C 
BRANCH  43  44
ATOM     44  N   UNL A   1      40.548  27.398  29.812  1.00  0.00    -0.352 N 
ATOM     45  C   UNL A   1      40.688  26.912  28.525  1.00  0.00     0.251 C 
ATOM     46  H   UNL A   1      39.633  27.392  30.176  1.00  0.00     0.163 HD
ATOM     47  O   UNL A   1      39.689  26.835  27.817  1.00  0.00    -0.269 OA
BRANCH  45  48
ATOM     48  C   UNL A   1      41.987  26.323  28.092  1.00  0.00     0.039 A 
ATOM     49  C   UNL A   1      42.408  25.198  28.811  1.00  0.00     0.014 A 
ATOM     50  C   UNL A   1      42.910  27.054  27.351  1.00  0.00     0.014 A 
ATOM     51  C   UNL A   1      43.755  25.048  29.101  1.00  0.00     0.010 A 
ATOM     52  C   UNL A   1      44.229  26.973  27.708  1.00  0.00     0.010 A 
ATOM     53  C   UNL A   1      44.615  26.047  28.676  1.00  0.00    -0.014 A 
BRANCH  53  54
ATOM     54  C   UNL A   1      45.983  26.202  29.110  1.00  0.00     0.031 A 
ATOM     55  C   UNL A   1      47.027  25.657  28.229  1.00  0.00     0.074 A 
ATOM     56  C   UNL A   1      46.205  27.075  30.122  1.00  0.00     0.049 A 
ATOM     57  N   UNL A   1      48.243  25.439  28.579  1.00  0.00    -0.248 NA
ATOM     58  C   UNL A   1      46.742  25.274  26.847  1.00  0.00     0.031 C 
ATOM     59  C   UNL A   1      47.438  27.785  30.416  1.00  0.00     0.029 A 
ATOM     60  N   UNL A   1      45.354  27.458  31.171  1.00  0.00    -0.354 N 
ATOM     61  C   UNL A   1      48.955  25.217  27.414  1.00  0.00     0.074 A 
ATOM     62  C   UNL A   1      47.962  24.965  26.403  1.00  0.00     0.031 C 
ATOM     63  C   UNL A   1      47.368  28.275  31.667  1.00  0.00     0.029 A 
ATOM     64  C   UNL A   1      46.187  27.688  32.279  1.00  0.00     0.049 A 
ATOM     65  H   UNL A   1      44.373  27.549  31.137  1.00  0.00     0.167 HD
ATOM     66  C   UNL A   1      50.291  25.488  27.408  1.00  0.00     0.034 A 
ATOM     67  C   UNL A   1      46.204  26.898  33.403  1.00  0.00     0.034 A 
ATOM     68  C   UNL A   1      50.707  25.931  28.752  1.00  0.00     0.049 A 
ATOM     69  C   UNL A   1      47.554  26.220  33.619  1.00  0.00     0.074 A 
ATOM     70  C   UNL A   1      50.851  27.194  29.303  1.00  0.00     0.029 A 
ATOM     71  N   UNL A   1      50.656  25.042  29.821  1.00  0.00    -0.354 N 
ATOM     72  N   UNL A   1      48.512  26.211  32.734  1.00  0.00    -0.248 NA
ATOM     73  C   UNL A   1      47.918  25.476  34.824  1.00  0.00     0.031 C 
ATOM     74  C   UNL A   1      50.785  27.065  30.716  1.00  0.00     0.029 A 
ATOM     75  C   UNL A   1      50.639  25.724  31.031  1.00  0.00     0.049 A 
ATOM     76  H   UNL A   1      50.635  24.062  29.732  1.00  0.00     0.167 HD
ATOM     77  C   UNL A   1      49.515  25.373  33.134  1.00  0.00     0.074 A 
ATOM     78  C   UNL A   1      49.137  25.012  34.491  1.00  0.00     0.031 C 
ATOM     79  C   UNL A   1      50.528  24.992  32.292  1.00  0.00     0.034 A 
BRANCH  66  80
ATOM     80  C   UNL A   1      51.154  25.707  26.169  1.00  0.00     0.023 A 
ATOM     81  C   UNL A   1      52.310  24.899  26.054  1.00  0.00     0.012 A 
ATOM     82  C   UNL A   1      50.968  26.656  25.132  1.00  0.00     0.148 A 
ATOM     83  C   UNL A   1      53.258  25.067  25.039  1.00  0.00     0.002 A 
ATOM     84  C   UNL A   1      51.936  26.855  24.138  1.00  0.00     0.091 A 
ATOM     85  F   UNL A   1      49.824  27.334  25.042  1.00  0.00    -0.205 F 
ATOM     86  C   UNL A   1      53.086  26.064  24.094  1.00  0.00     0.022 A 
BRANCH  84  87
ATOM     87  S   UNL A   1      51.801  28.145  22.883  1.00  0.00     0.127 S 
ATOM     88  O   UNL A   1      53.143  28.147  22.296  1.00  0.00    -0.237 OA
ATOM     89  O   UNL A   1      50.757  27.619  22.005  1.00  0.00    -0.237 OA
ATOM     90  O   UNL A   1      51.460  29.373  23.591  1.00  0.00    -0.744 OA
ENDBRANCH  84  87
ENDBRANCH  66  80
BRANCH  67  91
ATOM     91  C   UNL A   1      44.886  26.259  33.701  1.00  0.00     0.023 A 
ATOM     92  C   UNL A   1      44.773  24.872  33.448  1.00  0.00     0.012 A 
ATOM     93  C   UNL A   1      44.000  26.860  34.612  1.00  0.00     0.148 A 
ATOM     94  C   UNL A   1      43.965  24.071  34.255  1.00  0.00     0.002 A 
ATOM     95  C   UNL A   1      43.197  26.052  35.413  1.00  0.00     0.091 A 
ATOM     96  F   UNL A   1      44.003  28.192  34.733  1.00  0.00    -0.205 F 
ATOM     97  C   UNL A   1      43.225  24.656  35.279  1.00  0.00     0.022 A 
BRANCH  95  98
ATOM     98  S   UNL A   1      42.223  26.772  36.740  1.00  0.00     0.127 S 
ATOM     99  O   UNL A   1      43.250  27.433  37.537  1.00  0.00    -0.237 OA
ATOM    100  O   UNL A   1      41.327  27.678  36.026  1.00  0.00    -0.237 OA
ATOM    101  O   UNL A   1      41.554  25.636  37.359  1.00  0.00    -0.744 OA
ENDBRANCH  95  98
ENDBRANCH  67  91
BRANCH  79 102
ATOM    102  C   UNL A   1      51.517  23.883  32.591  1.00  0.00     0.023 A 
ATOM    103  C   UNL A   1      51.167  22.522  32.505  1.00  0.00     0.012 A 
ATOM    104  C   UNL A   1      52.883  24.175  32.845  1.00  0.00     0.148 A 
ATOM    105  C   UNL A   1      52.088  21.504  32.765  1.00  0.00     0.002 A 
ATOM    106  C   UNL A   1      53.822  23.157  32.973  1.00  0.00     0.091 A 
ATOM    107  F   UNL A   1      53.280  25.447  32.988  1.00  0.00    -0.205 F 
ATOM    108  C   UNL A   1      53.420  21.820  32.982  1.00  0.00     0.022 A 
BRANCH 106 109
ATOM    109  S   UNL A   1      55.585  23.504  32.981  1.00  0.00     0.127 S 
ATOM    110  O   UNL A   1      55.605  24.957  33.133  1.00  0.00    -0.237 OA
ATOM    111  O   UNL A   1      56.043  22.762  34.158  1.00  0.00    -0.237 OA
ATOM    112  O   UNL A   1      56.088  22.984  31.717  1.00  0.00    -0.744 OA
ENDBRANCH 106 109
ENDBRANCH  79 102
ENDBRANCH  53  54
ENDBRANCH  45  48
ENDBRANCH  43  44
ENDBRANCH  42  43
ENDBRANCH  41  42
ENDBRANCH  40  41
ENDBRANCH   1  40
TORSDOF 23
ENDMDL
