MODEL 1
REMARK VINA RESULT:     -12.0      0.000      0.000
REMARK SMILES Cc1cc(F)ccc1OC1(C(=O)NCCCCCCNC(=O)c2ccc(-c3c4nc(c(-c5cccc(S(=O)(=O)[O-])c5F)c5ccc([nH]5)c(-c5cccc(S(=O)(=O)[O-])c5F)c5nc(c(-c6cccc(S(=O)(=O)[O-])c6F)c6ccc3[nH]6)C=C5)C=C4)cc2)CCN(C(=O)[C@H]2CCOC2)CC1
REMARK SMILES IDX 17 1 16 2 15 3 14 4 13 5 11 6 12 7 10 9 86 10 97 11 87 12
REMARK SMILES IDX 96 13 88 14 89 15 90 16 9 17 8 18 1 19 2 20 3 21 4 22 7 23
REMARK SMILES IDX 5 24 6 25 91 26 92 27 95 28 93 29 94 30 18 31 19 32 20 33
REMARK SMILES IDX 21 34 22 36 23 37 24 38 85 39 25 40 84 41 26 42 27 43 28 44
REMARK SMILES IDX 78 45 29 46 83 47 77 48 79 49 30 50 82 51 76 52 75 53 31 55
REMARK SMILES IDX 63 56 43 57 62 58 44 59 47 60 61 61 80 62 45 63 46 64 60 66
REMARK SMILES IDX 81 67 48 68 32 69 33 70 41 71 34 72 36 73 42 74 35 75 37 76
REMARK SMILES IDX 38 77 39 78 40 79 64 80 65 81 73 82 66 83 68 84 74 85 67 86
REMARK SMILES IDX 69 87 70 88 71 89 72 90 49 91 50 92 58 93 51 94 53 95 59 96
REMARK SMILES IDX 52 97 54 98 55 99 56 100 57 101
REMARK H PARENT 13 8 20 35 79 54 47 65
REMARK Flexibility Score: inf
ROOT
ATOM      1  C   UNL A   1      34.943  31.612  28.220  1.00  0.00     0.002 C 
ENDROOT
BRANCH   1   2
ATOM      2  C   UNL A   1      34.963  30.206  27.613  1.00  0.00     0.002 C 
BRANCH   2   3
ATOM      3  C   UNL A   1      33.594  29.671  27.184  1.00  0.00     0.021 C 
BRANCH   3   4
ATOM      4  C   UNL A   1      33.656  28.365  26.394  1.00  0.00     0.116 C 
BRANCH   4   5
ATOM      5  N   UNL A   1      32.567  27.475  26.741  1.00  0.00    -0.353 N 
ATOM      6  C   UNL A   1      31.582  26.901  25.985  1.00  0.00     0.264 C 
ATOM      7  O   UNL A   1      30.807  26.168  26.614  1.00  0.00    -0.270 OA
ATOM      8  H   UNL A   1      32.529  27.240  27.696  1.00  0.00     0.163 HD
BRANCH   6   9
ATOM      9  C   UNL A   1      31.452  27.145  24.428  1.00  0.00     0.190 C 
ATOM     10  C   UNL A   1      30.108  26.587  23.989  1.00  0.00     0.080 C 
ATOM     11  C   UNL A   1      31.774  28.623  24.190  1.00  0.00     0.080 C 
ATOM     12  C   UNL A   1      29.075  27.584  23.491  1.00  0.00     0.124 C 
ATOM     13  C   UNL A   1      30.868  29.384  23.240  1.00  0.00     0.124 C 
ATOM     14  N   UNL A   1      29.478  28.951  23.164  1.00  0.00    -0.342 N 
ATOM     15  C   UNL A   1      28.452  29.737  22.620  1.00  0.00     0.228 C 
ATOM     16  O   UNL A   1      27.291  29.319  22.621  1.00  0.00    -0.274 OA
BRANCH   9  17
ATOM     17  O   UNL A   1      32.540  26.320  23.952  1.00  0.00    -0.477 OA
BRANCH  17  18
ATOM     18  C   UNL A   1      32.975  25.062  24.199  1.00  0.00     0.124 A 
ATOM     19  C   UNL A   1      31.035  23.460  23.535  1.00  0.00     0.048 C 
ATOM     20  C   UNL A   1      32.404  23.794  24.025  1.00  0.00    -0.006 A 
ATOM     21  C   UNL A   1      33.144  22.649  24.417  1.00  0.00     0.046 A 
ATOM     22  C   UNL A   1      34.413  22.756  24.961  1.00  0.00     0.123 A 
ATOM     23  C   UNL A   1      34.271  25.130  24.761  1.00  0.00     0.050 A 
ATOM     24  F   UNL A   1      35.074  21.650  25.322  1.00  0.00    -0.207 F 
ATOM     25  C   UNL A   1      34.988  23.995  25.142  1.00  0.00     0.043 A 
ENDBRANCH  17  18
ENDBRANCH   9  17
BRANCH  15  26
ATOM     26  C   UNL A   1      28.809  31.051  21.938  1.00  0.00     0.107 C 
ATOM     27  C   UNL A   1      27.961  31.260  20.697  1.00  0.00     0.044 C 
ATOM     28  C   UNL A   1      28.451  32.259  22.795  1.00  0.00     0.173 C 
ATOM     29  C   UNL A   1      27.804  32.760  20.612  1.00  0.00     0.161 C 
ATOM     30  O   UNL A   1      27.950  33.282  21.927  1.00  0.00    -0.381 OA
ENDBRANCH  15  26
ENDBRANCH   6   9
ENDBRANCH   4   5
ENDBRANCH   3   4
ENDBRANCH   2   3
ENDBRANCH   1   2
BRANCH   1  31
ATOM     31  C   UNL A   1      33.651  32.398  27.987  1.00  0.00     0.021 C 
BRANCH  31  32
ATOM     32  C   UNL A   1      33.861  33.870  27.657  1.00  0.00     0.116 C 
BRANCH  32  33
ATOM     33  N   UNL A   1      33.203  34.738  28.621  1.00  0.00    -0.352 N 
ATOM     34  C   UNL A   1      33.378  34.801  29.982  1.00  0.00     0.251 C 
ATOM     35  H   UNL A   1      32.542  35.364  28.248  1.00  0.00     0.163 HD
ATOM     36  O   UNL A   1      32.591  35.427  30.680  1.00  0.00    -0.269 OA
BRANCH  34  37
ATOM     37  C   UNL A   1      34.524  34.094  30.592  1.00  0.00     0.039 A 
ATOM     38  C   UNL A   1      34.285  33.053  31.491  1.00  0.00     0.014 A 
ATOM     39  C   UNL A   1      35.832  34.460  30.263  1.00  0.00     0.014 A 
ATOM     40  C   UNL A   1      35.363  32.344  32.026  1.00  0.00     0.010 A 
ATOM     41  C   UNL A   1      36.898  33.702  30.733  1.00  0.00     0.010 A 
ATOM     42  C   UNL A   1      36.676  32.647  31.632  1.00  0.00    -0.014 A 
BRANCH  42  43
ATOM     43  C   UNL A   1      37.843  31.896  32.159  1.00  0.00     0.031 A 
ATOM     44  C   UNL A   1      38.459  32.300  33.471  1.00  0.00     0.074 A 
ATOM     45  C   UNL A   1      38.410  30.927  31.415  1.00  0.00     0.049 A 
ATOM     46  N   UNL A   1      39.541  31.851  34.050  1.00  0.00    -0.248 NA
ATOM     47  C   UNL A   1      37.784  33.377  34.217  1.00  0.00     0.031 C 
ATOM     48  C   UNL A   1      37.946  30.490  30.097  1.00  0.00     0.029 A 
ATOM     49  N   UNL A   1      39.522  30.157  31.647  1.00  0.00    -0.354 N 
ATOM     50  C   UNL A   1      39.703  32.616  35.197  1.00  0.00     0.074 A 
ATOM     51  C   UNL A   1      38.628  33.583  35.216  1.00  0.00     0.031 C 
ATOM     52  C   UNL A   1      38.769  29.536  29.634  1.00  0.00     0.029 A 
ATOM     53  C   UNL A   1      39.840  29.319  30.603  1.00  0.00     0.049 A 
ATOM     54  H   UNL A   1      40.044  30.201  32.481  1.00  0.00     0.167 HD
ATOM     55  C   UNL A   1      40.645  32.508  36.165  1.00  0.00     0.034 A 
ATOM     56  C   UNL A   1      40.885  28.486  30.436  1.00  0.00     0.034 A 
ATOM     57  C   UNL A   1      41.691  31.522  36.158  1.00  0.00     0.049 A 
ATOM     58  C   UNL A   1      41.904  28.363  31.536  1.00  0.00     0.074 A 
ATOM     59  C   UNL A   1      42.644  31.273  37.128  1.00  0.00     0.029 A 
ATOM     60  N   UNL A   1      41.928  30.630  35.124  1.00  0.00    -0.354 N 
ATOM     61  N   UNL A   1      41.961  28.994  32.683  1.00  0.00    -0.248 NA
ATOM     62  C   UNL A   1      42.985  27.386  31.336  1.00  0.00     0.031 C 
ATOM     63  C   UNL A   1      43.481  30.252  36.664  1.00  0.00     0.029 A 
ATOM     64  C   UNL A   1      43.019  29.835  35.425  1.00  0.00     0.049 A 
ATOM     65  H   UNL A   1      41.398  30.570  34.296  1.00  0.00     0.167 HD
ATOM     66  C   UNL A   1      43.054  28.464  33.360  1.00  0.00     0.074 A 
ATOM     67  C   UNL A   1      43.624  27.449  32.496  1.00  0.00     0.031 C 
ATOM     68  C   UNL A   1      43.544  28.792  34.580  1.00  0.00     0.034 A 
BRANCH  55  69
ATOM     69  C   UNL A   1      40.562  33.464  37.329  1.00  0.00     0.023 A 
ATOM     70  C   UNL A   1      41.354  34.631  37.335  1.00  0.00     0.012 A 
ATOM     71  C   UNL A   1      39.678  33.226  38.399  1.00  0.00     0.148 A 
ATOM     72  C   UNL A   1      41.306  35.519  38.409  1.00  0.00     0.002 A 
ATOM     73  C   UNL A   1      39.597  34.143  39.441  1.00  0.00     0.091 A 
ATOM     74  F   UNL A   1      38.945  32.104  38.388  1.00  0.00    -0.205 F 
ATOM     75  C   UNL A   1      40.422  35.280  39.456  1.00  0.00     0.022 A 
BRANCH  73  76
ATOM     76  S   UNL A   1      38.428  33.970  40.794  1.00  0.00     0.127 S 
ATOM     77  O   UNL A   1      38.287  35.355  41.241  1.00  0.00    -0.237 OA
ATOM     78  O   UNL A   1      37.251  33.427  40.114  1.00  0.00    -0.237 OA
ATOM     79  O   UNL A   1      39.048  33.063  41.749  1.00  0.00    -0.744 OA
ENDBRANCH  73  76
ENDBRANCH  55  69
BRANCH  56  80
ATOM     80  C   UNL A   1      40.985  27.661  29.198  1.00  0.00     0.023 A 
ATOM     81  C   UNL A   1      40.210  26.492  29.081  1.00  0.00     0.012 A 
ATOM     82  C   UNL A   1      41.809  28.049  28.124  1.00  0.00     0.148 A 
ATOM     83  C   UNL A   1      40.279  25.705  27.931  1.00  0.00     0.002 A 
ATOM     84  C   UNL A   1      41.828  27.293  26.958  1.00  0.00     0.091 A 
ATOM     85  F   UNL A   1      42.542  29.164  28.257  1.00  0.00    -0.205 F 
ATOM     86  C   UNL A   1      41.079  26.111  26.867  1.00  0.00     0.022 A 
BRANCH  84  87
ATOM     87  S   UNL A   1      42.720  27.808  25.485  1.00  0.00     0.127 S 
ATOM     88  O   UNL A   1      42.642  26.610  24.654  1.00  0.00    -0.237 OA
ATOM     89  O   UNL A   1      41.909  28.935  25.022  1.00  0.00    -0.237 OA
ATOM     90  O   UNL A   1      44.055  28.177  25.939  1.00  0.00    -0.744 OA
ENDBRANCH  84  87
ENDBRANCH  56  80
BRANCH  68  91
ATOM     91  C   UNL A   1      44.726  28.012  35.096  1.00  0.00     0.023 A 
ATOM     92  C   UNL A   1      46.032  28.517  34.943  1.00  0.00     0.012 A 
ATOM     93  C   UNL A   1      44.527  26.816  35.815  1.00  0.00     0.148 A 
ATOM     94  C   UNL A   1      47.123  27.828  35.469  1.00  0.00     0.002 A 
ATOM     95  C   UNL A   1      45.614  26.163  36.382  1.00  0.00     0.091 A 
ATOM     96  F   UNL A   1      43.278  26.342  35.934  1.00  0.00    -0.205 F 
ATOM     97  C   UNL A   1      46.914  26.660  36.199  1.00  0.00     0.022 A 
BRANCH  95  98
ATOM     98  S   UNL A   1      45.430  24.711  37.423  1.00  0.00     0.127 S 
ATOM     99  O   UNL A   1      46.819  24.408  37.761  1.00  0.00    -0.237 OA
ATOM    100  O   UNL A   1      44.630  25.227  38.534  1.00  0.00    -0.237 OA
ATOM    101  O   UNL A   1      44.755  23.711  36.605  1.00  0.00    -0.744 OA
ENDBRANCH  95  98
ENDBRANCH  68  91
ENDBRANCH  42  43
ENDBRANCH  34  37
ENDBRANCH  32  33
ENDBRANCH  31  32
ENDBRANCH   1  31
TORSDOF 19
ENDMDL
MODEL 2
REMARK VINA RESULT:     -12.0      2.664      8.847
REMARK SMILES Cc1cc(F)ccc1OC1(C(=O)NCCCCCCNC(=O)c2ccc(-c3c4nc(c(-c5cccc(S(=O)(=O)[O-])c5F)c5ccc([nH]5)c(-c5cccc(S(=O)(=O)[O-])c5F)c5nc(c(-c6cccc(S(=O)(=O)[O-])c6F)c6ccc3[nH]6)C=C5)C=C4)cc2)CCN(C(=O)[C@H]2CCOC2)CC1
REMARK SMILES IDX 17 1 16 2 15 3 14 4 13 5 11 6 12 7 10 9 86 10 97 11 87 12
REMARK SMILES IDX 96 13 88 14 89 15 90 16 9 17 8 18 1 19 2 20 3 21 4 22 7 23
REMARK SMILES IDX 5 24 6 25 91 26 92 27 95 28 93 29 94 30 18 31 19 32 20 33
REMARK SMILES IDX 21 34 22 36 23 37 24 38 85 39 25 40 84 41 26 42 27 43 28 44
REMARK SMILES IDX 78 45 29 46 83 47 77 48 79 49 30 50 82 51 76 52 75 53 31 55
REMARK SMILES IDX 63 56 43 57 62 58 44 59 47 60 61 61 80 62 45 63 46 64 60 66
REMARK SMILES IDX 81 67 48 68 32 69 33 70 41 71 34 72 36 73 42 74 35 75 37 76
REMARK SMILES IDX 38 77 39 78 40 79 64 80 65 81 73 82 66 83 68 84 74 85 67 86
REMARK SMILES IDX 69 87 70 88 71 89 72 90 49 91 50 92 58 93 51 94 53 95 59 96
REMARK SMILES IDX 52 97 54 98 55 99 56 100 57 101
REMARK H PARENT 13 8 20 35 79 54 47 65
REMARK Flexibility Score: inf
ROOT
ATOM      1  C   UNL A   1      31.542  28.927  25.718  1.00  0.00     0.002 C 
ENDROOT
BRANCH   1   2
ATOM      2  C   UNL A   1      32.636  28.204  26.509  1.00  0.00     0.002 C 
BRANCH   2   3
ATOM      3  C   UNL A   1      33.690  27.498  25.653  1.00  0.00     0.021 C 
BRANCH   3   4
ATOM      4  C   UNL A   1      33.652  25.974  25.750  1.00  0.00     0.116 C 
BRANCH   4   5
ATOM      5  N   UNL A   1      32.457  25.509  26.427  1.00  0.00    -0.353 N 
ATOM      6  C   UNL A   1      31.586  24.494  26.146  1.00  0.00     0.264 C 
ATOM      7  O   UNL A   1      30.662  24.364  26.960  1.00  0.00    -0.270 OA
ATOM      8  H   UNL A   1      32.233  26.019  27.240  1.00  0.00     0.163 HD
BRANCH   6   9
ATOM      9  C   UNL A   1      31.755  23.551  24.888  1.00  0.00     0.190 C 
ATOM     10  C   UNL A   1      33.196  23.673  24.418  1.00  0.00     0.080 C 
ATOM     11  C   UNL A   1      31.202  22.182  25.291  1.00  0.00     0.080 C 
ATOM     12  C   UNL A   1      34.071  22.437  24.545  1.00  0.00     0.124 C 
ATOM     13  C   UNL A   1      32.016  20.964  24.897  1.00  0.00     0.124 C 
ATOM     14  N   UNL A   1      33.461  21.135  24.811  1.00  0.00    -0.342 N 
ATOM     15  C   UNL A   1      34.368  20.066  24.803  1.00  0.00     0.228 C 
ATOM     16  O   UNL A   1      35.581  20.287  24.763  1.00  0.00    -0.274 OA
BRANCH   9  17
ATOM     17  O   UNL A   1      30.849  24.197  23.965  1.00  0.00    -0.477 OA
BRANCH  17  18
ATOM     18  C   UNL A   1      30.713  25.448  23.463  1.00  0.00     0.124 A 
ATOM     19  C   UNL A   1      32.887  25.953  22.125  1.00  0.00     0.048 C 
ATOM     20  C   UNL A   1      31.524  26.254  22.652  1.00  0.00    -0.006 A 
ATOM     21  C   UNL A   1      31.079  27.558  22.320  1.00  0.00     0.046 A 
ATOM     22  C   UNL A   1      29.867  28.050  22.773  1.00  0.00     0.123 A 
ATOM     23  C   UNL A   1      29.484  25.986  23.909  1.00  0.00     0.050 A 
ATOM     24  F   UNL A   1      29.488  29.290  22.439  1.00  0.00    -0.207 F 
ATOM     25  C   UNL A   1      29.059  27.273  23.573  1.00  0.00     0.043 A 
ENDBRANCH  17  18
ENDBRANCH   9  17
BRANCH  15  26
ATOM     26  C   UNL A   1      33.831  18.641  24.735  1.00  0.00     0.107 C 
ATOM     27  C   UNL A   1      33.051  18.423  23.452  1.00  0.00     0.044 C 
ATOM     28  C   UNL A   1      34.948  17.611  24.627  1.00  0.00     0.173 C 
ATOM     29  C   UNL A   1      33.282  16.965  23.130  1.00  0.00     0.161 C 
ATOM     30  O   UNL A   1      34.514  16.583  23.728  1.00  0.00    -0.381 OA
ENDBRANCH  15  26
ENDBRANCH   6   9
ENDBRANCH   4   5
ENDBRANCH   3   4
ENDBRANCH   2   3
ENDBRANCH   1   2
BRANCH   1  31
ATOM     31  C   UNL A   1      31.598  30.455  25.787  1.00  0.00     0.021 C 
BRANCH  31  32
ATOM     32  C   UNL A   1      32.459  31.001  26.919  1.00  0.00     0.116 C 
BRANCH  32  33
ATOM     33  N   UNL A   1      32.413  32.454  26.977  1.00  0.00    -0.352 N 
ATOM     34  C   UNL A   1      33.213  33.312  27.692  1.00  0.00     0.251 C 
ATOM     35  H   UNL A   1      31.713  32.880  26.433  1.00  0.00     0.163 HD
ATOM     36  O   UNL A   1      32.907  34.492  27.810  1.00  0.00    -0.269 OA
BRANCH  34  37
ATOM     37  C   UNL A   1      34.443  32.789  28.323  1.00  0.00     0.039 A 
ATOM     38  C   UNL A   1      35.641  33.489  28.169  1.00  0.00     0.014 A 
ATOM     39  C   UNL A   1      34.402  31.612  29.075  1.00  0.00     0.014 A 
ATOM     40  C   UNL A   1      36.794  33.031  28.812  1.00  0.00     0.010 A 
ATOM     41  C   UNL A   1      35.529  31.204  29.778  1.00  0.00     0.010 A 
ATOM     42  C   UNL A   1      36.741  31.900  29.641  1.00  0.00    -0.014 A 
BRANCH  42  43
ATOM     43  C   UNL A   1      37.939  31.401  30.361  1.00  0.00     0.031 A 
ATOM     44  C   UNL A   1      38.810  30.355  29.723  1.00  0.00     0.074 A 
ATOM     45  C   UNL A   1      38.183  31.810  31.621  1.00  0.00     0.049 A 
ATOM     46  N   UNL A   1      39.832  29.711  30.224  1.00  0.00    -0.248 NA
ATOM     47  C   UNL A   1      38.468  29.955  28.347  1.00  0.00     0.031 C 
ATOM     48  C   UNL A   1      37.373  32.770  32.373  1.00  0.00     0.029 A 
ATOM     49  N   UNL A   1      39.166  31.440  32.506  1.00  0.00    -0.354 N 
ATOM     50  C   UNL A   1      40.223  28.802  29.249  1.00  0.00     0.074 A 
ATOM     51  C   UNL A   1      39.307  28.952  28.139  1.00  0.00     0.031 C 
ATOM     52  C   UNL A   1      37.887  32.910  33.605  1.00  0.00     0.029 A 
ATOM     53  C   UNL A   1      39.038  32.022  33.745  1.00  0.00     0.049 A 
ATOM     54  H   UNL A   1      39.893  30.818  32.275  1.00  0.00     0.167 HD
ATOM     55  C   UNL A   1      41.266  27.939  29.261  1.00  0.00     0.034 A 
ATOM     56  C   UNL A   1      39.754  31.847  34.873  1.00  0.00     0.034 A 
ATOM     57  C   UNL A   1      42.194  27.819  30.353  1.00  0.00     0.049 A 
ATOM     58  C   UNL A   1      40.926  30.902  34.856  1.00  0.00     0.074 A 
ATOM     59  C   UNL A   1      43.330  27.037  30.434  1.00  0.00     0.029 A 
ATOM     60  N   UNL A   1      42.083  28.491  31.561  1.00  0.00    -0.354 N 
ATOM     61  N   UNL A   1      41.368  30.156  33.874  1.00  0.00    -0.248 NA
ATOM     62  C   UNL A   1      41.718  30.802  36.090  1.00  0.00     0.031 C 
ATOM     63  C   UNL A   1      43.889  27.210  31.704  1.00  0.00     0.029 A 
ATOM     64  C   UNL A   1      43.125  28.135  32.398  1.00  0.00     0.049 A 
ATOM     65  H   UNL A   1      41.368  29.128  31.789  1.00  0.00     0.167 HD
ATOM     66  C   UNL A   1      42.514  29.531  34.354  1.00  0.00     0.074 A 
ATOM     67  C   UNL A   1      42.702  29.997  35.713  1.00  0.00     0.031 C 
ATOM     68  C   UNL A   1      43.330  28.647  33.730  1.00  0.00     0.034 A 
BRANCH  55  69
ATOM     69  C   UNL A   1      41.476  27.081  28.039  1.00  0.00     0.023 A 
ATOM     70  C   UNL A   1      42.086  27.631  26.892  1.00  0.00     0.012 A 
ATOM     71  C   UNL A   1      41.101  25.723  28.035  1.00  0.00     0.148 A 
ATOM     72  C   UNL A   1      42.273  26.860  25.746  1.00  0.00     0.002 A 
ATOM     73  C   UNL A   1      41.338  24.947  26.906  1.00  0.00     0.091 A 
ATOM     74  F   UNL A   1      40.505  25.219  29.125  1.00  0.00    -0.205 F 
ATOM     75  C   UNL A   1      41.909  25.517  25.756  1.00  0.00     0.022 A 
BRANCH  73  76
ATOM     76  S   UNL A   1      40.985  23.187  26.849  1.00  0.00     0.127 S 
ATOM     77  O   UNL A   1      41.812  22.756  25.723  1.00  0.00    -0.237 OA
ATOM     78  O   UNL A   1      41.457  22.737  28.160  1.00  0.00    -0.237 OA
ATOM     79  O   UNL A   1      39.548  23.071  26.651  1.00  0.00    -0.744 OA
ENDBRANCH  73  76
ENDBRANCH  55  69
BRANCH  56  80
ATOM     80  C   UNL A   1      39.413  32.629  36.096  1.00  0.00     0.023 A 
ATOM     81  C   UNL A   1      39.961  33.914  36.271  1.00  0.00     0.012 A 
ATOM     82  C   UNL A   1      38.522  32.124  37.063  1.00  0.00     0.148 A 
ATOM     83  C   UNL A   1      39.653  34.670  37.403  1.00  0.00     0.002 A 
ATOM     84  C   UNL A   1      38.175  32.906  38.158  1.00  0.00     0.091 A 
ATOM     85  F   UNL A   1      38.016  30.897  36.880  1.00  0.00    -0.205 F 
ATOM     86  C   UNL A   1      38.754  34.171  38.340  1.00  0.00     0.022 A 
BRANCH  84  87
ATOM     87  S   UNL A   1      36.921  32.405  39.345  1.00  0.00     0.127 S 
ATOM     88  O   UNL A   1      35.688  32.693  38.617  1.00  0.00    -0.237 OA
ATOM     89  O   UNL A   1      37.220  30.982  39.515  1.00  0.00    -0.237 OA
ATOM     90  O   UNL A   1      37.155  33.213  40.535  1.00  0.00    -0.744 OA
ENDBRANCH  84  87
ENDBRANCH  56  80
BRANCH  68  91
ATOM     91  C   UNL A   1      44.544  28.160  34.479  1.00  0.00     0.023 A 
ATOM     92  C   UNL A   1      45.739  28.904  34.454  1.00  0.00     0.012 A 
ATOM     93  C   UNL A   1      44.465  27.004  35.282  1.00  0.00     0.148 A 
ATOM     94  C   UNL A   1      46.847  28.487  35.191  1.00  0.00     0.002 A 
ATOM     95  C   UNL A   1      45.554  26.625  36.055  1.00  0.00     0.091 A 
ATOM     96  F   UNL A   1      43.323  26.300  35.277  1.00  0.00    -0.205 F 
ATOM     97  C   UNL A   1      46.750  27.358  36.001  1.00  0.00     0.022 A 
BRANCH  95  98
ATOM     98  S   UNL A   1      45.488  25.246  37.204  1.00  0.00     0.127 S 
ATOM     99  O   UNL A   1      45.337  24.109  36.297  1.00  0.00    -0.237 OA
ATOM    100  O   UNL A   1      46.791  25.331  37.864  1.00  0.00    -0.237 OA
ATOM    101  O   UNL A   1      44.350  25.503  38.077  1.00  0.00    -0.744 OA
ENDBRANCH  95  98
ENDBRANCH  68  91
ENDBRANCH  42  43
ENDBRANCH  34  37
ENDBRANCH  32  33
ENDBRANCH  31  32
ENDBRANCH   1  31
TORSDOF 19
ENDMDL
MODEL 3
REMARK VINA RESULT:     -11.9      2.187      4.300
REMARK SMILES Cc1cc(F)ccc1OC1(C(=O)NCCCCCCNC(=O)c2ccc(-c3c4nc(c(-c5cccc(S(=O)(=O)[O-])c5F)c5ccc([nH]5)c(-c5cccc(S(=O)(=O)[O-])c5F)c5nc(c(-c6cccc(S(=O)(=O)[O-])c6F)c6ccc3[nH]6)C=C5)C=C4)cc2)CCN(C(=O)[C@H]2CCOC2)CC1
REMARK SMILES IDX 17 1 16 2 15 3 14 4 13 5 11 6 12 7 10 9 86 10 97 11 87 12
REMARK SMILES IDX 96 13 88 14 89 15 90 16 9 17 8 18 1 19 2 20 3 21 4 22 7 23
REMARK SMILES IDX 5 24 6 25 91 26 92 27 95 28 93 29 94 30 18 31 19 32 20 33
REMARK SMILES IDX 21 34 22 36 23 37 24 38 85 39 25 40 84 41 26 42 27 43 28 44
REMARK SMILES IDX 78 45 29 46 83 47 77 48 79 49 30 50 82 51 76 52 75 53 31 55
REMARK SMILES IDX 63 56 43 57 62 58 44 59 47 60 61 61 80 62 45 63 46 64 60 66
REMARK SMILES IDX 81 67 48 68 32 69 33 70 41 71 34 72 36 73 42 74 35 75 37 76
REMARK SMILES IDX 38 77 39 78 40 79 64 80 65 81 73 82 66 83 68 84 74 85 67 86
REMARK SMILES IDX 69 87 70 88 71 89 72 90 49 91 50 92 58 93 51 94 53 95 59 96
REMARK SMILES IDX 52 97 54 98 55 99 56 100 57 101
REMARK H PARENT 13 8 20 35 79 54 47 65
REMARK Flexibility Score: inf
ROOT
ATOM      1  C   UNL A   1      35.594  33.340  28.013  1.00  0.00     0.002 C 
ENDROOT
BRANCH   1   2
ATOM      2  C   UNL A   1      35.289  31.840  28.018  1.00  0.00     0.002 C 
BRANCH   2   3
ATOM      3  C   UNL A   1      33.831  31.478  27.722  1.00  0.00     0.021 C 
BRANCH   3   4
ATOM      4  C   UNL A   1      33.653  30.127  27.031  1.00  0.00     0.116 C 
BRANCH   4   5
ATOM      5  N   UNL A   1      32.611  29.338  27.656  1.00  0.00    -0.353 N 
ATOM      6  C   UNL A   1      31.930  28.229  27.235  1.00  0.00     0.264 C 
ATOM      7  O   UNL A   1      31.098  27.794  28.043  1.00  0.00    -0.270 OA
ATOM      8  H   UNL A   1      32.345  29.659  28.549  1.00  0.00     0.163 HD
BRANCH   6   9
ATOM      9  C   UNL A   1      32.196  27.548  25.833  1.00  0.00     0.190 C 
ATOM     10  C   UNL A   1      33.649  27.098  25.813  1.00  0.00     0.080 C 
ATOM     11  C   UNL A   1      31.081  26.520  25.629  1.00  0.00     0.080 C 
ATOM     12  C   UNL A   1      33.909  25.602  25.767  1.00  0.00     0.124 C 
ATOM     13  C   UNL A   1      31.486  25.157  25.097  1.00  0.00     0.124 C 
ATOM     14  N   UNL A   1      32.820  24.682  25.444  1.00  0.00    -0.342 N 
ATOM     15  C   UNL A   1      33.216  23.341  25.334  1.00  0.00     0.228 C 
ATOM     16  O   UNL A   1      34.351  23.005  25.680  1.00  0.00    -0.274 OA
BRANCH   9  17
ATOM     17  O   UNL A   1      31.989  28.681  24.959  1.00  0.00    -0.477 OA
BRANCH  17  18
ATOM     18  C   UNL A   1      31.035  29.053  24.073  1.00  0.00     0.124 A 
ATOM     19  C   UNL A   1      31.069  27.293  22.157  1.00  0.00     0.048 C 
ATOM     20  C   UNL A   1      30.568  28.503  22.872  1.00  0.00    -0.006 A 
ATOM     21  C   UNL A   1      29.542  29.177  22.162  1.00  0.00     0.046 A 
ATOM     22  C   UNL A   1      28.991  30.359  22.629  1.00  0.00     0.123 A 
ATOM     23  C   UNL A   1      30.450  30.263  24.515  1.00  0.00     0.050 A 
ATOM     24  F   UNL A   1      28.028  30.965  21.925  1.00  0.00    -0.207 F 
ATOM     25  C   UNL A   1      29.441  30.916  23.807  1.00  0.00     0.043 A 
ENDBRANCH  17  18
ENDBRANCH   9  17
BRANCH  15  26
ATOM     26  C   UNL A   1      32.267  22.340  24.686  1.00  0.00     0.107 C 
ATOM     27  C   UNL A   1      32.630  22.123  23.229  1.00  0.00     0.044 C 
ATOM     28  C   UNL A   1      32.413  20.945  25.280  1.00  0.00     0.173 C 
ATOM     29  C   UNL A   1      32.242  20.685  22.969  1.00  0.00     0.161 C 
ATOM     30  O   UNL A   1      32.287  19.996  24.212  1.00  0.00    -0.381 OA
ENDBRANCH  15  26
ENDBRANCH   6   9
ENDBRANCH   4   5
ENDBRANCH   3   4
ENDBRANCH   2   3
ENDBRANCH   1   2
BRANCH   1  31
ATOM     31  C   UNL A   1      34.364  34.249  27.948  1.00  0.00     0.021 C 
BRANCH  31  32
ATOM     32  C   UNL A   1      34.545  35.601  28.627  1.00  0.00     0.116 C 
BRANCH  32  33
ATOM     33  N   UNL A   1      33.542  35.824  29.657  1.00  0.00    -0.352 N 
ATOM     34  C   UNL A   1      33.429  35.230  30.890  1.00  0.00     0.251 C 
ATOM     35  H   UNL A   1      32.851  36.490  29.441  1.00  0.00     0.163 HD
ATOM     36  O   UNL A   1      32.406  35.361  31.550  1.00  0.00    -0.269 OA
BRANCH  34  37
ATOM     37  C   UNL A   1      34.555  34.421  31.405  1.00  0.00     0.039 A 
ATOM     38  C   UNL A   1      34.314  33.122  31.855  1.00  0.00     0.014 A 
ATOM     39  C   UNL A   1      35.847  34.953  31.431  1.00  0.00     0.014 A 
ATOM     40  C   UNL A   1      35.383  32.334  32.288  1.00  0.00     0.010 A 
ATOM     41  C   UNL A   1      36.918  34.141  31.785  1.00  0.00     0.010 A 
ATOM     42  C   UNL A   1      36.696  32.829  32.233  1.00  0.00    -0.014 A 
BRANCH  42  43
ATOM     43  C   UNL A   1      37.858  32.010  32.658  1.00  0.00     0.031 A 
ATOM     44  C   UNL A   1      38.565  32.332  33.946  1.00  0.00     0.074 A 
ATOM     45  C   UNL A   1      38.338  31.050  31.843  1.00  0.00     0.049 A 
ATOM     46  N   UNL A   1      39.659  31.815  34.440  1.00  0.00    -0.248 NA
ATOM     47  C   UNL A   1      37.983  33.403  34.773  1.00  0.00     0.031 C 
ATOM     48  C   UNL A   1      37.780  30.689  30.539  1.00  0.00     0.029 A 
ATOM     49  N   UNL A   1      39.428  30.227  31.977  1.00  0.00    -0.354 N 
ATOM     50  C   UNL A   1      39.920  32.523  35.606  1.00  0.00     0.074 A 
ATOM     51  C   UNL A   1      38.891  33.532  35.728  1.00  0.00     0.031 C 
ATOM     52  C   UNL A   1      38.533  29.723  29.990  1.00  0.00     0.029 A 
ATOM     53  C   UNL A   1      39.648  29.422  30.884  1.00  0.00     0.049 A 
ATOM     54  H   UNL A   1      39.999  30.214  32.779  1.00  0.00     0.167 HD
ATOM     55  C   UNL A   1      40.911  32.336  36.511  1.00  0.00     0.034 A 
ATOM     56  C   UNL A   1      40.646  28.555  30.621  1.00  0.00     0.034 A 
ATOM     57  C   UNL A   1      41.912  31.310  36.402  1.00  0.00     0.049 A 
ATOM     58  C   UNL A   1      41.721  28.344  31.653  1.00  0.00     0.074 A 
ATOM     59  C   UNL A   1      42.908  30.981  37.302  1.00  0.00     0.029 A 
ATOM     60  N   UNL A   1      42.050  30.453  35.320  1.00  0.00    -0.354 N 
ATOM     61  N   UNL A   1      41.871  28.923  32.818  1.00  0.00    -0.248 NA
ATOM     62  C   UNL A   1      42.745  27.333  31.349  1.00  0.00     0.031 C 
ATOM     63  C   UNL A   1      43.672  29.948  36.749  1.00  0.00     0.029 A 
ATOM     64  C   UNL A   1      43.122  29.603  35.524  1.00  0.00     0.049 A 
ATOM     65  H   UNL A   1      41.471  30.451  34.524  1.00  0.00     0.167 HD
ATOM     66  C   UNL A   1      42.977  28.321  33.407  1.00  0.00     0.074 A 
ATOM     67  C   UNL A   1      43.452  27.322  32.471  1.00  0.00     0.031 C 
ATOM     68  C   UNL A   1      43.551  28.576  34.608  1.00  0.00     0.034 A 
BRANCH  55  69
ATOM     69  C   UNL A   1      40.937  33.244  37.714  1.00  0.00     0.023 A 
ATOM     70  C   UNL A   1      40.078  32.989  38.804  1.00  0.00     0.012 A 
ATOM     71  C   UNL A   1      41.832  34.330  37.783  1.00  0.00     0.148 A 
ATOM     72  C   UNL A   1      40.074  33.825  39.919  1.00  0.00     0.002 A 
ATOM     73  C   UNL A   1      41.858  35.129  38.921  1.00  0.00     0.091 A 
ATOM     74  F   UNL A   1      42.628  34.571  36.732  1.00  0.00    -0.205 F 
ATOM     75  C   UNL A   1      40.969  34.889  39.981  1.00  0.00     0.022 A 
BRANCH  73  76
ATOM     76  S   UNL A   1      43.034  36.470  39.134  1.00  0.00     0.127 S 
ATOM     77  O   UNL A   1      42.654  37.372  38.048  1.00  0.00    -0.237 OA
ATOM     78  O   UNL A   1      42.704  36.956  40.475  1.00  0.00    -0.237 OA
ATOM     79  O   UNL A   1      44.354  35.869  39.016  1.00  0.00    -0.744 OA
ENDBRANCH  73  76
ENDBRANCH  55  69
BRANCH  56  80
ATOM     80  C   UNL A   1      40.637  27.780  29.347  1.00  0.00     0.023 A 
ATOM     81  C   UNL A   1      39.685  26.759  29.164  1.00  0.00     0.012 A 
ATOM     82  C   UNL A   1      41.538  28.075  28.305  1.00  0.00     0.148 A 
ATOM     83  C   UNL A   1      39.651  26.024  27.979  1.00  0.00     0.002 A 
ATOM     84  C   UNL A   1      41.460  27.378  27.106  1.00  0.00     0.091 A 
ATOM     85  F   UNL A   1      42.439  29.047  28.502  1.00  0.00    -0.205 F 
ATOM     86  C   UNL A   1      40.530  26.339  26.947  1.00  0.00     0.022 A 
BRANCH  84  87
ATOM     87  S   UNL A   1      42.457  27.804  25.673  1.00  0.00     0.127 S 
ATOM     88  O   UNL A   1      41.908  29.106  25.303  1.00  0.00    -0.237 OA
ATOM     89  O   UNL A   1      43.804  27.843  26.245  1.00  0.00    -0.237 OA
ATOM     90  O   UNL A   1      42.246  26.732  24.709  1.00  0.00    -0.744 OA
ENDBRANCH  84  87
ENDBRANCH  56  80
BRANCH  68  91
ATOM     91  C   UNL A   1      44.726  27.728  35.021  1.00  0.00     0.023 A 
ATOM     92  C   UNL A   1      46.041  28.172  34.782  1.00  0.00     0.012 A 
ATOM     93  C   UNL A   1      44.520  26.526  35.728  1.00  0.00     0.148 A 
ATOM     94  C   UNL A   1      47.132  27.419  35.214  1.00  0.00     0.002 A 
ATOM     95  C   UNL A   1      45.610  25.808  36.201  1.00  0.00     0.091 A 
ATOM     96  F   UNL A   1      43.261  26.112  35.929  1.00  0.00    -0.205 F 
ATOM     97  C   UNL A   1      46.917  26.245  35.934  1.00  0.00     0.022 A 
BRANCH  95  98
ATOM     98  S   UNL A   1      45.429  24.343  37.224  1.00  0.00     0.127 S 
ATOM     99  O   UNL A   1      44.603  24.845  38.321  1.00  0.00    -0.237 OA
ATOM    100  O   UNL A   1      44.745  23.418  36.320  1.00  0.00    -0.237 OA
ATOM    101  O   UNL A   1      46.779  23.940  37.594  1.00  0.00    -0.744 OA
ENDBRANCH  95  98
ENDBRANCH  68  91
ENDBRANCH  42  43
ENDBRANCH  34  37
ENDBRANCH  32  33
ENDBRANCH  31  32
ENDBRANCH   1  31
TORSDOF 19
ENDMDL
