MODEL 1
REMARK VINA RESULT:     -11.1      0.000      0.000
REMARK SMILES C[NH+](C)[C@@H]1CC[N@@H+](Cc2ccc(C(=O)NCCCCCCNC(=O)c3ccc(-c4c5nc(c(-c6cccc(S(=O)(=O)[O-])c6F)c6ccc([nH]6)c(-c6cccc(S(=O)(=O)[O-])c6F)c6nc(c(-c7cccc(S(=O)(=O)[O-])c7F)c7ccc4[nH]7)C=C6)C=C5)cc3)cn2)C1
REMARK SMILES IDX 18 1 17 2 16 3 15 4 13 5 14 6 12 8 9 9 10 10 89 11 11 12
REMARK SMILES IDX 88 13 8 14 7 15 4 16 5 17 90 18 6 19 2 21 1 22 3 23 19 25
REMARK SMILES IDX 20 26 21 27 22 28 23 29 24 31 25 32 26 33 87 34 27 35 86 36
REMARK SMILES IDX 28 37 29 38 30 39 80 40 31 41 85 42 79 43 81 44 32 45 84 46
REMARK SMILES IDX 78 47 77 48 33 50 65 51 45 52 64 53 46 54 49 55 63 56 82 57
REMARK SMILES IDX 47 58 48 59 62 61 83 62 50 63 34 64 35 65 43 66 36 67 38 68
REMARK SMILES IDX 44 69 37 70 39 71 40 72 41 73 42 74 66 75 67 76 75 77 68 78
REMARK SMILES IDX 70 79 76 80 69 81 71 82 72 83 73 84 74 85 51 86 52 87 60 88
REMARK SMILES IDX 53 89 55 90 61 91 54 92 56 93 57 94 58 95 59 96
REMARK H PARENT 15 7 7 20 2 24 22 30 81 49 49 60
REMARK Flexibility Score: inf
ROOT
ATOM      1  C   UNL A   1      31.326  29.088  24.788  1.00  0.00     0.002 C 
ENDROOT
BRANCH   1   2
ATOM      2  C   UNL A   1      31.546  28.893  23.282  1.00  0.00     0.021 C 
BRANCH   2   3
ATOM      3  C   UNL A   1      33.016  28.705  22.899  1.00  0.00     0.116 C 
BRANCH   3   4
ATOM      4  N   UNL A   1      33.131  27.780  21.786  1.00  0.00    -0.352 N 
ATOM      5  C   UNL A   1      33.188  26.411  21.745  1.00  0.00     0.252 C 
ATOM      6  O   UNL A   1      33.250  25.857  20.648  1.00  0.00    -0.269 OA
ATOM      7  H   UNL A   1      33.175  28.213  20.903  1.00  0.00     0.163 HD
BRANCH   5   8
ATOM      8  C   UNL A   1      33.096  25.581  22.963  1.00  0.00     0.058 A 
ATOM      9  C   UNL A   1      32.558  24.116  25.236  1.00  0.00     0.095 A 
ATOM     10  C   UNL A   1      33.735  24.856  25.168  1.00  0.00     0.030 A 
ATOM     11  N   UNL A   1      31.709  24.012  24.181  1.00  0.00    -0.255 NA
ATOM     12  C   UNL A   1      34.014  25.579  24.010  1.00  0.00     0.017 A 
ATOM     13  C   UNL A   1      31.997  24.741  23.076  1.00  0.00     0.125 A 
BRANCH   9  14
ATOM     14  C   UNL A   1      32.134  23.464  26.540  1.00  0.00     0.319 C 
BRANCH  14  15
ATOM     15  N   UNL A   1      32.281  22.000  26.638  1.00  0.00    -0.325 N 
ATOM     16  C   UNL A   1      33.270  20.677  24.830  1.00  0.00     0.245 C 
ATOM     17  C   UNL A   1      34.355  21.131  25.810  1.00  0.00     0.132 C 
ATOM     18  C   UNL A   1      31.952  21.252  25.415  1.00  0.00     0.328 C 
ATOM     19  C   UNL A   1      33.609  21.553  27.062  1.00  0.00     0.269 C 
ATOM     20  H   UNL A   1      31.591  21.789  27.358  1.00  0.00     0.348 HD
BRANCH  16  21
ATOM     21  N   UNL A   1      33.247  19.239  24.486  1.00  0.00    -0.333 N 
ATOM     22  C   UNL A   1      32.817  18.405  25.610  1.00  0.00     0.332 C 
ATOM     23  C   UNL A   1      32.469  18.909  23.293  1.00  0.00     0.332 C 
ATOM     24  H   UNL A   1      34.221  19.027  24.265  1.00  0.00     0.348 HD
ENDBRANCH  16  21
ENDBRANCH  14  15
ENDBRANCH   9  14
ENDBRANCH   5   8
ENDBRANCH   3   4
ENDBRANCH   2   3
ENDBRANCH   1   2
BRANCH   1  25
ATOM     25  C   UNL A   1      31.741  27.900  25.661  1.00  0.00     0.002 C 
BRANCH  25  26
ATOM     26  C   UNL A   1      32.732  28.233  26.780  1.00  0.00     0.021 C 
BRANCH  26  27
ATOM     27  C   UNL A   1      33.972  28.994  26.323  1.00  0.00     0.116 C 
BRANCH  27  28
ATOM     28  N   UNL A   1      33.933  30.385  26.744  1.00  0.00    -0.352 N 
ATOM     29  C   UNL A   1      34.729  31.040  27.649  1.00  0.00     0.251 C 
ATOM     30  H   UNL A   1      33.237  30.935  26.318  1.00  0.00     0.163 HD
ATOM     31  O   UNL A   1      34.409  32.158  28.043  1.00  0.00    -0.269 OA
BRANCH  29  32
ATOM     32  C   UNL A   1      35.968  30.403  28.150  1.00  0.00     0.039 A 
ATOM     33  C   UNL A   1      35.925  29.699  29.356  1.00  0.00     0.014 A 
ATOM     34  C   UNL A   1      37.178  30.540  27.462  1.00  0.00     0.014 A 
ATOM     35  C   UNL A   1      37.090  29.115  29.862  1.00  0.00     0.010 A 
ATOM     36  C   UNL A   1      38.321  29.899  27.931  1.00  0.00     0.010 A 
ATOM     37  C   UNL A   1      38.296  29.203  29.149  1.00  0.00    -0.014 A 
BRANCH  37  38
ATOM     38  C   UNL A   1      39.553  28.624  29.687  1.00  0.00     0.031 A 
ATOM     39  C   UNL A   1      40.198  29.236  30.905  1.00  0.00     0.074 A 
ATOM     40  C   UNL A   1      40.143  27.590  29.055  1.00  0.00     0.049 A 
ATOM     41  N   UNL A   1      41.322  28.916  31.493  1.00  0.00    -0.248 NA
ATOM     42  C   UNL A   1      39.502  30.375  31.528  1.00  0.00     0.031 C 
ATOM     43  C   UNL A   1      39.653  26.953  27.831  1.00  0.00     0.029 A 
ATOM     44  N   UNL A   1      41.299  26.909  29.343  1.00  0.00    -0.354 N 
ATOM     45  C   UNL A   1      41.482  29.829  32.530  1.00  0.00     0.074 A 
ATOM     46  C   UNL A   1      40.362  30.742  32.466  1.00  0.00     0.031 C 
ATOM     47  C   UNL A   1      40.501  25.973  27.476  1.00  0.00     0.029 A 
ATOM     48  C   UNL A   1      41.604  25.925  28.431  1.00  0.00     0.049 A 
ATOM     49  H   UNL A   1      41.859  27.105  30.129  1.00  0.00     0.167 HD
ATOM     50  C   UNL A   1      42.451  29.882  33.474  1.00  0.00     0.034 A 
ATOM     51  C   UNL A   1      42.653  25.082  28.374  1.00  0.00     0.034 A 
ATOM     52  C   UNL A   1      43.532  28.941  33.569  1.00  0.00     0.049 A 
ATOM     53  C   UNL A   1      43.687  25.132  29.468  1.00  0.00     0.074 A 
ATOM     54  C   UNL A   1      44.537  28.874  34.518  1.00  0.00     0.029 A 
ATOM     55  N   UNL A   1      43.744  27.892  32.688  1.00  0.00    -0.354 N 
ATOM     56  N   UNL A   1      43.747  25.919  30.514  1.00  0.00    -0.248 NA
ATOM     57  C   UNL A   1      44.774  24.144  29.398  1.00  0.00     0.031 C 
ATOM     58  C   UNL A   1      45.358  27.785  34.209  1.00  0.00     0.029 A 
ATOM     59  C   UNL A   1      44.854  27.163  33.079  1.00  0.00     0.049 A 
ATOM     60  H   UNL A   1      43.188  27.694  31.901  1.00  0.00     0.167 HD
ATOM     61  C   UNL A   1      44.845  25.490  31.252  1.00  0.00     0.074 A 
ATOM     62  C   UNL A   1      45.409  24.361  30.542  1.00  0.00     0.031 C 
ATOM     63  C   UNL A   1      45.354  25.994  32.403  1.00  0.00     0.034 A 
BRANCH  50  64
ATOM     64  C   UNL A   1      42.344  30.950  34.532  1.00  0.00     0.023 A 
ATOM     65  C   UNL A   1      41.699  30.652  35.749  1.00  0.00     0.012 A 
ATOM     66  C   UNL A   1      42.935  32.217  34.355  1.00  0.00     0.148 A 
ATOM     67  C   UNL A   1      41.618  31.605  36.764  1.00  0.00     0.002 A 
ATOM     68  C   UNL A   1      42.888  33.147  35.387  1.00  0.00     0.091 A 
ATOM     69  F   UNL A   1      43.529  32.488  33.184  1.00  0.00    -0.205 F 
ATOM     70  C   UNL A   1      42.222  32.846  36.587  1.00  0.00     0.022 A 
BRANCH  68  71
ATOM     71  S   UNL A   1      43.698  34.748  35.295  1.00  0.00     0.127 S 
ATOM     72  O   UNL A   1      42.812  35.475  34.388  1.00  0.00    -0.237 OA
ATOM     73  O   UNL A   1      43.649  35.197  36.686  1.00  0.00    -0.237 OA
ATOM     74  O   UNL A   1      45.037  34.493  34.782  1.00  0.00    -0.744 OA
ENDBRANCH  68  71
ENDBRANCH  50  64
BRANCH  51  75
ATOM     75  C   UNL A   1      42.746  24.063  27.289  1.00  0.00     0.023 A 
ATOM     76  C   UNL A   1      43.445  24.377  26.105  1.00  0.00     0.012 A 
ATOM     77  C   UNL A   1      42.143  22.798  27.412  1.00  0.00     0.148 A 
ATOM     78  C   UNL A   1      43.499  23.469  25.047  1.00  0.00     0.002 A 
ATOM     79  C   UNL A   1      42.249  21.876  26.375  1.00  0.00     0.091 A 
ATOM     80  F   UNL A   1      41.470  22.519  28.538  1.00  0.00    -0.205 F 
ATOM     81  C   UNL A   1      42.909  22.216  25.185  1.00  0.00     0.022 A 
BRANCH  79  82
ATOM     82  S   UNL A   1      41.628  20.198  26.526  1.00  0.00     0.127 S 
ATOM     83  O   UNL A   1      42.278  19.746  27.753  1.00  0.00    -0.237 OA
ATOM     84  O   UNL A   1      40.184  20.413  26.637  1.00  0.00    -0.237 OA
ATOM     85  O   UNL A   1      42.036  19.525  25.299  1.00  0.00    -0.744 OA
ENDBRANCH  79  82
ENDBRANCH  51  75
BRANCH  63  86
ATOM     86  C   UNL A   1      46.540  25.293  33.009  1.00  0.00     0.023 A 
ATOM     87  C   UNL A   1      47.843  25.753  32.739  1.00  0.00     0.012 A 
ATOM     88  C   UNL A   1      46.356  24.215  33.897  1.00  0.00     0.148 A 
ATOM     89  C   UNL A   1      48.948  25.126  33.312  1.00  0.00     0.002 A 
ATOM     90  C   UNL A   1      47.459  23.627  34.504  1.00  0.00     0.091 A 
ATOM     91  F   UNL A   1      45.109  23.778  34.126  1.00  0.00    -0.205 F 
ATOM     92  C   UNL A   1      48.756  24.071  34.202  1.00  0.00     0.022 A 
BRANCH  90  93
ATOM     93  S   UNL A   1      47.293  22.331  35.736  1.00  0.00     0.127 S 
ATOM     94  O   UNL A   1      46.431  22.970  36.729  1.00  0.00    -0.237 OA
ATOM     95  O   UNL A   1      46.655  21.254  34.977  1.00  0.00    -0.237 OA
ATOM     96  O   UNL A   1      48.648  22.030  36.180  1.00  0.00    -0.744 OA
ENDBRANCH  90  93
ENDBRANCH  63  86
ENDBRANCH  37  38
ENDBRANCH  29  32
ENDBRANCH  27  28
ENDBRANCH  26  27
ENDBRANCH  25  26
ENDBRANCH   1  25
TORSDOF 19
ENDMDL
MODEL 2
REMARK VINA RESULT:     -11.1      2.054      2.366
REMARK SMILES C[NH+](C)[C@@H]1CC[N@@H+](Cc2ccc(C(=O)NCCCCCCNC(=O)c3ccc(-c4c5nc(c(-c6cccc(S(=O)(=O)[O-])c6F)c6ccc([nH]6)c(-c6cccc(S(=O)(=O)[O-])c6F)c6nc(c(-c7cccc(S(=O)(=O)[O-])c7F)c7ccc4[nH]7)C=C6)C=C5)cc3)cn2)C1
REMARK SMILES IDX 18 1 17 2 16 3 15 4 13 5 14 6 12 8 9 9 10 10 89 11 11 12
REMARK SMILES IDX 88 13 8 14 7 15 4 16 5 17 90 18 6 19 2 21 1 22 3 23 19 25
REMARK SMILES IDX 20 26 21 27 22 28 23 29 24 31 25 32 26 33 87 34 27 35 86 36
REMARK SMILES IDX 28 37 29 38 30 39 80 40 31 41 85 42 79 43 81 44 32 45 84 46
REMARK SMILES IDX 78 47 77 48 33 50 65 51 45 52 64 53 46 54 49 55 63 56 82 57
REMARK SMILES IDX 47 58 48 59 62 61 83 62 50 63 34 64 35 65 43 66 36 67 38 68
REMARK SMILES IDX 44 69 37 70 39 71 40 72 41 73 42 74 66 75 67 76 75 77 68 78
REMARK SMILES IDX 70 79 76 80 69 81 71 82 72 83 73 84 74 85 51 86 52 87 60 88
REMARK SMILES IDX 53 89 55 90 61 91 54 92 56 93 57 94 58 95 59 96
REMARK H PARENT 15 7 7 20 2 24 22 30 81 49 49 60
REMARK Flexibility Score: inf
ROOT
ATOM      1  C   UNL A   1      31.025  28.876  24.649  1.00  0.00     0.002 C 
ENDROOT
BRANCH   1   2
ATOM      2  C   UNL A   1      31.246  28.570  23.162  1.00  0.00     0.021 C 
BRANCH   2   3
ATOM      3  C   UNL A   1      32.712  28.651  22.733  1.00  0.00     0.116 C 
BRANCH   3   4
ATOM      4  N   UNL A   1      32.990  27.661  21.706  1.00  0.00    -0.352 N 
ATOM      5  C   UNL A   1      33.153  26.302  21.775  1.00  0.00     0.252 C 
ATOM      6  O   UNL A   1      33.349  25.679  20.733  1.00  0.00    -0.269 OA
ATOM      7  H   UNL A   1      33.078  28.033  20.799  1.00  0.00     0.163 HD
BRANCH   5   8
ATOM      8  C   UNL A   1      33.018  25.555  23.043  1.00  0.00     0.058 A 
ATOM      9  C   UNL A   1      32.427  24.318  25.435  1.00  0.00     0.095 A 
ATOM     10  C   UNL A   1      33.715  24.799  25.220  1.00  0.00     0.030 A 
ATOM     11  N   UNL A   1      31.474  24.349  24.468  1.00  0.00    -0.255 NA
ATOM     12  C   UNL A   1      34.017  25.406  24.002  1.00  0.00     0.017 A 
ATOM     13  C   UNL A   1      31.790  24.962  23.301  1.00  0.00     0.125 A 
BRANCH   9  14
ATOM     14  C   UNL A   1      32.013  23.816  26.806  1.00  0.00     0.319 C 
BRANCH  14  15
ATOM     15  N   UNL A   1      32.178  22.375  27.072  1.00  0.00    -0.325 N 
ATOM     16  C   UNL A   1      33.547  20.944  25.632  1.00  0.00     0.245 C 
ATOM     17  C   UNL A   1      34.400  21.535  26.759  1.00  0.00     0.132 C 
ATOM     18  C   UNL A   1      32.123  21.506  25.888  1.00  0.00     0.328 C 
ATOM     19  C   UNL A   1      33.406  22.031  27.791  1.00  0.00     0.269 C 
ATOM     20  H   UNL A   1      31.364  22.197  27.660  1.00  0.00     0.348 HD
BRANCH  16  21
ATOM     21  N   UNL A   1      33.634  19.481  25.431  1.00  0.00    -0.333 N 
ATOM     22  C   UNL A   1      32.393  18.919  24.895  1.00  0.00     0.332 C 
ATOM     23  C   UNL A   1      34.771  19.042  24.624  1.00  0.00     0.332 C 
ATOM     24  H   UNL A   1      33.788  19.117  26.372  1.00  0.00     0.348 HD
ENDBRANCH  16  21
ENDBRANCH  14  15
ENDBRANCH   9  14
ENDBRANCH   5   8
ENDBRANCH   3   4
ENDBRANCH   2   3
ENDBRANCH   1   2
BRANCH   1  25
ATOM     25  C   UNL A   1      31.635  27.856  25.616  1.00  0.00     0.002 C 
BRANCH  25  26
ATOM     26  C   UNL A   1      32.655  28.429  26.604  1.00  0.00     0.021 C 
BRANCH  26  27
ATOM     27  C   UNL A   1      33.651  29.408  25.991  1.00  0.00     0.116 C 
BRANCH  27  28
ATOM     28  N   UNL A   1      33.413  30.769  26.442  1.00  0.00    -0.352 N 
ATOM     29  C   UNL A   1      34.034  31.472  27.443  1.00  0.00     0.251 C 
ATOM     30  H   UNL A   1      32.706  31.255  25.960  1.00  0.00     0.163 HD
ATOM     31  O   UNL A   1      33.551  32.532  27.831  1.00  0.00    -0.269 OA
BRANCH  29  32
ATOM     32  C   UNL A   1      35.280  30.956  28.054  1.00  0.00     0.039 A 
ATOM     33  C   UNL A   1      35.215  29.814  28.857  1.00  0.00     0.014 A 
ATOM     34  C   UNL A   1      36.497  31.621  27.880  1.00  0.00     0.014 A 
ATOM     35  C   UNL A   1      36.374  29.327  29.467  1.00  0.00     0.010 A 
ATOM     36  C   UNL A   1      37.663  31.095  28.431  1.00  0.00     0.010 A 
ATOM     37  C   UNL A   1      37.609  29.959  29.253  1.00  0.00    -0.014 A 
BRANCH  37  38
ATOM     38  C   UNL A   1      38.845  29.482  29.922  1.00  0.00     0.031 A 
ATOM     39  C   UNL A   1      39.235  30.048  31.265  1.00  0.00     0.074 A 
ATOM     40  C   UNL A   1      39.644  28.587  29.307  1.00  0.00     0.049 A 
ATOM     41  N   UNL A   1      40.301  29.807  31.984  1.00  0.00    -0.248 NA
ATOM     42  C   UNL A   1      38.321  31.035  31.865  1.00  0.00     0.031 C 
ATOM     43  C   UNL A   1      39.410  28.015  27.979  1.00  0.00     0.029 A 
ATOM     44  N   UNL A   1      40.827  28.020  29.708  1.00  0.00    -0.354 N 
ATOM     45  C   UNL A   1      40.200  30.631  33.100  1.00  0.00     0.074 A 
ATOM     46  C   UNL A   1      38.992  31.410  32.943  1.00  0.00     0.031 C 
ATOM     47  C   UNL A   1      40.416  27.177  27.678  1.00  0.00     0.029 A 
ATOM     48  C   UNL A   1      41.376  27.168  28.777  1.00  0.00     0.049 A 
ATOM     49  H   UNL A   1      41.246  28.206  30.579  1.00  0.00     0.167 HD
ATOM     50  C   UNL A   1      41.018  30.708  34.177  1.00  0.00     0.034 A 
ATOM     51  C   UNL A   1      42.523  26.462  28.810  1.00  0.00     0.034 A 
ATOM     52  C   UNL A   1      42.188  29.894  34.356  1.00  0.00     0.049 A 
ATOM     53  C   UNL A   1      43.384  26.529  30.044  1.00  0.00     0.074 A 
ATOM     54  C   UNL A   1      43.055  29.855  35.434  1.00  0.00     0.029 A 
ATOM     55  N   UNL A   1      42.650  28.963  33.438  1.00  0.00    -0.354 N 
ATOM     56  N   UNL A   1      43.201  27.217  31.144  1.00  0.00    -0.248 NA
ATOM     57  C   UNL A   1      44.588  25.685  30.059  1.00  0.00     0.031 C 
ATOM     58  C   UNL A   1      44.044  28.902  35.166  1.00  0.00     0.029 A 
ATOM     59  C   UNL A   1      43.781  28.335  33.931  1.00  0.00     0.049 A 
ATOM     60  H   UNL A   1      42.236  28.776  32.566  1.00  0.00     0.167 HD
ATOM     61  C   UNL A   1      44.234  26.850  31.999  1.00  0.00     0.074 A 
ATOM     62  C   UNL A   1      45.029  25.866  31.296  1.00  0.00     0.031 C 
ATOM     63  C   UNL A   1      44.513  27.300  33.248  1.00  0.00     0.034 A 
BRANCH  50  64
ATOM     64  C   UNL A   1      40.633  31.653  35.286  1.00  0.00     0.023 A 
ATOM     65  C   UNL A   1      41.339  32.863  35.436  1.00  0.00     0.012 A 
ATOM     66  C   UNL A   1      39.538  31.382  36.130  1.00  0.00     0.148 A 
ATOM     67  C   UNL A   1      40.983  33.777  36.426  1.00  0.00     0.002 A 
ATOM     68  C   UNL A   1      39.161  32.318  37.087  1.00  0.00     0.091 A 
ATOM     69  F   UNL A   1      38.889  30.218  35.984  1.00  0.00    -0.205 F 
ATOM     70  C   UNL A   1      39.889  33.510  37.243  1.00  0.00     0.022 A 
BRANCH  68  71
ATOM     71  S   UNL A   1      37.721  32.110  38.141  1.00  0.00     0.127 S 
ATOM     72  O   UNL A   1      38.278  32.399  39.462  1.00  0.00    -0.237 OA
ATOM     73  O   UNL A   1      36.813  33.132  37.625  1.00  0.00    -0.237 OA
ATOM     74  O   UNL A   1      37.273  30.738  37.944  1.00  0.00    -0.744 OA
ENDBRANCH  68  71
ENDBRANCH  50  64
BRANCH  51  75
ATOM     75  C   UNL A   1      42.892  25.567  27.675  1.00  0.00     0.023 A 
ATOM     76  C   UNL A   1      43.790  26.032  26.693  1.00  0.00     0.012 A 
ATOM     77  C   UNL A   1      42.357  24.271  27.554  1.00  0.00     0.148 A 
ATOM     78  C   UNL A   1      44.109  25.243  25.588  1.00  0.00     0.002 A 
ATOM     79  C   UNL A   1      42.723  23.468  26.479  1.00  0.00     0.091 A 
ATOM     80  F   UNL A   1      41.493  23.848  28.489  1.00  0.00    -0.205 F 
ATOM     81  C   UNL A   1      43.583  23.959  25.484  1.00  0.00     0.022 A 
BRANCH  79  82
ATOM     82  S   UNL A   1      42.189  21.758  26.343  1.00  0.00     0.127 S 
ATOM     83  O   UNL A   1      42.455  21.253  27.686  1.00  0.00    -0.237 OA
ATOM     84  O   UNL A   1      40.772  21.904  26.008  1.00  0.00    -0.237 OA
ATOM     85  O   UNL A   1      42.997  21.188  25.272  1.00  0.00    -0.744 OA
ENDBRANCH  79  82
ENDBRANCH  51  75
BRANCH  63  86
ATOM     86  C   UNL A   1      45.687  26.688  33.965  1.00  0.00     0.023 A 
ATOM     87  C   UNL A   1      46.960  27.280  33.864  1.00  0.00     0.012 A 
ATOM     88  C   UNL A   1      45.510  25.560  34.790  1.00  0.00     0.148 A 
ATOM     89  C   UNL A   1      48.049  26.735  34.542  1.00  0.00     0.002 A 
ATOM     90  C   UNL A   1      46.589  25.052  35.502  1.00  0.00     0.091 A 
ATOM     91  F   UNL A   1      44.294  24.998  34.857  1.00  0.00    -0.205 F 
ATOM     92  C   UNL A   1      47.862  25.629  35.369  1.00  0.00     0.022 A 
BRANCH  90  93
ATOM     93  S   UNL A   1      46.414  23.693  36.664  1.00  0.00     0.127 S 
ATOM     94  O   UNL A   1      45.815  22.657  35.824  1.00  0.00    -0.237 OA
ATOM     95  O   UNL A   1      47.801  23.435  37.056  1.00  0.00    -0.237 OA
ATOM     96  O   UNL A   1      45.571  24.197  37.739  1.00  0.00    -0.744 OA
ENDBRANCH  90  93
ENDBRANCH  63  86
ENDBRANCH  37  38
ENDBRANCH  29  32
ENDBRANCH  27  28
ENDBRANCH  26  27
ENDBRANCH  25  26
ENDBRANCH   1  25
TORSDOF 19
ENDMDL
MODEL 3
REMARK VINA RESULT:     -10.8      4.554      9.885
REMARK SMILES C[NH+](C)[C@@H]1CC[N@@H+](Cc2ccc(C(=O)NCCCCCCNC(=O)c3ccc(-c4c5nc(c(-c6cccc(S(=O)(=O)[O-])c6F)c6ccc([nH]6)c(-c6cccc(S(=O)(=O)[O-])c6F)c6nc(c(-c7cccc(S(=O)(=O)[O-])c7F)c7ccc4[nH]7)C=C6)C=C5)cc3)cn2)C1
REMARK SMILES IDX 18 1 17 2 16 3 15 4 13 5 14 6 12 8 9 9 10 10 89 11 11 12
REMARK SMILES IDX 88 13 8 14 7 15 4 16 5 17 90 18 6 19 2 21 1 22 3 23 19 25
REMARK SMILES IDX 20 26 21 27 22 28 23 29 24 31 25 32 26 33 87 34 27 35 86 36
REMARK SMILES IDX 28 37 29 38 30 39 80 40 31 41 85 42 79 43 81 44 32 45 84 46
REMARK SMILES IDX 78 47 77 48 33 50 65 51 45 52 64 53 46 54 49 55 63 56 82 57
REMARK SMILES IDX 47 58 48 59 62 61 83 62 50 63 34 64 35 65 43 66 36 67 38 68
REMARK SMILES IDX 44 69 37 70 39 71 40 72 41 73 42 74 66 75 67 76 75 77 68 78
REMARK SMILES IDX 70 79 76 80 69 81 71 82 72 83 73 84 74 85 51 86 52 87 60 88
REMARK SMILES IDX 53 89 55 90 61 91 54 92 56 93 57 94 58 95 59 96
REMARK H PARENT 15 7 7 20 2 24 22 30 81 49 49 60
REMARK Flexibility Score: inf
ROOT
ATOM      1  C   UNL A   1      34.587  21.321  25.272  1.00  0.00     0.002 C 
ENDROOT
BRANCH   1   2
ATOM      2  C   UNL A   1      33.423  20.499  24.703  1.00  0.00     0.021 C 
BRANCH   2   3
ATOM      3  C   UNL A   1      32.064  21.189  24.837  1.00  0.00     0.116 C 
BRANCH   3   4
ATOM      4  N   UNL A   1      31.968  21.865  26.119  1.00  0.00    -0.352 N 
ATOM      5  C   UNL A   1      31.693  23.169  26.441  1.00  0.00     0.252 C 
ATOM      6  O   UNL A   1      31.635  23.482  27.629  1.00  0.00    -0.269 OA
ATOM      7  H   UNL A   1      32.129  21.282  26.896  1.00  0.00     0.163 HD
BRANCH   5   8
ATOM      8  C   UNL A   1      31.385  24.185  25.415  1.00  0.00     0.058 A 
ATOM      9  C   UNL A   1      31.158  26.206  23.553  1.00  0.00     0.095 A 
ATOM     10  C   UNL A   1      30.076  25.922  24.382  1.00  0.00     0.030 A 
ATOM     11  N   UNL A   1      32.291  25.457  23.562  1.00  0.00    -0.255 NA
ATOM     12  C   UNL A   1      30.187  24.886  25.308  1.00  0.00     0.017 A 
ATOM     13  C   UNL A   1      32.376  24.469  24.486  1.00  0.00     0.125 A 
BRANCH   9  14
ATOM     14  C   UNL A   1      31.142  27.434  22.661  1.00  0.00     0.319 C 
BRANCH  14  15
ATOM     15  N   UNL A   1      31.707  28.676  23.219  1.00  0.00    -0.325 N 
ATOM     16  C   UNL A   1      33.222  28.656  25.143  1.00  0.00     0.245 C 
ATOM     17  C   UNL A   1      34.018  28.549  23.840  1.00  0.00     0.132 C 
ATOM     18  C   UNL A   1      31.741  28.748  24.687  1.00  0.00     0.328 C 
ATOM     19  C   UNL A   1      33.059  28.988  22.750  1.00  0.00     0.269 C 
ATOM     20  H   UNL A   1      31.043  29.363  22.862  1.00  0.00     0.348 HD
BRANCH  16  21
ATOM     21  N   UNL A   1      33.662  29.688  26.107  1.00  0.00    -0.333 N 
ATOM     22  C   UNL A   1      32.541  30.459  26.648  1.00  0.00     0.332 C 
ATOM     23  C   UNL A   1      34.496  29.188  27.199  1.00  0.00     0.332 C 
ATOM     24  H   UNL A   1      34.254  30.304  25.548  1.00  0.00     0.348 HD
ENDBRANCH  16  21
ENDBRANCH  14  15
ENDBRANCH   9  14
ENDBRANCH   5   8
ENDBRANCH   3   4
ENDBRANCH   2   3
ENDBRANCH   1   2
BRANCH   1  25
ATOM     25  C   UNL A   1      35.551  21.887  24.223  1.00  0.00     0.002 C 
BRANCH  25  26
ATOM     26  C   UNL A   1      36.071  23.297  24.514  1.00  0.00     0.021 C 
BRANCH  26  27
ATOM     27  C   UNL A   1      36.709  23.467  25.889  1.00  0.00     0.116 C 
BRANCH  27  28
ATOM     28  N   UNL A   1      37.814  22.542  26.086  1.00  0.00    -0.352 N 
ATOM     29  C   UNL A   1      39.107  22.804  26.463  1.00  0.00     0.251 C 
ATOM     30  H   UNL A   1      37.604  21.595  25.926  1.00  0.00     0.163 HD
ATOM     31  O   UNL A   1      39.959  21.926  26.362  1.00  0.00    -0.269 OA
BRANCH  29  32
ATOM     32  C   UNL A   1      39.475  24.138  26.987  1.00  0.00     0.039 A 
ATOM     33  C   UNL A   1      40.043  25.073  26.117  1.00  0.00     0.014 A 
ATOM     34  C   UNL A   1      39.309  24.452  28.339  1.00  0.00     0.014 A 
ATOM     35  C   UNL A   1      40.425  26.328  26.598  1.00  0.00     0.010 A 
ATOM     36  C   UNL A   1      39.624  25.727  28.803  1.00  0.00     0.010 A 
ATOM     37  C   UNL A   1      40.211  26.668  27.943  1.00  0.00    -0.014 A 
BRANCH  37  38
ATOM     38  C   UNL A   1      40.645  27.981  28.485  1.00  0.00     0.031 A 
ATOM     39  C   UNL A   1      42.115  28.270  28.660  1.00  0.00     0.074 A 
ATOM     40  C   UNL A   1      39.726  28.889  28.869  1.00  0.00     0.049 A 
ATOM     41  N   UNL A   1      42.694  29.328  29.167  1.00  0.00    -0.248 NA
ATOM     42  C   UNL A   1      43.057  27.221  28.234  1.00  0.00     0.031 C 
ATOM     43  C   UNL A   1      38.274  28.703  28.811  1.00  0.00     0.029 A 
ATOM     44  N   UNL A   1      39.877  30.143  29.407  1.00  0.00    -0.354 N 
ATOM     45  C   UNL A   1      44.058  29.059  29.150  1.00  0.00     0.074 A 
ATOM     46  C   UNL A   1      44.220  27.722  28.622  1.00  0.00     0.031 C 
ATOM     47  C   UNL A   1      37.670  29.802  29.292  1.00  0.00     0.029 A 
ATOM     48  C   UNL A   1      38.687  30.762  29.712  1.00  0.00     0.049 A 
ATOM     49  H   UNL A   1      40.756  30.560  29.562  1.00  0.00     0.167 HD
ATOM     50  C   UNL A   1      45.088  29.864  29.505  1.00  0.00     0.034 A 
ATOM     51  C   UNL A   1      38.447  31.966  30.267  1.00  0.00     0.034 A 
ATOM     52  C   UNL A   1      44.928  31.212  29.978  1.00  0.00     0.049 A 
ATOM     53  C   UNL A   1      39.613  32.858  30.603  1.00  0.00     0.074 A 
ATOM     54  C   UNL A   1      45.907  32.129  30.315  1.00  0.00     0.029 A 
ATOM     55  N   UNL A   1      43.707  31.840  30.170  1.00  0.00    -0.354 N 
ATOM     56  N   UNL A   1      40.895  32.634  30.455  1.00  0.00    -0.248 NA
ATOM     57  C   UNL A   1      39.295  34.190  31.140  1.00  0.00     0.031 C 
ATOM     58  C   UNL A   1      45.278  33.313  30.713  1.00  0.00     0.029 A 
ATOM     59  C   UNL A   1      43.908  33.138  30.606  1.00  0.00     0.049 A 
ATOM     60  H   UNL A   1      42.828  31.426  30.018  1.00  0.00     0.167 HD
ATOM     61  C   UNL A   1      41.534  33.811  30.830  1.00  0.00     0.074 A 
ATOM     62  C   UNL A   1      40.495  34.752  31.194  1.00  0.00     0.031 C 
ATOM     63  C   UNL A   1      42.861  34.085  30.887  1.00  0.00     0.034 A 
BRANCH  50  64
ATOM     64  C   UNL A   1      46.487  29.336  29.323  1.00  0.00     0.023 A 
ATOM     65  C   UNL A   1      47.137  28.717  30.410  1.00  0.00     0.012 A 
ATOM     66  C   UNL A   1      47.131  29.389  28.071  1.00  0.00     0.148 A 
ATOM     67  C   UNL A   1      48.417  28.183  30.263  1.00  0.00     0.002 A 
ATOM     68  C   UNL A   1      48.389  28.816  27.921  1.00  0.00     0.091 A 
ATOM     69  F   UNL A   1      46.505  29.997  27.054  1.00  0.00    -0.205 F 
ATOM     70  C   UNL A   1      49.037  28.222  29.018  1.00  0.00     0.022 A 
BRANCH  68  71
ATOM     71  S   UNL A   1      49.247  28.742  26.344  1.00  0.00     0.127 S 
ATOM     72  O   UNL A   1      48.146  28.470  25.422  1.00  0.00    -0.237 OA
ATOM     73  O   UNL A   1      49.812  30.087  26.240  1.00  0.00    -0.237 OA
ATOM     74  O   UNL A   1      50.229  27.674  26.469  1.00  0.00    -0.744 OA
ENDBRANCH  68  71
ENDBRANCH  50  64
BRANCH  51  75
ATOM     75  C   UNL A   1      37.047  32.439  30.469  1.00  0.00     0.023 A 
ATOM     76  C   UNL A   1      36.430  32.252  31.723  1.00  0.00     0.012 A 
ATOM     77  C   UNL A   1      36.321  33.058  29.435  1.00  0.00     0.148 A 
ATOM     78  C   UNL A   1      35.103  32.627  31.928  1.00  0.00     0.002 A 
ATOM     79  C   UNL A   1      35.015  33.481  29.663  1.00  0.00     0.091 A 
ATOM     80  F   UNL A   1      36.916  33.216  28.245  1.00  0.00    -0.205 F 
ATOM     81  C   UNL A   1      34.397  33.249  30.902  1.00  0.00     0.022 A 
BRANCH  79  82
ATOM     82  S   UNL A   1      34.086  34.405  28.434  1.00  0.00     0.127 S 
ATOM     83  O   UNL A   1      34.210  33.549  27.259  1.00  0.00    -0.237 OA
ATOM     84  O   UNL A   1      32.749  34.447  29.028  1.00  0.00    -0.237 OA
ATOM     85  O   UNL A   1      34.741  35.704  28.354  1.00  0.00    -0.744 OA
ENDBRANCH  79  82
ENDBRANCH  51  75
BRANCH  63  86
ATOM     86  C   UNL A   1      43.269  35.476  31.294  1.00  0.00     0.023 A 
ATOM     87  C   UNL A   1      43.521  35.768  32.649  1.00  0.00     0.012 A 
ATOM     88  C   UNL A   1      43.465  36.476  30.322  1.00  0.00     0.148 A 
ATOM     89  C   UNL A   1      43.922  37.045  33.035  1.00  0.00     0.002 A 
ATOM     90  C   UNL A   1      43.913  37.733  30.709  1.00  0.00     0.091 A 
ATOM     91  F   UNL A   1      43.200  36.186  29.040  1.00  0.00    -0.205 F 
ATOM     92  C   UNL A   1      44.129  38.024  32.065  1.00  0.00     0.022 A 
BRANCH  90  93
ATOM     93  S   UNL A   1      44.299  39.019  29.515  1.00  0.00     0.127 S 
ATOM     94  O   UNL A   1      44.663  40.136  30.386  1.00  0.00    -0.237 OA
ATOM     95  O   UNL A   1      45.417  38.434  28.774  1.00  0.00    -0.237 OA
ATOM     96  O   UNL A   1      43.087  39.205  28.727  1.00  0.00    -0.744 OA
ENDBRANCH  90  93
ENDBRANCH  63  86
ENDBRANCH  37  38
ENDBRANCH  29  32
ENDBRANCH  27  28
ENDBRANCH  26  27
ENDBRANCH  25  26
ENDBRANCH   1  25
TORSDOF 19
ENDMDL
