MODEL 1
REMARK VINA RESULT:     -12.4      0.000      0.000
REMARK SMILES C[C@@H](C(=O)NCCCCCCNC(=O)c1ccc(-c2c3nc(c(-c4cccc(S(=O)(=O)[O-])c4F)c4ccc([nH]4)c(-c4cccc(S(=O)(=O)[O-])c4F)c4nc(c(-c5cccc(S(=O)(=O)[O-])c5F)c5ccc2[nH]5)C=C4)C=C3)cc1)N1C(=O)/C(=C/c2nc3ccccc3[nH]2)SC1=S
REMARK SMILES IDX 9 1 8 2 7 3 6 4 5 5 3 6 4 7 2 9 1 10 78 11 79 12 93 13 80 14
REMARK SMILES IDX 81 15 92 16 94 17 82 18 83 19 84 20 91 21 85 22 90 23 86 25
REMARK SMILES IDX 89 26 87 27 88 28 10 29 11 30 12 31 13 32 14 34 15 35 16 36
REMARK SMILES IDX 77 37 17 38 76 39 18 40 19 41 20 42 70 43 21 44 75 45 69 46
REMARK SMILES IDX 71 47 22 48 74 49 68 50 67 51 23 53 55 54 35 55 54 56 36 57
REMARK SMILES IDX 39 58 53 59 72 60 37 61 38 62 52 64 73 65 40 66 24 67 25 68
REMARK SMILES IDX 33 69 26 70 28 71 34 72 27 73 29 74 30 75 31 76 32 77 56 78
REMARK SMILES IDX 57 79 65 80 58 81 60 82 66 83 59 84 61 85 62 86 63 87 64 88
REMARK SMILES IDX 41 89 42 90 50 91 43 92 45 93 51 94 44 95 46 96 47 97 48 98
REMARK SMILES IDX 49 99
REMARK H PARENT 5 8 91 24 12 33 71 52 39 63
REMARK Flexibility Score: inf
ROOT
ATOM      1  C   UNL A   1      32.082  30.280  26.062  1.00  0.00     0.002 C 
ENDROOT
BRANCH   1   2
ATOM      2  C   UNL A   1      31.084  29.886  24.966  1.00  0.00     0.002 C 
BRANCH   2   3
ATOM      3  C   UNL A   1      31.677  29.061  23.814  1.00  0.00     0.021 C 
BRANCH   3   4
ATOM      4  C   UNL A   1      33.186  28.842  23.931  1.00  0.00     0.116 C 
BRANCH   4   5
ATOM      5  N   UNL A   1      33.619  27.792  23.034  1.00  0.00    -0.354 N 
ATOM      6  C   UNL A   1      33.636  26.444  23.192  1.00  0.00     0.242 C 
ATOM      7  O   UNL A   1      34.042  25.783  22.229  1.00  0.00    -0.273 OA
ATOM      8  H   UNL A   1      33.957  28.109  22.165  1.00  0.00     0.163 HD
BRANCH   6   9
ATOM      9  C   UNL A   1      33.088  25.773  24.473  1.00  0.00     0.178 C 
ATOM     10  C   UNL A   1      33.576  26.302  25.822  1.00  0.00     0.042 C 
BRANCH   9  11
ATOM     11  N   UNL A   1      33.320  24.319  24.328  1.00  0.00    -0.281 N 
ATOM     12  C   UNL A   1      32.353  23.561  23.684  1.00  0.00     0.267 C 
ATOM     13  C   UNL A   1      34.483  23.655  24.681  1.00  0.00     0.149 C 
ATOM     14  O   UNL A   1      31.313  23.972  23.178  1.00  0.00    -0.268 OA
ATOM     15  C   UNL A   1      32.718  22.125  23.718  1.00  0.00     0.084 C 
ATOM     16  S   UNL A   1      34.334  21.958  24.287  1.00  0.00    -0.054 SA
ATOM     17  S   UNL A   1      35.890  24.228  25.377  1.00  0.00    -0.052 S 
ATOM     18  C   UNL A   1      31.854  21.144  23.410  1.00  0.00     0.068 C 
BRANCH  18  19
ATOM     19  C   UNL A   1      32.174  19.809  23.746  1.00  0.00     0.132 A 
ATOM     20  N   UNL A   1      32.059  19.221  24.918  1.00  0.00    -0.229 NA
ATOM     21  N   UNL A   1      32.761  18.964  22.834  1.00  0.00    -0.338 N 
ATOM     22  C   UNL A   1      32.767  18.063  24.824  1.00  0.00     0.089 A 
ATOM     23  C   UNL A   1      33.211  17.858  23.523  1.00  0.00     0.066 A 
ATOM     24  H   UNL A   1      32.844  19.120  21.867  1.00  0.00     0.168 HD
ATOM     25  C   UNL A   1      33.101  17.156  25.835  1.00  0.00     0.030 A 
ATOM     26  C   UNL A   1      33.971  16.745  23.157  1.00  0.00     0.028 A 
ATOM     27  C   UNL A   1      33.888  16.053  25.502  1.00  0.00     0.002 A 
ATOM     28  C   UNL A   1      34.307  15.849  24.183  1.00  0.00     0.002 A 
ENDBRANCH  18  19
ENDBRANCH   9  11
ENDBRANCH   6   9
ENDBRANCH   4   5
ENDBRANCH   3   4
ENDBRANCH   2   3
ENDBRANCH   1   2
BRANCH   1  29
ATOM     29  C   UNL A   1      31.751  31.581  26.797  1.00  0.00     0.021 C 
BRANCH  29  30
ATOM     30  C   UNL A   1      32.971  32.356  27.283  1.00  0.00     0.116 C 
BRANCH  30  31
ATOM     31  N   UNL A   1      32.655  33.753  27.549  1.00  0.00    -0.352 N 
ATOM     32  C   UNL A   1      33.159  34.587  28.517  1.00  0.00     0.251 C 
ATOM     33  H   UNL A   1      31.984  34.156  26.951  1.00  0.00     0.163 HD
ATOM     34  O   UNL A   1      32.630  35.672  28.731  1.00  0.00    -0.269 OA
BRANCH  32  35
ATOM     35  C   UNL A   1      34.333  34.161  29.309  1.00  0.00     0.039 A 
ATOM     36  C   UNL A   1      34.129  33.447  30.492  1.00  0.00     0.014 A 
ATOM     37  C   UNL A   1      35.628  34.455  28.877  1.00  0.00     0.014 A 
ATOM     38  C   UNL A   1      35.229  32.967  31.207  1.00  0.00     0.010 A 
ATOM     39  C   UNL A   1      36.720  33.914  29.550  1.00  0.00     0.010 A 
ATOM     40  C   UNL A   1      36.533  33.163  30.721  1.00  0.00    -0.014 A 
BRANCH  40  41
ATOM     41  C   UNL A   1      37.710  32.562  31.399  1.00  0.00     0.031 A 
ATOM     42  C   UNL A   1      38.444  31.408  30.770  1.00  0.00     0.074 A 
ATOM     43  C   UNL A   1      38.055  32.988  32.632  1.00  0.00     0.049 A 
ATOM     44  N   UNL A   1      39.436  30.705  31.249  1.00  0.00    -0.248 NA
ATOM     45  C   UNL A   1      37.986  30.969  29.441  1.00  0.00     0.031 C 
ATOM     46  C   UNL A   1      37.374  34.046  33.382  1.00  0.00     0.029 A 
ATOM     47  N   UNL A   1      39.039  32.559  33.487  1.00  0.00    -0.354 N 
ATOM     48  C   UNL A   1      39.695  29.719  30.306  1.00  0.00     0.074 A 
ATOM     49  C   UNL A   1      38.739  29.899  29.234  1.00  0.00     0.031 C 
ATOM     50  C   UNL A   1      37.955  34.179  34.583  1.00  0.00     0.029 A 
ATOM     51  C   UNL A   1      39.022  33.192  34.708  1.00  0.00     0.049 A 
ATOM     52  H   UNL A   1      39.695  31.864  33.249  1.00  0.00     0.167 HD
ATOM     53  C   UNL A   1      40.652  28.761  30.321  1.00  0.00     0.034 A 
ATOM     54  C   UNL A   1      39.765  32.987  35.815  1.00  0.00     0.034 A 
ATOM     55  C   UNL A   1      41.624  28.609  31.369  1.00  0.00     0.049 A 
ATOM     56  C   UNL A   1      40.838  31.933  35.792  1.00  0.00     0.074 A 
ATOM     57  C   UNL A   1      42.701  27.742  31.422  1.00  0.00     0.029 A 
ATOM     58  N   UNL A   1      41.628  29.325  32.557  1.00  0.00    -0.354 N 
ATOM     59  N   UNL A   1      41.182  31.128  34.817  1.00  0.00    -0.248 NA
ATOM     60  C   UNL A   1      41.647  31.778  37.010  1.00  0.00     0.031 C 
ATOM     61  C   UNL A   1      43.330  27.902  32.660  1.00  0.00     0.029 A 
ATOM     62  C   UNL A   1      42.671  28.899  33.361  1.00  0.00     0.049 A 
ATOM     63  H   UNL A   1      40.984  30.030  32.793  1.00  0.00     0.167 HD
ATOM     64  C   UNL A   1      42.265  30.395  35.290  1.00  0.00     0.074 A 
ATOM     65  C   UNL A   1      42.534  30.869  36.632  1.00  0.00     0.031 C 
ATOM     66  C   UNL A   1      42.962  29.409  34.675  1.00  0.00     0.034 A 
BRANCH  53  67
ATOM     67  C   UNL A   1      40.723  27.814  29.151  1.00  0.00     0.023 A 
ATOM     68  C   UNL A   1      39.843  26.716  29.082  1.00  0.00     0.012 A 
ATOM     69  C   UNL A   1      41.609  28.059  28.083  1.00  0.00     0.148 A 
ATOM     70  C   UNL A   1      39.863  25.858  27.983  1.00  0.00     0.002 A 
ATOM     71  C   UNL A   1      41.590  27.228  26.970  1.00  0.00     0.091 A 
ATOM     72  F   UNL A   1      42.451  29.098  28.176  1.00  0.00    -0.205 F 
ATOM     73  C   UNL A   1      40.726  26.121  26.923  1.00  0.00     0.022 A 
BRANCH  71  74
ATOM     74  S   UNL A   1      42.602  27.529  25.517  1.00  0.00     0.127 S 
ATOM     75  O   UNL A   1      42.315  26.345  24.707  1.00  0.00    -0.237 OA
ATOM     76  O   UNL A   1      42.033  28.773  24.999  1.00  0.00    -0.237 OA
ATOM     77  O   UNL A   1      43.973  27.638  25.995  1.00  0.00    -0.744 OA
ENDBRANCH  71  74
ENDBRANCH  53  67
BRANCH  54  78
ATOM     78  C   UNL A   1      39.539  33.818  37.032  1.00  0.00     0.023 A 
ATOM     79  C   UNL A   1      40.008  35.146  37.065  1.00  0.00     0.012 A 
ATOM     80  C   UNL A   1      38.852  33.305  38.149  1.00  0.00     0.148 A 
ATOM     81  C   UNL A   1      39.832  35.934  38.204  1.00  0.00     0.002 A 
ATOM     82  C   UNL A   1      38.627  34.114  39.257  1.00  0.00     0.091 A 
ATOM     83  F   UNL A   1      38.423  32.036  38.103  1.00  0.00    -0.205 F 
ATOM     84  C   UNL A   1      39.135  35.422  39.295  1.00  0.00     0.022 A 
BRANCH  82  85
ATOM     85  S   UNL A   1      37.623  33.582  40.647  1.00  0.00     0.127 S 
ATOM     86  O   UNL A   1      38.458  32.540  41.238  1.00  0.00    -0.237 OA
ATOM     87  O   UNL A   1      37.522  34.812  41.434  1.00  0.00    -0.237 OA
ATOM     88  O   UNL A   1      36.361  33.135  40.073  1.00  0.00    -0.744 OA
ENDBRANCH  82  85
ENDBRANCH  54  78
BRANCH  66  89
ATOM     89  C   UNL A   1      44.113  28.790  35.424  1.00  0.00     0.023 A 
ATOM     90  C   UNL A   1      45.406  29.335  35.301  1.00  0.00     0.012 A 
ATOM     91  C   UNL A   1      43.894  27.722  36.318  1.00  0.00     0.148 A 
ATOM     92  C   UNL A   1      46.469  28.810  36.035  1.00  0.00     0.002 A 
ATOM     93  C   UNL A   1      44.947  27.238  37.084  1.00  0.00     0.091 A 
ATOM     94  F   UNL A   1      42.660  27.207  36.408  1.00  0.00    -0.205 F 
ATOM     95  C   UNL A   1      46.237  27.772  36.935  1.00  0.00     0.022 A 
BRANCH  93  96
ATOM     96  S   UNL A   1      44.727  25.972  38.338  1.00  0.00     0.127 S 
ATOM     97  O   UNL A   1      46.096  25.787  38.818  1.00  0.00    -0.237 OA
ATOM     98  O   UNL A   1      43.832  26.632  39.289  1.00  0.00    -0.237 OA
ATOM     99  O   UNL A   1      44.148  24.823  37.657  1.00  0.00    -0.744 OA
ENDBRANCH  93  96
ENDBRANCH  66  89
ENDBRANCH  40  41
ENDBRANCH  32  35
ENDBRANCH  30  31
ENDBRANCH  29  30
ENDBRANCH   1  29
TORSDOF 18
ENDMDL
MODEL 2
REMARK VINA RESULT:     -12.3      2.797      9.010
REMARK SMILES C[C@@H](C(=O)NCCCCCCNC(=O)c1ccc(-c2c3nc(c(-c4cccc(S(=O)(=O)[O-])c4F)c4ccc([nH]4)c(-c4cccc(S(=O)(=O)[O-])c4F)c4nc(c(-c5cccc(S(=O)(=O)[O-])c5F)c5ccc2[nH]5)C=C4)C=C3)cc1)N1C(=O)/C(=C/c2nc3ccccc3[nH]2)SC1=S
REMARK SMILES IDX 9 1 8 2 7 3 6 4 5 5 3 6 4 7 2 9 1 10 78 11 79 12 93 13 80 14
REMARK SMILES IDX 81 15 92 16 94 17 82 18 83 19 84 20 91 21 85 22 90 23 86 25
REMARK SMILES IDX 89 26 87 27 88 28 10 29 11 30 12 31 13 32 14 34 15 35 16 36
REMARK SMILES IDX 77 37 17 38 76 39 18 40 19 41 20 42 70 43 21 44 75 45 69 46
REMARK SMILES IDX 71 47 22 48 74 49 68 50 67 51 23 53 55 54 35 55 54 56 36 57
REMARK SMILES IDX 39 58 53 59 72 60 37 61 38 62 52 64 73 65 40 66 24 67 25 68
REMARK SMILES IDX 33 69 26 70 28 71 34 72 27 73 29 74 30 75 31 76 32 77 56 78
REMARK SMILES IDX 57 79 65 80 58 81 60 82 66 83 59 84 61 85 62 86 63 87 64 88
REMARK SMILES IDX 41 89 42 90 50 91 43 92 45 93 51 94 44 95 46 96 47 97 48 98
REMARK SMILES IDX 49 99
REMARK H PARENT 5 8 91 24 12 33 71 52 39 63
REMARK Flexibility Score: inf
ROOT
ATOM      1  C   UNL A   1      32.602  27.870  27.284  1.00  0.00     0.002 C 
ENDROOT
BRANCH   1   2
ATOM      2  C   UNL A   1      32.621  26.857  26.133  1.00  0.00     0.002 C 
BRANCH   2   3
ATOM      3  C   UNL A   1      34.021  26.410  25.685  1.00  0.00     0.021 C 
BRANCH   3   4
ATOM      4  C   UNL A   1      34.253  24.904  25.817  1.00  0.00     0.116 C 
BRANCH   4   5
ATOM      5  N   UNL A   1      34.943  24.392  24.653  1.00  0.00    -0.354 N 
ATOM      6  C   UNL A   1      34.577  23.443  23.753  1.00  0.00     0.242 C 
ATOM      7  O   UNL A   1      35.370  23.227  22.829  1.00  0.00    -0.273 OA
ATOM      8  H   UNL A   1      35.824  24.798  24.486  1.00  0.00     0.163 HD
BRANCH   6   9
ATOM      9  C   UNL A   1      33.200  22.743  23.832  1.00  0.00     0.178 C 
ATOM     10  C   UNL A   1      32.907  21.628  22.828  1.00  0.00     0.042 C 
BRANCH   9  11
ATOM     11  N   UNL A   1      32.175  23.808  23.796  1.00  0.00    -0.281 N 
ATOM     12  C   UNL A   1      32.231  24.739  22.769  1.00  0.00     0.267 C 
ATOM     13  C   UNL A   1      31.081  23.894  24.641  1.00  0.00     0.149 C 
ATOM     14  O   UNL A   1      33.036  24.765  21.843  1.00  0.00    -0.268 OA
ATOM     15  C   UNL A   1      31.185  25.772  22.954  1.00  0.00     0.084 C 
ATOM     16  S   UNL A   1      30.109  25.282  24.205  1.00  0.00    -0.054 SA
ATOM     17  S   UNL A   1      30.615  22.919  25.915  1.00  0.00    -0.052 S 
ATOM     18  C   UNL A   1      31.171  26.928  22.270  1.00  0.00     0.068 C 
BRANCH  18  19
ATOM     19  C   UNL A   1      30.328  27.978  22.702  1.00  0.00     0.132 A 
ATOM     20  N   UNL A   1      29.101  28.243  22.308  1.00  0.00    -0.229 NA
ATOM     21  N   UNL A   1      30.777  28.942  23.573  1.00  0.00    -0.338 N 
ATOM     22  C   UNL A   1      28.828  29.497  22.759  1.00  0.00     0.089 A 
ATOM     23  C   UNL A   1      29.852  29.965  23.573  1.00  0.00     0.066 A 
ATOM     24  H   UNL A   1      31.607  28.909  24.100  1.00  0.00     0.168 HD
ATOM     25  C   UNL A   1      27.727  30.311  22.472  1.00  0.00     0.030 A 
ATOM     26  C   UNL A   1      29.826  31.232  24.159  1.00  0.00     0.028 A 
ATOM     27  C   UNL A   1      27.692  31.594  23.018  1.00  0.00     0.002 A 
ATOM     28  C   UNL A   1      28.720  32.041  23.854  1.00  0.00     0.002 A 
ENDBRANCH  18  19
ENDBRANCH   9  11
ENDBRANCH   6   9
ENDBRANCH   4   5
ENDBRANCH   3   4
ENDBRANCH   2   3
ENDBRANCH   1   2
BRANCH   1  29
ATOM     29  C   UNL A   1      32.079  29.259  26.911  1.00  0.00     0.021 C 
BRANCH  29  30
ATOM     30  C   UNL A   1      33.113  30.163  26.248  1.00  0.00     0.116 C 
BRANCH  30  31
ATOM     31  N   UNL A   1      33.020  31.536  26.728  1.00  0.00    -0.352 N 
ATOM     32  C   UNL A   1      33.782  32.177  27.674  1.00  0.00     0.251 C 
ATOM     33  H   UNL A   1      32.310  32.080  26.315  1.00  0.00     0.163 HD
ATOM     34  O   UNL A   1      33.434  33.270  28.106  1.00  0.00    -0.269 OA
BRANCH  32  35
ATOM     35  C   UNL A   1      35.014  31.534  28.179  1.00  0.00     0.039 A 
ATOM     36  C   UNL A   1      36.216  32.242  28.133  1.00  0.00     0.014 A 
ATOM     37  C   UNL A   1      34.976  30.241  28.707  1.00  0.00     0.014 A 
ATOM     38  C   UNL A   1      37.371  31.679  28.682  1.00  0.00     0.010 A 
ATOM     39  C   UNL A   1      36.110  29.711  29.318  1.00  0.00     0.010 A 
ATOM     40  C   UNL A   1      37.318  30.425  29.314  1.00  0.00    -0.014 A 
BRANCH  40  41
ATOM     41  C   UNL A   1      38.503  29.857  30.007  1.00  0.00     0.031 A 
ATOM     42  C   UNL A   1      38.899  30.358  31.370  1.00  0.00     0.074 A 
ATOM     43  C   UNL A   1      39.284  28.964  29.365  1.00  0.00     0.049 A 
ATOM     44  N   UNL A   1      39.943  30.043  32.091  1.00  0.00    -0.248 NA
ATOM     45  C   UNL A   1      38.023  31.364  31.994  1.00  0.00     0.031 C 
ATOM     46  C   UNL A   1      39.050  28.458  28.010  1.00  0.00     0.029 A 
ATOM     47  N   UNL A   1      40.450  28.352  29.750  1.00  0.00    -0.354 N 
ATOM     48  C   UNL A   1      39.874  30.837  33.229  1.00  0.00     0.074 A 
ATOM     49  C   UNL A   1      38.696  31.667  33.094  1.00  0.00     0.031 C 
ATOM     50  C   UNL A   1      40.043  27.619  27.676  1.00  0.00     0.029 A 
ATOM     51  C   UNL A   1      41.004  27.558  28.772  1.00  0.00     0.049 A 
ATOM     52  H   UNL A   1      40.853  28.470  30.640  1.00  0.00     0.167 HD
ATOM     53  C   UNL A   1      40.705  30.861  34.298  1.00  0.00     0.034 A 
ATOM     54  C   UNL A   1      42.167  26.875  28.748  1.00  0.00     0.034 A 
ATOM     55  C   UNL A   1      41.852  30.007  34.446  1.00  0.00     0.049 A 
ATOM     56  C   UNL A   1      43.057  26.900  29.961  1.00  0.00     0.074 A 
ATOM     57  C   UNL A   1      42.691  29.878  35.540  1.00  0.00     0.029 A 
ATOM     58  N   UNL A   1      42.337  29.153  33.468  1.00  0.00    -0.354 N 
ATOM     59  N   UNL A   1      42.879  27.523  31.100  1.00  0.00    -0.248 NA
ATOM     60  C   UNL A   1      44.292  26.105  29.899  1.00  0.00     0.031 C 
ATOM     61  C   UNL A   1      43.708  28.980  35.207  1.00  0.00     0.029 A 
ATOM     62  C   UNL A   1      43.479  28.516  33.921  1.00  0.00     0.049 A 
ATOM     63  H   UNL A   1      41.930  29.021  32.582  1.00  0.00     0.167 HD
ATOM     64  C   UNL A   1      43.960  27.170  31.900  1.00  0.00     0.074 A 
ATOM     65  C   UNL A   1      44.775  26.260  31.122  1.00  0.00     0.031 C 
ATOM     66  C   UNL A   1      44.258  27.576  33.159  1.00  0.00     0.034 A 
BRANCH  53  67
ATOM     67  C   UNL A   1      40.391  31.819  35.417  1.00  0.00     0.023 A 
ATOM     68  C   UNL A   1      41.161  32.989  35.577  1.00  0.00     0.012 A 
ATOM     69  C   UNL A   1      39.282  31.600  36.259  1.00  0.00     0.148 A 
ATOM     70  C   UNL A   1      40.853  33.910  36.577  1.00  0.00     0.002 A 
ATOM     71  C   UNL A   1      38.953  32.546  37.222  1.00  0.00     0.091 A 
ATOM     72  F   UNL A   1      38.573  30.473  36.103  1.00  0.00    -0.205 F 
ATOM     73  C   UNL A   1      39.743  33.696  37.390  1.00  0.00     0.022 A 
BRANCH  71  74
ATOM     74  S   UNL A   1      37.496  32.405  38.263  1.00  0.00     0.127 S 
ATOM     75  O   UNL A   1      36.486  33.080  37.448  1.00  0.00    -0.237 OA
ATOM     76  O   UNL A   1      37.329  30.955  38.362  1.00  0.00    -0.237 OA
ATOM     77  O   UNL A   1      37.828  33.067  39.516  1.00  0.00    -0.744 OA
ENDBRANCH  71  74
ENDBRANCH  53  67
BRANCH  54  78
ATOM     78  C   UNL A   1      42.544  26.083  27.542  1.00  0.00     0.023 A 
ATOM     79  C   UNL A   1      43.309  26.685  26.525  1.00  0.00     0.012 A 
ATOM     80  C   UNL A   1      42.160  24.735  27.405  1.00  0.00     0.148 A 
ATOM     81  C   UNL A   1      43.651  25.971  25.375  1.00  0.00     0.002 A 
ATOM     82  C   UNL A   1      42.555  24.011  26.287  1.00  0.00     0.091 A 
ATOM     83  F   UNL A   1      41.423  24.182  28.379  1.00  0.00    -0.205 F 
ATOM     84  C   UNL A   1      43.283  24.633  25.260  1.00  0.00     0.022 A 
BRANCH  82  85
ATOM     85  S   UNL A   1      42.241  22.251  26.120  1.00  0.00     0.127 S 
ATOM     86  O   UNL A   1      40.787  22.216  25.996  1.00  0.00    -0.237 OA
ATOM     87  O   UNL A   1      42.973  21.929  24.894  1.00  0.00    -0.237 OA
ATOM     88  O   UNL A   1      42.791  21.638  27.322  1.00  0.00    -0.744 OA
ENDBRANCH  82  85
ENDBRANCH  54  78
BRANCH  66  89
ATOM     89  C   UNL A   1      45.500  27.016  33.802  1.00  0.00     0.023 A 
ATOM     90  C   UNL A   1      46.716  27.723  33.715  1.00  0.00     0.012 A 
ATOM     91  C   UNL A   1      45.440  25.834  34.567  1.00  0.00     0.148 A 
ATOM     92  C   UNL A   1      47.859  27.248  34.356  1.00  0.00     0.002 A 
ATOM     93  C   UNL A   1      46.570  25.394  35.246  1.00  0.00     0.091 A 
ATOM     94  F   UNL A   1      44.278  25.169  34.624  1.00  0.00    -0.205 F 
ATOM     95  C   UNL A   1      47.783  26.092  35.131  1.00  0.00     0.022 A 
BRANCH  93  96
ATOM     96  S   UNL A   1      46.544  23.975  36.346  1.00  0.00     0.127 S 
ATOM     97  O   UNL A   1      47.876  24.039  36.945  1.00  0.00    -0.237 OA
ATOM     98  O   UNL A   1      45.449  24.310  37.257  1.00  0.00    -0.237 OA
ATOM     99  O   UNL A   1      46.299  22.813  35.503  1.00  0.00    -0.744 OA
ENDBRANCH  93  96
ENDBRANCH  66  89
ENDBRANCH  40  41
ENDBRANCH  32  35
ENDBRANCH  30  31
ENDBRANCH  29  30
ENDBRANCH   1  29
TORSDOF 18
ENDMDL
MODEL 3
REMARK VINA RESULT:     -12.2      2.572      5.063
REMARK SMILES C[C@@H](C(=O)NCCCCCCNC(=O)c1ccc(-c2c3nc(c(-c4cccc(S(=O)(=O)[O-])c4F)c4ccc([nH]4)c(-c4cccc(S(=O)(=O)[O-])c4F)c4nc(c(-c5cccc(S(=O)(=O)[O-])c5F)c5ccc2[nH]5)C=C4)C=C3)cc1)N1C(=O)/C(=C/c2nc3ccccc3[nH]2)SC1=S
REMARK SMILES IDX 9 1 8 2 7 3 6 4 5 5 3 6 4 7 2 9 1 10 78 11 79 12 93 13 80 14
REMARK SMILES IDX 81 15 92 16 94 17 82 18 83 19 84 20 91 21 85 22 90 23 86 25
REMARK SMILES IDX 89 26 87 27 88 28 10 29 11 30 12 31 13 32 14 34 15 35 16 36
REMARK SMILES IDX 77 37 17 38 76 39 18 40 19 41 20 42 70 43 21 44 75 45 69 46
REMARK SMILES IDX 71 47 22 48 74 49 68 50 67 51 23 53 55 54 35 55 54 56 36 57
REMARK SMILES IDX 39 58 53 59 72 60 37 61 38 62 52 64 73 65 40 66 24 67 25 68
REMARK SMILES IDX 33 69 26 70 28 71 34 72 27 73 29 74 30 75 31 76 32 77 56 78
REMARK SMILES IDX 57 79 65 80 58 81 60 82 66 83 59 84 61 85 62 86 63 87 64 88
REMARK SMILES IDX 41 89 42 90 50 91 43 92 45 93 51 94 44 95 46 96 47 97 48 98
REMARK SMILES IDX 49 99
REMARK H PARENT 5 8 91 24 12 33 71 52 39 63
REMARK Flexibility Score: inf
ROOT
ATOM      1  C   UNL A   1      32.343  27.846  27.246  1.00  0.00     0.002 C 
ENDROOT
BRANCH   1   2
ATOM      2  C   UNL A   1      32.627  27.177  25.896  1.00  0.00     0.002 C 
BRANCH   2   3
ATOM      3  C   UNL A   1      34.052  26.624  25.733  1.00  0.00     0.021 C 
BRANCH   3   4
ATOM      4  C   UNL A   1      34.131  25.100  25.825  1.00  0.00     0.116 C 
BRANCH   4   5
ATOM      5  N   UNL A   1      34.853  24.559  24.694  1.00  0.00    -0.354 N 
ATOM      6  C   UNL A   1      34.516  23.579  23.816  1.00  0.00     0.242 C 
ATOM      7  O   UNL A   1      35.332  23.342  22.918  1.00  0.00    -0.273 OA
ATOM      8  H   UNL A   1      35.734  24.969  24.534  1.00  0.00     0.163 HD
BRANCH   6   9
ATOM      9  C   UNL A   1      33.144  22.868  23.885  1.00  0.00     0.178 C 
ATOM     10  C   UNL A   1      32.864  21.756  22.873  1.00  0.00     0.042 C 
BRANCH   9  11
ATOM     11  N   UNL A   1      32.111  23.926  23.849  1.00  0.00    -0.281 N 
ATOM     12  C   UNL A   1      32.116  24.813  22.782  1.00  0.00     0.267 C 
ATOM     13  C   UNL A   1      31.054  24.043  24.737  1.00  0.00     0.149 C 
ATOM     14  O   UNL A   1      32.879  24.803  21.821  1.00  0.00    -0.268 OA
ATOM     15  C   UNL A   1      31.072  25.848  22.968  1.00  0.00     0.084 C 
ATOM     16  S   UNL A   1      30.055  25.406  24.285  1.00  0.00    -0.054 SA
ATOM     17  S   UNL A   1      30.651  23.121  26.070  1.00  0.00    -0.052 S 
ATOM     18  C   UNL A   1      31.020  26.973  22.238  1.00  0.00     0.068 C 
BRANCH  18  19
ATOM     19  C   UNL A   1      30.190  28.037  22.662  1.00  0.00     0.132 A 
ATOM     20  N   UNL A   1      28.954  28.293  22.291  1.00  0.00    -0.229 NA
ATOM     21  N   UNL A   1      30.662  29.023  23.494  1.00  0.00    -0.338 N 
ATOM     22  C   UNL A   1      28.694  29.560  22.714  1.00  0.00     0.089 A 
ATOM     23  C   UNL A   1      29.739  30.048  23.489  1.00  0.00     0.066 A 
ATOM     24  H   UNL A   1      31.505  29.003  24.001  1.00  0.00     0.168 HD
ATOM     25  C   UNL A   1      27.588  30.368  22.432  1.00  0.00     0.030 A 
ATOM     26  C   UNL A   1      29.730  31.330  24.041  1.00  0.00     0.028 A 
ATOM     27  C   UNL A   1      27.568  31.666  22.944  1.00  0.00     0.002 A 
ATOM     28  C   UNL A   1      28.618  32.133  23.741  1.00  0.00     0.002 A 
ENDBRANCH  18  19
ENDBRANCH   9  11
ENDBRANCH   6   9
ENDBRANCH   4   5
ENDBRANCH   3   4
ENDBRANCH   2   3
ENDBRANCH   1   2
BRANCH   1  29
ATOM     29  C   UNL A   1      31.748  29.253  27.154  1.00  0.00     0.021 C 
BRANCH  29  30
ATOM     30  C   UNL A   1      32.494  30.191  26.212  1.00  0.00     0.116 C 
BRANCH  30  31
ATOM     31  N   UNL A   1      32.249  31.591  26.533  1.00  0.00    -0.352 N 
ATOM     32  C   UNL A   1      32.960  32.429  27.355  1.00  0.00     0.251 C 
ATOM     33  H   UNL A   1      31.461  31.991  26.098  1.00  0.00     0.163 HD
ATOM     34  O   UNL A   1      32.494  33.518  27.676  1.00  0.00    -0.269 OA
BRANCH  32  35
ATOM     35  C   UNL A   1      34.281  32.005  27.866  1.00  0.00     0.039 A 
ATOM     36  C   UNL A   1      35.314  32.942  27.937  1.00  0.00     0.014 A 
ATOM     37  C   UNL A   1      34.493  30.689  28.285  1.00  0.00     0.014 A 
ATOM     38  C   UNL A   1      36.541  32.576  28.494  1.00  0.00     0.010 A 
ATOM     39  C   UNL A   1      35.691  30.346  28.906  1.00  0.00     0.010 A 
ATOM     40  C   UNL A   1      36.727  31.286  29.019  1.00  0.00    -0.014 A 
BRANCH  40  41
ATOM     41  C   UNL A   1      37.981  30.909  29.721  1.00  0.00     0.031 A 
ATOM     42  C   UNL A   1      38.946  29.943  29.090  1.00  0.00     0.074 A 
ATOM     43  C   UNL A   1      38.200  31.358  30.975  1.00  0.00     0.049 A 
ATOM     44  N   UNL A   1      40.045  29.435  29.585  1.00  0.00    -0.248 NA
ATOM     45  C   UNL A   1      38.622  29.462  27.737  1.00  0.00     0.031 C 
ATOM     46  C   UNL A   1      37.301  32.238  31.726  1.00  0.00     0.029 A 
ATOM     47  N   UNL A   1      39.225  31.107  31.852  1.00  0.00    -0.354 N 
ATOM     48  C   UNL A   1      40.520  28.548  28.628  1.00  0.00     0.074 A 
ATOM     49  C   UNL A   1      39.578  28.568  27.530  1.00  0.00     0.031 C 
ATOM     50  C   UNL A   1      37.811  32.447  32.949  1.00  0.00     0.029 A 
ATOM     51  C   UNL A   1      39.049  31.687  33.087  1.00  0.00     0.049 A 
ATOM     52  H   UNL A   1      40.012  30.563  31.619  1.00  0.00     0.167 HD
ATOM     53  C   UNL A   1      41.647  27.798  28.652  1.00  0.00     0.034 A 
ATOM     54  C   UNL A   1      39.786  31.600  34.212  1.00  0.00     0.034 A 
ATOM     55  C   UNL A   1      42.601  27.811  29.728  1.00  0.00     0.049 A 
ATOM     56  C   UNL A   1      41.048  30.779  34.200  1.00  0.00     0.074 A 
ATOM     57  C   UNL A   1      43.827  27.172  29.796  1.00  0.00     0.029 A 
ATOM     58  N   UNL A   1      42.429  28.477  30.932  1.00  0.00    -0.354 N 
ATOM     59  N   UNL A   1      41.571  30.088  33.218  1.00  0.00    -0.248 NA
ATOM     60  C   UNL A   1      41.837  30.751  35.440  1.00  0.00     0.031 C 
ATOM     61  C   UNL A   1      44.376  27.416  31.058  1.00  0.00     0.029 A 
ATOM     62  C   UNL A   1      43.513  28.241  31.760  1.00  0.00     0.049 A 
ATOM     63  H   UNL A   1      41.652  29.034  31.163  1.00  0.00     0.167 HD
ATOM     64  C   UNL A   1      42.764  29.570  33.710  1.00  0.00     0.074 A 
ATOM     65  C   UNL A   1      42.897  30.047  35.071  1.00  0.00     0.031 C 
ATOM     66  C   UNL A   1      43.660  28.759  33.095  1.00  0.00     0.034 A 
BRANCH  53  67
ATOM     67  C   UNL A   1      41.938  26.919  27.463  1.00  0.00     0.023 A 
ATOM     68  C   UNL A   1      42.561  27.465  26.323  1.00  0.00     0.012 A 
ATOM     69  C   UNL A   1      41.668  25.537  27.510  1.00  0.00     0.148 A 
ATOM     70  C   UNL A   1      42.881  26.655  25.233  1.00  0.00     0.002 A 
ATOM     71  C   UNL A   1      42.034  24.729  26.440  1.00  0.00     0.091 A 
ATOM     72  F   UNL A   1      41.059  25.041  28.596  1.00  0.00    -0.205 F 
ATOM     73  C   UNL A   1      42.630  25.288  25.297  1.00  0.00     0.022 A 
BRANCH  71  74
ATOM     74  S   UNL A   1      41.830  22.945  26.459  1.00  0.00     0.127 S 
ATOM     75  O   UNL A   1      40.375  22.814  26.378  1.00  0.00    -0.237 OA
ATOM     76  O   UNL A   1      42.545  22.541  25.249  1.00  0.00    -0.237 OA
ATOM     77  O   UNL A   1      42.428  22.483  27.703  1.00  0.00    -0.744 OA
ENDBRANCH  71  74
ENDBRANCH  53  67
BRANCH  54  78
ATOM     78  C   UNL A   1      39.366  32.333  35.440  1.00  0.00     0.023 A 
ATOM     79  C   UNL A   1      39.658  33.705  35.566  1.00  0.00     0.012 A 
ATOM     80  C   UNL A   1      38.668  31.683  36.476  1.00  0.00     0.148 A 
ATOM     81  C   UNL A   1      39.299  34.406  36.719  1.00  0.00     0.002 A 
ATOM     82  C   UNL A   1      38.259  32.399  37.594  1.00  0.00     0.091 A 
ATOM     83  F   UNL A   1      38.408  30.374  36.343  1.00  0.00    -0.205 F 
ATOM     84  C   UNL A   1      38.592  33.757  37.727  1.00  0.00     0.022 A 
BRANCH  82  85
ATOM     85  S   UNL A   1      37.230  31.677  38.876  1.00  0.00     0.127 S 
ATOM     86  O   UNL A   1      38.110  31.743  40.040  1.00  0.00    -0.237 OA
ATOM     87  O   UNL A   1      36.095  32.601  38.907  1.00  0.00    -0.237 OA
ATOM     88  O   UNL A   1      36.898  30.339  38.406  1.00  0.00    -0.744 OA
ENDBRANCH  82  85
ENDBRANCH  54  78
BRANCH  66  89
ATOM     89  C   UNL A   1      44.890  28.358  33.867  1.00  0.00     0.023 A 
ATOM     90  C   UNL A   1      46.024  29.194  33.867  1.00  0.00     0.012 A 
ATOM     91  C   UNL A   1      44.887  27.195  34.663  1.00  0.00     0.148 A 
ATOM     92  C   UNL A   1      47.147  28.865  34.625  1.00  0.00     0.002 A 
ATOM     93  C   UNL A   1      45.989  26.900  35.456  1.00  0.00     0.091 A 
ATOM     94  F   UNL A   1      43.804  26.406  34.637  1.00  0.00    -0.205 F 
ATOM     95  C   UNL A   1      47.124  27.727  35.429  1.00  0.00     0.022 A 
BRANCH  93  96
ATOM     96  S   UNL A   1      46.016  25.513  36.597  1.00  0.00     0.127 S 
ATOM     97  O   UNL A   1      44.912  24.696  36.097  1.00  0.00    -0.237 OA
ATOM     98  O   UNL A   1      47.346  24.949  36.365  1.00  0.00    -0.237 OA
ATOM     99  O   UNL A   1      45.818  26.077  37.925  1.00  0.00    -0.744 OA
ENDBRANCH  93  96
ENDBRANCH  66  89
ENDBRANCH  40  41
ENDBRANCH  32  35
ENDBRANCH  30  31
ENDBRANCH  29  30
ENDBRANCH   1  29
TORSDOF 18
ENDMDL
