MODEL 1
REMARK VINA RESULT:     -11.7      0.000      0.000
REMARK SMILES COc1ccc(C(=O)c2ccccc2)cc1[C@@H](C)C(=O)NCCCCCCNC(=O)c1ccc(-c2c3nc(c(-c4cccc(S(=O)(=O)[O-])c4F)c4ccc([nH]4)c(-c4cccc(S(=O)(=O)[O-])c4F)c4nc(c(-c5cccc(S(=O)(=O)[O-])c5F)c5ccc2[nH]5)C=C4)C=C3)cc1
REMARK SMILES IDX 24 1 23 2 22 3 21 4 19 5 20 6 17 8 18 9 16 10 3 11 4 12 5 13
REMARK SMILES IDX 15 14 6 15 2 16 1 17 7 18 8 19 9 20 10 21 14 22 11 23 13 24
REMARK SMILES IDX 12 25 25 26 26 27 27 28 28 29 29 30 30 32 31 33 32 34 93 35
REMARK SMILES IDX 33 36 92 37 34 38 35 39 36 40 86 41 37 42 91 43 85 44 87 45
REMARK SMILES IDX 38 46 90 47 84 48 83 49 39 51 71 52 51 53 70 54 52 55 55 56
REMARK SMILES IDX 69 57 88 58 53 59 54 60 68 62 89 63 56 64 40 65 41 66 49 67
REMARK SMILES IDX 42 68 44 69 50 70 43 71 45 72 46 73 47 74 48 75 72 76 73 77
REMARK SMILES IDX 81 78 74 79 76 80 82 81 75 82 77 83 78 84 79 85 80 86 57 87
REMARK SMILES IDX 58 88 66 89 59 90 61 91 67 92 60 93 62 94 63 95 64 96 65 97
REMARK H PARENT 21 7 28 31 87 50 55 61
REMARK Flexibility Score: inf
ROOT
ATOM      1  C   UNL A   1      33.857  26.358  24.432  1.00  0.00     0.002 C 
ENDROOT
BRANCH   1   2
ATOM      2  C   UNL A   1      34.372  25.256  25.364  1.00  0.00     0.021 C 
BRANCH   2   3
ATOM      3  C   UNL A   1      34.780  23.945  24.682  1.00  0.00     0.116 C 
BRANCH   3   4
ATOM      4  N   UNL A   1      34.252  22.789  25.388  1.00  0.00    -0.356 N 
ATOM      5  C   UNL A   1      33.042  22.170  25.400  1.00  0.00     0.227 C 
ATOM      6  O   UNL A   1      32.917  21.261  26.234  1.00  0.00    -0.274 OA
ATOM      7  H   UNL A   1      34.911  22.366  25.985  1.00  0.00     0.163 HD
BRANCH   5   8
ATOM      8  C   UNL A   1      31.855  22.509  24.474  1.00  0.00     0.109 C 
ATOM      9  C   UNL A   1      32.086  22.284  22.983  1.00  0.00     0.023 C 
BRANCH   8  10
ATOM     10  C   UNL A   1      31.156  23.818  24.823  1.00  0.00     0.007 A 
ATOM     11  C   UNL A   1      30.657  24.140  26.099  1.00  0.00     0.122 A 
ATOM     12  C   UNL A   1      30.063  25.392  26.329  1.00  0.00     0.047 A 
ATOM     13  C   UNL A   1      29.930  26.327  25.303  1.00  0.00     0.016 A 
ATOM     14  C   UNL A   1      30.962  24.770  23.796  1.00  0.00     0.020 A 
ATOM     15  C   UNL A   1      30.351  26.009  24.015  1.00  0.00     0.023 A 
BRANCH  11  16
ATOM     16  O   UNL A   1      30.499  23.275  27.150  1.00  0.00    -0.496 OA
ATOM     17  C   UNL A   1      29.203  22.739  27.375  1.00  0.00     0.278 C 
ENDBRANCH  11  16
BRANCH  15  18
ATOM     18  C   UNL A   1      30.187  27.040  22.952  1.00  0.00     0.193 C 
ATOM     19  O   UNL A   1      30.692  26.831  21.849  1.00  0.00    -0.289 OA
BRANCH  18  20
ATOM     20  C   UNL A   1      29.393  28.282  23.120  1.00  0.00     0.022 A 
ATOM     21  C   UNL A   1      28.004  28.163  23.006  1.00  0.00     0.012 A 
ATOM     22  C   UNL A   1      29.963  29.548  23.313  1.00  0.00     0.012 A 
ATOM     23  C   UNL A   1      27.197  29.292  23.095  1.00  0.00     0.001 A 
ATOM     24  C   UNL A   1      29.141  30.674  23.437  1.00  0.00     0.001 A 
ATOM     25  C   UNL A   1      27.759  30.545  23.324  1.00  0.00     0.000 A 
ENDBRANCH  18  20
ENDBRANCH  15  18
ENDBRANCH   8  10
ENDBRANCH   5   8
ENDBRANCH   3   4
ENDBRANCH   2   3
ENDBRANCH   1   2
BRANCH   1  26
ATOM     26  C   UNL A   1      33.248  27.589  25.117  1.00  0.00     0.002 C 
BRANCH  26  27
ATOM     27  C   UNL A   1      34.131  28.306  26.146  1.00  0.00     0.021 C 
BRANCH  27  28
ATOM     28  C   UNL A   1      33.417  28.823  27.398  1.00  0.00     0.116 C 
BRANCH  28  29
ATOM     29  N   UNL A   1      33.426  30.271  27.506  1.00  0.00    -0.352 N 
ATOM     30  C   UNL A   1      34.383  31.105  28.038  1.00  0.00     0.251 C 
ATOM     31  H   UNL A   1      32.629  30.723  27.144  1.00  0.00     0.163 HD
ATOM     32  O   UNL A   1      34.143  32.306  28.138  1.00  0.00    -0.269 OA
BRANCH  30  33
ATOM     33  C   UNL A   1      35.689  30.583  28.519  1.00  0.00     0.039 A 
ATOM     34  C   UNL A   1      36.822  30.771  27.724  1.00  0.00     0.014 A 
ATOM     35  C   UNL A   1      35.806  29.850  29.701  1.00  0.00     0.014 A 
ATOM     36  C   UNL A   1      38.063  30.260  28.132  1.00  0.00     0.010 A 
ATOM     37  C   UNL A   1      37.065  29.409  30.147  1.00  0.00     0.010 A 
ATOM     38  C   UNL A   1      38.213  29.590  29.361  1.00  0.00    -0.014 A 
BRANCH  38  39
ATOM     39  C   UNL A   1      39.566  29.103  29.786  1.00  0.00     0.031 A 
ATOM     40  C   UNL A   1      40.325  29.738  30.931  1.00  0.00     0.074 A 
ATOM     41  C   UNL A   1      40.140  28.062  29.143  1.00  0.00     0.049 A 
ATOM     42  N   UNL A   1      41.446  29.351  31.493  1.00  0.00    -0.248 NA
ATOM     43  C   UNL A   1      39.771  30.971  31.509  1.00  0.00     0.031 C 
ATOM     44  C   UNL A   1      39.592  27.397  27.960  1.00  0.00     0.029 A 
ATOM     45  N   UNL A   1      41.311  27.381  29.389  1.00  0.00    -0.354 N 
ATOM     46  C   UNL A   1      41.743  30.299  32.467  1.00  0.00     0.074 A 
ATOM     47  C   UNL A   1      40.703  31.303  32.393  1.00  0.00     0.031 C 
ATOM     48  C   UNL A   1      40.404  26.388  27.604  1.00  0.00     0.029 A 
ATOM     49  C   UNL A   1      41.547  26.346  28.514  1.00  0.00     0.049 A 
ATOM     50  H   UNL A   1      41.922  27.613  30.125  1.00  0.00     0.167 HD
ATOM     51  C   UNL A   1      42.762  30.327  33.362  1.00  0.00     0.034 A 
ATOM     52  C   UNL A   1      42.558  25.455  28.443  1.00  0.00     0.034 A 
ATOM     53  C   UNL A   1      43.786  29.320  33.473  1.00  0.00     0.049 A 
ATOM     54  C   UNL A   1      43.649  25.473  29.478  1.00  0.00     0.074 A 
ATOM     55  C   UNL A   1      44.794  29.219  34.418  1.00  0.00     0.029 A 
ATOM     56  N   UNL A   1      43.954  28.255  32.603  1.00  0.00    -0.354 N 
ATOM     57  N   UNL A   1      43.798  26.269  30.507  1.00  0.00    -0.248 NA
ATOM     58  C   UNL A   1      44.689  24.438  29.367  1.00  0.00     0.031 C 
ATOM     59  C   UNL A   1      45.593  28.116  34.098  1.00  0.00     0.029 A 
ATOM     60  C   UNL A   1      45.057  27.503  32.979  1.00  0.00     0.049 A 
ATOM     61  H   UNL A   1      43.374  28.059  31.832  1.00  0.00     0.167 HD
ATOM     62  C   UNL A   1      44.927  25.814  31.182  1.00  0.00     0.074 A 
ATOM     63  C   UNL A   1      45.405  24.653  30.463  1.00  0.00     0.031 C 
ATOM     64  C   UNL A   1      45.519  26.324  32.291  1.00  0.00     0.034 A 
BRANCH  51  65
ATOM     65  C   UNL A   1      42.802  31.473  34.346  1.00  0.00     0.023 A 
ATOM     66  C   UNL A   1      43.520  32.644  34.025  1.00  0.00     0.012 A 
ATOM     67  C   UNL A   1      42.069  31.423  35.549  1.00  0.00     0.148 A 
ATOM     68  C   UNL A   1      43.544  33.728  34.902  1.00  0.00     0.002 A 
ATOM     69  C   UNL A   1      42.058  32.527  36.396  1.00  0.00     0.091 A 
ATOM     70  F   UNL A   1      41.402  30.300  35.846  1.00  0.00    -0.205 F 
ATOM     71  C   UNL A   1      42.805  33.674  36.080  1.00  0.00     0.022 A 
BRANCH  69  72
ATOM     72  S   UNL A   1      41.067  32.594  37.893  1.00  0.00     0.127 S 
ATOM     73  O   UNL A   1      41.875  31.801  38.817  1.00  0.00    -0.237 OA
ATOM     74  O   UNL A   1      41.039  34.026  38.181  1.00  0.00    -0.237 OA
ATOM     75  O   UNL A   1      39.773  32.019  37.543  1.00  0.00    -0.744 OA
ENDBRANCH  69  72
ENDBRANCH  51  65
BRANCH  52  76
ATOM     76  C   UNL A   1      42.556  24.419  27.368  1.00  0.00     0.023 A 
ATOM     77  C   UNL A   1      43.426  24.547  26.268  1.00  0.00     0.012 A 
ATOM     78  C   UNL A   1      41.704  23.300  27.443  1.00  0.00     0.148 A 
ATOM     79  C   UNL A   1      43.425  23.597  25.245  1.00  0.00     0.002 A 
ATOM     80  C   UNL A   1      41.754  22.326  26.454  1.00  0.00     0.091 A 
ATOM     81  F   UNL A   1      40.875  23.204  28.491  1.00  0.00    -0.205 F 
ATOM     82  C   UNL A   1      42.598  22.482  25.344  1.00  0.00     0.022 A 
BRANCH  80  83
ATOM     83  S   UNL A   1      40.831  20.790  26.572  1.00  0.00     0.127 S 
ATOM     84  O   UNL A   1      39.493  21.212  26.166  1.00  0.00    -0.237 OA
ATOM     85  O   UNL A   1      41.531  19.945  25.604  1.00  0.00    -0.237 OA
ATOM     86  O   UNL A   1      40.964  20.353  27.956  1.00  0.00    -0.744 OA
ENDBRANCH  80  83
ENDBRANCH  52  76
BRANCH  64  87
ATOM     87  C   UNL A   1      46.739  25.613  32.827  1.00  0.00     0.023 A 
ATOM     88  C   UNL A   1      48.028  26.037  32.446  1.00  0.00     0.012 A 
ATOM     89  C   UNL A   1      46.610  24.548  33.741  1.00  0.00     0.148 A 
ATOM     90  C   UNL A   1      49.164  25.383  32.926  1.00  0.00     0.002 A 
ATOM     91  C   UNL A   1      47.747  23.936  34.257  1.00  0.00     0.091 A 
ATOM     92  F   UNL A   1      45.378  24.142  34.081  1.00  0.00    -0.205 F 
ATOM     93  C   UNL A   1      49.024  24.340  33.838  1.00  0.00     0.022 A 
BRANCH  91  94
ATOM     94  S   UNL A   1      47.664  22.648  35.507  1.00  0.00     0.127 S 
ATOM     95  O   UNL A   1      46.708  23.215  36.458  1.00  0.00    -0.237 OA
ATOM     96  O   UNL A   1      47.159  21.505  34.745  1.00  0.00    -0.237 OA
ATOM     97  O   UNL A   1      49.023  22.486  36.005  1.00  0.00    -0.744 OA
ENDBRANCH  91  94
ENDBRANCH  64  87
ENDBRANCH  38  39
ENDBRANCH  30  33
ENDBRANCH  28  29
ENDBRANCH  27  28
ENDBRANCH  26  27
ENDBRANCH   1  26
TORSDOF 20
ENDMDL
MODEL 2
REMARK VINA RESULT:     -11.1      1.637      2.101
REMARK SMILES COc1ccc(C(=O)c2ccccc2)cc1[C@@H](C)C(=O)NCCCCCCNC(=O)c1ccc(-c2c3nc(c(-c4cccc(S(=O)(=O)[O-])c4F)c4ccc([nH]4)c(-c4cccc(S(=O)(=O)[O-])c4F)c4nc(c(-c5cccc(S(=O)(=O)[O-])c5F)c5ccc2[nH]5)C=C4)C=C3)cc1
REMARK SMILES IDX 24 1 23 2 22 3 21 4 19 5 20 6 17 8 18 9 16 10 3 11 4 12 5 13
REMARK SMILES IDX 15 14 6 15 2 16 1 17 7 18 8 19 9 20 10 21 14 22 11 23 13 24
REMARK SMILES IDX 12 25 25 26 26 27 27 28 28 29 29 30 30 32 31 33 32 34 93 35
REMARK SMILES IDX 33 36 92 37 34 38 35 39 36 40 86 41 37 42 91 43 85 44 87 45
REMARK SMILES IDX 38 46 90 47 84 48 83 49 39 51 71 52 51 53 70 54 52 55 55 56
REMARK SMILES IDX 69 57 88 58 53 59 54 60 68 62 89 63 56 64 40 65 41 66 49 67
REMARK SMILES IDX 42 68 44 69 50 70 43 71 45 72 46 73 47 74 48 75 72 76 73 77
REMARK SMILES IDX 81 78 74 79 76 80 82 81 75 82 77 83 78 84 79 85 80 86 57 87
REMARK SMILES IDX 58 88 66 89 59 90 61 91 67 92 60 93 62 94 63 95 64 96 65 97
REMARK H PARENT 21 7 28 31 87 50 55 61
REMARK Flexibility Score: inf
ROOT
ATOM      1  C   UNL A   1      33.839  27.082  24.440  1.00  0.00     0.002 C 
ENDROOT
BRANCH   1   2
ATOM      2  C   UNL A   1      34.369  25.840  25.163  1.00  0.00     0.021 C 
BRANCH   2   3
ATOM      3  C   UNL A   1      34.670  24.629  24.273  1.00  0.00     0.116 C 
BRANCH   3   4
ATOM      4  N   UNL A   1      34.478  23.378  24.988  1.00  0.00    -0.356 N 
ATOM      5  C   UNL A   1      33.427  22.528  25.126  1.00  0.00     0.227 C 
ATOM      6  O   UNL A   1      33.596  21.598  25.928  1.00  0.00    -0.274 OA
ATOM      7  H   UNL A   1      35.282  23.085  25.478  1.00  0.00     0.163 HD
BRANCH   5   8
ATOM      8  C   UNL A   1      32.085  22.637  24.373  1.00  0.00     0.109 C 
ATOM      9  C   UNL A   1      32.120  22.286  22.889  1.00  0.00     0.023 C 
BRANCH   8  10
ATOM     10  C   UNL A   1      31.287  23.891  24.716  1.00  0.00     0.007 A 
ATOM     11  C   UNL A   1      30.699  24.145  25.969  1.00  0.00     0.122 A 
ATOM     12  C   UNL A   1      30.017  25.352  26.196  1.00  0.00     0.047 A 
ATOM     13  C   UNL A   1      29.884  26.306  25.189  1.00  0.00     0.016 A 
ATOM     14  C   UNL A   1      31.093  24.859  23.704  1.00  0.00     0.020 A 
ATOM     15  C   UNL A   1      30.395  26.053  23.919  1.00  0.00     0.023 A 
BRANCH  11  16
ATOM     16  O   UNL A   1      30.537  23.242  26.986  1.00  0.00    -0.496 OA
ATOM     17  C   UNL A   1      29.216  22.817  27.287  1.00  0.00     0.278 C 
ENDBRANCH  11  16
BRANCH  15  18
ATOM     18  C   UNL A   1      30.227  27.103  22.875  1.00  0.00     0.193 C 
ATOM     19  O   UNL A   1      30.804  26.957  21.798  1.00  0.00    -0.289 OA
BRANCH  18  20
ATOM     20  C   UNL A   1      29.348  28.289  23.029  1.00  0.00     0.022 A 
ATOM     21  C   UNL A   1      29.977  29.509  23.297  1.00  0.00     0.012 A 
ATOM     22  C   UNL A   1      27.949  28.228  22.989  1.00  0.00     0.012 A 
ATOM     23  C   UNL A   1      29.217  30.653  23.511  1.00  0.00     0.001 A 
ATOM     24  C   UNL A   1      27.193  29.392  23.171  1.00  0.00     0.001 A 
ATOM     25  C   UNL A   1      27.828  30.603  23.435  1.00  0.00     0.000 A 
ENDBRANCH  18  20
ENDBRANCH  15  18
ENDBRANCH   8  10
ENDBRANCH   5   8
ENDBRANCH   3   4
ENDBRANCH   2   3
ENDBRANCH   1   2
BRANCH   1  26
ATOM     26  C   UNL A   1      33.041  28.072  25.299  1.00  0.00     0.002 C 
BRANCH  26  27
ATOM     27  C   UNL A   1      32.929  27.745  26.794  1.00  0.00     0.021 C 
BRANCH  27  28
ATOM     28  C   UNL A   1      32.240  28.802  27.662  1.00  0.00     0.116 C 
BRANCH  28  29
ATOM     29  N   UNL A   1      32.296  30.136  27.091  1.00  0.00    -0.352 N 
ATOM     30  C   UNL A   1      33.277  31.096  27.199  1.00  0.00     0.251 C 
ATOM     31  H   UNL A   1      31.517  30.392  26.545  1.00  0.00     0.163 HD
ATOM     32  O   UNL A   1      33.076  32.214  26.730  1.00  0.00    -0.269 OA
BRANCH  30  33
ATOM     33  C   UNL A   1      34.563  30.820  27.893  1.00  0.00     0.039 A 
ATOM     34  C   UNL A   1      35.229  29.623  27.622  1.00  0.00     0.014 A 
ATOM     35  C   UNL A   1      35.085  31.682  28.858  1.00  0.00     0.014 A 
ATOM     36  C   UNL A   1      36.426  29.316  28.286  1.00  0.00     0.010 A 
ATOM     37  C   UNL A   1      36.326  31.410  29.463  1.00  0.00     0.010 A 
ATOM     38  C   UNL A   1      37.010  30.213  29.200  1.00  0.00    -0.014 A 
BRANCH  38  39
ATOM     39  C   UNL A   1      38.316  29.872  29.852  1.00  0.00     0.031 A 
ATOM     40  C   UNL A   1      38.705  30.423  31.207  1.00  0.00     0.074 A 
ATOM     41  C   UNL A   1      39.184  29.044  29.229  1.00  0.00     0.049 A 
ATOM     42  N   UNL A   1      39.743  30.123  31.952  1.00  0.00    -0.248 NA
ATOM     43  C   UNL A   1      37.835  31.452  31.795  1.00  0.00     0.031 C 
ATOM     44  C   UNL A   1      39.011  28.501  27.881  1.00  0.00     0.029 A 
ATOM     45  N   UNL A   1      40.386  28.516  29.644  1.00  0.00    -0.354 N 
ATOM     46  C   UNL A   1      39.665  30.938  33.077  1.00  0.00     0.074 A 
ATOM     47  C   UNL A   1      38.497  31.774  32.898  1.00  0.00     0.031 C 
ATOM     48  C   UNL A   1      40.046  27.695  27.593  1.00  0.00     0.029 A 
ATOM     49  C   UNL A   1      40.973  27.680  28.722  1.00  0.00     0.049 A 
ATOM     50  H   UNL A   1      40.787  28.716  30.520  1.00  0.00     0.167 HD
ATOM     51  C   UNL A   1      40.464  30.975  34.173  1.00  0.00     0.034 A 
ATOM     52  C   UNL A   1      42.122  26.973  28.768  1.00  0.00     0.034 A 
ATOM     53  C   UNL A   1      41.609  30.128  34.384  1.00  0.00     0.049 A 
ATOM     54  C   UNL A   1      42.964  26.989  30.015  1.00  0.00     0.074 A 
ATOM     55  C   UNL A   1      42.410  30.029  35.510  1.00  0.00     0.029 A 
ATOM     56  N   UNL A   1      42.135  29.252  33.449  1.00  0.00    -0.354 N 
ATOM     57  N   UNL A   1      42.760  27.624  31.142  1.00  0.00    -0.248 NA
ATOM     58  C   UNL A   1      44.175  26.152  30.011  1.00  0.00     0.031 C 
ATOM     59  C   UNL A   1      43.442  29.123  35.242  1.00  0.00     0.029 A 
ATOM     60  C   UNL A   1      43.259  28.623  33.965  1.00  0.00     0.049 A 
ATOM     61  H   UNL A   1      41.765  29.096  32.549  1.00  0.00     0.167 HD
ATOM     62  C   UNL A   1      43.795  27.242  31.989  1.00  0.00     0.074 A 
ATOM     63  C   UNL A   1      44.608  26.295  31.257  1.00  0.00     0.031 C 
ATOM     64  C   UNL A   1      44.053  27.651  33.256  1.00  0.00     0.034 A 
BRANCH  51  65
ATOM     65  C   UNL A   1      40.101  31.943  35.275  1.00  0.00     0.023 A 
ATOM     66  C   UNL A   1      40.713  33.213  35.319  1.00  0.00     0.012 A 
ATOM     67  C   UNL A   1      39.101  31.629  36.218  1.00  0.00     0.148 A 
ATOM     68  C   UNL A   1      40.370  34.136  36.306  1.00  0.00     0.002 A 
ATOM     69  C   UNL A   1      38.729  32.572  37.169  1.00  0.00     0.091 A 
ATOM     70  F   UNL A   1      38.537  30.414  36.171  1.00  0.00    -0.205 F 
ATOM     71  C   UNL A   1      39.371  33.821  37.223  1.00  0.00     0.022 A 
BRANCH  69  72
ATOM     72  S   UNL A   1      37.392  32.300  38.338  1.00  0.00     0.127 S 
ATOM     73  O   UNL A   1      37.904  32.969  39.532  1.00  0.00    -0.237 OA
ATOM     74  O   UNL A   1      36.272  32.978  37.690  1.00  0.00    -0.237 OA
ATOM     75  O   UNL A   1      37.245  30.852  38.449  1.00  0.00    -0.744 OA
ENDBRANCH  69  72
ENDBRANCH  51  65
BRANCH  52  76
ATOM     76  C   UNL A   1      42.520  26.132  27.601  1.00  0.00     0.023 A 
ATOM     77  C   UNL A   1      43.360  26.668  26.605  1.00  0.00     0.012 A 
ATOM     78  C   UNL A   1      42.080  24.800  27.485  1.00  0.00     0.148 A 
ATOM     79  C   UNL A   1      43.728  25.902  25.497  1.00  0.00     0.002 A 
ATOM     80  C   UNL A   1      42.502  24.024  26.413  1.00  0.00     0.091 A 
ATOM     81  F   UNL A   1      41.270  24.314  28.436  1.00  0.00    -0.205 F 
ATOM     82  C   UNL A   1      43.309  24.578  25.407  1.00  0.00     0.022 A 
BRANCH  80  83
ATOM     83  S   UNL A   1      42.129  22.271  26.291  1.00  0.00     0.127 S 
ATOM     84  O   UNL A   1      40.674  22.282  26.165  1.00  0.00    -0.237 OA
ATOM     85  O   UNL A   1      42.850  21.895  25.075  1.00  0.00    -0.237 OA
ATOM     86  O   UNL A   1      42.653  21.669  27.510  1.00  0.00    -0.744 OA
ENDBRANCH  80  83
ENDBRANCH  52  76
BRANCH  64  87
ATOM     87  C   UNL A   1      45.249  27.054  33.959  1.00  0.00     0.023 A 
ATOM     88  C   UNL A   1      46.504  27.692  33.883  1.00  0.00     0.012 A 
ATOM     89  C   UNL A   1      45.123  25.881  34.729  1.00  0.00     0.148 A 
ATOM     90  C   UNL A   1      47.620  27.147  34.519  1.00  0.00     0.002 A 
ATOM     91  C   UNL A   1      46.227  25.372  35.403  1.00  0.00     0.091 A 
ATOM     92  F   UNL A   1      43.928  25.273  34.778  1.00  0.00    -0.205 F 
ATOM     93  C   UNL A   1      47.480  25.994  35.286  1.00  0.00     0.022 A 
BRANCH  91  94
ATOM     94  S   UNL A   1      46.119  23.945  36.490  1.00  0.00     0.127 S 
ATOM     95  O   UNL A   1      47.360  24.057  37.255  1.00  0.00    -0.237 OA
ATOM     96  O   UNL A   1      44.904  24.228  37.256  1.00  0.00    -0.237 OA
ATOM     97  O   UNL A   1      46.023  22.783  35.616  1.00  0.00    -0.744 OA
ENDBRANCH  91  94
ENDBRANCH  64  87
ENDBRANCH  38  39
ENDBRANCH  30  33
ENDBRANCH  28  29
ENDBRANCH  27  28
ENDBRANCH  26  27
ENDBRANCH   1  26
TORSDOF 20
ENDMDL
MODEL 3
REMARK VINA RESULT:     -10.7      4.833      9.564
REMARK SMILES COc1ccc(C(=O)c2ccccc2)cc1[C@@H](C)C(=O)NCCCCCCNC(=O)c1ccc(-c2c3nc(c(-c4cccc(S(=O)(=O)[O-])c4F)c4ccc([nH]4)c(-c4cccc(S(=O)(=O)[O-])c4F)c4nc(c(-c5cccc(S(=O)(=O)[O-])c5F)c5ccc2[nH]5)C=C4)C=C3)cc1
REMARK SMILES IDX 24 1 23 2 22 3 21 4 19 5 20 6 17 8 18 9 16 10 3 11 4 12 5 13
REMARK SMILES IDX 15 14 6 15 2 16 1 17 7 18 8 19 9 20 10 21 14 22 11 23 13 24
REMARK SMILES IDX 12 25 25 26 26 27 27 28 28 29 29 30 30 32 31 33 32 34 93 35
REMARK SMILES IDX 33 36 92 37 34 38 35 39 36 40 86 41 37 42 91 43 85 44 87 45
REMARK SMILES IDX 38 46 90 47 84 48 83 49 39 51 71 52 51 53 70 54 52 55 55 56
REMARK SMILES IDX 69 57 88 58 53 59 54 60 68 62 89 63 56 64 40 65 41 66 49 67
REMARK SMILES IDX 42 68 44 69 50 70 43 71 45 72 46 73 47 74 48 75 72 76 73 77
REMARK SMILES IDX 81 78 74 79 76 80 82 81 75 82 77 83 78 84 79 85 80 86 57 87
REMARK SMILES IDX 58 88 66 89 59 90 61 91 67 92 60 93 62 94 63 95 64 96 65 97
REMARK H PARENT 21 7 28 31 87 50 55 61
REMARK Flexibility Score: inf
ROOT
ATOM      1  C   UNL A   1      33.311  21.755  24.117  1.00  0.00     0.002 C 
ENDROOT
BRANCH   1   2
ATOM      2  C   UNL A   1      32.172  22.754  24.354  1.00  0.00     0.021 C 
BRANCH   2   3
ATOM      3  C   UNL A   1      31.424  23.219  23.100  1.00  0.00     0.116 C 
BRANCH   3   4
ATOM      4  N   UNL A   1      30.289  24.063  23.437  1.00  0.00    -0.356 N 
ATOM      5  C   UNL A   1      30.074  25.404  23.398  1.00  0.00     0.227 C 
ATOM      6  O   UNL A   1      28.999  25.784  23.885  1.00  0.00    -0.274 OA
ATOM      7  H   UNL A   1      29.512  23.553  23.763  1.00  0.00     0.163 HD
BRANCH   5   8
ATOM      8  C   UNL A   1      31.043  26.448  22.807  1.00  0.00     0.109 C 
ATOM      9  C   UNL A   1      32.392  25.915  22.335  1.00  0.00     0.023 C 
BRANCH   8  10
ATOM     10  C   UNL A   1      31.111  27.747  23.603  1.00  0.00     0.007 A 
ATOM     11  C   UNL A   1      30.550  28.968  23.187  1.00  0.00     0.122 A 
ATOM     12  C   UNL A   1      30.633  30.100  24.014  1.00  0.00     0.047 A 
ATOM     13  C   UNL A   1      31.289  30.050  25.243  1.00  0.00     0.016 A 
ATOM     14  C   UNL A   1      31.809  27.744  24.833  1.00  0.00     0.020 A 
ATOM     15  C   UNL A   1      31.914  28.875  25.650  1.00  0.00     0.023 A 
BRANCH  11  16
ATOM     16  O   UNL A   1      30.074  29.256  21.935  1.00  0.00    -0.496 OA
ATOM     17  C   UNL A   1      29.309  30.442  21.776  1.00  0.00     0.278 C 
ENDBRANCH  11  16
BRANCH  15  18
ATOM     18  C   UNL A   1      32.604  28.870  26.970  1.00  0.00     0.193 C 
ATOM     19  O   UNL A   1      32.229  28.069  27.825  1.00  0.00    -0.289 OA
BRANCH  18  20
ATOM     20  C   UNL A   1      33.765  29.734  27.299  1.00  0.00     0.022 A 
ATOM     21  C   UNL A   1      33.496  31.081  27.560  1.00  0.00     0.012 A 
ATOM     22  C   UNL A   1      35.093  29.285  27.290  1.00  0.00     0.012 A 
ATOM     23  C   UNL A   1      34.539  31.964  27.819  1.00  0.00     0.001 A 
ATOM     24  C   UNL A   1      36.133  30.173  27.586  1.00  0.00     0.001 A 
ATOM     25  C   UNL A   1      35.855  31.512  27.847  1.00  0.00     0.000 A 
ENDBRANCH  18  20
ENDBRANCH  15  18
ENDBRANCH   8  10
ENDBRANCH   5   8
ENDBRANCH   3   4
ENDBRANCH   2   3
ENDBRANCH   1   2
BRANCH   1  26
ATOM     26  C   UNL A   1      34.351  21.641  25.239  1.00  0.00     0.002 C 
BRANCH  26  27
ATOM     27  C   UNL A   1      34.663  22.927  26.016  1.00  0.00     0.021 C 
BRANCH  27  28
ATOM     28  C   UNL A   1      36.145  23.205  26.285  1.00  0.00     0.116 C 
BRANCH  28  29
ATOM     29  N   UNL A   1      36.999  22.060  26.023  1.00  0.00    -0.352 N 
ATOM     30  C   UNL A   1      38.372  21.965  26.053  1.00  0.00     0.251 C 
ATOM     31  H   UNL A   1      36.525  21.229  25.790  1.00  0.00     0.163 HD
ATOM     32  O   UNL A   1      38.909  20.924  25.683  1.00  0.00    -0.269 OA
BRANCH  30  33
ATOM     33  C   UNL A   1      39.221  23.102  26.498  1.00  0.00     0.039 A 
ATOM     34  C   UNL A   1      39.180  24.295  25.774  1.00  0.00     0.014 A 
ATOM     35  C   UNL A   1      40.109  22.990  27.568  1.00  0.00     0.014 A 
ATOM     36  C   UNL A   1      39.996  25.374  26.146  1.00  0.00     0.010 A 
ATOM     37  C   UNL A   1      40.866  24.099  27.989  1.00  0.00     0.010 A 
ATOM     38  C   UNL A   1      40.835  25.306  27.273  1.00  0.00    -0.014 A 
BRANCH  38  39
ATOM     39  C   UNL A   1      41.655  26.498  27.669  1.00  0.00     0.031 A 
ATOM     40  C   UNL A   1      43.097  26.659  27.240  1.00  0.00     0.074 A 
ATOM     41  C   UNL A   1      41.104  27.472  28.427  1.00  0.00     0.049 A 
ATOM     42  N   UNL A   1      43.895  27.688  27.399  1.00  0.00    -0.248 NA
ATOM     43  C   UNL A   1      43.734  25.519  26.565  1.00  0.00     0.031 C 
ATOM     44  C   UNL A   1      39.760  27.432  29.005  1.00  0.00     0.029 A 
ATOM     45  N   UNL A   1      41.605  28.685  28.843  1.00  0.00    -0.354 N 
ATOM     46  C   UNL A   1      45.126  27.314  26.871  1.00  0.00     0.074 A 
ATOM     47  C   UNL A   1      44.981  25.946  26.420  1.00  0.00     0.031 C 
ATOM     48  C   UNL A   1      39.531  28.575  29.671  1.00  0.00     0.029 A 
ATOM     49  C   UNL A   1      40.718  29.424  29.594  1.00  0.00     0.049 A 
ATOM     50  H   UNL A   1      42.512  28.995  28.623  1.00  0.00     0.167 HD
ATOM     51  C   UNL A   1      46.266  28.039  26.740  1.00  0.00     0.034 A 
ATOM     52  C   UNL A   1      40.832  30.646  30.155  1.00  0.00     0.034 A 
ATOM     53  C   UNL A   1      46.418  29.411  27.151  1.00  0.00     0.049 A 
ATOM     54  C   UNL A   1      42.086  31.452  29.952  1.00  0.00     0.074 A 
ATOM     55  C   UNL A   1      47.504  30.250  26.961  1.00  0.00     0.029 A 
ATOM     56  N   UNL A   1      45.474  30.142  27.854  1.00  0.00    -0.354 N 
ATOM     57  N   UNL A   1      43.166  31.144  29.278  1.00  0.00    -0.248 NA
ATOM     58  C   UNL A   1      42.117  32.797  30.550  1.00  0.00     0.031 C 
ATOM     59  C   UNL A   1      47.233  31.474  27.582  1.00  0.00     0.029 A 
ATOM     60  C   UNL A   1      45.960  31.414  28.121  1.00  0.00     0.049 A 
ATOM     61  H   UNL A   1      44.588  29.808  28.124  1.00  0.00     0.167 HD
ATOM     62  C   UNL A   1      43.990  32.263  29.345  1.00  0.00     0.074 A 
ATOM     63  C   UNL A   1      43.271  33.268  30.098  1.00  0.00     0.031 C 
ATOM     64  C   UNL A   1      45.236  32.434  28.837  1.00  0.00     0.034 A 
BRANCH  51  65
ATOM     65  C   UNL A   1      47.448  27.376  26.072  1.00  0.00     0.023 A 
ATOM     66  C   UNL A   1      47.639  27.523  24.683  1.00  0.00     0.012 A 
ATOM     67  C   UNL A   1      48.408  26.674  26.829  1.00  0.00     0.148 A 
ATOM     68  C   UNL A   1      48.741  26.948  24.050  1.00  0.00     0.002 A 
ATOM     69  C   UNL A   1      49.530  26.145  26.199  1.00  0.00     0.091 A 
ATOM     70  F   UNL A   1      48.207  26.532  28.146  1.00  0.00    -0.205 F 
ATOM     71  C   UNL A   1      49.691  26.270  24.808  1.00  0.00     0.022 A 
BRANCH  69  72
ATOM     72  S   UNL A   1      50.857  25.332  27.096  1.00  0.00     0.127 S 
ATOM     73  O   UNL A   1      51.364  26.423  27.925  1.00  0.00    -0.237 OA
ATOM     74  O   UNL A   1      50.142  24.290  27.829  1.00  0.00    -0.237 OA
ATOM     75  O   UNL A   1      51.781  24.836  26.082  1.00  0.00    -0.744 OA
ENDBRANCH  69  72
ENDBRANCH  51  65
BRANCH  52  76
ATOM     76  C   UNL A   1      39.689  31.213  30.929  1.00  0.00     0.023 A 
ATOM     77  C   UNL A   1      38.617  31.826  30.250  1.00  0.00     0.012 A 
ATOM     78  C   UNL A   1      39.655  31.133  32.335  1.00  0.00     0.148 A 
ATOM     79  C   UNL A   1      37.549  32.378  30.959  1.00  0.00     0.002 A 
ATOM     80  C   UNL A   1      38.559  31.627  33.029  1.00  0.00     0.091 A 
ATOM     81  F   UNL A   1      40.691  30.559  32.961  1.00  0.00    -0.205 F 
ATOM     82  C   UNL A   1      37.515  32.268  32.346  1.00  0.00     0.022 A 
BRANCH  80  83
ATOM     83  S   UNL A   1      38.364  31.402  34.801  1.00  0.00     0.127 S 
ATOM     84  O   UNL A   1      37.134  32.146  35.063  1.00  0.00    -0.237 OA
ATOM     85  O   UNL A   1      38.240  29.949  34.906  1.00  0.00    -0.237 OA
ATOM     86  O   UNL A   1      39.573  31.947  35.405  1.00  0.00    -0.744 OA
ENDBRANCH  80  83
ENDBRANCH  52  76
BRANCH  64  87
ATOM     87  C   UNL A   1      45.903  33.773  29.045  1.00  0.00     0.023 A 
ATOM     88  C   UNL A   1      46.735  33.982  30.164  1.00  0.00     0.012 A 
ATOM     89  C   UNL A   1      45.739  34.814  28.110  1.00  0.00     0.148 A 
ATOM     90  C   UNL A   1      47.350  35.217  30.374  1.00  0.00     0.002 A 
ATOM     91  C   UNL A   1      46.397  36.025  28.297  1.00  0.00     0.091 A 
ATOM     92  F   UNL A   1      44.930  34.609  27.059  1.00  0.00    -0.205 F 
ATOM     93  C   UNL A   1      47.189  36.234  29.437  1.00  0.00     0.022 A 
BRANCH  91  94
ATOM     94  S   UNL A   1      46.323  37.357  27.094  1.00  0.00     0.127 S 
ATOM     95  O   UNL A   1      44.889  37.643  27.051  1.00  0.00    -0.237 OA
ATOM     96  O   UNL A   1      47.132  38.398  27.731  1.00  0.00    -0.237 OA
ATOM     97  O   UNL A   1      46.892  36.819  25.866  1.00  0.00    -0.744 OA
ENDBRANCH  91  94
ENDBRANCH  64  87
ENDBRANCH  38  39
ENDBRANCH  30  33
ENDBRANCH  28  29
ENDBRANCH  27  28
ENDBRANCH  26  27
ENDBRANCH   1  26
TORSDOF 20
ENDMDL
