MODEL 1
REMARK VINA RESULT:     -11.8      0.000      0.000
REMARK SMILES COc1ccc(-c2ccc(CCC(=O)NCCCCCCNC(=O)c3ccc(-c4c5nc(c(-c6cccc(S(=O)(=O)[O-])c6F)c6ccc([nH]6)c(-c6cccc(S(=O)(=O)[O-])c6F)c6nc(c(-c7cccc(S(=O)(=O)[O-])c7F)c7ccc4[nH]7)C=C6)C=C5)cc3)n2-c2ccc(C(C)=O)cc2)cc1
REMARK SMILES IDX 18 1 17 2 16 3 15 4 13 5 14 6 12 8 11 9 10 10 7 11 8 12
REMARK SMILES IDX 88 13 9 14 6 15 3 16 4 17 99 18 5 19 98 20 2 21 1 22 89 23
REMARK SMILES IDX 90 24 97 25 91 26 96 27 92 28 93 29 94 30 95 31 19 32 20 33
REMARK SMILES IDX 21 34 22 35 23 36 24 38 25 39 26 40 87 41 27 42 86 43 28 44
REMARK SMILES IDX 29 45 30 46 80 47 31 48 85 49 79 50 81 51 32 52 84 53 78 54
REMARK SMILES IDX 77 55 33 57 65 58 45 59 64 60 46 61 49 62 63 63 82 64 47 65
REMARK SMILES IDX 48 66 62 68 83 69 50 70 34 71 35 72 43 73 36 74 38 75 44 76
REMARK SMILES IDX 37 77 39 78 40 79 41 80 42 81 66 82 67 83 75 84 68 85 70 86
REMARK SMILES IDX 76 87 69 88 71 89 72 90 73 91 74 92 51 93 52 94 60 95 53 96
REMARK SMILES IDX 55 97 61 98 54 99 56 100 57 101 58 102 59 103
REMARK H PARENT 15 7 22 37 81 56 49 67
REMARK Flexibility Score: inf
ROOT
ATOM      1  C   UNL A   1      35.472  19.623  24.734  1.00  0.00     0.002 C 
ENDROOT
BRANCH   1   2
ATOM      2  C   UNL A   1      34.217  20.489  24.757  1.00  0.00     0.021 C 
BRANCH   2   3
ATOM      3  C   UNL A   1      33.148  20.056  25.755  1.00  0.00     0.116 C 
BRANCH   3   4
ATOM      4  N   UNL A   1      33.316  20.754  27.015  1.00  0.00    -0.356 N 
ATOM      5  C   UNL A   1      32.682  21.874  27.463  1.00  0.00     0.220 C 
ATOM      6  O   UNL A   1      33.078  22.392  28.511  1.00  0.00    -0.275 OA
ATOM      7  H   UNL A   1      33.978  20.366  27.632  1.00  0.00     0.163 HD
BRANCH   5   8
ATOM      8  C   UNL A   1      31.485  22.432  26.718  1.00  0.00     0.106 C 
BRANCH   8   9
ATOM      9  C   UNL A   1      31.442  23.959  26.693  1.00  0.00     0.064 C 
BRANCH   9  10
ATOM     10  C   UNL A   1      31.110  24.544  25.347  1.00  0.00     0.024 A 
ATOM     11  C   UNL A   1      30.383  26.075  23.848  1.00  0.00     0.053 A 
ATOM     12  C   UNL A   1      30.492  24.849  23.204  1.00  0.00     0.029 A 
ATOM     13  N   UNL A   1      31.034  25.913  25.070  1.00  0.00    -0.314 N 
ATOM     14  C   UNL A   1      30.932  23.893  24.142  1.00  0.00     0.024 A 
BRANCH  11  15
ATOM     15  C   UNL A   1      29.975  27.343  23.238  1.00  0.00    -0.001 A 
ATOM     16  C   UNL A   1      29.242  29.861  22.254  1.00  0.00     0.118 A 
ATOM     17  C   UNL A   1      28.299  29.066  22.900  1.00  0.00     0.047 A 
ATOM     18  C   UNL A   1      30.551  29.410  22.096  1.00  0.00     0.047 A 
ATOM     19  C   UNL A   1      28.665  27.810  23.392  1.00  0.00     0.014 A 
ATOM     20  C   UNL A   1      30.917  28.150  22.584  1.00  0.00     0.014 A 
BRANCH  16  21
ATOM     21  O   UNL A   1      28.864  31.125  21.889  1.00  0.00    -0.497 OA
ATOM     22  C   UNL A   1      28.062  31.757  22.881  1.00  0.00     0.278 C 
ENDBRANCH  16  21
ENDBRANCH  11  15
BRANCH  13  23
ATOM     23  C   UNL A   1      31.822  26.906  25.706  1.00  0.00     0.046 A 
ATOM     24  C   UNL A   1      33.152  27.018  25.280  1.00  0.00     0.027 A 
ATOM     25  C   UNL A   1      31.290  27.825  26.606  1.00  0.00     0.027 A 
ATOM     26  C   UNL A   1      33.961  28.044  25.761  1.00  0.00     0.014 A 
ATOM     27  C   UNL A   1      32.116  28.840  27.106  1.00  0.00     0.014 A 
ATOM     28  C   UNL A   1      33.452  28.962  26.683  1.00  0.00     0.017 A 
BRANCH  28  29
ATOM     29  C   UNL A   1      34.285  30.064  27.251  1.00  0.00     0.159 C 
ATOM     30  C   UNL A   1      33.654  31.365  27.685  1.00  0.00     0.093 C 
ATOM     31  O   UNL A   1      35.504  29.908  27.348  1.00  0.00    -0.295 OA
ENDBRANCH  28  29
ENDBRANCH  13  23
ENDBRANCH   9  10
ENDBRANCH   8   9
ENDBRANCH   5   8
ENDBRANCH   3   4
ENDBRANCH   2   3
ENDBRANCH   1   2
BRANCH   1  32
ATOM     32  C   UNL A   1      36.787  20.408  24.770  1.00  0.00     0.002 C 
BRANCH  32  33
ATOM     33  C   UNL A   1      38.066  19.565  24.928  1.00  0.00     0.021 C 
BRANCH  33  34
ATOM     34  C   UNL A   1      39.108  20.172  25.870  1.00  0.00     0.116 C 
BRANCH  34  35
ATOM     35  N   UNL A   1      40.264  19.299  25.960  1.00  0.00    -0.352 N 
ATOM     36  C   UNL A   1      41.600  19.586  26.051  1.00  0.00     0.251 C 
ATOM     37  H   UNL A   1      40.051  18.338  25.954  1.00  0.00     0.163 HD
ATOM     38  O   UNL A   1      42.396  18.699  25.758  1.00  0.00    -0.269 OA
BRANCH  36  39
ATOM     39  C   UNL A   1      42.103  20.903  26.501  1.00  0.00     0.039 A 
ATOM     40  C   UNL A   1      42.479  21.817  25.504  1.00  0.00     0.014 A 
ATOM     41  C   UNL A   1      42.336  21.205  27.846  1.00  0.00     0.014 A 
ATOM     42  C   UNL A   1      43.055  23.034  25.851  1.00  0.00     0.010 A 
ATOM     43  C   UNL A   1      42.907  22.423  28.198  1.00  0.00     0.010 A 
ATOM     44  C   UNL A   1      43.254  23.339  27.201  1.00  0.00    -0.014 A 
BRANCH  44  45
ATOM     45  C   UNL A   1      43.674  24.708  27.571  1.00  0.00     0.031 A 
ATOM     46  C   UNL A   1      42.430  25.604  27.854  1.00  0.00     0.074 A 
ATOM     47  C   UNL A   1      45.026  24.940  27.573  1.00  0.00     0.049 A 
ATOM     48  N   UNL A   1      42.247  26.881  27.678  1.00  0.00    -0.248 NA
ATOM     49  C   UNL A   1      41.159  24.956  28.295  1.00  0.00     0.031 C 
ATOM     50  C   UNL A   1      46.069  23.916  27.313  1.00  0.00     0.029 A 
ATOM     51  N   UNL A   1      45.813  26.053  27.796  1.00  0.00    -0.354 N 
ATOM     52  C   UNL A   1      40.963  27.205  28.199  1.00  0.00     0.074 A 
ATOM     53  C   UNL A   1      40.294  25.964  28.424  1.00  0.00     0.031 C 
ATOM     54  C   UNL A   1      47.308  24.461  27.312  1.00  0.00     0.029 A 
ATOM     55  C   UNL A   1      47.210  25.882  27.590  1.00  0.00     0.049 A 
ATOM     56  H   UNL A   1      45.430  26.915  28.078  1.00  0.00     0.167 HD
ATOM     57  C   UNL A   1      40.592  28.473  28.558  1.00  0.00     0.034 A 
ATOM     58  C   UNL A   1      48.207  26.827  27.600  1.00  0.00     0.034 A 
ATOM     59  C   UNL A   1      41.688  29.353  28.333  1.00  0.00     0.049 A 
ATOM     60  C   UNL A   1      47.542  28.064  28.025  1.00  0.00     0.074 A 
ATOM     61  C   UNL A   1      42.220  29.920  27.208  1.00  0.00     0.029 A 
ATOM     62  N   UNL A   1      42.583  29.445  29.370  1.00  0.00    -0.354 N 
ATOM     63  N   UNL A   1      47.141  28.308  29.238  1.00  0.00    -0.248 NA
ATOM     64  C   UNL A   1      47.167  29.044  27.000  1.00  0.00     0.031 C 
ATOM     65  C   UNL A   1      43.603  29.923  27.479  1.00  0.00     0.029 A 
ATOM     66  C   UNL A   1      43.828  29.563  28.814  1.00  0.00     0.049 A 
ATOM     67  H   UNL A   1      42.369  29.430  30.332  1.00  0.00     0.167 HD
ATOM     68  C   UNL A   1      46.178  29.261  29.030  1.00  0.00     0.074 A 
ATOM     69  C   UNL A   1      46.485  29.889  27.765  1.00  0.00     0.031 C 
ATOM     70  C   UNL A   1      44.954  29.129  29.601  1.00  0.00     0.034 A 
BRANCH  57  71
ATOM     71  C   UNL A   1      39.438  29.074  29.338  1.00  0.00     0.023 A 
ATOM     72  C   UNL A   1      38.776  30.164  28.696  1.00  0.00     0.012 A 
ATOM     73  C   UNL A   1      39.178  28.888  30.706  1.00  0.00     0.148 A 
ATOM     74  C   UNL A   1      38.024  31.107  29.392  1.00  0.00     0.002 A 
ATOM     75  C   UNL A   1      38.374  29.808  31.392  1.00  0.00     0.091 A 
ATOM     76  F   UNL A   1      39.768  27.881  31.356  1.00  0.00    -0.205 F 
ATOM     77  C   UNL A   1      37.839  30.937  30.750  1.00  0.00     0.022 A 
BRANCH  75  78
ATOM     78  S   UNL A   1      37.971  29.655  33.137  1.00  0.00     0.127 S 
ATOM     79  O   UNL A   1      37.295  28.362  33.182  1.00  0.00    -0.237 OA
ATOM     80  O   UNL A   1      39.299  29.666  33.756  1.00  0.00    -0.237 OA
ATOM     81  O   UNL A   1      37.159  30.821  33.459  1.00  0.00    -0.744 OA
ENDBRANCH  75  78
ENDBRANCH  57  71
BRANCH  58  82
ATOM     82  C   UNL A   1      49.665  26.941  27.191  1.00  0.00     0.023 A 
ATOM     83  C   UNL A   1      50.745  26.506  27.970  1.00  0.00     0.012 A 
ATOM     84  C   UNL A   1      50.009  27.458  25.900  1.00  0.00     0.148 A 
ATOM     85  C   UNL A   1      52.063  26.491  27.454  1.00  0.00     0.002 A 
ATOM     86  C   UNL A   1      51.278  27.322  25.348  1.00  0.00     0.091 A 
ATOM     87  F   UNL A   1      49.107  28.149  25.197  1.00  0.00    -0.205 F 
ATOM     88  C   UNL A   1      52.321  26.846  26.130  1.00  0.00     0.022 A 
BRANCH  86  89
ATOM     89  S   UNL A   1      51.582  27.598  23.587  1.00  0.00     0.127 S 
ATOM     90  O   UNL A   1      52.918  27.034  23.409  1.00  0.00    -0.237 OA
ATOM     91  O   UNL A   1      50.502  26.823  22.978  1.00  0.00    -0.237 OA
ATOM     92  O   UNL A   1      51.479  29.037  23.375  1.00  0.00    -0.744 OA
ENDBRANCH  86  89
ENDBRANCH  58  82
BRANCH  70  93
ATOM     93  C   UNL A   1      44.914  28.280  30.872  1.00  0.00     0.023 A 
ATOM     94  C   UNL A   1      44.538  26.932  30.715  1.00  0.00     0.012 A 
ATOM     95  C   UNL A   1      45.133  28.738  32.197  1.00  0.00     0.148 A 
ATOM     96  C   UNL A   1      44.382  26.078  31.812  1.00  0.00     0.002 A 
ATOM     97  C   UNL A   1      44.968  27.887  33.298  1.00  0.00     0.091 A 
ATOM     98  F   UNL A   1      45.505  30.002  32.383  1.00  0.00    -0.205 F 
ATOM     99  C   UNL A   1      44.596  26.554  33.101  1.00  0.00     0.022 A 
BRANCH  97 100
ATOM    100  S   UNL A   1      45.140  28.415  35.020  1.00  0.00     0.127 S 
ATOM    101  O   UNL A   1      44.740  27.217  35.762  1.00  0.00    -0.237 OA
ATOM    102  O   UNL A   1      46.565  28.723  35.112  1.00  0.00    -0.237 OA
ATOM    103  O   UNL A   1      44.241  29.549  35.201  1.00  0.00    -0.744 OA
ENDBRANCH  97 100
ENDBRANCH  70  93
ENDBRANCH  44  45
ENDBRANCH  36  39
ENDBRANCH  34  35
ENDBRANCH  33  34
ENDBRANCH  32  33
ENDBRANCH   1  32
TORSDOF 22
ENDMDL
MODEL 2
REMARK VINA RESULT:     -11.2      3.095      7.912
REMARK SMILES COc1ccc(-c2ccc(CCC(=O)NCCCCCCNC(=O)c3ccc(-c4c5nc(c(-c6cccc(S(=O)(=O)[O-])c6F)c6ccc([nH]6)c(-c6cccc(S(=O)(=O)[O-])c6F)c6nc(c(-c7cccc(S(=O)(=O)[O-])c7F)c7ccc4[nH]7)C=C6)C=C5)cc3)n2-c2ccc(C(C)=O)cc2)cc1
REMARK SMILES IDX 18 1 17 2 16 3 15 4 13 5 14 6 12 8 11 9 10 10 7 11 8 12
REMARK SMILES IDX 88 13 9 14 6 15 3 16 4 17 99 18 5 19 98 20 2 21 1 22 89 23
REMARK SMILES IDX 90 24 97 25 91 26 96 27 92 28 93 29 94 30 95 31 19 32 20 33
REMARK SMILES IDX 21 34 22 35 23 36 24 38 25 39 26 40 87 41 27 42 86 43 28 44
REMARK SMILES IDX 29 45 30 46 80 47 31 48 85 49 79 50 81 51 32 52 84 53 78 54
REMARK SMILES IDX 77 55 33 57 65 58 45 59 64 60 46 61 49 62 63 63 82 64 47 65
REMARK SMILES IDX 48 66 62 68 83 69 50 70 34 71 35 72 43 73 36 74 38 75 44 76
REMARK SMILES IDX 37 77 39 78 40 79 41 80 42 81 66 82 67 83 75 84 68 85 70 86
REMARK SMILES IDX 76 87 69 88 71 89 72 90 73 91 74 92 51 93 52 94 60 95 53 96
REMARK SMILES IDX 55 97 61 98 54 99 56 100 57 101 58 102 59 103
REMARK H PARENT 15 7 22 37 81 56 49 67
REMARK Flexibility Score: inf
ROOT
ATOM      1  C   UNL A   1      35.980  20.189  24.912  1.00  0.00     0.002 C 
ENDROOT
BRANCH   1   2
ATOM      2  C   UNL A   1      34.759  21.091  24.766  1.00  0.00     0.021 C 
BRANCH   2   3
ATOM      3  C   UNL A   1      33.507  20.610  25.492  1.00  0.00     0.116 C 
BRANCH   3   4
ATOM      4  N   UNL A   1      33.492  21.096  26.858  1.00  0.00    -0.356 N 
ATOM      5  C   UNL A   1      32.736  22.090  27.404  1.00  0.00     0.220 C 
ATOM      6  O   UNL A   1      32.982  22.447  28.558  1.00  0.00    -0.275 OA
ATOM      7  H   UNL A   1      34.113  20.647  27.476  1.00  0.00     0.163 HD
BRANCH   5   8
ATOM      8  C   UNL A   1      31.586  22.699  26.625  1.00  0.00     0.106 C 
BRANCH   8   9
ATOM      9  C   UNL A   1      31.628  24.225  26.573  1.00  0.00     0.064 C 
BRANCH   9  10
ATOM     10  C   UNL A   1      31.120  24.812  25.283  1.00  0.00     0.024 A 
ATOM     11  C   UNL A   1      30.212  26.348  23.894  1.00  0.00     0.053 A 
ATOM     12  C   UNL A   1      30.218  25.120  23.245  1.00  0.00     0.029 A 
ATOM     13  N   UNL A   1      31.022  26.181  25.015  1.00  0.00    -0.314 N 
ATOM     14  C   UNL A   1      30.771  24.160  24.116  1.00  0.00     0.024 A 
BRANCH  11  15
ATOM     15  C   UNL A   1      29.738  27.619  23.341  1.00  0.00    -0.001 A 
ATOM     16  C   UNL A   1      28.791  29.948  22.105  1.00  0.00     0.118 A 
ATOM     17  C   UNL A   1      30.140  29.613  22.016  1.00  0.00     0.047 A 
ATOM     18  C   UNL A   1      27.908  29.128  22.804  1.00  0.00     0.047 A 
ATOM     19  C   UNL A   1      30.612  28.450  22.632  1.00  0.00     0.014 A 
ATOM     20  C   UNL A   1      28.381  27.966  23.426  1.00  0.00     0.014 A 
BRANCH  16  21
ATOM     21  O   UNL A   1      28.359  31.034  21.393  1.00  0.00    -0.497 OA
ATOM     22  C   UNL A   1      28.287  32.210  22.192  1.00  0.00     0.278 C 
ENDBRANCH  16  21
ENDBRANCH  11  15
BRANCH  13  23
ATOM     23  C   UNL A   1      31.901  27.166  25.534  1.00  0.00     0.046 A 
ATOM     24  C   UNL A   1      31.359  28.062  26.465  1.00  0.00     0.027 A 
ATOM     25  C   UNL A   1      33.265  27.175  25.258  1.00  0.00     0.027 A 
ATOM     26  C   UNL A   1      32.177  28.980  27.116  1.00  0.00     0.014 A 
ATOM     27  C   UNL A   1      34.079  28.118  25.898  1.00  0.00     0.014 A 
ATOM     28  C   UNL A   1      33.545  29.021  26.835  1.00  0.00     0.017 A 
BRANCH  28  29
ATOM     29  C   UNL A   1      34.461  30.005  27.485  1.00  0.00     0.159 C 
ATOM     30  C   UNL A   1      35.952  29.769  27.517  1.00  0.00     0.093 C 
ATOM     31  O   UNL A   1      33.986  31.012  28.015  1.00  0.00    -0.295 OA
ENDBRANCH  28  29
ENDBRANCH  13  23
ENDBRANCH   9  10
ENDBRANCH   8   9
ENDBRANCH   5   8
ENDBRANCH   3   4
ENDBRANCH   2   3
ENDBRANCH   1   2
BRANCH   1  32
ATOM     32  C   UNL A   1      37.320  20.932  24.934  1.00  0.00     0.002 C 
BRANCH  32  33
ATOM     33  C   UNL A   1      38.531  20.114  25.418  1.00  0.00     0.021 C 
BRANCH  33  34
ATOM     34  C   UNL A   1      39.583  20.931  26.172  1.00  0.00     0.116 C 
BRANCH  34  35
ATOM     35  N   UNL A   1      40.899  20.352  25.971  1.00  0.00    -0.352 N 
ATOM     36  C   UNL A   1      42.148  20.901  26.088  1.00  0.00     0.251 C 
ATOM     37  H   UNL A   1      40.892  19.404  25.706  1.00  0.00     0.163 HD
ATOM     38  O   UNL A   1      43.078  20.328  25.530  1.00  0.00    -0.269 OA
BRANCH  36  39
ATOM     39  C   UNL A   1      42.407  22.132  26.867  1.00  0.00     0.039 A 
ATOM     40  C   UNL A   1      42.812  23.269  26.149  1.00  0.00     0.014 A 
ATOM     41  C   UNL A   1      42.394  22.161  28.265  1.00  0.00     0.014 A 
ATOM     42  C   UNL A   1      43.170  24.431  26.822  1.00  0.00     0.010 A 
ATOM     43  C   UNL A   1      42.747  23.323  28.942  1.00  0.00     0.010 A 
ATOM     44  C   UNL A   1      43.123  24.458  28.219  1.00  0.00    -0.014 A 
BRANCH  44  45
ATOM     45  C   UNL A   1      43.306  25.750  28.917  1.00  0.00     0.031 A 
ATOM     46  C   UNL A   1      44.778  25.902  29.408  1.00  0.00     0.074 A 
ATOM     47  C   UNL A   1      42.187  26.537  29.024  1.00  0.00     0.049 A 
ATOM     48  N   UNL A   1      45.265  26.514  30.449  1.00  0.00    -0.248 NA
ATOM     49  C   UNL A   1      45.858  25.162  28.691  1.00  0.00     0.031 C 
ATOM     50  C   UNL A   1      40.861  26.222  28.434  1.00  0.00     0.029 A 
ATOM     51  N   UNL A   1      41.916  27.749  29.628  1.00  0.00    -0.354 N 
ATOM     52  C   UNL A   1      46.684  26.432  30.367  1.00  0.00     0.074 A 
ATOM     53  C   UNL A   1      46.975  25.470  29.354  1.00  0.00     0.031 C 
ATOM     54  C   UNL A   1      39.938  27.152  28.772  1.00  0.00     0.029 A 
ATOM     55  C   UNL A   1      40.559  28.175  29.592  1.00  0.00     0.049 A 
ATOM     56  H   UNL A   1      42.619  28.286  30.060  1.00  0.00     0.167 HD
ATOM     57  C   UNL A   1      47.528  27.278  31.034  1.00  0.00     0.034 A 
ATOM     58  C   UNL A   1      39.974  29.249  30.217  1.00  0.00     0.034 A 
ATOM     59  C   UNL A   1      46.751  28.214  31.773  1.00  0.00     0.049 A 
ATOM     60  C   UNL A   1      41.092  29.978  30.827  1.00  0.00     0.074 A 
ATOM     61  C   UNL A   1      46.048  28.133  32.943  1.00  0.00     0.029 A 
ATOM     62  N   UNL A   1      46.368  29.333  31.074  1.00  0.00    -0.354 N 
ATOM     63  N   UNL A   1      41.960  30.687  30.167  1.00  0.00    -0.248 NA
ATOM     64  C   UNL A   1      41.350  29.791  32.259  1.00  0.00     0.031 C 
ATOM     65  C   UNL A   1      44.929  28.955  32.698  1.00  0.00     0.029 A 
ATOM     66  C   UNL A   1      45.106  29.654  31.496  1.00  0.00     0.049 A 
ATOM     67  H   UNL A   1      46.900  29.812  30.398  1.00  0.00     0.167 HD
ATOM     68  C   UNL A   1      43.024  30.706  31.032  1.00  0.00     0.074 A 
ATOM     69  C   UNL A   1      42.486  30.471  32.353  1.00  0.00     0.031 C 
ATOM     70  C   UNL A   1      44.268  30.395  30.588  1.00  0.00     0.034 A 
BRANCH  57  71
ATOM     71  C   UNL A   1      49.011  27.591  30.963  1.00  0.00     0.023 A 
ATOM     72  C   UNL A   1      49.448  28.171  29.734  1.00  0.00     0.012 A 
ATOM     73  C   UNL A   1      50.004  27.089  31.819  1.00  0.00     0.148 A 
ATOM     74  C   UNL A   1      50.773  28.121  29.304  1.00  0.00     0.002 A 
ATOM     75  C   UNL A   1      51.344  27.091  31.407  1.00  0.00     0.091 A 
ATOM     76  F   UNL A   1      49.651  26.538  32.984  1.00  0.00    -0.205 F 
ATOM     77  C   UNL A   1      51.720  27.561  30.138  1.00  0.00     0.022 A 
BRANCH  75  78
ATOM     78  S   UNL A   1      52.691  26.484  32.431  1.00  0.00     0.127 S 
ATOM     79  O   UNL A   1      52.394  25.057  32.511  1.00  0.00    -0.237 OA
ATOM     80  O   UNL A   1      53.862  26.814  31.615  1.00  0.00    -0.237 OA
ATOM     81  O   UNL A   1      52.608  27.233  33.678  1.00  0.00    -0.744 OA
ENDBRANCH  75  78
ENDBRANCH  57  71
BRANCH  58  82
ATOM     82  C   UNL A   1      38.578  29.759  30.524  1.00  0.00     0.023 A 
ATOM     83  C   UNL A   1      37.667  29.122  31.377  1.00  0.00     0.012 A 
ATOM     84  C   UNL A   1      38.137  31.012  29.984  1.00  0.00     0.148 A 
ATOM     85  C   UNL A   1      36.450  29.741  31.747  1.00  0.00     0.002 A 
ATOM     86  C   UNL A   1      37.007  31.676  30.447  1.00  0.00     0.091 A 
ATOM     87  F   UNL A   1      38.792  31.562  28.958  1.00  0.00    -0.205 F 
ATOM     88  C   UNL A   1      36.145  31.036  31.327  1.00  0.00     0.022 A 
BRANCH  86  89
ATOM     89  S   UNL A   1      36.703  33.416  30.062  1.00  0.00     0.127 S 
ATOM     90  O   UNL A   1      37.974  34.042  30.419  1.00  0.00    -0.237 OA
ATOM     91  O   UNL A   1      36.430  33.356  28.626  1.00  0.00    -0.237 OA
ATOM     92  O   UNL A   1      35.559  33.821  30.870  1.00  0.00    -0.744 OA
ENDBRANCH  86  89
ENDBRANCH  58  82
BRANCH  70  93
ATOM     93  C   UNL A   1      44.505  30.620  29.094  1.00  0.00     0.023 A 
ATOM     94  C   UNL A   1      44.859  29.487  28.338  1.00  0.00     0.012 A 
ATOM     95  C   UNL A   1      44.487  31.867  28.419  1.00  0.00     0.148 A 
ATOM     96  C   UNL A   1      45.184  29.580  26.981  1.00  0.00     0.002 A 
ATOM     97  C   UNL A   1      44.822  31.965  27.062  1.00  0.00     0.091 A 
ATOM     98  F   UNL A   1      44.142  32.958  29.099  1.00  0.00    -0.205 F 
ATOM     99  C   UNL A   1      45.167  30.816  26.343  1.00  0.00     0.022 A 
BRANCH  97 100
ATOM    100  S   UNL A   1      44.911  33.525  26.150  1.00  0.00     0.127 S 
ATOM    101  O   UNL A   1      46.261  34.000  26.464  1.00  0.00    -0.237 OA
ATOM    102  O   UNL A   1      44.741  33.089  24.767  1.00  0.00    -0.237 OA
ATOM    103  O   UNL A   1      43.849  34.376  26.674  1.00  0.00    -0.744 OA
ENDBRANCH  97 100
ENDBRANCH  70  93
ENDBRANCH  44  45
ENDBRANCH  36  39
ENDBRANCH  34  35
ENDBRANCH  33  34
ENDBRANCH  32  33
ENDBRANCH   1  32
TORSDOF 22
ENDMDL
MODEL 3
REMARK VINA RESULT:     -11.0      3.769      8.290
REMARK SMILES COc1ccc(-c2ccc(CCC(=O)NCCCCCCNC(=O)c3ccc(-c4c5nc(c(-c6cccc(S(=O)(=O)[O-])c6F)c6ccc([nH]6)c(-c6cccc(S(=O)(=O)[O-])c6F)c6nc(c(-c7cccc(S(=O)(=O)[O-])c7F)c7ccc4[nH]7)C=C6)C=C5)cc3)n2-c2ccc(C(C)=O)cc2)cc1
REMARK SMILES IDX 18 1 17 2 16 3 15 4 13 5 14 6 12 8 11 9 10 10 7 11 8 12
REMARK SMILES IDX 88 13 9 14 6 15 3 16 4 17 99 18 5 19 98 20 2 21 1 22 89 23
REMARK SMILES IDX 90 24 97 25 91 26 96 27 92 28 93 29 94 30 95 31 19 32 20 33
REMARK SMILES IDX 21 34 22 35 23 36 24 38 25 39 26 40 87 41 27 42 86 43 28 44
REMARK SMILES IDX 29 45 30 46 80 47 31 48 85 49 79 50 81 51 32 52 84 53 78 54
REMARK SMILES IDX 77 55 33 57 65 58 45 59 64 60 46 61 49 62 63 63 82 64 47 65
REMARK SMILES IDX 48 66 62 68 83 69 50 70 34 71 35 72 43 73 36 74 38 75 44 76
REMARK SMILES IDX 37 77 39 78 40 79 41 80 42 81 66 82 67 83 75 84 68 85 70 86
REMARK SMILES IDX 76 87 69 88 71 89 72 90 73 91 74 92 51 93 52 94 60 95 53 96
REMARK SMILES IDX 55 97 61 98 54 99 56 100 57 101 58 102 59 103
REMARK H PARENT 15 7 22 37 81 56 49 67
REMARK Flexibility Score: inf
ROOT
ATOM      1  C   UNL A   1      31.491  28.410  27.597  1.00  0.00     0.002 C 
ENDROOT
BRANCH   1   2
ATOM      2  C   UNL A   1      31.247  27.506  26.393  1.00  0.00     0.021 C 
BRANCH   2   3
ATOM      3  C   UNL A   1      32.210  26.330  26.260  1.00  0.00     0.116 C 
BRANCH   3   4
ATOM      4  N   UNL A   1      31.651  25.142  26.874  1.00  0.00    -0.356 N 
ATOM      5  C   UNL A   1      30.692  24.301  26.393  1.00  0.00     0.220 C 
ATOM      6  O   UNL A   1      30.253  23.425  27.142  1.00  0.00    -0.275 OA
ATOM      7  H   UNL A   1      32.013  24.910  27.760  1.00  0.00     0.163 HD
BRANCH   5   8
ATOM      8  C   UNL A   1      30.223  24.410  24.955  1.00  0.00     0.106 C 
BRANCH   8   9
ATOM      9  C   UNL A   1      30.894  23.405  24.020  1.00  0.00     0.064 C 
BRANCH   9  10
ATOM     10  C   UNL A   1      32.359  23.662  23.788  1.00  0.00     0.024 A 
ATOM     11  C   UNL A   1      34.588  23.554  24.153  1.00  0.00     0.053 A 
ATOM     12  C   UNL A   1      34.344  24.564  23.232  1.00  0.00     0.029 A 
ATOM     13  N   UNL A   1      33.393  22.844  24.254  1.00  0.00    -0.314 N 
ATOM     14  C   UNL A   1      32.953  24.640  23.016  1.00  0.00     0.024 A 
BRANCH  11  15
ATOM     15  C   UNL A   1      35.900  23.129  24.647  1.00  0.00    -0.001 A 
ATOM     16  C   UNL A   1      38.309  22.216  25.748  1.00  0.00     0.118 A 
ATOM     17  C   UNL A   1      37.772  23.432  26.164  1.00  0.00     0.047 A 
ATOM     18  C   UNL A   1      37.652  21.449  24.788  1.00  0.00     0.047 A 
ATOM     19  C   UNL A   1      36.569  23.886  25.615  1.00  0.00     0.014 A 
ATOM     20  C   UNL A   1      36.450  21.907  24.234  1.00  0.00     0.014 A 
BRANCH  16  21
ATOM     21  O   UNL A   1      39.427  21.763  26.394  1.00  0.00    -0.497 OA
ATOM     22  C   UNL A   1      40.199  22.822  26.947  1.00  0.00     0.278 C 
ENDBRANCH  16  21
ENDBRANCH  11  15
BRANCH  13  23
ATOM     23  C   UNL A   1      33.297  21.437  24.409  1.00  0.00     0.046 A 
ATOM     24  C   UNL A   1      33.448  20.939  25.710  1.00  0.00     0.027 A 
ATOM     25  C   UNL A   1      32.931  20.590  23.367  1.00  0.00     0.027 A 
ATOM     26  C   UNL A   1      33.247  19.587  25.973  1.00  0.00     0.014 A 
ATOM     27  C   UNL A   1      32.755  19.226  23.634  1.00  0.00     0.014 A 
ATOM     28  C   UNL A   1      32.903  18.717  24.936  1.00  0.00     0.017 A 
BRANCH  28  29
ATOM     29  C   UNL A   1      32.703  17.253  25.160  1.00  0.00     0.159 C 
ATOM     30  C   UNL A   1      33.825  16.273  24.913  1.00  0.00     0.093 C 
ATOM     31  O   UNL A   1      31.602  16.847  25.535  1.00  0.00    -0.295 OA
ENDBRANCH  28  29
ENDBRANCH  13  23
ENDBRANCH   9  10
ENDBRANCH   8   9
ENDBRANCH   5   8
ENDBRANCH   3   4
ENDBRANCH   2   3
ENDBRANCH   1   2
BRANCH   1  32
ATOM     32  C   UNL A   1      31.832  29.861  27.243  1.00  0.00     0.002 C 
BRANCH  32  33
ATOM     33  C   UNL A   1      33.107  30.064  26.405  1.00  0.00     0.021 C 
BRANCH  33  34
ATOM     34  C   UNL A   1      34.329  30.509  27.214  1.00  0.00     0.116 C 
BRANCH  34  35
ATOM     35  N   UNL A   1      34.033  31.740  27.923  1.00  0.00    -0.352 N 
ATOM     36  C   UNL A   1      34.622  32.305  29.023  1.00  0.00     0.251 C 
ATOM     37  H   UNL A   1      33.282  32.256  27.551  1.00  0.00     0.163 HD
ATOM     38  O   UNL A   1      33.983  33.149  29.642  1.00  0.00    -0.269 OA
BRANCH  36  39
ATOM     39  C   UNL A   1      35.988  31.948  29.467  1.00  0.00     0.039 A 
ATOM     40  C   UNL A   1      37.044  32.734  28.977  1.00  0.00     0.014 A 
ATOM     41  C   UNL A   1      36.264  30.808  30.226  1.00  0.00     0.014 A 
ATOM     42  C   UNL A   1      38.361  32.398  29.269  1.00  0.00     0.010 A 
ATOM     43  C   UNL A   1      37.579  30.470  30.524  1.00  0.00     0.010 A 
ATOM     44  C   UNL A   1      38.623  31.272  30.056  1.00  0.00    -0.014 A 
BRANCH  44  45
ATOM     45  C   UNL A   1      40.004  31.037  30.531  1.00  0.00     0.031 A 
ATOM     46  C   UNL A   1      40.328  31.955  31.749  1.00  0.00     0.074 A 
ATOM     47  C   UNL A   1      40.731  30.110  29.827  1.00  0.00     0.049 A 
ATOM     48  N   UNL A   1      41.450  32.492  32.132  1.00  0.00    -0.248 NA
ATOM     49  C   UNL A   1      39.204  32.440  32.605  1.00  0.00     0.031 C 
ATOM     50  C   UNL A   1      40.211  29.293  28.701  1.00  0.00     0.029 A 
ATOM     51  N   UNL A   1      42.030  29.648  29.898  1.00  0.00    -0.354 N 
ATOM     52  C   UNL A   1      41.207  33.154  33.369  1.00  0.00     0.074 A 
ATOM     53  C   UNL A   1      39.790  33.210  33.525  1.00  0.00     0.031 C 
ATOM     54  C   UNL A   1      41.183  28.522  28.161  1.00  0.00     0.029 A 
ATOM     55  C   UNL A   1      42.424  28.732  28.883  1.00  0.00     0.049 A 
ATOM     56  H   UNL A   1      42.649  29.936  30.607  1.00  0.00     0.167 HD
ATOM     57  C   UNL A   1      42.196  33.476  34.259  1.00  0.00     0.034 A 
ATOM     58  C   UNL A   1      43.670  28.220  28.619  1.00  0.00     0.034 A 
ATOM     59  C   UNL A   1      43.444  33.029  33.740  1.00  0.00     0.049 A 
ATOM     60  C   UNL A   1      44.512  28.703  29.719  1.00  0.00     0.074 A 
ATOM     61  C   UNL A   1      44.282  33.507  32.770  1.00  0.00     0.029 A 
ATOM     62  N   UNL A   1      43.764  31.726  34.033  1.00  0.00    -0.354 N 
ATOM     63  N   UNL A   1      44.461  28.257  30.939  1.00  0.00    -0.248 NA
ATOM     64  C   UNL A   1      45.376  29.865  29.479  1.00  0.00     0.031 C 
ATOM     65  C   UNL A   1      44.782  32.330  32.177  1.00  0.00     0.029 A 
ATOM     66  C   UNL A   1      44.401  31.215  32.935  1.00  0.00     0.049 A 
ATOM     67  H   UNL A   1      43.571  31.250  34.873  1.00  0.00     0.167 HD
ATOM     68  C   UNL A   1      44.993  29.306  31.644  1.00  0.00     0.074 A 
ATOM     69  C   UNL A   1      45.815  30.052  30.718  1.00  0.00     0.031 C 
ATOM     70  C   UNL A   1      44.349  29.789  32.737  1.00  0.00     0.034 A 
BRANCH  57  71
ATOM     71  C   UNL A   1      42.231  33.938  35.703  1.00  0.00     0.023 A 
ATOM     72  C   UNL A   1      42.951  35.150  35.933  1.00  0.00     0.012 A 
ATOM     73  C   UNL A   1      41.921  33.158  36.829  1.00  0.00     0.148 A 
ATOM     74  C   UNL A   1      43.469  35.495  37.180  1.00  0.00     0.002 A 
ATOM     75  C   UNL A   1      42.396  33.539  38.091  1.00  0.00     0.091 A 
ATOM     76  F   UNL A   1      41.246  32.015  36.672  1.00  0.00    -0.205 F 
ATOM     77  C   UNL A   1      43.205  34.676  38.259  1.00  0.00     0.022 A 
BRANCH  75  78
ATOM     78  S   UNL A   1      42.046  32.619  39.596  1.00  0.00     0.127 S 
ATOM     79  O   UNL A   1      42.789  31.381  39.376  1.00  0.00    -0.237 OA
ATOM     80  O   UNL A   1      42.616  33.493  40.624  1.00  0.00    -0.237 OA
ATOM     81  O   UNL A   1      40.595  32.500  39.658  1.00  0.00    -0.744 OA
ENDBRANCH  75  78
ENDBRANCH  57  71
BRANCH  58  82
ATOM     82  C   UNL A   1      44.370  27.458  27.507  1.00  0.00     0.023 A 
ATOM     83  C   UNL A   1      45.196  28.043  26.539  1.00  0.00     0.012 A 
ATOM     84  C   UNL A   1      44.267  26.030  27.442  1.00  0.00     0.148 A 
ATOM     85  C   UNL A   1      45.947  27.252  25.638  1.00  0.00     0.002 A 
ATOM     86  C   UNL A   1      45.101  25.250  26.648  1.00  0.00     0.091 A 
ATOM     87  F   UNL A   1      43.306  25.400  28.123  1.00  0.00    -0.205 F 
ATOM     88  C   UNL A   1      45.943  25.860  25.728  1.00  0.00     0.022 A 
BRANCH  86  89
ATOM     89  S   UNL A   1      45.242  23.463  26.888  1.00  0.00     0.127 S 
ATOM     90  O   UNL A   1      44.026  22.966  26.248  1.00  0.00    -0.237 OA
ATOM     91  O   UNL A   1      46.480  23.167  26.168  1.00  0.00    -0.237 OA
ATOM     92  O   UNL A   1      45.322  23.249  28.328  1.00  0.00    -0.744 OA
ENDBRANCH  86  89
ENDBRANCH  58  82
BRANCH  70  93
ATOM     93  C   UNL A   1      43.424  28.796  33.442  1.00  0.00     0.023 A 
ATOM     94  C   UNL A   1      42.075  28.802  33.042  1.00  0.00     0.012 A 
ATOM     95  C   UNL A   1      43.775  27.937  34.515  1.00  0.00     0.148 A 
ATOM     96  C   UNL A   1      41.116  28.002  33.671  1.00  0.00     0.002 A 
ATOM     97  C   UNL A   1      42.814  27.141  35.154  1.00  0.00     0.091 A 
ATOM     98  F   UNL A   1      45.044  27.893  34.911  1.00  0.00    -0.205 F 
ATOM     99  C   UNL A   1      41.483  27.173  34.726  1.00  0.00     0.022 A 
BRANCH  97 100
ATOM    100  S   UNL A   1      43.160  26.089  36.584  1.00  0.00     0.127 S 
ATOM    101  O   UNL A   1      44.242  25.231  36.094  1.00  0.00    -0.237 OA
ATOM    102  O   UNL A   1      43.582  27.058  37.592  1.00  0.00    -0.237 OA
ATOM    103  O   UNL A   1      41.927  25.370  36.882  1.00  0.00    -0.744 OA
ENDBRANCH  97 100
ENDBRANCH  70  93
ENDBRANCH  44  45
ENDBRANCH  36  39
ENDBRANCH  34  35
ENDBRANCH  33  34
ENDBRANCH  32  33
ENDBRANCH   1  32
TORSDOF 22
ENDMDL
