MODEL 1
REMARK VINA RESULT:     -11.7      0.000      0.000
REMARK SMILES CC(C)[C@@H](CNC(=O)[C@@H]1CC[C@@H]2CCCC[C@@H]2[NH2+]1)C(=O)NCCCCCCNC(=O)c1ccc(-c2c3nc(c(-c4cccc(S(=O)(=O)[O-])c4F)c4ccc([nH]4)c(-c4cccc(S(=O)(=O)[O-])c4F)c4nc(c(-c5cccc(S(=O)(=O)[O-])c5F)c5ccc2[nH]5)C=C4)C=C3)cc1
REMARK SMILES IDX 24 1 23 2 22 3 21 4 19 5 20 6 4 8 2 9 1 10 3 11 5 12 6 13
REMARK SMILES IDX 7 14 8 16 9 17 10 18 18 19 11 20 17 21 12 24 16 25 13 26
REMARK SMILES IDX 15 27 14 28 25 29 26 30 27 31 28 32 29 33 30 35 31 36 32 37
REMARK SMILES IDX 93 38 33 39 92 40 34 41 35 42 36 43 86 44 37 45 91 46 85 47
REMARK SMILES IDX 87 48 38 49 90 50 84 51 83 52 39 54 71 55 51 56 70 57 52 58
REMARK SMILES IDX 55 59 69 60 88 61 53 62 54 63 68 65 89 66 56 67 40 68 41 69
REMARK SMILES IDX 49 70 42 71 44 72 50 73 43 74 45 75 46 76 47 77 48 78 72 79
REMARK SMILES IDX 73 80 81 81 74 82 76 83 82 84 75 85 77 86 78 87 79 88 80 89
REMARK SMILES IDX 57 90 58 91 66 92 59 93 61 94 67 95 60 96 62 97 63 98 64 99
REMARK SMILES IDX 65 100
REMARK H PARENT 21 7 6 15 18 22 18 23 28 34 87 53 55 64
REMARK Flexibility Score: inf
ROOT
ATOM      1  C   UNL A   1      33.936  20.351  25.826  1.00  0.00     0.002 C 
ENDROOT
BRANCH   1   2
ATOM      2  C   UNL A   1      33.634  19.428  24.640  1.00  0.00     0.021 C 
BRANCH   2   3
ATOM      3  C   UNL A   1      32.189  19.501  24.158  1.00  0.00     0.116 C 
BRANCH   3   4
ATOM      4  N   UNL A   1      32.091  20.033  22.809  1.00  0.00    -0.356 N 
ATOM      5  C   UNL A   1      32.266  21.287  22.317  1.00  0.00     0.225 C 
ATOM      6  O   UNL A   1      32.153  21.442  21.095  1.00  0.00    -0.275 OA
ATOM      7  H   UNL A   1      31.855  19.362  22.128  1.00  0.00     0.163 HD
BRANCH   5   8
ATOM      8  C   UNL A   1      32.533  22.494  23.207  1.00  0.00     0.100 C 
BRANCH   8   9
ATOM      9  C   UNL A   1      33.491  23.510  22.516  1.00  0.00    -0.003 C 
ATOM     10  C   UNL A   1      32.759  24.577  21.701  1.00  0.00     0.008 C 
ATOM     11  C   UNL A   1      34.370  24.217  23.569  1.00  0.00     0.008 C 
ENDBRANCH   8   9
BRANCH   8  12
ATOM     12  C   UNL A   1      31.276  23.005  23.960  1.00  0.00     0.129 C 
BRANCH  12  13
ATOM     13  N   UNL A   1      31.393  23.272  25.382  1.00  0.00    -0.350 N 
ATOM     14  C   UNL A   1      31.006  24.265  26.223  1.00  0.00     0.278 C 
ATOM     15  H   UNL A   1      31.875  22.554  25.853  1.00  0.00     0.163 HD
ATOM     16  O   UNL A   1      31.393  24.109  27.394  1.00  0.00    -0.268 OA
BRANCH  14  17
ATOM     17  C   UNL A   1      30.077  25.484  25.909  1.00  0.00     0.272 C 
ATOM     18  C   UNL A   1      29.676  25.888  24.498  1.00  0.00     0.076 C 
ATOM     19  N   UNL A   1      30.572  26.695  26.642  1.00  0.00    -0.333 N 
ATOM     20  C   UNL A   1      30.810  26.569  23.755  1.00  0.00     0.016 C 
ATOM     21  C   UNL A   1      31.608  27.496  25.961  1.00  0.00     0.186 C 
ATOM     22  H   UNL A   1      30.957  26.382  27.533  1.00  0.00     0.347 HD
ATOM     23  H   UNL A   1      29.763  27.311  26.724  1.00  0.00     0.347 HD
ATOM     24  C   UNL A   1      31.232  27.833  24.505  1.00  0.00     0.048 C 
ATOM     25  C   UNL A   1      33.007  26.881  26.086  1.00  0.00     0.065 C 
ATOM     26  C   UNL A   1      32.361  28.572  23.768  1.00  0.00     0.010 C 
ATOM     27  C   UNL A   1      34.084  27.658  25.330  1.00  0.00     0.006 C 
ATOM     28  C   UNL A   1      33.707  27.871  23.873  1.00  0.00     0.001 C 
ENDBRANCH  14  17
ENDBRANCH  12  13
ENDBRANCH   8  12
ENDBRANCH   5   8
ENDBRANCH   3   4
ENDBRANCH   2   3
ENDBRANCH   1   2
BRANCH   1  29
ATOM     29  C   UNL A   1      35.111  21.308  25.614  1.00  0.00     0.002 C 
BRANCH  29  30
ATOM     30  C   UNL A   1      36.327  20.730  24.905  1.00  0.00     0.021 C 
BRANCH  30  31
ATOM     31  C   UNL A   1      37.641  21.327  25.366  1.00  0.00     0.116 C 
BRANCH  31  32
ATOM     32  N   UNL A   1      38.650  20.309  25.656  1.00  0.00    -0.352 N 
ATOM     33  C   UNL A   1      39.877  20.464  26.249  1.00  0.00     0.251 C 
ATOM     34  H   UNL A   1      38.417  19.390  25.391  1.00  0.00     0.163 HD
ATOM     35  O   UNL A   1      40.681  19.539  26.293  1.00  0.00    -0.269 OA
BRANCH  33  36
ATOM     36  C   UNL A   1      40.218  21.787  26.807  1.00  0.00     0.039 A 
ATOM     37  C   UNL A   1      41.110  21.870  27.877  1.00  0.00     0.014 A 
ATOM     38  C   UNL A   1      39.741  22.940  26.178  1.00  0.00     0.014 A 
ATOM     39  C   UNL A   1      41.599  23.119  28.257  1.00  0.00     0.010 A 
ATOM     40  C   UNL A   1      40.311  24.165  26.489  1.00  0.00     0.010 A 
ATOM     41  C   UNL A   1      41.245  24.268  27.532  1.00  0.00    -0.014 A 
BRANCH  41  42
ATOM     42  C   UNL A   1      41.851  25.591  27.817  1.00  0.00     0.031 A 
ATOM     43  C   UNL A   1      41.041  26.649  28.516  1.00  0.00     0.074 A 
ATOM     44  C   UNL A   1      43.078  25.881  27.337  1.00  0.00     0.049 A 
ATOM     45  N   UNL A   1      41.350  27.894  28.763  1.00  0.00    -0.248 NA
ATOM     46  C   UNL A   1      39.688  26.269  28.959  1.00  0.00     0.031 C 
ATOM     47  C   UNL A   1      43.917  24.972  26.552  1.00  0.00     0.029 A 
ATOM     48  N   UNL A   1      43.818  27.033  27.410  1.00  0.00    -0.354 N 
ATOM     49  C   UNL A   1      40.219  28.456  29.342  1.00  0.00     0.074 A 
ATOM     50  C   UNL A   1      39.202  27.430  29.373  1.00  0.00     0.031 C 
ATOM     51  C   UNL A   1      45.059  25.598  26.224  1.00  0.00     0.029 A 
ATOM     52  C   UNL A   1      45.022  26.960  26.746  1.00  0.00     0.049 A 
ATOM     53  H   UNL A   1      43.517  27.838  27.892  1.00  0.00     0.167 HD
ATOM     54  C   UNL A   1      40.055  29.703  29.841  1.00  0.00     0.034 A 
ATOM     55  C   UNL A   1      45.981  27.889  26.570  1.00  0.00     0.034 A 
ATOM     56  C   UNL A   1      41.093  30.695  29.871  1.00  0.00     0.049 A 
ATOM     57  C   UNL A   1      45.796  29.250  27.184  1.00  0.00     0.074 A 
ATOM     58  C   UNL A   1      41.073  31.942  30.468  1.00  0.00     0.029 A 
ATOM     59  N   UNL A   1      42.335  30.554  29.273  1.00  0.00    -0.354 N 
ATOM     60  N   UNL A   1      44.792  29.703  27.895  1.00  0.00    -0.248 NA
ATOM     61  C   UNL A   1      46.887  30.217  26.999  1.00  0.00     0.031 C 
ATOM     62  C   UNL A   1      42.300  32.564  30.213  1.00  0.00     0.029 A 
ATOM     63  C   UNL A   1      43.087  31.698  29.469  1.00  0.00     0.049 A 
ATOM     64  H   UNL A   1      42.639  29.756  28.781  1.00  0.00     0.167 HD
ATOM     65  C   UNL A   1      45.135  31.000  28.257  1.00  0.00     0.074 A 
ATOM     66  C   UNL A   1      46.456  31.249  27.713  1.00  0.00     0.031 C 
ATOM     67  C   UNL A   1      44.415  31.912  28.955  1.00  0.00     0.034 A 
BRANCH  54  68
ATOM     68  C   UNL A   1      38.722  30.038  30.458  1.00  0.00     0.023 A 
ATOM     69  C   UNL A   1      38.443  29.619  31.775  1.00  0.00     0.012 A 
ATOM     70  C   UNL A   1      37.768  30.801  29.759  1.00  0.00     0.148 A 
ATOM     71  C   UNL A   1      37.222  29.921  32.374  1.00  0.00     0.002 A 
ATOM     72  C   UNL A   1      36.570  31.138  30.379  1.00  0.00     0.091 A 
ATOM     73  F   UNL A   1      38.040  31.169  28.498  1.00  0.00    -0.205 F 
ATOM     74  C   UNL A   1      36.291  30.688  31.680  1.00  0.00     0.022 A 
BRANCH  72  75
ATOM     75  S   UNL A   1      35.336  32.184  29.599  1.00  0.00     0.127 S 
ATOM     76  O   UNL A   1      34.454  32.490  30.725  1.00  0.00    -0.237 OA
ATOM     77  O   UNL A   1      36.141  33.313  29.132  1.00  0.00    -0.237 OA
ATOM     78  O   UNL A   1      34.742  31.382  28.538  1.00  0.00    -0.744 OA
ENDBRANCH  72  75
ENDBRANCH  54  68
BRANCH  55  79
ATOM     79  C   UNL A   1      47.229  27.541  25.834  1.00  0.00     0.023 A 
ATOM     80  C   UNL A   1      48.269  26.879  26.516  1.00  0.00     0.012 A 
ATOM     81  C   UNL A   1      47.380  27.824  24.462  1.00  0.00     0.148 A 
ATOM     82  C   UNL A   1      49.446  26.529  25.853  1.00  0.00     0.002 A 
ATOM     83  C   UNL A   1      48.533  27.427  23.795  1.00  0.00     0.091 A 
ATOM     84  F   UNL A   1      46.385  28.467  23.833  1.00  0.00    -0.205 F 
ATOM     85  C   UNL A   1      49.574  26.793  24.492  1.00  0.00     0.022 A 
BRANCH  83  86
ATOM     86  S   UNL A   1      48.732  27.613  22.019  1.00  0.00     0.127 S 
ATOM     87  O   UNL A   1      49.830  28.574  21.941  1.00  0.00    -0.237 OA
ATOM     88  O   UNL A   1      49.075  26.251  21.608  1.00  0.00    -0.237 OA
ATOM     89  O   UNL A   1      47.443  28.082  21.529  1.00  0.00    -0.744 OA
ENDBRANCH  83  86
ENDBRANCH  55  79
BRANCH  67  90
ATOM     90  C   UNL A   1      45.033  33.266  29.177  1.00  0.00     0.023 A 
ATOM     91  C   UNL A   1      45.858  33.474  30.300  1.00  0.00     0.012 A 
ATOM     92  C   UNL A   1      44.873  34.299  28.232  1.00  0.00     0.148 A 
ATOM     93  C   UNL A   1      46.495  34.698  30.493  1.00  0.00     0.002 A 
ATOM     94  C   UNL A   1      45.550  35.500  28.406  1.00  0.00     0.091 A 
ATOM     95  F   UNL A   1      44.073  34.083  27.179  1.00  0.00    -0.205 F 
ATOM     96  C   UNL A   1      46.352  35.705  29.542  1.00  0.00     0.022 A 
BRANCH  94  97
ATOM     97  S   UNL A   1      45.502  36.820  27.190  1.00  0.00     0.127 S 
ATOM     98  O   UNL A   1      46.241  37.881  27.872  1.00  0.00    -0.237 OA
ATOM     99  O   UNL A   1      46.205  36.220  26.055  1.00  0.00    -0.237 OA
ATOM    100  O   UNL A   1      44.093  37.097  26.950  1.00  0.00    -0.744 OA
ENDBRANCH  94  97
ENDBRANCH  67  90
ENDBRANCH  41  42
ENDBRANCH  33  36
ENDBRANCH  31  32
ENDBRANCH  30  31
ENDBRANCH  29  30
ENDBRANCH   1  29
TORSDOF 20
ENDMDL
MODEL 2
REMARK VINA RESULT:     -11.5      5.040      8.148
REMARK SMILES CC(C)[C@@H](CNC(=O)[C@@H]1CC[C@@H]2CCCC[C@@H]2[NH2+]1)C(=O)NCCCCCCNC(=O)c1ccc(-c2c3nc(c(-c4cccc(S(=O)(=O)[O-])c4F)c4ccc([nH]4)c(-c4cccc(S(=O)(=O)[O-])c4F)c4nc(c(-c5cccc(S(=O)(=O)[O-])c5F)c5ccc2[nH]5)C=C4)C=C3)cc1
REMARK SMILES IDX 24 1 23 2 22 3 21 4 19 5 20 6 4 8 2 9 1 10 3 11 5 12 6 13
REMARK SMILES IDX 7 14 8 16 9 17 10 18 18 19 11 20 17 21 12 24 16 25 13 26
REMARK SMILES IDX 15 27 14 28 25 29 26 30 27 31 28 32 29 33 30 35 31 36 32 37
REMARK SMILES IDX 93 38 33 39 92 40 34 41 35 42 36 43 86 44 37 45 91 46 85 47
REMARK SMILES IDX 87 48 38 49 90 50 84 51 83 52 39 54 71 55 51 56 70 57 52 58
REMARK SMILES IDX 55 59 69 60 88 61 53 62 54 63 68 65 89 66 56 67 40 68 41 69
REMARK SMILES IDX 49 70 42 71 44 72 50 73 43 74 45 75 46 76 47 77 48 78 72 79
REMARK SMILES IDX 73 80 81 81 74 82 76 83 82 84 75 85 77 86 78 87 79 88 80 89
REMARK SMILES IDX 57 90 58 91 66 92 59 93 61 94 67 95 60 96 62 97 63 98 64 99
REMARK SMILES IDX 65 100
REMARK H PARENT 21 7 6 15 18 22 18 23 28 34 87 53 55 64
REMARK Flexibility Score: inf
ROOT
ATOM      1  C   UNL A   1      30.674  29.337  23.479  1.00  0.00     0.002 C 
ENDROOT
BRANCH   1   2
ATOM      2  C   UNL A   1      29.784  28.124  23.765  1.00  0.00     0.021 C 
BRANCH   2   3
ATOM      3  C   UNL A   1      30.063  26.931  22.856  1.00  0.00     0.116 C 
BRANCH   3   4
ATOM      4  N   UNL A   1      31.332  27.061  22.160  1.00  0.00    -0.356 N 
ATOM      5  C   UNL A   1      32.516  26.413  22.313  1.00  0.00     0.225 C 
ATOM      6  O   UNL A   1      33.434  26.711  21.539  1.00  0.00    -0.275 OA
ATOM      7  H   UNL A   1      31.334  27.743  21.449  1.00  0.00     0.163 HD
BRANCH   5   8
ATOM      8  C   UNL A   1      32.766  25.397  23.420  1.00  0.00     0.100 C 
BRANCH   8   9
ATOM      9  C   UNL A   1      33.359  26.074  24.691  1.00  0.00    -0.003 C 
ATOM     10  C   UNL A   1      33.994  27.437  24.413  1.00  0.00     0.008 C 
ATOM     11  C   UNL A   1      32.263  26.255  25.762  1.00  0.00     0.008 C 
ENDBRANCH   8   9
BRANCH   8  12
ATOM     12  C   UNL A   1      31.642  24.337  23.562  1.00  0.00     0.129 C 
BRANCH  12  13
ATOM     13  N   UNL A   1      31.724  23.141  22.745  1.00  0.00    -0.350 N 
ATOM     14  C   UNL A   1      32.041  21.837  22.954  1.00  0.00     0.278 C 
ATOM     15  H   UNL A   1      31.492  23.319  21.804  1.00  0.00     0.163 HD
ATOM     16  O   UNL A   1      32.048  21.151  21.917  1.00  0.00    -0.268 OA
BRANCH  14  17
ATOM     17  C   UNL A   1      32.294  21.115  24.318  1.00  0.00     0.272 C 
ATOM     18  C   UNL A   1      32.037  21.768  25.669  1.00  0.00     0.076 C 
ATOM     19  N   UNL A   1      33.666  20.510  24.321  1.00  0.00    -0.333 N 
ATOM     20  C   UNL A   1      33.101  22.791  26.021  1.00  0.00     0.016 C 
ATOM     21  C   UNL A   1      34.771  21.390  24.749  1.00  0.00     0.186 C 
ATOM     22  H   UNL A   1      33.869  20.198  23.372  1.00  0.00     0.347 HD
ATOM     23  H   UNL A   1      33.631  19.762  25.014  1.00  0.00     0.347 HD
ATOM     24  C   UNL A   1      34.470  22.112  26.078  1.00  0.00     0.048 C 
ATOM     25  C   UNL A   1      35.224  22.350  23.642  1.00  0.00     0.065 C 
ATOM     26  C   UNL A   1      35.576  23.109  26.463  1.00  0.00     0.010 C 
ATOM     27  C   UNL A   1      36.321  23.317  24.086  1.00  0.00     0.006 C 
ATOM     28  C   UNL A   1      35.928  24.077  25.342  1.00  0.00     0.001 C 
ENDBRANCH  14  17
ENDBRANCH  12  13
ENDBRANCH   8  12
ENDBRANCH   5   8
ENDBRANCH   3   4
ENDBRANCH   2   3
ENDBRANCH   1   2
BRANCH   1  29
ATOM     29  C   UNL A   1      30.964  30.223  24.693  1.00  0.00     0.002 C 
BRANCH  29  30
ATOM     30  C   UNL A   1      32.283  29.972  25.407  1.00  0.00     0.021 C 
BRANCH  30  31
ATOM     31  C   UNL A   1      32.278  30.394  26.863  1.00  0.00     0.116 C 
BRANCH  31  32
ATOM     32  N   UNL A   1      32.310  31.846  27.027  1.00  0.00    -0.352 N 
ATOM     33  C   UNL A   1      33.297  32.623  27.577  1.00  0.00     0.251 C 
ATOM     34  H   UNL A   1      31.518  32.330  26.699  1.00  0.00     0.163 HD
ATOM     35  O   UNL A   1      33.121  33.820  27.782  1.00  0.00    -0.269 OA
BRANCH  33  36
ATOM     36  C   UNL A   1      34.570  31.974  27.945  1.00  0.00     0.039 A 
ATOM     37  C   UNL A   1      35.722  32.751  28.077  1.00  0.00     0.014 A 
ATOM     38  C   UNL A   1      34.577  30.617  28.276  1.00  0.00     0.014 A 
ATOM     39  C   UNL A   1      36.865  32.180  28.635  1.00  0.00     0.010 A 
ATOM     40  C   UNL A   1      35.679  30.085  28.928  1.00  0.00     0.010 A 
ATOM     41  C   UNL A   1      36.835  30.860  29.113  1.00  0.00    -0.014 A 
BRANCH  41  42
ATOM     42  C   UNL A   1      37.984  30.263  29.837  1.00  0.00     0.031 A 
ATOM     43  C   UNL A   1      38.275  30.685  31.252  1.00  0.00     0.074 A 
ATOM     44  C   UNL A   1      38.832  29.444  29.183  1.00  0.00     0.049 A 
ATOM     45  N   UNL A   1      39.285  30.362  32.016  1.00  0.00    -0.248 NA
ATOM     46  C   UNL A   1      37.329  31.627  31.876  1.00  0.00     0.031 C 
ATOM     47  C   UNL A   1      38.714  29.047  27.777  1.00  0.00     0.029 A 
ATOM     48  N   UNL A   1      39.982  28.826  29.603  1.00  0.00    -0.354 N 
ATOM     49  C   UNL A   1      39.123  31.094  33.185  1.00  0.00     0.074 A 
ATOM     50  C   UNL A   1      37.942  31.910  33.016  1.00  0.00     0.031 C 
ATOM     51  C   UNL A   1      39.742  28.246  27.456  1.00  0.00     0.029 A 
ATOM     52  C   UNL A   1      40.610  28.097  28.619  1.00  0.00     0.049 A 
ATOM     53  H   UNL A   1      40.326  28.896  30.524  1.00  0.00     0.167 HD
ATOM     54  C   UNL A   1      39.866  31.061  34.315  1.00  0.00     0.034 A 
ATOM     55  C   UNL A   1      41.761  27.397  28.649  1.00  0.00     0.034 A 
ATOM     56  C   UNL A   1      40.997  30.196  34.501  1.00  0.00     0.049 A 
ATOM     57  C   UNL A   1      42.539  27.332  29.935  1.00  0.00     0.074 A 
ATOM     58  C   UNL A   1      41.740  29.988  35.649  1.00  0.00     0.029 A 
ATOM     59  N   UNL A   1      41.551  29.398  33.513  1.00  0.00    -0.354 N 
ATOM     60  N   UNL A   1      42.265  27.885  31.092  1.00  0.00    -0.248 NA
ATOM     61  C   UNL A   1      43.766  26.524  29.930  1.00  0.00     0.031 C 
ATOM     62  C   UNL A   1      42.759  29.078  35.347  1.00  0.00     0.029 A 
ATOM     63  C   UNL A   1      42.639  28.709  34.016  1.00  0.00     0.049 A 
ATOM     64  H   UNL A   1      41.218  29.330  32.588  1.00  0.00     0.167 HD
ATOM     65  C   UNL A   1      43.274  27.478  31.957  1.00  0.00     0.074 A 
ATOM     66  C   UNL A   1      44.148  26.607  31.198  1.00  0.00     0.031 C 
ATOM     67  C   UNL A   1      43.473  27.814  33.256  1.00  0.00     0.034 A 
BRANCH  54  68
ATOM     68  C   UNL A   1      39.436  31.939  35.460  1.00  0.00     0.023 A 
ATOM     69  C   UNL A   1      39.812  33.298  35.471  1.00  0.00     0.012 A 
ATOM     70  C   UNL A   1      38.625  31.438  36.497  1.00  0.00     0.148 A 
ATOM     71  C   UNL A   1      39.422  34.135  36.514  1.00  0.00     0.002 A 
ATOM     72  C   UNL A   1      38.202  32.290  37.510  1.00  0.00     0.091 A 
ATOM     73  F   UNL A   1      38.298  30.137  36.482  1.00  0.00    -0.205 F 
ATOM     74  C   UNL A   1      38.609  33.635  37.527  1.00  0.00     0.022 A 
BRANCH  72  75
ATOM     75  S   UNL A   1      37.092  31.762  38.820  1.00  0.00     0.127 S 
ATOM     76  O   UNL A   1      37.931  31.932  40.005  1.00  0.00    -0.237 OA
ATOM     77  O   UNL A   1      35.998  32.725  38.703  1.00  0.00    -0.237 OA
ATOM     78  O   UNL A   1      36.726  30.387  38.505  1.00  0.00    -0.744 OA
ENDBRANCH  72  75
ENDBRANCH  54  68
BRANCH  55  79
ATOM     79  C   UNL A   1      42.210  26.650  27.440  1.00  0.00     0.023 A 
ATOM     80  C   UNL A   1      42.911  27.335  26.428  1.00  0.00     0.012 A 
ATOM     81  C   UNL A   1      41.981  25.267  27.301  1.00  0.00     0.148 A 
ATOM     82  C   UNL A   1      43.354  26.662  25.289  1.00  0.00     0.002 A 
ATOM     83  C   UNL A   1      42.469  24.592  26.188  1.00  0.00     0.091 A 
ATOM     84  F   UNL A   1      41.300  24.636  28.268  1.00  0.00    -0.205 F 
ATOM     85  C   UNL A   1      43.144  25.290  25.174  1.00  0.00     0.022 A 
BRANCH  83  86
ATOM     86  S   UNL A   1      42.354  22.808  26.016  1.00  0.00     0.127 S 
ATOM     87  O   UNL A   1      42.975  22.593  24.711  1.00  0.00    -0.237 OA
ATOM     88  O   UNL A   1      43.143  22.341  27.157  1.00  0.00    -0.237 OA
ATOM     89  O   UNL A   1      40.934  22.498  26.101  1.00  0.00    -0.744 OA
ENDBRANCH  83  86
ENDBRANCH  55  79
BRANCH  67  90
ATOM     90  C   UNL A   1      44.681  27.240  33.946  1.00  0.00     0.023 A 
ATOM     91  C   UNL A   1      45.879  27.982  33.972  1.00  0.00     0.012 A 
ATOM     92  C   UNL A   1      44.606  26.018  34.642  1.00  0.00     0.148 A 
ATOM     93  C   UNL A   1      46.992  27.504  34.661  1.00  0.00     0.002 A 
ATOM     94  C   UNL A   1      45.705  25.571  35.366  1.00  0.00     0.091 A 
ATOM     95  F   UNL A   1      43.461  25.323  34.591  1.00  0.00    -0.205 F 
ATOM     96  C   UNL A   1      46.902  26.307  35.367  1.00  0.00     0.022 A 
BRANCH  94  97
ATOM     97  S   UNL A   1      45.654  24.090  36.381  1.00  0.00     0.127 S 
ATOM     98  O   UNL A   1      47.065  23.707  36.420  1.00  0.00    -0.237 OA
ATOM     99  O   UNL A   1      45.127  24.602  37.647  1.00  0.00    -0.237 OA
ATOM    100  O   UNL A   1      44.774  23.158  35.691  1.00  0.00    -0.744 OA
ENDBRANCH  94  97
ENDBRANCH  67  90
ENDBRANCH  41  42
ENDBRANCH  33  36
ENDBRANCH  31  32
ENDBRANCH  30  31
ENDBRANCH  29  30
ENDBRANCH   1  29
TORSDOF 20
ENDMDL
MODEL 3
REMARK VINA RESULT:     -11.3      1.690      2.094
REMARK SMILES CC(C)[C@@H](CNC(=O)[C@@H]1CC[C@@H]2CCCC[C@@H]2[NH2+]1)C(=O)NCCCCCCNC(=O)c1ccc(-c2c3nc(c(-c4cccc(S(=O)(=O)[O-])c4F)c4ccc([nH]4)c(-c4cccc(S(=O)(=O)[O-])c4F)c4nc(c(-c5cccc(S(=O)(=O)[O-])c5F)c5ccc2[nH]5)C=C4)C=C3)cc1
REMARK SMILES IDX 24 1 23 2 22 3 21 4 19 5 20 6 4 8 2 9 1 10 3 11 5 12 6 13
REMARK SMILES IDX 7 14 8 16 9 17 10 18 18 19 11 20 17 21 12 24 16 25 13 26
REMARK SMILES IDX 15 27 14 28 25 29 26 30 27 31 28 32 29 33 30 35 31 36 32 37
REMARK SMILES IDX 93 38 33 39 92 40 34 41 35 42 36 43 86 44 37 45 91 46 85 47
REMARK SMILES IDX 87 48 38 49 90 50 84 51 83 52 39 54 71 55 51 56 70 57 52 58
REMARK SMILES IDX 55 59 69 60 88 61 53 62 54 63 68 65 89 66 56 67 40 68 41 69
REMARK SMILES IDX 49 70 42 71 44 72 50 73 43 74 45 75 46 76 47 77 48 78 72 79
REMARK SMILES IDX 73 80 81 81 74 82 76 83 82 84 75 85 77 86 78 87 79 88 80 89
REMARK SMILES IDX 57 90 58 91 66 92 59 93 61 94 67 95 60 96 62 97 63 98 64 99
REMARK SMILES IDX 65 100
REMARK H PARENT 21 7 6 15 18 22 18 23 28 34 87 53 55 64
REMARK Flexibility Score: inf
ROOT
ATOM      1  C   UNL A   1      33.499  20.871  26.118  1.00  0.00     0.002 C 
ENDROOT
BRANCH   1   2
ATOM      2  C   UNL A   1      33.111  20.340  24.734  1.00  0.00     0.021 C 
BRANCH   2   3
ATOM      3  C   UNL A   1      32.198  21.279  23.951  1.00  0.00     0.116 C 
BRANCH   3   4
ATOM      4  N   UNL A   1      32.897  21.929  22.855  1.00  0.00    -0.356 N 
ATOM      5  C   UNL A   1      33.047  23.240  22.530  1.00  0.00     0.225 C 
ATOM      6  O   UNL A   1      33.740  23.507  21.541  1.00  0.00    -0.275 OA
ATOM      7  H   UNL A   1      33.341  21.307  22.234  1.00  0.00     0.163 HD
BRANCH   5   8
ATOM      8  C   UNL A   1      32.357  24.364  23.292  1.00  0.00     0.100 C 
BRANCH   8   9
ATOM      9  C   UNL A   1      33.218  24.847  24.497  1.00  0.00    -0.003 C 
ATOM     10  C   UNL A   1      32.744  24.294  25.842  1.00  0.00     0.008 C 
ATOM     11  C   UNL A   1      34.694  24.444  24.296  1.00  0.00     0.008 C 
ENDBRANCH   8   9
BRANCH   8  12
ATOM     12  C   UNL A   1      31.659  25.403  22.376  1.00  0.00     0.129 C 
BRANCH  12  13
ATOM     13  N   UNL A   1      32.220  26.739  22.306  1.00  0.00    -0.350 N 
ATOM     14  C   UNL A   1      31.906  27.958  22.816  1.00  0.00     0.278 C 
ATOM     15  H   UNL A   1      33.032  26.770  21.749  1.00  0.00     0.163 HD
ATOM     16  O   UNL A   1      32.652  28.873  22.425  1.00  0.00    -0.268 OA
BRANCH  14  17
ATOM     17  C   UNL A   1      30.809  28.303  23.877  1.00  0.00     0.272 C 
ATOM     18  C   UNL A   1      30.437  29.727  24.262  1.00  0.00     0.076 C 
ATOM     19  N   UNL A   1      31.049  27.505  25.125  1.00  0.00    -0.333 N 
ATOM     20  C   UNL A   1      31.488  30.372  25.148  1.00  0.00     0.016 C 
ATOM     21  C   UNL A   1      31.978  28.092  26.110  1.00  0.00     0.186 C 
ATOM     22  H   UNL A   1      31.423  26.599  24.847  1.00  0.00     0.347 HD
ATOM     23  H   UNL A   1      30.146  27.463  25.597  1.00  0.00     0.347 HD
ATOM     24  C   UNL A   1      31.646  29.561  26.435  1.00  0.00     0.048 C 
ATOM     25  C   UNL A   1      33.449  27.887  25.728  1.00  0.00     0.065 C 
ATOM     26  C   UNL A   1      32.680  30.199  27.377  1.00  0.00     0.010 C 
ATOM     27  C   UNL A   1      34.428  28.546  26.699  1.00  0.00     0.006 C 
ATOM     28  C   UNL A   1      34.115  30.020  26.902  1.00  0.00     0.001 C 
ENDBRANCH  14  17
ENDBRANCH  12  13
ENDBRANCH   8  12
ENDBRANCH   5   8
ENDBRANCH   3   4
ENDBRANCH   2   3
ENDBRANCH   1   2
BRANCH   1  29
ATOM     29  C   UNL A   1      34.916  21.442  26.214  1.00  0.00     0.002 C 
BRANCH  29  30
ATOM     30  C   UNL A   1      35.829  21.174  25.027  1.00  0.00     0.021 C 
BRANCH  30  31
ATOM     31  C   UNL A   1      37.246  21.674  25.223  1.00  0.00     0.116 C 
BRANCH  31  32
ATOM     32  N   UNL A   1      38.191  20.592  25.495  1.00  0.00    -0.352 N 
ATOM     33  C   UNL A   1      39.419  20.661  26.104  1.00  0.00     0.251 C 
ATOM     34  H   UNL A   1      37.909  19.695  25.203  1.00  0.00     0.163 HD
ATOM     35  O   UNL A   1      40.168  19.690  26.131  1.00  0.00    -0.269 OA
BRANCH  33  36
ATOM     36  C   UNL A   1      39.829  21.947  26.701  1.00  0.00     0.039 A 
ATOM     37  C   UNL A   1      40.850  21.966  27.651  1.00  0.00     0.014 A 
ATOM     38  C   UNL A   1      39.276  23.134  26.216  1.00  0.00     0.014 A 
ATOM     39  C   UNL A   1      41.384  23.191  28.048  1.00  0.00     0.010 A 
ATOM     40  C   UNL A   1      39.881  24.341  26.531  1.00  0.00     0.010 A 
ATOM     41  C   UNL A   1      40.941  24.383  27.451  1.00  0.00    -0.014 A 
BRANCH  41  42
ATOM     42  C   UNL A   1      41.579  25.690  27.744  1.00  0.00     0.031 A 
ATOM     43  C   UNL A   1      40.824  26.732  28.523  1.00  0.00     0.074 A 
ATOM     44  C   UNL A   1      42.780  25.981  27.204  1.00  0.00     0.049 A 
ATOM     45  N   UNL A   1      41.163  27.965  28.791  1.00  0.00    -0.248 NA
ATOM     46  C   UNL A   1      39.493  26.352  29.031  1.00  0.00     0.031 C 
ATOM     47  C   UNL A   1      43.562  25.091  26.342  1.00  0.00     0.029 A 
ATOM     48  N   UNL A   1      43.538  27.123  27.271  1.00  0.00    -0.354 N 
ATOM     49  C   UNL A   1      40.074  28.519  29.453  1.00  0.00     0.074 A 
ATOM     50  C   UNL A   1      39.047  27.503  29.509  1.00  0.00     0.031 C 
ATOM     51  C   UNL A   1      44.690  25.715  25.970  1.00  0.00     0.029 A 
ATOM     52  C   UNL A   1      44.700  27.059  26.537  1.00  0.00     0.049 A 
ATOM     53  H   UNL A   1      43.275  27.914  27.796  1.00  0.00     0.167 HD
ATOM     54  C   UNL A   1      39.954  29.750  30.002  1.00  0.00     0.034 A 
ATOM     55  C   UNL A   1      45.660  27.983  26.336  1.00  0.00     0.034 A 
ATOM     56  C   UNL A   1      41.004  30.730  30.003  1.00  0.00     0.049 A 
ATOM     57  C   UNL A   1      45.527  29.325  27.004  1.00  0.00     0.074 A 
ATOM     58  C   UNL A   1      41.034  31.956  30.641  1.00  0.00     0.029 A 
ATOM     59  N   UNL A   1      42.208  30.595  29.330  1.00  0.00    -0.354 N 
ATOM     60  N   UNL A   1      44.571  29.765  27.786  1.00  0.00    -0.248 NA
ATOM     61  C   UNL A   1      46.618  30.286  26.788  1.00  0.00     0.031 C 
ATOM     62  C   UNL A   1      42.252  32.574  30.336  1.00  0.00     0.029 A 
ATOM     63  C   UNL A   1      42.984  31.724  29.520  1.00  0.00     0.049 A 
ATOM     64  H   UNL A   1      42.473  29.811  28.796  1.00  0.00     0.167 HD
ATOM     65  C   UNL A   1      44.951  31.045  28.170  1.00  0.00     0.074 A 
ATOM     66  C   UNL A   1      46.241  31.298  27.559  1.00  0.00     0.031 C 
ATOM     67  C   UNL A   1      44.284  31.941  28.938  1.00  0.00     0.034 A 
BRANCH  54  68
ATOM     68  C   UNL A   1      38.663  30.079  30.705  1.00  0.00     0.023 A 
ATOM     69  C   UNL A   1      38.359  29.445  31.927  1.00  0.00     0.012 A 
ATOM     70  C   UNL A   1      37.776  31.041  30.186  1.00  0.00     0.148 A 
ATOM     71  C   UNL A   1      37.176  29.735  32.603  1.00  0.00     0.002 A 
ATOM     72  C   UNL A   1      36.620  31.359  30.889  1.00  0.00     0.091 A 
ATOM     73  F   UNL A   1      38.070  31.615  29.010  1.00  0.00    -0.205 F 
ATOM     74  C   UNL A   1      36.312  30.698  32.090  1.00  0.00     0.022 A 
BRANCH  72  75
ATOM     75  S   UNL A   1      35.480  32.638  30.352  1.00  0.00     0.127 S 
ATOM     76  O   UNL A   1      34.410  32.515  31.341  1.00  0.00    -0.237 OA
ATOM     77  O   UNL A   1      36.292  33.848  30.480  1.00  0.00    -0.237 OA
ATOM     78  O   UNL A   1      35.110  32.298  28.985  1.00  0.00    -0.744 OA
ENDBRANCH  72  75
ENDBRANCH  54  68
BRANCH  55  79
ATOM     79  C   UNL A   1      46.859  27.646  25.519  1.00  0.00     0.023 A 
ATOM     80  C   UNL A   1      46.829  27.867  24.128  1.00  0.00     0.012 A 
ATOM     81  C   UNL A   1      48.036  27.146  26.109  1.00  0.00     0.148 A 
ATOM     82  C   UNL A   1      47.940  27.572  23.336  1.00  0.00     0.002 A 
ATOM     83  C   UNL A   1      49.156  26.901  25.322  1.00  0.00     0.091 A 
ATOM     84  F   UNL A   1      48.041  26.929  27.432  1.00  0.00    -0.205 F 
ATOM     85  C   UNL A   1      49.105  27.100  23.933  1.00  0.00     0.022 A 
BRANCH  83  86
ATOM     86  S   UNL A   1      50.737  26.413  26.021  1.00  0.00     0.127 S 
ATOM     87  O   UNL A   1      51.049  27.552  26.880  1.00  0.00    -0.237 OA
ATOM     88  O   UNL A   1      50.387  25.182  26.733  1.00  0.00    -0.237 OA
ATOM     89  O   UNL A   1      51.624  26.215  24.883  1.00  0.00    -0.744 OA
ENDBRANCH  83  86
ENDBRANCH  55  79
BRANCH  67  90
ATOM     90  C   UNL A   1      44.930  33.281  29.167  1.00  0.00     0.023 A 
ATOM     91  C   UNL A   1      45.850  33.432  30.225  1.00  0.00     0.012 A 
ATOM     92  C   UNL A   1      44.700  34.356  28.288  1.00  0.00     0.148 A 
ATOM     93  C   UNL A   1      46.512  34.643  30.418  1.00  0.00     0.002 A 
ATOM     94  C   UNL A   1      45.400  35.545  28.458  1.00  0.00     0.091 A 
ATOM     95  F   UNL A   1      43.811  34.193  27.298  1.00  0.00    -0.205 F 
ATOM     96  C   UNL A   1      46.297  35.693  29.529  1.00  0.00     0.022 A 
BRANCH  94  97
ATOM     97  S   UNL A   1      45.260  36.920  27.312  1.00  0.00     0.127 S 
ATOM     98  O   UNL A   1      45.827  38.018  28.093  1.00  0.00    -0.237 OA
ATOM     99  O   UNL A   1      46.092  36.475  26.193  1.00  0.00    -0.237 OA
ATOM    100  O   UNL A   1      43.843  37.044  27.000  1.00  0.00    -0.744 OA
ENDBRANCH  94  97
ENDBRANCH  67  90
ENDBRANCH  41  42
ENDBRANCH  33  36
ENDBRANCH  31  32
ENDBRANCH  30  31
ENDBRANCH  29  30
ENDBRANCH   1  29
TORSDOF 20
ENDMDL
