MODEL 1
REMARK VINA RESULT:     -10.6      0.000      0.000
REMARK SMILES COc1cccc(-n2cc(C(=O)NCCCCCCNC(=O)c3ccc(-c4c5nc(c(-c6cccc(S(=O)(=O)[O-])c6F)c6ccc([nH]6)c(-c6cccc(S(=O)(=O)[O-])c6F)c6nc(c(-c7cccc(S(=O)(=O)[O-])c7F)c7ccc4[nH]7)C=C6)C=C5)cc3)c3c2[C@H](c2cc(OC)c(OC)c(OC)c2)CC(=O)N3)c1
REMARK SMILES IDX 17 1 16 2 15 3 14 4 13 5 11 6 12 7 10 9 8 10 9 11 87 12
REMARK SMILES IDX 86 13 88 14 104 15 101 16 102 17 103 19 7 20 3 21 4 22
REMARK SMILES IDX 105 23 5 24 6 25 2 26 1 27 89 28 90 29 100 30 91 31 97 32
REMARK SMILES IDX 94 33 92 34 93 35 98 36 99 37 95 38 96 39 18 40 19 41 20 42
REMARK SMILES IDX 21 43 22 45 23 46 24 47 85 48 25 49 84 50 26 51 27 52 28 53
REMARK SMILES IDX 78 54 29 55 83 56 77 57 79 58 30 59 82 60 76 61 75 62 31 64
REMARK SMILES IDX 63 65 43 66 62 67 44 68 47 69 61 70 80 71 45 72 46 73 60 75
REMARK SMILES IDX 81 76 48 77 32 78 33 79 41 80 34 81 36 82 42 83 35 84 37 85
REMARK SMILES IDX 38 86 39 87 40 88 64 89 65 90 73 91 66 92 68 93 74 94 67 95
REMARK SMILES IDX 69 96 70 97 71 98 72 99 49 100 50 101 58 102 51 103 53 104
REMARK SMILES IDX 59 105 52 106 54 107 55 108 56 109 57 110
REMARK H PARENT 13 8 104 18 20 44 79 63 47 74
REMARK Flexibility Score: inf
ROOT
ATOM      1  C   UNL A   1      35.181  29.684  27.876  1.00  0.00     0.002 C 
ENDROOT
BRANCH   1   2
ATOM      2  C   UNL A   1      33.679  29.469  27.628  1.00  0.00     0.002 C 
BRANCH   2   3
ATOM      3  C   UNL A   1      33.344  28.385  26.601  1.00  0.00     0.021 C 
BRANCH   3   4
ATOM      4  C   UNL A   1      34.057  28.573  25.258  1.00  0.00     0.116 C 
BRANCH   4   5
ATOM      5  N   UNL A   1      33.257  28.025  24.196  1.00  0.00    -0.352 N 
ATOM      6  C   UNL A   1      32.935  26.745  23.845  1.00  0.00     0.254 C 
ATOM      7  O   UNL A   1      32.178  26.654  22.871  1.00  0.00    -0.269 OA
ATOM      8  H   UNL A   1      32.862  28.707  23.606  1.00  0.00     0.163 HD
BRANCH   6   9
ATOM      9  C   UNL A   1      33.342  25.550  24.594  1.00  0.00     0.081 A 
ATOM     10  N   UNL A   1      34.906  24.063  25.314  1.00  0.00    -0.317 N 
ATOM     11  C   UNL A   1      34.694  25.225  24.621  1.00  0.00     0.107 A 
ATOM     12  C   UNL A   1      33.686  23.581  25.736  1.00  0.00     0.055 A 
ATOM     13  C   UNL A   1      32.746  24.557  25.433  1.00  0.00     0.076 A 
ATOM     14  C   UNL A   1      33.402  22.346  26.575  1.00  0.00     0.078 C 
ATOM     15  N   UNL A   1      31.482  24.425  25.958  1.00  0.00    -0.324 N 
ATOM     16  C   UNL A   1      32.252  22.701  27.540  1.00  0.00     0.115 C 
ATOM     17  C   UNL A   1      31.126  23.443  26.843  1.00  0.00     0.225 C 
ATOM     18  H   UNL A   1      30.795  25.073  25.682  1.00  0.00     0.170 HD
ATOM     19  O   UNL A   1      29.936  23.217  27.065  1.00  0.00    -0.275 OA
BRANCH  10  20
ATOM     20  C   UNL A   1      36.191  23.538  25.525  1.00  0.00     0.049 A 
ATOM     21  C   UNL A   1      38.451  23.818  26.311  1.00  0.00     0.120 A 
ATOM     22  C   UNL A   1      38.727  22.508  25.900  1.00  0.00     0.046 A 
ATOM     23  C   UNL A   1      37.168  24.336  26.135  1.00  0.00     0.073 A 
ATOM     24  C   UNL A   1      37.763  21.745  25.243  1.00  0.00     0.006 A 
ATOM     25  C   UNL A   1      36.503  22.284  25.009  1.00  0.00     0.027 A 
BRANCH  21  26
ATOM     26  O   UNL A   1      39.524  24.475  26.849  1.00  0.00    -0.497 OA
ATOM     27  C   UNL A   1      39.265  25.357  27.936  1.00  0.00     0.278 C 
ENDBRANCH  21  26
ENDBRANCH  10  20
BRANCH  14  28
ATOM     28  C   UNL A   1      33.126  21.083  25.739  1.00  0.00    -0.031 A 
ATOM     29  C   UNL A   1      32.863  21.212  24.374  1.00  0.00     0.055 A 
ATOM     30  C   UNL A   1      33.119  19.776  26.250  1.00  0.00     0.055 A 
ATOM     31  C   UNL A   1      32.409  20.143  23.594  1.00  0.00     0.164 A 
ATOM     32  C   UNL A   1      32.811  18.653  25.450  1.00  0.00     0.164 A 
ATOM     33  C   UNL A   1      32.410  18.837  24.112  1.00  0.00     0.203 A 
BRANCH  31  34
ATOM     34  O   UNL A   1      32.036  20.513  22.321  1.00  0.00    -0.493 OA
ATOM     35  C   UNL A   1      32.113  21.909  22.046  1.00  0.00     0.278 C 
ENDBRANCH  31  34
BRANCH  32  36
ATOM     36  O   UNL A   1      32.834  17.374  25.951  1.00  0.00    -0.493 OA
ATOM     37  C   UNL A   1      34.043  16.631  25.813  1.00  0.00     0.278 C 
ENDBRANCH  32  36
BRANCH  33  38
ATOM     38  O   UNL A   1      32.005  17.862  23.237  1.00  0.00    -0.490 OA
ATOM     39  C   UNL A   1      32.981  17.157  22.489  1.00  0.00     0.278 C 
ENDBRANCH  33  38
ENDBRANCH  14  28
ENDBRANCH   6   9
ENDBRANCH   4   5
ENDBRANCH   3   4
ENDBRANCH   2   3
ENDBRANCH   1   2
BRANCH   1  40
ATOM     40  C   UNL A   1      35.669  31.143  27.869  1.00  0.00     0.021 C 
BRANCH  40  41
ATOM     41  C   UNL A   1      36.368  31.541  29.157  1.00  0.00     0.116 C 
BRANCH  41  42
ATOM     42  N   UNL A   1      37.183  32.750  28.975  1.00  0.00    -0.352 N 
ATOM     43  C   UNL A   1      38.461  33.029  29.430  1.00  0.00     0.251 C 
ATOM     44  H   UNL A   1      36.758  33.468  28.453  1.00  0.00     0.163 HD
ATOM     45  O   UNL A   1      38.873  34.172  29.491  1.00  0.00    -0.269 OA
BRANCH  43  46
ATOM     46  C   UNL A   1      39.317  31.896  29.820  1.00  0.00     0.039 A 
ATOM     47  C   UNL A   1      38.978  30.567  29.544  1.00  0.00     0.014 A 
ATOM     48  C   UNL A   1      40.512  32.212  30.448  1.00  0.00     0.014 A 
ATOM     49  C   UNL A   1      39.898  29.572  29.864  1.00  0.00     0.010 A 
ATOM     50  C   UNL A   1      41.501  31.281  30.504  1.00  0.00     0.010 A 
ATOM     51  C   UNL A   1      41.161  29.949  30.341  1.00  0.00    -0.014 A 
BRANCH  51  52
ATOM     52  C   UNL A   1      42.207  28.987  30.636  1.00  0.00     0.031 A 
ATOM     53  C   UNL A   1      42.518  28.856  32.078  1.00  0.00     0.074 A 
ATOM     54  C   UNL A   1      42.647  28.114  29.700  1.00  0.00     0.049 A 
ATOM     55  N   UNL A   1      43.580  29.264  32.689  1.00  0.00    -0.248 NA
ATOM     56  C   UNL A   1      41.457  28.380  32.980  1.00  0.00     0.031 C 
ATOM     57  C   UNL A   1      42.153  27.923  28.326  1.00  0.00     0.029 A 
ATOM     58  N   UNL A   1      43.524  27.088  29.837  1.00  0.00    -0.354 N 
ATOM     59  C   UNL A   1      43.431  28.834  34.003  1.00  0.00     0.074 A 
ATOM     60  C   UNL A   1      42.032  28.542  34.173  1.00  0.00     0.031 C 
ATOM     61  C   UNL A   1      42.526  26.706  27.875  1.00  0.00     0.029 A 
ATOM     62  C   UNL A   1      43.435  26.122  28.839  1.00  0.00     0.049 A 
ATOM     63  H   UNL A   1      44.168  27.032  30.579  1.00  0.00     0.167 HD
ATOM     64  C   UNL A   1      44.512  28.457  34.742  1.00  0.00     0.034 A 
ATOM     65  C   UNL A   1      44.032  24.905  28.841  1.00  0.00     0.034 A 
ATOM     66  C   UNL A   1      45.744  28.862  34.107  1.00  0.00     0.049 A 
ATOM     67  C   UNL A   1      45.155  24.984  29.804  1.00  0.00     0.074 A 
ATOM     68  C   UNL A   1      46.276  30.059  33.675  1.00  0.00     0.029 A 
ATOM     69  N   UNL A   1      46.450  27.879  33.453  1.00  0.00    -0.354 N 
ATOM     70  N   UNL A   1      46.190  25.760  29.633  1.00  0.00    -0.248 NA
ATOM     71  C   UNL A   1      44.907  24.561  31.172  1.00  0.00     0.031 C 
ATOM     72  C   UNL A   1      46.918  29.748  32.438  1.00  0.00     0.029 A 
ATOM     73  C   UNL A   1      46.813  28.372  32.228  1.00  0.00     0.049 A 
ATOM     74  H   UNL A   1      46.658  26.982  33.802  1.00  0.00     0.167 HD
ATOM     75  C   UNL A   1      46.425  26.299  30.892  1.00  0.00     0.074 A 
ATOM     76  C   UNL A   1      45.682  25.440  31.815  1.00  0.00     0.031 C 
ATOM     77  C   UNL A   1      46.943  27.556  31.038  1.00  0.00     0.034 A 
BRANCH  64  78
ATOM     78  C   UNL A   1      44.504  27.381  35.805  1.00  0.00     0.023 A 
ATOM     79  C   UNL A   1      43.689  26.251  35.565  1.00  0.00     0.012 A 
ATOM     80  C   UNL A   1      45.008  27.537  37.118  1.00  0.00     0.148 A 
ATOM     81  C   UNL A   1      43.342  25.364  36.590  1.00  0.00     0.002 A 
ATOM     82  C   UNL A   1      44.727  26.607  38.113  1.00  0.00     0.091 A 
ATOM     83  F   UNL A   1      45.648  28.656  37.465  1.00  0.00    -0.205 F 
ATOM     84  C   UNL A   1      43.866  25.538  37.863  1.00  0.00     0.022 A 
BRANCH  82  85
ATOM     85  S   UNL A   1      45.416  26.764  39.766  1.00  0.00     0.127 S 
ATOM     86  O   UNL A   1      46.786  27.170  39.472  1.00  0.00    -0.237 OA
ATOM     87  O   UNL A   1      44.567  27.806  40.345  1.00  0.00    -0.237 OA
ATOM     88  O   UNL A   1      45.250  25.453  40.382  1.00  0.00    -0.744 OA
ENDBRANCH  82  85
ENDBRANCH  64  78
BRANCH  65  89
ATOM     89  C   UNL A   1      43.546  23.615  28.298  1.00  0.00     0.023 A 
ATOM     90  C   UNL A   1      42.296  23.112  28.708  1.00  0.00     0.012 A 
ATOM     91  C   UNL A   1      44.165  23.027  27.171  1.00  0.00     0.148 A 
ATOM     92  C   UNL A   1      41.664  22.084  27.997  1.00  0.00     0.002 A 
ATOM     93  C   UNL A   1      43.534  22.004  26.468  1.00  0.00     0.091 A 
ATOM     94  F   UNL A   1      45.327  23.533  26.736  1.00  0.00    -0.205 F 
ATOM     95  C   UNL A   1      42.276  21.538  26.872  1.00  0.00     0.022 A 
BRANCH  93  96
ATOM     96  S   UNL A   1      44.250  21.271  24.987  1.00  0.00     0.127 S 
ATOM     97  O   UNL A   1      45.630  21.027  25.406  1.00  0.00    -0.237 OA
ATOM     98  O   UNL A   1      43.441  20.066  24.821  1.00  0.00    -0.237 OA
ATOM     99  O   UNL A   1      44.111  22.271  23.936  1.00  0.00    -0.744 OA
ENDBRANCH  93  96
ENDBRANCH  65  89
BRANCH  77 100
ATOM    100  C   UNL A   1      47.476  28.252  29.809  1.00  0.00     0.023 A 
ATOM    101  C   UNL A   1      48.764  28.000  29.288  1.00  0.00     0.012 A 
ATOM    102  C   UNL A   1      46.592  29.050  29.064  1.00  0.00     0.148 A 
ATOM    103  C   UNL A   1      49.166  28.548  28.066  1.00  0.00     0.002 A 
ATOM    104  C   UNL A   1      46.980  29.557  27.829  1.00  0.00     0.091 A 
ATOM    105  F   UNL A   1      45.368  29.274  29.565  1.00  0.00    -0.205 F 
ATOM    106  C   UNL A   1      48.269  29.317  27.330  1.00  0.00     0.022 A 
BRANCH 104 107
ATOM    107  S   UNL A   1      45.831  30.454  26.783  1.00  0.00     0.127 S 
ATOM    108  O   UNL A   1      45.278  31.437  27.712  1.00  0.00    -0.237 OA
ATOM    109  O   UNL A   1      46.712  31.010  25.755  1.00  0.00    -0.237 OA
ATOM    110  O   UNL A   1      44.886  29.463  26.283  1.00  0.00    -0.744 OA
ENDBRANCH 104 107
ENDBRANCH  77 100
ENDBRANCH  51  52
ENDBRANCH  43  46
ENDBRANCH  41  42
ENDBRANCH  40  41
ENDBRANCH   1  40
TORSDOF 22
ENDMDL
MODEL 2
REMARK VINA RESULT:     -10.5      4.111     10.577
REMARK SMILES COc1cccc(-n2cc(C(=O)NCCCCCCNC(=O)c3ccc(-c4c5nc(c(-c6cccc(S(=O)(=O)[O-])c6F)c6ccc([nH]6)c(-c6cccc(S(=O)(=O)[O-])c6F)c6nc(c(-c7cccc(S(=O)(=O)[O-])c7F)c7ccc4[nH]7)C=C6)C=C5)cc3)c3c2[C@H](c2cc(OC)c(OC)c(OC)c2)CC(=O)N3)c1
REMARK SMILES IDX 17 1 16 2 15 3 14 4 13 5 11 6 12 7 10 9 8 10 9 11 87 12
REMARK SMILES IDX 86 13 88 14 104 15 101 16 102 17 103 19 7 20 3 21 4 22
REMARK SMILES IDX 105 23 5 24 6 25 2 26 1 27 89 28 90 29 100 30 91 31 97 32
REMARK SMILES IDX 94 33 92 34 93 35 98 36 99 37 95 38 96 39 18 40 19 41 20 42
REMARK SMILES IDX 21 43 22 45 23 46 24 47 85 48 25 49 84 50 26 51 27 52 28 53
REMARK SMILES IDX 78 54 29 55 83 56 77 57 79 58 30 59 82 60 76 61 75 62 31 64
REMARK SMILES IDX 63 65 43 66 62 67 44 68 47 69 61 70 80 71 45 72 46 73 60 75
REMARK SMILES IDX 81 76 48 77 32 78 33 79 41 80 34 81 36 82 42 83 35 84 37 85
REMARK SMILES IDX 38 86 39 87 40 88 64 89 65 90 73 91 66 92 68 93 74 94 67 95
REMARK SMILES IDX 69 96 70 97 71 98 72 99 49 100 50 101 58 102 51 103 53 104
REMARK SMILES IDX 59 105 52 106 54 107 55 108 56 109 57 110
REMARK H PARENT 13 8 104 18 20 44 79 63 47 74
REMARK Flexibility Score: inf
ROOT
ATOM      1  C   UNL A   1      35.264  31.901  29.278  1.00  0.00     0.002 C 
ENDROOT
BRANCH   1   2
ATOM      2  C   UNL A   1      36.501  31.828  28.366  1.00  0.00     0.002 C 
BRANCH   2   3
ATOM      3  C   UNL A   1      37.783  31.358  29.056  1.00  0.00     0.021 C 
BRANCH   3   4
ATOM      4  C   UNL A   1      38.259  29.978  28.589  1.00  0.00     0.116 C 
BRANCH   4   5
ATOM      5  N   UNL A   1      38.571  29.154  29.725  1.00  0.00    -0.352 N 
ATOM      6  C   UNL A   1      39.217  27.957  29.851  1.00  0.00     0.254 C 
ATOM      7  O   UNL A   1      39.334  27.556  31.015  1.00  0.00    -0.269 OA
ATOM      8  H   UNL A   1      38.259  29.526  30.581  1.00  0.00     0.163 HD
BRANCH   6   9
ATOM      9  C   UNL A   1      39.832  27.223  28.738  1.00  0.00     0.081 A 
ATOM     10  N   UNL A   1      40.131  25.347  27.488  1.00  0.00    -0.317 N 
ATOM     11  C   UNL A   1      39.434  25.908  28.525  1.00  0.00     0.107 A 
ATOM     12  C   UNL A   1      41.028  26.278  27.014  1.00  0.00     0.055 A 
ATOM     13  C   UNL A   1      40.747  27.471  27.668  1.00  0.00     0.076 A 
ATOM     14  C   UNL A   1      41.993  26.145  25.847  1.00  0.00     0.078 C 
ATOM     15  N   UNL A   1      41.348  28.618  27.209  1.00  0.00    -0.324 N 
ATOM     16  C   UNL A   1      42.023  27.504  25.119  1.00  0.00     0.115 C 
ATOM     17  C   UNL A   1      42.126  28.672  26.084  1.00  0.00     0.225 C 
ATOM     18  H   UNL A   1      41.211  29.449  27.719  1.00  0.00     0.170 HD
ATOM     19  O   UNL A   1      42.843  29.651  25.878  1.00  0.00    -0.275 OA
BRANCH  10  20
ATOM     20  C   UNL A   1      39.888  24.037  27.041  1.00  0.00     0.049 A 
ATOM     21  C   UNL A   1      38.452  22.446  25.941  1.00  0.00     0.120 A 
ATOM     22  C   UNL A   1      39.402  21.451  26.201  1.00  0.00     0.046 A 
ATOM     23  C   UNL A   1      38.701  23.755  26.353  1.00  0.00     0.073 A 
ATOM     24  C   UNL A   1      40.552  21.733  26.937  1.00  0.00     0.006 A 
ATOM     25  C   UNL A   1      40.770  23.023  27.403  1.00  0.00     0.027 A 
BRANCH  21  26
ATOM     26  O   UNL A   1      37.331  21.997  25.297  1.00  0.00    -0.497 OA
ATOM     27  C   UNL A   1      36.098  22.626  25.630  1.00  0.00     0.278 C 
ENDBRANCH  21  26
ENDBRANCH  10  20
BRANCH  14  28
ATOM     28  C   UNL A   1      43.390  25.645  26.257  1.00  0.00    -0.031 A 
ATOM     29  C   UNL A   1      44.468  25.846  25.393  1.00  0.00     0.055 A 
ATOM     30  C   UNL A   1      43.678  24.987  27.463  1.00  0.00     0.055 A 
ATOM     31  C   UNL A   1      45.717  25.250  25.601  1.00  0.00     0.164 A 
ATOM     32  C   UNL A   1      44.969  24.504  27.772  1.00  0.00     0.164 A 
ATOM     33  C   UNL A   1      45.998  24.598  26.814  1.00  0.00     0.203 A 
BRANCH  31  34
ATOM     34  O   UNL A   1      46.589  25.421  24.550  1.00  0.00    -0.493 OA
ATOM     35  C   UNL A   1      47.264  26.676  24.518  1.00  0.00     0.278 C 
ENDBRANCH  31  34
BRANCH  32  36
ATOM     36  O   UNL A   1      45.248  23.887  28.967  1.00  0.00    -0.493 OA
ATOM     37  C   UNL A   1      44.154  23.341  29.701  1.00  0.00     0.278 C 
ENDBRANCH  32  36
BRANCH  33  38
ATOM     38  O   UNL A   1      47.273  24.107  26.932  1.00  0.00    -0.490 OA
ATOM     39  C   UNL A   1      48.247  24.874  27.618  1.00  0.00     0.278 C 
ENDBRANCH  33  38
ENDBRANCH  14  28
ENDBRANCH   6   9
ENDBRANCH   4   5
ENDBRANCH   3   4
ENDBRANCH   2   3
ENDBRANCH   1   2
BRANCH   1  40
ATOM     40  C   UNL A   1      34.451  33.205  29.216  1.00  0.00     0.021 C 
BRANCH  40  41
ATOM     41  C   UNL A   1      34.861  34.211  30.277  1.00  0.00     0.116 C 
BRANCH  41  42
ATOM     42  N   UNL A   1      34.058  34.062  31.498  1.00  0.00    -0.352 N 
ATOM     43  C   UNL A   1      34.311  33.308  32.632  1.00  0.00     0.251 C 
ATOM     44  H   UNL A   1      33.218  34.572  31.513  1.00  0.00     0.163 HD
ATOM     45  O   UNL A   1      33.418  33.019  33.408  1.00  0.00    -0.269 OA
BRANCH  43  46
ATOM     46  C   UNL A   1      35.697  32.881  32.883  1.00  0.00     0.039 A 
ATOM     47  C   UNL A   1      36.163  31.604  32.553  1.00  0.00     0.014 A 
ATOM     48  C   UNL A   1      36.546  33.830  33.433  1.00  0.00     0.014 A 
ATOM     49  C   UNL A   1      37.515  31.327  32.737  1.00  0.00     0.010 A 
ATOM     50  C   UNL A   1      37.891  33.647  33.352  1.00  0.00     0.010 A 
ATOM     51  C   UNL A   1      38.368  32.366  33.135  1.00  0.00    -0.014 A 
BRANCH  51  52
ATOM     52  C   UNL A   1      39.801  32.189  33.286  1.00  0.00     0.031 A 
ATOM     53  C   UNL A   1      40.582  32.517  32.072  1.00  0.00     0.074 A 
ATOM     54  C   UNL A   1      40.364  32.004  34.503  1.00  0.00     0.049 A 
ATOM     55  N   UNL A   1      41.190  31.692  31.287  1.00  0.00    -0.248 NA
ATOM     56  C   UNL A   1      40.537  33.899  31.567  1.00  0.00     0.031 C 
ATOM     57  C   UNL A   1      39.710  32.014  35.823  1.00  0.00     0.029 A 
ATOM     58  N   UNL A   1      41.678  31.937  34.833  1.00  0.00    -0.354 N 
ATOM     59  C   UNL A   1      41.839  32.491  30.352  1.00  0.00     0.074 A 
ATOM     60  C   UNL A   1      41.202  33.780  30.415  1.00  0.00     0.031 C 
ATOM     61  C   UNL A   1      40.632  32.235  36.785  1.00  0.00     0.029 A 
ATOM     62  C   UNL A   1      41.945  32.187  36.176  1.00  0.00     0.049 A 
ATOM     63  H   UNL A   1      42.383  31.729  34.178  1.00  0.00     0.167 HD
ATOM     64  C   UNL A   1      43.043  32.122  29.832  1.00  0.00     0.034 A 
ATOM     65  C   UNL A   1      43.165  32.392  36.730  1.00  0.00     0.034 A 
ATOM     66  C   UNL A   1      43.338  30.740  30.129  1.00  0.00     0.049 A 
ATOM     67  C   UNL A   1      44.159  31.819  35.792  1.00  0.00     0.074 A 
ATOM     68  C   UNL A   1      42.708  29.533  29.904  1.00  0.00     0.029 A 
ATOM     69  N   UNL A   1      44.243  30.508  31.139  1.00  0.00    -0.354 N 
ATOM     70  N   UNL A   1      44.230  30.546  35.515  1.00  0.00    -0.248 NA
ATOM     71  C   UNL A   1      44.758  32.709  34.811  1.00  0.00     0.031 C 
ATOM     72  C   UNL A   1      42.911  28.785  31.103  1.00  0.00     0.029 A 
ATOM     73  C   UNL A   1      43.718  29.541  31.955  1.00  0.00     0.049 A 
ATOM     74  H   UNL A   1      45.111  30.956  31.255  1.00  0.00     0.167 HD
ATOM     75  C   UNL A   1      44.440  30.507  34.142  1.00  0.00     0.074 A 
ATOM     76  C   UNL A   1      44.869  31.859  33.786  1.00  0.00     0.031 C 
ATOM     77  C   UNL A   1      43.957  29.477  33.382  1.00  0.00     0.034 A 
BRANCH  64  78
ATOM     78  C   UNL A   1      44.141  33.078  29.420  1.00  0.00     0.023 A 
ATOM     79  C   UNL A   1      44.370  34.189  30.263  1.00  0.00     0.012 A 
ATOM     80  C   UNL A   1      44.749  33.109  28.143  1.00  0.00     0.148 A 
ATOM     81  C   UNL A   1      45.108  35.297  29.834  1.00  0.00     0.002 A 
ATOM     82  C   UNL A   1      45.551  34.176  27.753  1.00  0.00     0.091 A 
ATOM     83  F   UNL A   1      44.452  32.180  27.233  1.00  0.00    -0.205 F 
ATOM     84  C   UNL A   1      45.705  35.289  28.581  1.00  0.00     0.022 A 
BRANCH  82  85
ATOM     85  S   UNL A   1      46.380  34.194  26.159  1.00  0.00     0.127 S 
ATOM     86  O   UNL A   1      45.247  34.144  25.241  1.00  0.00    -0.237 OA
ATOM     87  O   UNL A   1      47.088  35.473  26.205  1.00  0.00    -0.237 OA
ATOM     88  O   UNL A   1      47.257  33.029  26.163  1.00  0.00    -0.744 OA
ENDBRANCH  82  85
ENDBRANCH  64  78
BRANCH  65  89
ATOM     89  C   UNL A   1      43.555  33.278  37.851  1.00  0.00     0.023 A 
ATOM     90  C   UNL A   1      44.288  32.754  38.933  1.00  0.00     0.012 A 
ATOM     91  C   UNL A   1      43.465  34.684  37.724  1.00  0.00     0.148 A 
ATOM     92  C   UNL A   1      44.943  33.599  39.837  1.00  0.00     0.002 A 
ATOM     93  C   UNL A   1      44.116  35.520  38.627  1.00  0.00     0.091 A 
ATOM     94  F   UNL A   1      42.818  35.196  36.669  1.00  0.00    -0.205 F 
ATOM     95  C   UNL A   1      44.867  34.980  39.679  1.00  0.00     0.022 A 
BRANCH  93  96
ATOM     96  S   UNL A   1      44.088  37.314  38.469  1.00  0.00     0.127 S 
ATOM     97  O   UNL A   1      44.674  37.511  37.143  1.00  0.00    -0.237 OA
ATOM     98  O   UNL A   1      42.659  37.606  38.553  1.00  0.00    -0.237 OA
ATOM     99  O   UNL A   1      44.901  37.827  39.565  1.00  0.00    -0.744 OA
ENDBRANCH  93  96
ENDBRANCH  65  89
BRANCH  77 100
ATOM    100  C   UNL A   1      43.400  28.268  34.096  1.00  0.00     0.023 A 
ATOM    101  C   UNL A   1      42.073  28.208  34.573  1.00  0.00     0.012 A 
ATOM    102  C   UNL A   1      44.182  27.102  34.132  1.00  0.00     0.148 A 
ATOM    103  C   UNL A   1      41.547  27.021  35.092  1.00  0.00     0.002 A 
ATOM    104  C   UNL A   1      43.643  25.913  34.608  1.00  0.00     0.091 A 
ATOM    105  F   UNL A   1      45.439  27.170  33.668  1.00  0.00    -0.205 F 
ATOM    106  C   UNL A   1      42.329  25.869  35.099  1.00  0.00     0.022 A 
BRANCH 104 107
ATOM    107  S   UNL A   1      44.560  24.373  34.533  1.00  0.00     0.127 S 
ATOM    108  O   UNL A   1      43.564  23.403  34.983  1.00  0.00    -0.237 OA
ATOM    109  O   UNL A   1      44.904  24.282  33.112  1.00  0.00    -0.237 OA
ATOM    110  O   UNL A   1      45.710  24.546  35.412  1.00  0.00    -0.744 OA
ENDBRANCH 104 107
ENDBRANCH  77 100
ENDBRANCH  51  52
ENDBRANCH  43  46
ENDBRANCH  41  42
ENDBRANCH  40  41
ENDBRANCH   1  40
TORSDOF 22
ENDMDL
MODEL 3
REMARK VINA RESULT:     -10.5      5.087     11.248
REMARK SMILES COc1cccc(-n2cc(C(=O)NCCCCCCNC(=O)c3ccc(-c4c5nc(c(-c6cccc(S(=O)(=O)[O-])c6F)c6ccc([nH]6)c(-c6cccc(S(=O)(=O)[O-])c6F)c6nc(c(-c7cccc(S(=O)(=O)[O-])c7F)c7ccc4[nH]7)C=C6)C=C5)cc3)c3c2[C@H](c2cc(OC)c(OC)c(OC)c2)CC(=O)N3)c1
REMARK SMILES IDX 17 1 16 2 15 3 14 4 13 5 11 6 12 7 10 9 8 10 9 11 87 12
REMARK SMILES IDX 86 13 88 14 104 15 101 16 102 17 103 19 7 20 3 21 4 22
REMARK SMILES IDX 105 23 5 24 6 25 2 26 1 27 89 28 90 29 100 30 91 31 97 32
REMARK SMILES IDX 94 33 92 34 93 35 98 36 99 37 95 38 96 39 18 40 19 41 20 42
REMARK SMILES IDX 21 43 22 45 23 46 24 47 85 48 25 49 84 50 26 51 27 52 28 53
REMARK SMILES IDX 78 54 29 55 83 56 77 57 79 58 30 59 82 60 76 61 75 62 31 64
REMARK SMILES IDX 63 65 43 66 62 67 44 68 47 69 61 70 80 71 45 72 46 73 60 75
REMARK SMILES IDX 81 76 48 77 32 78 33 79 41 80 34 81 36 82 42 83 35 84 37 85
REMARK SMILES IDX 38 86 39 87 40 88 64 89 65 90 73 91 66 92 68 93 74 94 67 95
REMARK SMILES IDX 69 96 70 97 71 98 72 99 49 100 50 101 58 102 51 103 53 104
REMARK SMILES IDX 59 105 52 106 54 107 55 108 56 109 57 110
REMARK H PARENT 13 8 104 18 20 44 79 63 47 74
REMARK Flexibility Score: inf
ROOT
ATOM      1  C   UNL A   1      37.028  33.767  31.775  1.00  0.00     0.002 C 
ENDROOT
BRANCH   1   2
ATOM      2  C   UNL A   1      37.592  33.024  32.997  1.00  0.00     0.002 C 
BRANCH   2   3
ATOM      3  C   UNL A   1      38.640  31.956  32.676  1.00  0.00     0.021 C 
BRANCH   3   4
ATOM      4  C   UNL A   1      39.683  31.770  33.783  1.00  0.00     0.116 C 
BRANCH   4   5
ATOM      5  N   UNL A   1      39.728  32.941  34.619  1.00  0.00    -0.352 N 
ATOM      6  C   UNL A   1      40.524  34.050  34.616  1.00  0.00     0.254 C 
ATOM      7  O   UNL A   1      40.243  34.886  35.483  1.00  0.00    -0.269 OA
ATOM      8  H   UNL A   1      39.050  32.943  35.332  1.00  0.00     0.163 HD
BRANCH   6   9
ATOM      9  C   UNL A   1      41.569  34.322  33.621  1.00  0.00     0.081 A 
ATOM     10  N   UNL A   1      43.737  34.654  33.021  1.00  0.00    -0.317 N 
ATOM     11  C   UNL A   1      42.891  34.339  34.051  1.00  0.00     0.107 A 
ATOM     12  C   UNL A   1      42.982  34.879  31.891  1.00  0.00     0.055 A 
ATOM     13  C   UNL A   1      41.676  34.531  32.210  1.00  0.00     0.076 A 
ATOM     14  C   UNL A   1      43.464  35.216  30.489  1.00  0.00     0.078 C 
ATOM     15  N   UNL A   1      40.761  34.443  31.188  1.00  0.00    -0.324 N 
ATOM     16  C   UNL A   1      42.553  34.463  29.498  1.00  0.00     0.115 C 
ATOM     17  C   UNL A   1      41.084  34.579  29.865  1.00  0.00     0.225 C 
ATOM     18  H   UNL A   1      39.820  34.272  31.421  1.00  0.00     0.170 HD
ATOM     19  O   UNL A   1      40.197  34.756  29.030  1.00  0.00    -0.275 OA
BRANCH  10  20
ATOM     20  C   UNL A   1      45.132  34.696  33.182  1.00  0.00     0.049 A 
ATOM     21  C   UNL A   1      47.063  35.421  34.427  1.00  0.00     0.120 A 
ATOM     22  C   UNL A   1      47.878  34.809  33.467  1.00  0.00     0.046 A 
ATOM     23  C   UNL A   1      45.677  35.354  34.292  1.00  0.00     0.073 A 
ATOM     24  C   UNL A   1      47.326  34.208  32.336  1.00  0.00     0.006 A 
ATOM     25  C   UNL A   1      45.946  34.198  32.169  1.00  0.00     0.027 A 
BRANCH  21  26
ATOM     26  O   UNL A   1      47.752  36.055  35.425  1.00  0.00    -0.497 OA
ATOM     27  C   UNL A   1      47.839  37.474  35.351  1.00  0.00     0.278 C 
ENDBRANCH  21  26
ENDBRANCH  10  20
BRANCH  14  28
ATOM     28  C   UNL A   1      43.544  36.728  30.212  1.00  0.00    -0.031 A 
ATOM     29  C   UNL A   1      44.015  37.581  31.211  1.00  0.00     0.055 A 
ATOM     30  C   UNL A   1      43.174  37.337  29.003  1.00  0.00     0.055 A 
ATOM     31  C   UNL A   1      43.930  38.974  31.110  1.00  0.00     0.164 A 
ATOM     32  C   UNL A   1      43.220  38.736  28.815  1.00  0.00     0.164 A 
ATOM     33  C   UNL A   1      43.564  39.575  29.894  1.00  0.00     0.203 A 
BRANCH  31  34
ATOM     34  O   UNL A   1      44.280  39.631  32.268  1.00  0.00    -0.493 OA
ATOM     35  C   UNL A   1      45.145  38.908  33.140  1.00  0.00     0.278 C 
ENDBRANCH  31  34
BRANCH  32  36
ATOM     36  O   UNL A   1      42.883  39.321  27.618  1.00  0.00    -0.493 OA
ATOM     37  C   UNL A   1      43.908  39.454  26.636  1.00  0.00     0.278 C 
ENDBRANCH  32  36
BRANCH  33  38
ATOM     38  O   UNL A   1      43.576  40.946  29.892  1.00  0.00    -0.490 OA
ATOM     39  C   UNL A   1      42.507  41.646  30.505  1.00  0.00     0.278 C 
ENDBRANCH  33  38
ENDBRANCH  14  28
ENDBRANCH   6   9
ENDBRANCH   4   5
ENDBRANCH   3   4
ENDBRANCH   2   3
ENDBRANCH   1   2
BRANCH   1  40
ATOM     40  C   UNL A   1      35.497  33.898  31.706  1.00  0.00     0.021 C 
BRANCH  40  41
ATOM     41  C   UNL A   1      34.797  32.567  31.493  1.00  0.00     0.116 C 
BRANCH  41  42
ATOM     42  N   UNL A   1      34.393  32.391  30.092  1.00  0.00    -0.352 N 
ATOM     43  C   UNL A   1      35.134  31.946  29.009  1.00  0.00     0.251 C 
ATOM     44  H   UNL A   1      33.458  32.622  29.892  1.00  0.00     0.163 HD
ATOM     45  O   UNL A   1      34.776  32.166  27.867  1.00  0.00    -0.269 OA
BRANCH  43  46
ATOM     46  C   UNL A   1      36.363  31.181  29.282  1.00  0.00     0.039 A 
ATOM     47  C   UNL A   1      36.348  29.817  29.586  1.00  0.00     0.014 A 
ATOM     48  C   UNL A   1      37.558  31.878  29.184  1.00  0.00     0.014 A 
ATOM     49  C   UNL A   1      37.566  29.160  29.731  1.00  0.00     0.010 A 
ATOM     50  C   UNL A   1      38.722  31.186  29.054  1.00  0.00     0.010 A 
ATOM     51  C   UNL A   1      38.748  29.862  29.456  1.00  0.00    -0.014 A 
BRANCH  51  52
ATOM     52  C   UNL A   1      40.060  29.242  29.513  1.00  0.00     0.031 A 
ATOM     53  C   UNL A   1      40.564  29.022  30.889  1.00  0.00     0.074 A 
ATOM     54  C   UNL A   1      40.625  28.685  28.418  1.00  0.00     0.049 A 
ATOM     55  N   UNL A   1      41.521  29.653  31.481  1.00  0.00    -0.248 NA
ATOM     56  C   UNL A   1      39.806  28.121  31.773  1.00  0.00     0.031 C 
ATOM     57  C   UNL A   1      40.051  28.537  27.069  1.00  0.00     0.029 A 
ATOM     58  N   UNL A   1      41.776  27.974  28.321  1.00  0.00    -0.354 N 
ATOM     59  C   UNL A   1      41.663  29.025  32.714  1.00  0.00     0.074 A 
ATOM     60  C   UNL A   1      40.445  28.292  32.932  1.00  0.00     0.031 C 
ATOM     61  C   UNL A   1      40.712  27.568  26.399  1.00  0.00     0.029 A 
ATOM     62  C   UNL A   1      41.861  27.172  27.186  1.00  0.00     0.049 A 
ATOM     63  H   UNL A   1      42.491  28.021  28.996  1.00  0.00     0.167 HD
ATOM     64  C   UNL A   1      42.887  28.908  33.301  1.00  0.00     0.034 A 
ATOM     65  C   UNL A   1      42.787  26.213  26.945  1.00  0.00     0.034 A 
ATOM     66  C   UNL A   1      43.860  29.758  32.655  1.00  0.00     0.049 A 
ATOM     67  C   UNL A   1      43.943  26.508  27.825  1.00  0.00     0.074 A 
ATOM     68  C   UNL A   1      43.957  31.108  32.389  1.00  0.00     0.029 A 
ATOM     69  N   UNL A   1      44.742  29.142  31.800  1.00  0.00    -0.354 N 
ATOM     70  N   UNL A   1      44.673  27.583  27.711  1.00  0.00    -0.248 NA
ATOM     71  C   UNL A   1      43.995  25.847  29.119  1.00  0.00     0.031 C 
ATOM     72  C   UNL A   1      44.512  31.183  31.076  1.00  0.00     0.029 A 
ATOM     73  C   UNL A   1      44.795  29.883  30.649  1.00  0.00     0.049 A 
ATOM     74  H   UNL A   1      45.246  28.316  31.980  1.00  0.00     0.167 HD
ATOM     75  C   UNL A   1      44.884  27.992  29.022  1.00  0.00     0.074 A 
ATOM     76  C   UNL A   1      44.544  26.829  29.841  1.00  0.00     0.031 C 
ATOM     77  C   UNL A   1      45.019  29.316  29.336  1.00  0.00     0.034 A 
BRANCH  64  78
ATOM     78  C   UNL A   1      43.325  27.750  34.170  1.00  0.00     0.023 A 
ATOM     79  C   UNL A   1      43.756  28.062  35.480  1.00  0.00     0.012 A 
ATOM     80  C   UNL A   1      43.605  26.445  33.700  1.00  0.00     0.148 A 
ATOM     81  C   UNL A   1      44.482  27.149  36.252  1.00  0.00     0.002 A 
ATOM     82  C   UNL A   1      44.255  25.514  34.503  1.00  0.00     0.091 A 
ATOM     83  F   UNL A   1      43.377  26.126  32.424  1.00  0.00    -0.205 F 
ATOM     84  C   UNL A   1      44.727  25.872  35.766  1.00  0.00     0.022 A 
BRANCH  82  85
ATOM     85  S   UNL A   1      44.557  23.835  33.937  1.00  0.00     0.127 S 
ATOM     86  O   UNL A   1      44.163  23.926  32.535  1.00  0.00    -0.237 OA
ATOM     87  O   UNL A   1      45.994  23.695  34.173  1.00  0.00    -0.237 OA
ATOM     88  O   UNL A   1      43.730  22.984  34.784  1.00  0.00    -0.744 OA
ENDBRANCH  82  85
ENDBRANCH  64  78
BRANCH  65  89
ATOM     89  C   UNL A   1      42.645  24.922  26.233  1.00  0.00     0.023 A 
ATOM     90  C   UNL A   1      43.644  24.509  25.330  1.00  0.00     0.012 A 
ATOM     91  C   UNL A   1      41.688  23.969  26.651  1.00  0.00     0.148 A 
ATOM     92  C   UNL A   1      43.713  23.181  24.888  1.00  0.00     0.002 A 
ATOM     93  C   UNL A   1      41.759  22.651  26.208  1.00  0.00     0.091 A 
ATOM     94  F   UNL A   1      40.766  24.333  27.552  1.00  0.00    -0.205 F 
ATOM     95  C   UNL A   1      42.779  22.251  25.335  1.00  0.00     0.022 A 
BRANCH  93  96
ATOM     96  S   UNL A   1      40.605  21.385  26.765  1.00  0.00     0.127 S 
ATOM     97  O   UNL A   1      41.119  20.190  26.095  1.00  0.00    -0.237 OA
ATOM     98  O   UNL A   1      40.803  21.406  28.212  1.00  0.00    -0.237 OA
ATOM     99  O   UNL A   1      39.289  21.809  26.305  1.00  0.00    -0.744 OA
ENDBRANCH  93  96
ENDBRANCH  65  89
BRANCH  77 100
ATOM    100  C   UNL A   1      45.173  30.303  28.203  1.00  0.00     0.023 A 
ATOM    101  C   UNL A   1      44.077  30.769  27.444  1.00  0.00     0.012 A 
ATOM    102  C   UNL A   1      46.428  30.904  28.012  1.00  0.00     0.148 A 
ATOM    103  C   UNL A   1      44.234  31.793  26.505  1.00  0.00     0.002 A 
ATOM    104  C   UNL A   1      46.572  31.951  27.110  1.00  0.00     0.091 A 
ATOM    105  F   UNL A   1      47.459  30.458  28.745  1.00  0.00    -0.205 F 
ATOM    106  C   UNL A   1      45.481  32.393  26.347  1.00  0.00     0.022 A 
BRANCH 104 107
ATOM    107  S   UNL A   1      48.122  32.840  26.948  1.00  0.00     0.127 S 
ATOM    108  O   UNL A   1      49.042  31.777  26.552  1.00  0.00    -0.237 OA
ATOM    109  O   UNL A   1      47.818  33.811  25.895  1.00  0.00    -0.237 OA
ATOM    110  O   UNL A   1      48.379  33.439  28.252  1.00  0.00    -0.744 OA
ENDBRANCH 104 107
ENDBRANCH  77 100
ENDBRANCH  51  52
ENDBRANCH  43  46
ENDBRANCH  41  42
ENDBRANCH  40  41
ENDBRANCH   1  40
TORSDOF 22
ENDMDL
