MODEL 1
REMARK VINA RESULT:     -11.2      0.000      0.000
REMARK SMILES C=C[C@@H]1[C@@H](O)C[C@@H]2[C@@]3(CC[C@@]4(C)[C@@H]([C@H](C)CCC=C(C)C)CC[C@@]24C)C[C@@]13CCC(=O)NCCCCCCNC(=O)c1ccc(-c2c3nc(c(-c4cccc(S(=O)(=O)[O-])c4F)c4ccc([nH]4)c(-c4cccc(S(=O)(=O)[O-])c4F)c4nc(c(-c5cccc(S(=O)(=O)[O-])c5F)c5ccc2[nH]5)C=C4)C=C3)cc1
REMARK SMILES IDX 34 1 33 2 32 3 30 4 31 5 29 7 28 8 27 9 3 10 4 11 6 12 8 13
REMARK SMILES IDX 26 14 7 15 9 16 24 17 10 18 11 19 23 20 25 21 12 22 13 23
REMARK SMILES IDX 22 24 2 25 1 26 5 27 14 29 15 30 16 31 17 32 18 33 19 34
REMARK SMILES IDX 20 35 21 36 35 37 36 38 37 39 38 40 39 41 40 42 41 44 42 45
REMARK SMILES IDX 43 46 104 47 44 48 103 49 45 50 46 51 47 52 97 53 48 54
REMARK SMILES IDX 102 55 96 56 98 57 49 58 101 59 95 60 94 61 50 63 82 64
REMARK SMILES IDX 62 65 81 66 63 67 66 68 80 69 99 70 64 71 65 72 79 74 100 75
REMARK SMILES IDX 67 76 51 77 52 78 60 79 53 80 55 81 61 82 54 83 56 84 57 85
REMARK SMILES IDX 58 86 59 87 83 88 84 89 92 90 85 91 87 92 93 93 86 94 88 95
REMARK SMILES IDX 89 96 90 97 91 98 68 99 69 100 77 101 70 102 72 103 78 104
REMARK SMILES IDX 71 105 73 106 74 107 75 108 76 109
REMARK H PARENT 32 6 5 28 39 43 98 62 66 73
REMARK Flexibility Score: inf
ROOT
ATOM      1  C   UNL A   1      34.775  29.934  27.807  1.00  0.00     0.021 C 
ENDROOT
BRANCH   1   2
ATOM      2  C   UNL A   1      33.972  28.959  26.117  1.00  0.00     0.116 C 
BRANCH   2   3
ATOM      3  N   UNL A   1      34.151  29.037  24.566  1.00  0.00    -0.356 N 
ATOM      4  C   UNL A   1      33.900  28.179  23.530  1.00  0.00     0.220 C 
ATOM      5  O   UNL A   1      34.069  28.612  22.387  1.00  0.00    -0.275 OA
ATOM      6  H   UNL A   1      34.528  29.896  24.269  1.00  0.00     0.163 HD
BRANCH   4   7
ATOM      7  C   UNL A   1      33.381  26.778  23.754  1.00  0.00     0.100 C 
BRANCH   7   8
ATOM      8  C   UNL A   1      32.274  26.353  22.785  1.00  0.00     0.018 C 
BRANCH   8   9
ATOM      9  C   UNL A   1      31.324  25.387  23.463  1.00  0.00    -0.014 C 
ATOM     10  C   UNL A   1      30.270  26.027  24.474  1.00  0.00     0.047 C 
ATOM     11  C   UNL A   1      30.207  25.408  25.898  1.00  0.00     0.122 C 
ATOM     12  C   UNL A   1      30.498  23.930  25.982  1.00  0.00     0.037 C 
ATOM     13  C   UNL A   1      31.940  23.959  23.619  1.00  0.00    -0.019 C 
ATOM     14  C   UNL A   1      30.730  24.194  22.758  1.00  0.00     0.016 C 
ATOM     15  C   UNL A   1      31.947  23.649  25.505  1.00  0.00     0.005 C 
ATOM     16  C   UNL A   1      33.363  23.330  22.480  1.00  0.00     0.008 C 
ATOM     17  C   UNL A   1      33.021  22.175  26.109  1.00  0.00    -0.023 C 
ATOM     18  C   UNL A   1      34.806  22.239  23.246  1.00  0.00     0.008 C 
ATOM     19  C   UNL A   1      34.715  21.702  25.124  1.00  0.00    -0.024 C 
ATOM     20  C   UNL A   1      33.620  22.193  27.528  1.00  0.00     0.008 C 
ATOM     21  C   UNL A   1      31.577  21.513  26.281  1.00  0.00     0.012 C 
ATOM     22  C   UNL A   1      35.413  20.281  24.978  1.00  0.00     0.012 C 
ATOM     23  C   UNL A   1      35.883  22.315  26.193  1.00  0.00    -0.002 C 
ATOM     24  C   UNL A   1      35.119  22.527  27.538  1.00  0.00     0.005 C 
BRANCH  10  25
ATOM     25  C   UNL A   1      30.325  27.541  24.680  1.00  0.00    -0.028 C 
ATOM     26  C   UNL A   1      29.835  28.430  23.802  1.00  0.00     0.004 C 
ENDBRANCH  10  25
BRANCH  11  27
ATOM     27  O   UNL A   1      28.899  25.567  26.474  1.00  0.00    -0.392 OA
ATOM     28  H   UNL A   1      28.850  25.072  27.306  1.00  0.00     0.210 HD
ENDBRANCH  11  27
BRANCH  23  29
ATOM     29  C   UNL A   1      36.826  23.531  25.823  1.00  0.00    -0.010 C 
ATOM     30  C   UNL A   1      37.226  23.710  24.335  1.00  0.00     0.008 C 
BRANCH  29  31
ATOM     31  C   UNL A   1      38.164  23.661  26.612  1.00  0.00     0.008 C 
BRANCH  31  32
ATOM     32  C   UNL A   1      39.072  22.460  26.228  1.00  0.00     0.027 C 
BRANCH  32  33
ATOM     33  C   UNL A   1      40.169  22.274  27.239  1.00  0.00    -0.028 C 
ATOM     34  C   UNL A   1      41.298  22.992  27.350  1.00  0.00    -0.080 C 
ATOM     35  C   UNL A   1      42.342  22.612  28.364  1.00  0.00     0.039 C 
ATOM     36  C   UNL A   1      41.593  24.196  26.509  1.00  0.00     0.039 C 
ENDBRANCH  32  33
ENDBRANCH  31  32
ENDBRANCH  29  31
ENDBRANCH  23  29
ENDBRANCH   8   9
ENDBRANCH   7   8
ENDBRANCH   4   7
ENDBRANCH   2   3
ENDBRANCH   1   2
BRANCH   1  37
ATOM     37  C   UNL A   1      34.803  31.657  28.573  1.00  0.00     0.002 C 
BRANCH  37  38
ATOM     38  C   UNL A   1      35.617  32.379  29.900  1.00  0.00     0.002 C 
BRANCH  38  39
ATOM     39  C   UNL A   1      35.362  31.958  31.435  1.00  0.00     0.021 C 
BRANCH  39  40
ATOM     40  C   UNL A   1      36.541  32.290  32.314  1.00  0.00     0.116 C 
BRANCH  40  41
ATOM     41  N   UNL A   1      36.731  31.140  33.173  1.00  0.00    -0.352 N 
ATOM     42  C   UNL A   1      37.476  30.038  32.818  1.00  0.00     0.251 C 
ATOM     43  H   UNL A   1      36.303  31.147  34.060  1.00  0.00     0.163 HD
ATOM     44  O   UNL A   1      37.205  28.925  33.175  1.00  0.00    -0.269 OA
BRANCH  42  45
ATOM     45  C   UNL A   1      38.642  30.370  31.978  1.00  0.00     0.039 A 
ATOM     46  C   UNL A   1      38.529  30.409  30.593  1.00  0.00     0.014 A 
ATOM     47  C   UNL A   1      39.777  30.846  32.646  1.00  0.00     0.014 A 
ATOM     48  C   UNL A   1      39.607  30.901  29.867  1.00  0.00     0.010 A 
ATOM     49  C   UNL A   1      40.761  31.486  31.930  1.00  0.00     0.010 A 
ATOM     50  C   UNL A   1      40.728  31.429  30.536  1.00  0.00    -0.014 A 
BRANCH  50  51
ATOM     51  C   UNL A   1      41.949  31.795  29.795  1.00  0.00     0.031 A 
ATOM     52  C   UNL A   1      42.200  33.250  29.495  1.00  0.00     0.074 A 
ATOM     53  C   UNL A   1      42.804  30.834  29.404  1.00  0.00     0.049 A 
ATOM     54  N   UNL A   1      43.237  33.802  28.927  1.00  0.00    -0.248 NA
ATOM     55  C   UNL A   1      41.134  34.216  29.835  1.00  0.00     0.031 C 
ATOM     56  C   UNL A   1      42.592  29.392  29.560  1.00  0.00     0.029 A 
ATOM     57  N   UNL A   1      44.028  30.930  28.803  1.00  0.00    -0.354 N 
ATOM     58  C   UNL A   1      42.932  35.154  28.823  1.00  0.00     0.074 A 
ATOM     59  C   UNL A   1      41.586  35.334  29.298  1.00  0.00     0.031 C 
ATOM     60  C   UNL A   1      43.678  28.740  29.114  1.00  0.00     0.029 A 
ATOM     61  C   UNL A   1      44.643  29.716  28.618  1.00  0.00     0.049 A 
ATOM     62  H   UNL A   1      44.430  31.786  28.530  1.00  0.00     0.167 HD
ATOM     63  C   UNL A   1      43.725  36.170  28.423  1.00  0.00     0.034 A 
ATOM     64  C   UNL A   1      45.861  29.437  28.119  1.00  0.00     0.034 A 
ATOM     65  C   UNL A   1      45.080  35.979  28.002  1.00  0.00     0.049 A 
ATOM     66  C   UNL A   1      46.744  30.588  27.724  1.00  0.00     0.074 A 
ATOM     67  C   UNL A   1      46.014  36.931  27.643  1.00  0.00     0.029 A 
ATOM     68  N   UNL A   1      45.692  34.741  27.881  1.00  0.00    -0.354 N 
ATOM     69  N   UNL A   1      46.498  31.876  27.779  1.00  0.00    -0.248 NA
ATOM     70  C   UNL A   1      48.089  30.253  27.242  1.00  0.00     0.031 C 
ATOM     71  C   UNL A   1      47.180  36.263  27.262  1.00  0.00     0.029 A 
ATOM     72  C   UNL A   1      46.989  34.899  27.435  1.00  0.00     0.049 A 
ATOM     73  H   UNL A   1      45.265  33.877  28.081  1.00  0.00     0.167 HD
ATOM     74  C   UNL A   1      47.667  32.506  27.370  1.00  0.00     0.074 A 
ATOM     75  C   UNL A   1      48.628  31.455  27.101  1.00  0.00     0.031 C 
ATOM     76  C   UNL A   1      47.926  33.829  27.216  1.00  0.00     0.034 A 
BRANCH  63  77
ATOM     77  C   UNL A   1      43.152  37.561  28.463  1.00  0.00     0.023 A 
ATOM     78  C   UNL A   1      42.329  38.018  27.411  1.00  0.00     0.012 A 
ATOM     79  C   UNL A   1      43.416  38.411  29.552  1.00  0.00     0.148 A 
ATOM     80  C   UNL A   1      41.809  39.312  27.425  1.00  0.00     0.002 A 
ATOM     81  C   UNL A   1      42.848  39.678  29.587  1.00  0.00     0.091 A 
ATOM     82  F   UNL A   1      44.228  37.971  30.523  1.00  0.00    -0.205 F 
ATOM     83  C   UNL A   1      42.059  40.136  28.519  1.00  0.00     0.022 A 
BRANCH  81  84
ATOM     84  S   UNL A   1      43.041  40.786  30.986  1.00  0.00     0.127 S 
ATOM     85  O   UNL A   1      44.453  41.154  30.880  1.00  0.00    -0.237 OA
ATOM     86  O   UNL A   1      42.103  41.858  30.654  1.00  0.00    -0.237 OA
ATOM     87  O   UNL A   1      42.690  40.009  32.167  1.00  0.00    -0.744 OA
ENDBRANCH  81  84
ENDBRANCH  63  77
BRANCH  64  88
ATOM     88  C   UNL A   1      46.332  28.027  28.030  1.00  0.00     0.023 A 
ATOM     89  C   UNL A   1      46.948  27.418  29.140  1.00  0.00     0.012 A 
ATOM     90  C   UNL A   1      46.156  27.282  26.848  1.00  0.00     0.148 A 
ATOM     91  C   UNL A   1      47.419  26.106  29.061  1.00  0.00     0.002 A 
ATOM     92  C   UNL A   1      46.574  25.959  26.795  1.00  0.00     0.091 A 
ATOM     93  F   UNL A   1      45.571  27.882  25.802  1.00  0.00    -0.205 F 
ATOM     94  C   UNL A   1      47.226  25.374  27.893  1.00  0.00     0.022 A 
BRANCH  92  95
ATOM     95  S   UNL A   1      46.247  24.906  25.379  1.00  0.00     0.127 S 
ATOM     96  O   UNL A   1      46.777  23.623  25.832  1.00  0.00    -0.237 OA
ATOM     97  O   UNL A   1      44.789  24.974  25.284  1.00  0.00    -0.237 OA
ATOM     98  O   UNL A   1      46.951  25.521  24.262  1.00  0.00    -0.744 OA
ENDBRANCH  92  95
ENDBRANCH  64  88
BRANCH  76  99
ATOM     99  C   UNL A   1      49.313  34.211  26.779  1.00  0.00     0.023 A 
ATOM    100  C   UNL A   1      49.598  34.391  25.412  1.00  0.00     0.012 A 
ATOM    101  C   UNL A   1      50.317  34.449  27.737  1.00  0.00     0.148 A 
ATOM    102  C   UNL A   1      50.879  34.752  25.002  1.00  0.00     0.002 A 
ATOM    103  C   UNL A   1      51.572  34.868  27.325  1.00  0.00     0.091 A 
ATOM    104  F   UNL A   1      50.023  34.259  29.032  1.00  0.00    -0.205 F 
ATOM    105  C   UNL A   1      51.862  35.002  25.957  1.00  0.00     0.022 A 
BRANCH 103 106
ATOM    106  S   UNL A   1      52.861  35.318  28.490  1.00  0.00     0.127 S 
ATOM    107  O   UNL A   1      52.089  35.945  29.561  1.00  0.00    -0.237 OA
ATOM    108  O   UNL A   1      53.435  34.016  28.832  1.00  0.00    -0.237 OA
ATOM    109  O   UNL A   1      53.765  36.204  27.768  1.00  0.00    -0.744 OA
ENDBRANCH 103 106
ENDBRANCH  76  99
ENDBRANCH  50  51
ENDBRANCH  42  45
ENDBRANCH  40  41
ENDBRANCH  39  40
ENDBRANCH  38  39
ENDBRANCH  37  38
ENDBRANCH   1  37
TORSDOF 24
ENDMDL
MODEL 2
REMARK VINA RESULT:     -10.8      5.225     10.771
REMARK SMILES C=C[C@@H]1[C@@H](O)C[C@@H]2[C@@]3(CC[C@@]4(C)[C@@H]([C@H](C)CCC=C(C)C)CC[C@@]24C)C[C@@]13CCC(=O)NCCCCCCNC(=O)c1ccc(-c2c3nc(c(-c4cccc(S(=O)(=O)[O-])c4F)c4ccc([nH]4)c(-c4cccc(S(=O)(=O)[O-])c4F)c4nc(c(-c5cccc(S(=O)(=O)[O-])c5F)c5ccc2[nH]5)C=C4)C=C3)cc1
REMARK SMILES IDX 34 1 33 2 32 3 30 4 31 5 29 7 28 8 27 9 3 10 4 11 6 12 8 13
REMARK SMILES IDX 26 14 7 15 9 16 24 17 10 18 11 19 23 20 25 21 12 22 13 23
REMARK SMILES IDX 22 24 2 25 1 26 5 27 14 29 15 30 16 31 17 32 18 33 19 34
REMARK SMILES IDX 20 35 21 36 35 37 36 38 37 39 38 40 39 41 40 42 41 44 42 45
REMARK SMILES IDX 43 46 104 47 44 48 103 49 45 50 46 51 47 52 97 53 48 54
REMARK SMILES IDX 102 55 96 56 98 57 49 58 101 59 95 60 94 61 50 63 82 64
REMARK SMILES IDX 62 65 81 66 63 67 66 68 80 69 99 70 64 71 65 72 79 74 100 75
REMARK SMILES IDX 67 76 51 77 52 78 60 79 53 80 55 81 61 82 54 83 56 84 57 85
REMARK SMILES IDX 58 86 59 87 83 88 84 89 92 90 85 91 87 92 93 93 86 94 88 95
REMARK SMILES IDX 89 96 90 97 91 98 68 99 69 100 77 101 70 102 72 103 78 104
REMARK SMILES IDX 71 105 73 106 74 107 75 108 76 109
REMARK H PARENT 32 6 5 28 39 43 98 62 66 73
REMARK Flexibility Score: inf
ROOT
ATOM      1  C   UNL A   1      41.498  27.765  33.388  1.00  0.00     0.021 C 
ENDROOT
BRANCH   1   2
ATOM      2  C   UNL A   1      40.606  29.552  32.710  1.00  0.00     0.116 C 
BRANCH   2   3
ATOM      3  N   UNL A   1      41.095  30.958  32.233  1.00  0.00    -0.356 N 
ATOM      4  C   UNL A   1      42.174  31.403  31.518  1.00  0.00     0.220 C 
ATOM      5  O   UNL A   1      42.199  32.602  31.224  1.00  0.00    -0.275 OA
ATOM      6  H   UNL A   1      40.492  31.686  32.508  1.00  0.00     0.163 HD
BRANCH   4   7
ATOM      7  C   UNL A   1      43.266  30.472  31.046  1.00  0.00     0.100 C 
BRANCH   7   8
ATOM      8  C   UNL A   1      43.126  30.023  29.589  1.00  0.00     0.018 C 
BRANCH   8   9
ATOM      9  C   UNL A   1      44.487  29.699  29.006  1.00  0.00    -0.014 C 
ATOM     10  C   UNL A   1      45.054  30.726  27.927  1.00  0.00     0.047 C 
ATOM     11  C   UNL A   1      45.524  30.124  26.573  1.00  0.00     0.122 C 
ATOM     12  C   UNL A   1      46.112  28.737  26.643  1.00  0.00     0.037 C 
ATOM     13  C   UNL A   1      44.782  28.164  29.002  1.00  0.00    -0.019 C 
ATOM     14  C   UNL A   1      45.609  29.113  29.825  1.00  0.00     0.016 C 
ATOM     15  C   UNL A   1      45.046  27.736  27.158  1.00  0.00     0.005 C 
ATOM     16  C   UNL A   1      43.896  26.950  30.210  1.00  0.00     0.008 C 
ATOM     17  C   UNL A   1      45.010  25.867  26.717  1.00  0.00    -0.023 C 
ATOM     18  C   UNL A   1      43.350  25.175  29.572  1.00  0.00     0.008 C 
ATOM     19  C   UNL A   1      43.821  24.616  27.758  1.00  0.00    -0.024 C 
ATOM     20  C   UNL A   1      44.576  25.420  25.308  1.00  0.00     0.008 C 
ATOM     21  C   UNL A   1      46.584  26.116  26.602  1.00  0.00     0.012 C 
ATOM     22  C   UNL A   1      44.029  23.068  28.055  1.00  0.00     0.012 C 
ATOM     23  C   UNL A   1      42.566  24.370  26.641  1.00  0.00    -0.002 C 
ATOM     24  C   UNL A   1      43.149  24.853  25.276  1.00  0.00     0.005 C 
BRANCH  10  25
ATOM     25  C   UNL A   1      44.174  31.923  27.566  1.00  0.00    -0.028 C 
ATOM     26  C   UNL A   1      44.283  33.129  28.147  1.00  0.00     0.004 C 
ENDBRANCH  10  25
BRANCH  11  27
ATOM     27  O   UNL A   1      46.548  30.937  25.973  1.00  0.00    -0.392 OA
ATOM     28  H   UNL A   1      47.241  31.117  26.627  1.00  0.00     0.210 HD
ENDBRANCH  11  27
BRANCH  23  29
ATOM     29  C   UNL A   1      41.087  24.876  26.891  1.00  0.00    -0.010 C 
ATOM     30  C   UNL A   1      39.932  23.860  26.691  1.00  0.00     0.008 C 
BRANCH  29  31
ATOM     31  C   UNL A   1      40.631  26.153  26.122  1.00  0.00     0.008 C 
BRANCH  31  32
ATOM     32  C   UNL A   1      41.463  27.357  26.643  1.00  0.00     0.027 C 
BRANCH  32  33
ATOM     33  C   UNL A   1      40.563  28.481  27.074  1.00  0.00    -0.028 C 
ATOM     34  C   UNL A   1      39.816  28.539  28.188  1.00  0.00    -0.080 C 
ATOM     35  C   UNL A   1      38.892  29.703  28.423  1.00  0.00     0.039 C 
ATOM     36  C   UNL A   1      39.854  27.491  29.259  1.00  0.00     0.039 C 
ENDBRANCH  32  33
ENDBRANCH  31  32
ENDBRANCH  29  31
ENDBRANCH  23  29
ENDBRANCH   8   9
ENDBRANCH   7   8
ENDBRANCH   4   7
ENDBRANCH   2   3
ENDBRANCH   1   2
BRANCH   1  37
ATOM     37  C   UNL A   1      41.681  26.788  34.991  1.00  0.00     0.002 C 
BRANCH  37  38
ATOM     38  C   UNL A   1      41.500  25.139  35.431  1.00  0.00     0.002 C 
BRANCH  38  39
ATOM     39  C   UNL A   1      42.743  24.139  35.665  1.00  0.00     0.021 C 
BRANCH  39  40
ATOM     40  C   UNL A   1      43.640  24.608  36.782  1.00  0.00     0.116 C 
BRANCH  40  41
ATOM     41  N   UNL A   1      44.915  23.955  36.567  1.00  0.00    -0.352 N 
ATOM     42  C   UNL A   1      45.730  24.210  35.487  1.00  0.00     0.251 C 
ATOM     43  H   UNL A   1      45.214  23.290  37.229  1.00  0.00     0.163 HD
ATOM     44  O   UNL A   1      46.418  23.370  34.975  1.00  0.00    -0.269 OA
BRANCH  42  45
ATOM     45  C   UNL A   1      45.685  25.616  35.044  1.00  0.00     0.039 A 
ATOM     46  C   UNL A   1      45.134  25.952  33.812  1.00  0.00     0.014 A 
ATOM     47  C   UNL A   1      46.015  26.584  36.001  1.00  0.00     0.014 A 
ATOM     48  C   UNL A   1      44.955  27.301  33.527  1.00  0.00     0.010 A 
ATOM     49  C   UNL A   1      45.674  27.896  35.777  1.00  0.00     0.010 A 
ATOM     50  C   UNL A   1      45.236  28.274  34.506  1.00  0.00    -0.014 A 
BRANCH  50  51
ATOM     51  C   UNL A   1      45.219  29.710  34.174  1.00  0.00     0.031 A 
ATOM     52  C   UNL A   1      46.294  30.252  33.267  1.00  0.00     0.074 A 
ATOM     53  C   UNL A   1      44.259  30.500  34.684  1.00  0.00     0.049 A 
ATOM     54  N   UNL A   1      46.428  31.458  32.787  1.00  0.00    -0.248 NA
ATOM     55  C   UNL A   1      47.388  29.339  32.877  1.00  0.00     0.031 C 
ATOM     56  C   UNL A   1      43.239  30.084  35.652  1.00  0.00     0.029 A 
ATOM     57  N   UNL A   1      43.979  31.817  34.449  1.00  0.00    -0.354 N 
ATOM     58  C   UNL A   1      47.620  31.445  32.073  1.00  0.00     0.074 A 
ATOM     59  C   UNL A   1      48.221  30.150  32.251  1.00  0.00     0.031 C 
ATOM     60  C   UNL A   1      42.412  31.115  35.886  1.00  0.00     0.029 A 
ATOM     61  C   UNL A   1      42.861  32.265  35.109  1.00  0.00     0.049 A 
ATOM     62  H   UNL A   1      44.525  32.388  33.863  1.00  0.00     0.167 HD
ATOM     63  C   UNL A   1      48.143  32.409  31.285  1.00  0.00     0.034 A 
ATOM     64  C   UNL A   1      42.264  33.471  35.067  1.00  0.00     0.034 A 
ATOM     65  C   UNL A   1      47.505  33.674  31.078  1.00  0.00     0.049 A 
ATOM     66  C   UNL A   1      42.837  34.513  34.146  1.00  0.00     0.074 A 
ATOM     67  C   UNL A   1      47.891  34.708  30.248  1.00  0.00     0.029 A 
ATOM     68  N   UNL A   1      46.343  34.075  31.718  1.00  0.00    -0.354 N 
ATOM     69  N   UNL A   1      43.881  34.433  33.354  1.00  0.00    -0.248 NA
ATOM     70  C   UNL A   1      42.127  35.794  34.077  1.00  0.00     0.031 C 
ATOM     71  C   UNL A   1      46.982  35.754  30.419  1.00  0.00     0.029 A 
ATOM     72  C   UNL A   1      46.001  35.351  31.315  1.00  0.00     0.049 A 
ATOM     73  H   UNL A   1      45.836  33.533  32.364  1.00  0.00     0.167 HD
ATOM     74  C   UNL A   1      43.934  35.640  32.669  1.00  0.00     0.074 A 
ATOM     75  C   UNL A   1      42.797  36.419  33.120  1.00  0.00     0.031 C 
ATOM     76  C   UNL A   1      44.841  36.077  31.760  1.00  0.00     0.034 A 
BRANCH  63  77
ATOM     77  C   UNL A   1      49.435  32.107  30.575  1.00  0.00     0.023 A 
ATOM     78  C   UNL A   1      50.658  32.575  31.101  1.00  0.00     0.012 A 
ATOM     79  C   UNL A   1      49.439  31.343  29.394  1.00  0.00     0.148 A 
ATOM     80  C   UNL A   1      51.860  32.320  30.442  1.00  0.00     0.002 A 
ATOM     81  C   UNL A   1      50.645  31.045  28.773  1.00  0.00     0.091 A 
ATOM     82  F   UNL A   1      48.264  30.938  28.892  1.00  0.00    -0.205 F 
ATOM     83  C   UNL A   1      51.854  31.545  29.286  1.00  0.00     0.022 A 
BRANCH  81  84
ATOM     84  S   UNL A   1      50.753  29.987  27.327  1.00  0.00     0.127 S 
ATOM     85  O   UNL A   1      50.274  28.711  27.858  1.00  0.00    -0.237 OA
ATOM     86  O   UNL A   1      49.833  30.648  26.401  1.00  0.00    -0.237 OA
ATOM     87  O   UNL A   1      52.150  30.003  26.918  1.00  0.00    -0.744 OA
ENDBRANCH  81  84
ENDBRANCH  63  77
BRANCH  64  88
ATOM     88  C   UNL A   1      41.033  33.727  35.864  1.00  0.00     0.023 A 
ATOM     89  C   UNL A   1      41.133  34.262  37.162  1.00  0.00     0.012 A 
ATOM     90  C   UNL A   1      39.759  33.456  35.329  1.00  0.00     0.148 A 
ATOM     91  C   UNL A   1      39.987  34.481  37.931  1.00  0.00     0.002 A 
ATOM     92  C   UNL A   1      38.621  33.731  36.076  1.00  0.00     0.091 A 
ATOM     93  F   UNL A   1      39.687  32.944  34.092  1.00  0.00    -0.205 F 
ATOM     94  C   UNL A   1      38.732  34.223  37.387  1.00  0.00     0.022 A 
BRANCH  92  95
ATOM     95  S   UNL A   1      36.966  33.553  35.405  1.00  0.00     0.127 S 
ATOM     96  O   UNL A   1      37.009  32.199  34.860  1.00  0.00    -0.237 OA
ATOM     97  O   UNL A   1      36.139  33.713  36.600  1.00  0.00    -0.237 OA
ATOM     98  O   UNL A   1      36.823  34.624  34.427  1.00  0.00    -0.744 OA
ENDBRANCH  92  95
ENDBRANCH  64  88
BRANCH  76  99
ATOM     99  C   UNL A   1      44.614  37.438  31.163  1.00  0.00     0.023 A 
ATOM    100  C   UNL A   1      45.176  38.578  31.770  1.00  0.00     0.012 A 
ATOM    101  C   UNL A   1      43.890  37.573  29.963  1.00  0.00     0.148 A 
ATOM    102  C   UNL A   1      44.975  39.840  31.217  1.00  0.00     0.002 A 
ATOM    103  C   UNL A   1      43.748  38.825  29.386  1.00  0.00     0.091 A 
ATOM    104  F   UNL A   1      43.355  36.474  29.411  1.00  0.00    -0.205 F 
ATOM    105  C   UNL A   1      44.272  39.963  30.021  1.00  0.00     0.022 A 
BRANCH 103 106
ATOM    106  S   UNL A   1      42.954  39.061  27.793  1.00  0.00     0.127 S 
ATOM    107  O   UNL A   1      41.573  39.332  28.187  1.00  0.00    -0.237 OA
ATOM    108  O   UNL A   1      43.675  40.217  27.258  1.00  0.00    -0.237 OA
ATOM    109  O   UNL A   1      43.163  37.824  27.053  1.00  0.00    -0.744 OA
ENDBRANCH 103 106
ENDBRANCH  76  99
ENDBRANCH  50  51
ENDBRANCH  42  45
ENDBRANCH  40  41
ENDBRANCH  39  40
ENDBRANCH  38  39
ENDBRANCH  37  38
ENDBRANCH   1  37
TORSDOF 24
ENDMDL
MODEL 3
REMARK VINA RESULT:     -10.8      4.956      9.955
REMARK SMILES C=C[C@@H]1[C@@H](O)C[C@@H]2[C@@]3(CC[C@@]4(C)[C@@H]([C@H](C)CCC=C(C)C)CC[C@@]24C)C[C@@]13CCC(=O)NCCCCCCNC(=O)c1ccc(-c2c3nc(c(-c4cccc(S(=O)(=O)[O-])c4F)c4ccc([nH]4)c(-c4cccc(S(=O)(=O)[O-])c4F)c4nc(c(-c5cccc(S(=O)(=O)[O-])c5F)c5ccc2[nH]5)C=C4)C=C3)cc1
REMARK SMILES IDX 34 1 33 2 32 3 30 4 31 5 29 7 28 8 27 9 3 10 4 11 6 12 8 13
REMARK SMILES IDX 26 14 7 15 9 16 24 17 10 18 11 19 23 20 25 21 12 22 13 23
REMARK SMILES IDX 22 24 2 25 1 26 5 27 14 29 15 30 16 31 17 32 18 33 19 34
REMARK SMILES IDX 20 35 21 36 35 37 36 38 37 39 38 40 39 41 40 42 41 44 42 45
REMARK SMILES IDX 43 46 104 47 44 48 103 49 45 50 46 51 47 52 97 53 48 54
REMARK SMILES IDX 102 55 96 56 98 57 49 58 101 59 95 60 94 61 50 63 82 64
REMARK SMILES IDX 62 65 81 66 63 67 66 68 80 69 99 70 64 71 65 72 79 74 100 75
REMARK SMILES IDX 67 76 51 77 52 78 60 79 53 80 55 81 61 82 54 83 56 84 57 85
REMARK SMILES IDX 58 86 59 87 83 88 84 89 92 90 85 91 87 92 93 93 86 94 88 95
REMARK SMILES IDX 89 96 90 97 91 98 68 99 69 100 77 101 70 102 72 103 78 104
REMARK SMILES IDX 71 105 73 106 74 107 75 108 76 109
REMARK H PARENT 32 6 5 28 39 43 98 62 66 73
REMARK Flexibility Score: inf
ROOT
ATOM      1  C   UNL A   1      35.896  32.208  32.924  1.00  0.00     0.021 C 
ENDROOT
BRANCH   1   2
ATOM      2  C   UNL A   1      34.669  32.745  31.294  1.00  0.00     0.116 C 
BRANCH   2   3
ATOM      3  N   UNL A   1      34.876  33.142  29.796  1.00  0.00    -0.356 N 
ATOM      4  C   UNL A   1      35.435  32.523  28.712  1.00  0.00     0.220 C 
ATOM      5  O   UNL A   1      35.336  33.096  27.623  1.00  0.00    -0.275 OA
ATOM      6  H   UNL A   1      34.526  34.038  29.587  1.00  0.00     0.163 HD
BRANCH   4   7
ATOM      7  C   UNL A   1      36.094  31.168  28.811  1.00  0.00     0.100 C 
BRANCH   7   8
ATOM      8  C   UNL A   1      37.620  31.196  28.673  1.00  0.00     0.018 C 
BRANCH   8   9
ATOM      9  C   UNL A   1      38.272  31.097  30.037  1.00  0.00    -0.014 C 
ATOM     10  C   UNL A   1      38.654  32.476  30.738  1.00  0.00     0.047 C 
ATOM     11  C   UNL A   1      40.119  32.621  31.239  1.00  0.00     0.122 C 
ATOM     12  C   UNL A   1      40.775  31.350  31.718  1.00  0.00     0.037 C 
ATOM     13  C   UNL A   1      39.072  29.765  30.217  1.00  0.00    -0.019 C 
ATOM     14  C   UNL A   1      37.868  30.070  31.064  1.00  0.00     0.016 C 
ATOM     15  C   UNL A   1      40.866  30.330  30.552  1.00  0.00     0.005 C 
ATOM     16  C   UNL A   1      38.680  28.189  29.176  1.00  0.00     0.008 C 
ATOM     17  C   UNL A   1      42.216  28.972  30.402  1.00  0.00    -0.023 C 
ATOM     18  C   UNL A   1      40.155  27.060  28.536  1.00  0.00     0.008 C 
ATOM     19  C   UNL A   1      41.990  27.480  29.067  1.00  0.00    -0.024 C 
ATOM     20  C   UNL A   1      43.656  29.361  30.017  1.00  0.00     0.008 C 
ATOM     21  C   UNL A   1      42.169  29.097  31.994  1.00  0.00     0.012 C 
ATOM     22  C   UNL A   1      42.540  25.989  29.143  1.00  0.00     0.012 C 
ATOM     23  C   UNL A   1      43.083  27.965  27.863  1.00  0.00    -0.002 C 
ATOM     24  C   UNL A   1      43.993  29.028  28.556  1.00  0.00     0.005 C 
BRANCH  10  25
ATOM     25  C   UNL A   1      38.347  33.763  29.972  1.00  0.00    -0.028 C 
ATOM     26  C   UNL A   1      39.277  34.485  29.327  1.00  0.00     0.004 C 
ENDBRANCH  10  25
BRANCH  11  27
ATOM     27  O   UNL A   1      40.198  33.527  32.353  1.00  0.00    -0.392 OA
ATOM     28  H   UNL A   1      41.072  33.456  32.766  1.00  0.00     0.210 HD
ENDBRANCH  11  27
BRANCH  23  29
ATOM     29  C   UNL A   1      42.621  28.403  26.414  1.00  0.00    -0.010 C 
ATOM     30  C   UNL A   1      41.160  28.895  26.239  1.00  0.00     0.008 C 
BRANCH  29  31
ATOM     31  C   UNL A   1      42.836  27.380  25.257  1.00  0.00     0.008 C 
BRANCH  31  32
ATOM     32  C   UNL A   1      41.847  26.199  25.464  1.00  0.00     0.027 C 
BRANCH  32  33
ATOM     33  C   UNL A   1      42.591  24.901  25.616  1.00  0.00    -0.028 C 
ATOM     34  C   UNL A   1      42.160  23.788  26.232  1.00  0.00    -0.080 C 
ATOM     35  C   UNL A   1      43.072  22.601  26.378  1.00  0.00     0.039 C 
ATOM     36  C   UNL A   1      40.778  23.640  26.791  1.00  0.00     0.039 C 
ENDBRANCH  32  33
ENDBRANCH  31  32
ENDBRANCH  29  31
ENDBRANCH  23  29
ENDBRANCH   8   9
ENDBRANCH   7   8
ENDBRANCH   4   7
ENDBRANCH   2   3
ENDBRANCH   1   2
BRANCH   1  37
ATOM     37  C   UNL A   1      37.181  32.999  34.056  1.00  0.00     0.002 C 
BRANCH  37  38
ATOM     38  C   UNL A   1      38.124  32.455  35.383  1.00  0.00     0.002 C 
BRANCH  38  39
ATOM     39  C   UNL A   1      38.186  33.219  36.801  1.00  0.00     0.021 C 
BRANCH  39  40
ATOM     40  C   UNL A   1      39.466  32.928  37.542  1.00  0.00     0.116 C 
BRANCH  40  41
ATOM     41  N   UNL A   1      40.029  34.218  37.883  1.00  0.00    -0.352 N 
ATOM     42  C   UNL A   1      41.381  34.478  37.910  1.00  0.00     0.251 C 
ATOM     43  H   UNL A   1      39.410  34.950  38.110  1.00  0.00     0.163 HD
ATOM     44  O   UNL A   1      41.884  35.243  38.686  1.00  0.00    -0.269 OA
BRANCH  42  45
ATOM     45  C   UNL A   1      42.136  33.737  36.882  1.00  0.00     0.039 A 
ATOM     46  C   UNL A   1      41.720  33.744  35.556  1.00  0.00     0.014 A 
ATOM     47  C   UNL A   1      43.382  33.228  37.269  1.00  0.00     0.014 A 
ATOM     48  C   UNL A   1      42.565  33.183  34.606  1.00  0.00     0.010 A 
ATOM     49  C   UNL A   1      44.278  32.834  36.303  1.00  0.00     0.010 A 
ATOM     50  C   UNL A   1      43.840  32.717  34.982  1.00  0.00    -0.014 A 
BRANCH  50  51
ATOM     51  C   UNL A   1      44.682  31.964  34.035  1.00  0.00     0.031 A 
ATOM     52  C   UNL A   1      44.695  30.460  34.120  1.00  0.00     0.074 A 
ATOM     53  C   UNL A   1      45.418  32.628  33.126  1.00  0.00     0.049 A 
ATOM     54  N   UNL A   1      45.298  29.601  33.345  1.00  0.00    -0.248 NA
ATOM     55  C   UNL A   1      43.970  29.829  35.243  1.00  0.00     0.031 C 
ATOM     56  C   UNL A   1      45.548  34.086  33.037  1.00  0.00     0.029 A 
ATOM     57  N   UNL A   1      46.186  32.160  32.097  1.00  0.00    -0.354 N 
ATOM     58  C   UNL A   1      45.048  28.353  33.902  1.00  0.00     0.074 A 
ATOM     59  C   UNL A   1      44.318  28.561  35.125  1.00  0.00     0.031 C 
ATOM     60  C   UNL A   1      46.308  34.392  31.974  1.00  0.00     0.029 A 
ATOM     61  C   UNL A   1      46.737  33.156  31.329  1.00  0.00     0.049 A 
ATOM     62  H   UNL A   1      46.329  31.202  31.923  1.00  0.00     0.167 HD
ATOM     63  C   UNL A   1      45.346  27.133  33.409  1.00  0.00     0.034 A 
ATOM     64  C   UNL A   1      47.489  33.065  30.216  1.00  0.00     0.034 A 
ATOM     65  C   UNL A   1      46.027  26.943  32.164  1.00  0.00     0.049 A 
ATOM     66  C   UNL A   1      47.768  31.697  29.659  1.00  0.00     0.074 A 
ATOM     67  C   UNL A   1      46.324  25.761  31.515  1.00  0.00     0.029 A 
ATOM     68  N   UNL A   1      46.522  27.974  31.381  1.00  0.00    -0.354 N 
ATOM     69  N   UNL A   1      47.390  30.525  30.115  1.00  0.00    -0.248 NA
ATOM     70  C   UNL A   1      48.538  31.637  28.412  1.00  0.00     0.031 C 
ATOM     71  C   UNL A   1      47.039  26.077  30.358  1.00  0.00     0.029 A 
ATOM     72  C   UNL A   1      47.140  27.457  30.259  1.00  0.00     0.049 A 
ATOM     73  H   UNL A   1      46.446  28.932  31.592  1.00  0.00     0.167 HD
ATOM     74  C   UNL A   1      47.846  29.592  29.194  1.00  0.00     0.074 A 
ATOM     75  C   UNL A   1      48.503  30.341  28.139  1.00  0.00     0.031 C 
ATOM     76  C   UNL A   1      47.748  28.239  29.215  1.00  0.00     0.034 A 
BRANCH  63  77
ATOM     77  C   UNL A   1      44.902  25.932  34.200  1.00  0.00     0.023 A 
ATOM     78  C   UNL A   1      43.580  25.453  34.078  1.00  0.00     0.012 A 
ATOM     79  C   UNL A   1      45.801  25.266  35.052  1.00  0.00     0.148 A 
ATOM     80  C   UNL A   1      43.149  24.354  34.822  1.00  0.00     0.002 A 
ATOM     81  C   UNL A   1      45.382  24.138  35.746  1.00  0.00     0.091 A 
ATOM     82  F   UNL A   1      47.042  25.757  35.180  1.00  0.00    -0.205 F 
ATOM     83  C   UNL A   1      44.055  23.690  35.644  1.00  0.00     0.022 A 
BRANCH  81  84
ATOM     84  S   UNL A   1      46.492  23.164  36.767  1.00  0.00     0.127 S 
ATOM     85  O   UNL A   1      45.610  22.087  37.216  1.00  0.00    -0.237 OA
ATOM     86  O   UNL A   1      47.512  22.756  35.801  1.00  0.00    -0.237 OA
ATOM     87  O   UNL A   1      46.964  24.057  37.816  1.00  0.00    -0.744 OA
ENDBRANCH  81  84
ENDBRANCH  63  77
BRANCH  64  88
ATOM     88  C   UNL A   1      47.966  34.298  29.530  1.00  0.00     0.023 A 
ATOM     89  C   UNL A   1      49.186  34.890  29.912  1.00  0.00     0.012 A 
ATOM     90  C   UNL A   1      47.219  34.878  28.487  1.00  0.00     0.148 A 
ATOM     91  C   UNL A   1      49.631  36.062  29.297  1.00  0.00     0.002 A 
ATOM     92  C   UNL A   1      47.696  36.010  27.840  1.00  0.00     0.091 A 
ATOM     93  F   UNL A   1      46.059  34.301  28.142  1.00  0.00    -0.205 F 
ATOM     94  C   UNL A   1      48.892  36.617  28.256  1.00  0.00     0.022 A 
BRANCH  92  95
ATOM     95  S   UNL A   1      46.875  36.713  26.407  1.00  0.00     0.127 S 
ATOM     96  O   UNL A   1      47.788  37.791  26.039  1.00  0.00    -0.237 OA
ATOM     97  O   UNL A   1      46.856  35.577  25.485  1.00  0.00    -0.237 OA
ATOM     98  O   UNL A   1      45.560  37.129  26.874  1.00  0.00    -0.744 OA
ENDBRANCH  92  95
ENDBRANCH  64  88
BRANCH  76  99
ATOM     99  C   UNL A   1      48.325  27.490  28.046  1.00  0.00     0.023 A 
ATOM    100  C   UNL A   1      49.590  26.881  28.151  1.00  0.00     0.012 A 
ATOM    101  C   UNL A   1      47.577  27.342  26.862  1.00  0.00     0.148 A 
ATOM    102  C   UNL A   1      50.125  26.180  27.073  1.00  0.00     0.002 A 
ATOM    103  C   UNL A   1      48.090  26.590  25.817  1.00  0.00     0.091 A 
ATOM    104  F   UNL A   1      46.379  27.941  26.782  1.00  0.00    -0.205 F 
ATOM    105  C   UNL A   1      49.372  26.024  25.912  1.00  0.00     0.022 A 
BRANCH 103 106
ATOM    106  S   UNL A   1      47.145  26.247  24.330  1.00  0.00     0.127 S 
ATOM    107  O   UNL A   1      48.132  25.556  23.503  1.00  0.00    -0.237 OA
ATOM    108  O   UNL A   1      46.069  25.394  24.838  1.00  0.00    -0.237 OA
ATOM    109  O   UNL A   1      46.702  27.541  23.827  1.00  0.00    -0.744 OA
ENDBRANCH 103 106
ENDBRANCH  76  99
ENDBRANCH  50  51
ENDBRANCH  42  45
ENDBRANCH  40  41
ENDBRANCH  39  40
ENDBRANCH  38  39
ENDBRANCH  37  38
ENDBRANCH   1  37
TORSDOF 24
ENDMDL
