MODEL 1
REMARK VINA RESULT:     -11.1      0.000      0.000
REMARK SMILES CC(C)(C[NH+]1CCC(C(N)=S)CC1)C(=O)NCCCCCCNC(=O)c1ccc(-c2c3nc(c(-c4cccc(S(=O)(=O)[O-])c4F)c4ccc([nH]4)c(-c4cccc(S(=O)(=O)[O-])c4F)c4nc(c(-c5cccc(S(=O)(=O)[O-])c5F)c5ccc2[nH]5)C=C4)C=C3)cc1
REMARK SMILES IDX 19 1 18 2 17 3 16 4 14 5 15 6 2 8 1 9 3 10 4 11 5 12 6 13
REMARK SMILES IDX 13 14 7 16 12 17 8 18 9 19 11 20 10 21 20 24 21 25 22 26
REMARK SMILES IDX 23 27 24 28 25 30 26 31 27 32 88 33 28 34 87 35 29 36 30 37
REMARK SMILES IDX 31 38 81 39 32 40 86 41 80 42 82 43 33 44 85 45 79 46 78 47
REMARK SMILES IDX 34 49 66 50 46 51 65 52 47 53 50 54 64 55 83 56 48 57 49 58
REMARK SMILES IDX 63 60 84 61 51 62 35 63 36 64 44 65 37 66 39 67 45 68 38 69
REMARK SMILES IDX 40 70 41 71 42 72 43 73 67 74 68 75 76 76 69 77 71 78 77 79
REMARK SMILES IDX 70 80 72 81 73 82 74 83 75 84 52 85 53 86 61 87 54 88 56 89
REMARK SMILES IDX 62 90 55 91 57 92 58 93 59 94 60 95
REMARK H PARENT 16 7 5 15 10 22 10 23 23 29 82 48 50 59
REMARK Flexibility Score: inf
ROOT
ATOM      1  C   UNL A   1      32.786  29.774  26.529  1.00  0.00     0.002 C 
ENDROOT
BRANCH   1   2
ATOM      2  C   UNL A   1      32.451  28.532  27.356  1.00  0.00     0.021 C 
BRANCH   2   3
ATOM      3  C   UNL A   1      32.664  27.194  26.654  1.00  0.00     0.116 C 
BRANCH   3   4
ATOM      4  N   UNL A   1      31.536  26.289  26.788  1.00  0.00    -0.355 N 
ATOM      5  C   UNL A   1      31.108  25.224  26.059  1.00  0.00     0.231 C 
ATOM      6  O   UNL A   1      30.148  24.608  26.539  1.00  0.00    -0.274 OA
ATOM      7  H   UNL A   1      30.965  26.487  27.565  1.00  0.00     0.163 HD
BRANCH   5   8
ATOM      8  C   UNL A   1      31.734  24.801  24.714  1.00  0.00     0.092 C 
ATOM      9  C   UNL A   1      30.740  23.869  23.977  1.00  0.00     0.027 C 
ATOM     10  C   UNL A   1      32.969  23.901  24.972  1.00  0.00     0.027 C 
BRANCH   8  11
ATOM     11  C   UNL A   1      32.135  26.021  23.816  1.00  0.00     0.278 C 
BRANCH  11  12
ATOM     12  N   UNL A   1      31.169  26.998  23.268  1.00  0.00    -0.334 N 
ATOM     13  C   UNL A   1      29.858  27.009  23.912  1.00  0.00     0.262 C 
ATOM     14  C   UNL A   1      31.726  28.329  23.025  1.00  0.00     0.262 C 
ATOM     15  H   UNL A   1      30.972  26.628  22.338  1.00  0.00     0.348 HD
ATOM     16  C   UNL A   1      28.861  27.919  23.189  1.00  0.00     0.072 C 
ATOM     17  C   UNL A   1      30.751  29.270  22.315  1.00  0.00     0.072 C 
ATOM     18  C   UNL A   1      29.440  29.334  23.095  1.00  0.00     0.058 C 
BRANCH  18  19
ATOM     19  C   UNL A   1      28.456  30.357  22.550  1.00  0.00     0.076 C 
ATOM     20  S   UNL A   1      28.239  31.903  23.133  1.00  0.00    -0.066 S 
BRANCH  19  21
ATOM     21  N   UNL A   1      27.708  29.934  21.486  1.00  0.00    -0.393 N 
ATOM     22  H   UNL A   1      28.152  29.639  20.659  1.00  0.00     0.157 HD
ATOM     23  H   UNL A   1      26.725  29.927  21.547  1.00  0.00     0.157 HD
ENDBRANCH  19  21
ENDBRANCH  18  19
ENDBRANCH  11  12
ENDBRANCH   8  11
ENDBRANCH   5   8
ENDBRANCH   3   4
ENDBRANCH   2   3
ENDBRANCH   1   2
BRANCH   1  24
ATOM     24  C   UNL A   1      31.578  30.554  26.008  1.00  0.00     0.002 C 
BRANCH  24  25
ATOM     25  C   UNL A   1      31.461  31.998  26.507  1.00  0.00     0.021 C 
BRANCH  25  26
ATOM     26  C   UNL A   1      32.671  32.529  27.270  1.00  0.00     0.116 C 
BRANCH  26  27
ATOM     27  N   UNL A   1      32.529  33.929  27.626  1.00  0.00    -0.352 N 
ATOM     28  C   UNL A   1      33.170  34.650  28.603  1.00  0.00     0.251 C 
ATOM     29  H   UNL A   1      31.878  34.436  27.089  1.00  0.00     0.163 HD
ATOM     30  O   UNL A   1      32.786  35.785  28.869  1.00  0.00    -0.269 OA
BRANCH  28  31
ATOM     31  C   UNL A   1      34.304  34.059  29.351  1.00  0.00     0.039 A 
ATOM     32  C   UNL A   1      34.025  33.213  30.428  1.00  0.00     0.014 A 
ATOM     33  C   UNL A   1      35.630  34.353  29.019  1.00  0.00     0.014 A 
ATOM     34  C   UNL A   1      35.074  32.628  31.142  1.00  0.00     0.010 A 
ATOM     35  C   UNL A   1      36.675  33.718  29.692  1.00  0.00     0.010 A 
ATOM     36  C   UNL A   1      36.408  32.855  30.765  1.00  0.00    -0.014 A 
BRANCH  36  37
ATOM     37  C   UNL A   1      37.520  32.172  31.477  1.00  0.00     0.031 A 
ATOM     38  C   UNL A   1      38.293  31.059  30.819  1.00  0.00     0.074 A 
ATOM     39  C   UNL A   1      37.798  32.517  32.750  1.00  0.00     0.049 A 
ATOM     40  N   UNL A   1      39.310  30.379  31.283  1.00  0.00    -0.248 NA
ATOM     41  C   UNL A   1      37.855  30.641  29.478  1.00  0.00     0.031 C 
ATOM     42  C   UNL A   1      37.060  33.509  33.535  1.00  0.00     0.029 A 
ATOM     43  N   UNL A   1      38.762  32.061  33.613  1.00  0.00    -0.354 N 
ATOM     44  C   UNL A   1      39.616  29.437  30.308  1.00  0.00     0.074 A 
ATOM     45  C   UNL A   1      38.655  29.610  29.240  1.00  0.00     0.031 C 
ATOM     46  C   UNL A   1      37.604  33.593  34.759  1.00  0.00     0.029 A 
ATOM     47  C   UNL A   1      38.717  32.654  34.854  1.00  0.00     0.049 A 
ATOM     48  H   UNL A   1      39.425  31.375  33.368  1.00  0.00     0.167 HD
ATOM     49  C   UNL A   1      40.623  28.530  30.289  1.00  0.00     0.034 A 
ATOM     50  C   UNL A   1      39.489  32.470  35.943  1.00  0.00     0.034 A 
ATOM     51  C   UNL A   1      41.604  28.389  31.332  1.00  0.00     0.049 A 
ATOM     52  C   UNL A   1      40.644  31.509  35.866  1.00  0.00     0.074 A 
ATOM     53  C   UNL A   1      42.720  27.572  31.358  1.00  0.00     0.029 A 
ATOM     54  N   UNL A   1      41.585  29.075  32.536  1.00  0.00    -0.354 N 
ATOM     55  N   UNL A   1      41.031  30.762  34.861  1.00  0.00    -0.248 NA
ATOM     56  C   UNL A   1      41.497  31.400  37.059  1.00  0.00     0.031 C 
ATOM     57  C   UNL A   1      43.367  27.751  32.587  1.00  0.00     0.029 A 
ATOM     58  C   UNL A   1      42.663  28.694  33.318  1.00  0.00     0.049 A 
ATOM     59  H   UNL A   1      40.905  29.737  32.797  1.00  0.00     0.167 HD
ATOM     60  C   UNL A   1      42.186  30.117  35.288  1.00  0.00     0.074 A 
ATOM     61  C   UNL A   1      42.453  30.586  36.632  1.00  0.00     0.031 C 
ATOM     62  C   UNL A   1      42.945  29.201  34.636  1.00  0.00     0.034 A 
BRANCH  49  63
ATOM     63  C   UNL A   1      40.756  27.656  29.067  1.00  0.00     0.023 A 
ATOM     64  C   UNL A   1      39.922  26.527  28.930  1.00  0.00     0.012 A 
ATOM     65  C   UNL A   1      41.646  27.987  28.027  1.00  0.00     0.148 A 
ATOM     66  C   UNL A   1      39.995  25.723  27.794  1.00  0.00     0.002 A 
ATOM     67  C   UNL A   1      41.684  27.203  26.879  1.00  0.00     0.091 A 
ATOM     68  F   UNL A   1      42.446  29.052  28.183  1.00  0.00    -0.205 F 
ATOM     69  C   UNL A   1      40.868  26.067  26.765  1.00  0.00     0.022 A 
BRANCH  67  70
ATOM     70  S   UNL A   1      42.715  27.606  25.464  1.00  0.00     0.127 S 
ATOM     71  O   UNL A   1      42.530  26.426  24.620  1.00  0.00    -0.237 OA
ATOM     72  O   UNL A   1      42.084  28.823  24.957  1.00  0.00    -0.237 OA
ATOM     73  O   UNL A   1      44.061  27.793  25.990  1.00  0.00    -0.744 OA
ENDBRANCH  67  70
ENDBRANCH  49  63
BRANCH  50  74
ATOM     74  C   UNL A   1      39.241  33.274  37.171  1.00  0.00     0.023 A 
ATOM     75  C   UNL A   1      38.407  32.755  38.181  1.00  0.00     0.012 A 
ATOM     76  C   UNL A   1      39.850  34.529  37.362  1.00  0.00     0.148 A 
ATOM     77  C   UNL A   1      38.160  33.485  39.344  1.00  0.00     0.002 A 
ATOM     78  C   UNL A   1      39.646  35.225  38.548  1.00  0.00     0.091 A 
ATOM     79  F   UNL A   1      40.629  35.013  36.384  1.00  0.00    -0.205 F 
ATOM     80  C   UNL A   1      38.787  34.714  39.532  1.00  0.00     0.022 A 
BRANCH  78  81
ATOM     81  S   UNL A   1      40.524  36.746  38.929  1.00  0.00     0.127 S 
ATOM     82  O   UNL A   1      39.456  37.737  38.850  1.00  0.00    -0.237 OA
ATOM     83  O   UNL A   1      41.023  36.480  40.278  1.00  0.00    -0.237 OA
ATOM     84  O   UNL A   1      41.569  36.854  37.919  1.00  0.00    -0.744 OA
ENDBRANCH  78  81
ENDBRANCH  50  74
BRANCH  62  85
ATOM     85  C   UNL A   1      44.149  28.655  35.360  1.00  0.00     0.023 A 
ATOM     86  C   UNL A   1      45.423  29.194  35.095  1.00  0.00     0.012 A 
ATOM     87  C   UNL A   1      44.014  27.646  36.332  1.00  0.00     0.148 A 
ATOM     88  C   UNL A   1      46.551  28.709  35.757  1.00  0.00     0.002 A 
ATOM     89  C   UNL A   1      45.136  27.200  37.023  1.00  0.00     0.091 A 
ATOM     90  F   UNL A   1      42.798  27.128  36.558  1.00  0.00    -0.205 F 
ATOM     91  C   UNL A   1      46.406  27.721  36.727  1.00  0.00     0.022 A 
BRANCH  89  92
ATOM     92  S   UNL A   1      45.023  25.997  38.352  1.00  0.00     0.127 S 
ATOM     93  O   UNL A   1      44.542  24.813  37.643  1.00  0.00    -0.237 OA
ATOM     94  O   UNL A   1      46.408  25.908  38.816  1.00  0.00    -0.237 OA
ATOM     95  O   UNL A   1      44.101  26.569  39.325  1.00  0.00    -0.744 OA
ENDBRANCH  89  92
ENDBRANCH  62  85
ENDBRANCH  36  37
ENDBRANCH  28  31
ENDBRANCH  26  27
ENDBRANCH  25  26
ENDBRANCH  24  25
ENDBRANCH   1  24
TORSDOF 20
ENDMDL
MODEL 2
REMARK VINA RESULT:     -11.0      2.595      8.471
REMARK SMILES CC(C)(C[NH+]1CCC(C(N)=S)CC1)C(=O)NCCCCCCNC(=O)c1ccc(-c2c3nc(c(-c4cccc(S(=O)(=O)[O-])c4F)c4ccc([nH]4)c(-c4cccc(S(=O)(=O)[O-])c4F)c4nc(c(-c5cccc(S(=O)(=O)[O-])c5F)c5ccc2[nH]5)C=C4)C=C3)cc1
REMARK SMILES IDX 19 1 18 2 17 3 16 4 14 5 15 6 2 8 1 9 3 10 4 11 5 12 6 13
REMARK SMILES IDX 13 14 7 16 12 17 8 18 9 19 11 20 10 21 20 24 21 25 22 26
REMARK SMILES IDX 23 27 24 28 25 30 26 31 27 32 88 33 28 34 87 35 29 36 30 37
REMARK SMILES IDX 31 38 81 39 32 40 86 41 80 42 82 43 33 44 85 45 79 46 78 47
REMARK SMILES IDX 34 49 66 50 46 51 65 52 47 53 50 54 64 55 83 56 48 57 49 58
REMARK SMILES IDX 63 60 84 61 51 62 35 63 36 64 44 65 37 66 39 67 45 68 38 69
REMARK SMILES IDX 40 70 41 71 42 72 43 73 67 74 68 75 76 76 69 77 71 78 77 79
REMARK SMILES IDX 70 80 72 81 73 82 74 83 75 84 52 85 53 86 61 87 54 88 56 89
REMARK SMILES IDX 62 90 55 91 57 92 58 93 59 94 60 95
REMARK H PARENT 16 7 5 15 10 22 10 23 23 29 82 48 50 59
REMARK Flexibility Score: inf
ROOT
ATOM      1  C   UNL A   1      34.202  28.067  24.635  1.00  0.00     0.002 C 
ENDROOT
BRANCH   1   2
ATOM      2  C   UNL A   1      33.771  28.678  23.300  1.00  0.00     0.021 C 
BRANCH   2   3
ATOM      3  C   UNL A   1      32.917  27.782  22.407  1.00  0.00     0.116 C 
BRANCH   3   4
ATOM      4  N   UNL A   1      31.539  28.225  22.298  1.00  0.00    -0.355 N 
ATOM      5  C   UNL A   1      30.378  27.793  22.858  1.00  0.00     0.231 C 
ATOM      6  O   UNL A   1      29.385  28.492  22.617  1.00  0.00    -0.274 OA
ATOM      7  H   UNL A   1      31.421  28.994  21.695  1.00  0.00     0.163 HD
BRANCH   5   8
ATOM      8  C   UNL A   1      30.264  26.517  23.716  1.00  0.00     0.092 C 
ATOM      9  C   UNL A   1      28.764  26.227  23.976  1.00  0.00     0.027 C 
ATOM     10  C   UNL A   1      30.842  26.783  25.129  1.00  0.00     0.027 C 
BRANCH   8  11
ATOM     11  C   UNL A   1      30.974  25.280  23.067  1.00  0.00     0.278 C 
BRANCH  11  12
ATOM     12  N   UNL A   1      31.598  24.184  23.841  1.00  0.00    -0.334 N 
ATOM     13  C   UNL A   1      30.699  23.459  24.734  1.00  0.00     0.262 C 
ATOM     14  C   UNL A   1      32.487  23.323  23.060  1.00  0.00     0.262 C 
ATOM     15  H   UNL A   1      32.219  24.681  24.481  1.00  0.00     0.348 HD
ATOM     16  C   UNL A   1      31.444  22.457  25.622  1.00  0.00     0.072 C 
ATOM     17  C   UNL A   1      33.238  22.300  23.915  1.00  0.00     0.072 C 
ATOM     18  C   UNL A   1      32.240  21.491  24.740  1.00  0.00     0.058 C 
BRANCH  18  19
ATOM     19  C   UNL A   1      32.876  20.347  25.515  1.00  0.00     0.076 C 
ATOM     20  S   UNL A   1      32.916  18.753  25.033  1.00  0.00    -0.066 S 
BRANCH  19  21
ATOM     21  N   UNL A   1      33.459  20.701  26.700  1.00  0.00    -0.393 N 
ATOM     22  H   UNL A   1      32.926  20.709  27.527  1.00  0.00     0.157 HD
ATOM     23  H   UNL A   1      34.411  20.950  26.725  1.00  0.00     0.157 HD
ENDBRANCH  19  21
ENDBRANCH  18  19
ENDBRANCH  11  12
ENDBRANCH   8  11
ENDBRANCH   5   8
ENDBRANCH   3   4
ENDBRANCH   2   3
ENDBRANCH   1   2
BRANCH   1  24
ATOM     24  C   UNL A   1      33.675  28.784  25.879  1.00  0.00     0.002 C 
BRANCH  24  25
ATOM     25  C   UNL A   1      32.742  29.969  25.610  1.00  0.00     0.021 C 
BRANCH  25  26
ATOM     26  C   UNL A   1      32.135  30.620  26.850  1.00  0.00     0.116 C 
BRANCH  26  27
ATOM     27  N   UNL A   1      32.257  32.066  26.830  1.00  0.00    -0.352 N 
ATOM     28  C   UNL A   1      33.203  32.870  27.415  1.00  0.00     0.251 C 
ATOM     29  H   UNL A   1      31.558  32.541  26.323  1.00  0.00     0.163 HD
ATOM     30  O   UNL A   1      33.039  34.087  27.433  1.00  0.00    -0.269 OA
BRANCH  28  31
ATOM     31  C   UNL A   1      34.408  32.279  28.041  1.00  0.00     0.039 A 
ATOM     32  C   UNL A   1      35.596  33.016  28.031  1.00  0.00     0.014 A 
ATOM     33  C   UNL A   1      34.385  31.001  28.609  1.00  0.00     0.014 A 
ATOM     34  C   UNL A   1      36.745  32.491  28.628  1.00  0.00     0.010 A 
ATOM     35  C   UNL A   1      35.515  30.507  29.261  1.00  0.00     0.010 A 
ATOM     36  C   UNL A   1      36.709  31.242  29.271  1.00  0.00    -0.014 A 
BRANCH  36  37
ATOM     37  C   UNL A   1      37.911  30.720  29.973  1.00  0.00     0.031 A 
ATOM     38  C   UNL A   1      38.247  31.168  31.370  1.00  0.00     0.074 A 
ATOM     39  C   UNL A   1      38.739  29.879  29.322  1.00  0.00     0.049 A 
ATOM     40  N   UNL A   1      39.237  30.789  32.139  1.00  0.00    -0.248 NA
ATOM     41  C   UNL A   1      37.375  32.187  31.976  1.00  0.00     0.031 C 
ATOM     42  C   UNL A   1      38.581  29.446  27.932  1.00  0.00     0.029 A 
ATOM     43  N   UNL A   1      39.888  29.252  29.736  1.00  0.00    -0.354 N 
ATOM     44  C   UNL A   1      39.125  31.540  33.303  1.00  0.00     0.074 A 
ATOM     45  C   UNL A   1      37.991  32.421  33.127  1.00  0.00     0.031 C 
ATOM     46  C   UNL A   1      39.588  28.618  27.612  1.00  0.00     0.029 A 
ATOM     47  C   UNL A   1      40.471  28.472  28.765  1.00  0.00     0.049 A 
ATOM     48  H   UNL A   1      40.259  29.350  30.643  1.00  0.00     0.167 HD
ATOM     49  C   UNL A   1      39.878  31.480  34.428  1.00  0.00     0.034 A 
ATOM     50  C   UNL A   1      41.587  27.717  28.799  1.00  0.00     0.034 A 
ATOM     51  C   UNL A   1      40.978  30.573  34.618  1.00  0.00     0.049 A 
ATOM     52  C   UNL A   1      42.361  27.614  30.085  1.00  0.00     0.074 A 
ATOM     53  C   UNL A   1      41.736  30.365  35.757  1.00  0.00     0.029 A 
ATOM     54  N   UNL A   1      41.482  29.725  33.645  1.00  0.00    -0.354 N 
ATOM     55  N   UNL A   1      42.127  28.190  31.238  1.00  0.00    -0.248 NA
ATOM     56  C   UNL A   1      43.529  26.720  30.087  1.00  0.00     0.031 C 
ATOM     57  C   UNL A   1      42.712  29.404  35.466  1.00  0.00     0.029 A 
ATOM     58  C   UNL A   1      42.548  29.000  34.151  1.00  0.00     0.049 A 
ATOM     59  H   UNL A   1      41.135  29.649  32.727  1.00  0.00     0.167 HD
ATOM     60  C   UNL A   1      43.096  27.709  32.110  1.00  0.00     0.074 A 
ATOM     61  C   UNL A   1      43.902  26.769  31.359  1.00  0.00     0.031 C 
ATOM     62  C   UNL A   1      43.315  28.033  33.408  1.00  0.00     0.034 A 
BRANCH  49  63
ATOM     63  C   UNL A   1      39.497  32.383  35.574  1.00  0.00     0.023 A 
ATOM     64  C   UNL A   1      38.718  31.868  36.631  1.00  0.00     0.012 A 
ATOM     65  C   UNL A   1      39.964  33.710  35.644  1.00  0.00     0.148 A 
ATOM     66  C   UNL A   1      38.383  32.668  37.722  1.00  0.00     0.002 A 
ATOM     67  C   UNL A   1      39.660  34.489  36.755  1.00  0.00     0.091 A 
ATOM     68  F   UNL A   1      40.686  34.190  34.621  1.00  0.00    -0.205 F 
ATOM     69  C   UNL A   1      38.862  33.974  37.790  1.00  0.00     0.022 A 
BRANCH  67  70
ATOM     70  S   UNL A   1      40.294  36.156  36.975  1.00  0.00     0.127 S 
ATOM     71  O   UNL A   1      41.727  35.908  37.126  1.00  0.00    -0.237 OA
ATOM     72  O   UNL A   1      39.916  36.799  35.717  1.00  0.00    -0.237 OA
ATOM     73  O   UNL A   1      39.623  36.687  38.154  1.00  0.00    -0.744 OA
ENDBRANCH  67  70
ENDBRANCH  49  63
BRANCH  50  74
ATOM     74  C   UNL A   1      41.989  26.935  27.597  1.00  0.00     0.023 A 
ATOM     75  C   UNL A   1      42.652  27.586  26.538  1.00  0.00     0.012 A 
ATOM     76  C   UNL A   1      41.753  25.549  27.510  1.00  0.00     0.148 A 
ATOM     77  C   UNL A   1      43.043  26.877  25.402  1.00  0.00     0.002 A 
ATOM     78  C   UNL A   1      42.196  24.839  26.401  1.00  0.00     0.091 A 
ATOM     79  F   UNL A   1      41.108  24.950  28.522  1.00  0.00    -0.205 F 
ATOM     80  C   UNL A   1      42.826  25.504  25.338  1.00  0.00     0.022 A 
BRANCH  78  81
ATOM     81  S   UNL A   1      42.081  23.048  26.302  1.00  0.00     0.127 S 
ATOM     82  O   UNL A   1      42.887  22.632  27.446  1.00  0.00    -0.237 OA
ATOM     83  O   UNL A   1      40.642  22.827  26.447  1.00  0.00    -0.237 OA
ATOM     84  O   UNL A   1      42.609  22.697  24.990  1.00  0.00    -0.744 OA
ENDBRANCH  78  81
ENDBRANCH  50  74
BRANCH  62  85
ATOM     85  C   UNL A   1      44.463  27.353  34.109  1.00  0.00     0.023 A 
ATOM     86  C   UNL A   1      45.745  27.937  34.070  1.00  0.00     0.012 A 
ATOM     87  C   UNL A   1      44.267  26.167  34.842  1.00  0.00     0.148 A 
ATOM     88  C   UNL A   1      46.822  27.329  34.716  1.00  0.00     0.002 A 
ATOM     89  C   UNL A   1      45.334  25.593  35.524  1.00  0.00     0.091 A 
ATOM     90  F   UNL A   1      43.045  25.613  34.852  1.00  0.00    -0.205 F 
ATOM     91  C   UNL A   1      46.614  26.165  35.451  1.00  0.00     0.022 A 
BRANCH  89  92
ATOM     92  S   UNL A   1      45.132  24.145  36.567  1.00  0.00     0.127 S 
ATOM     93  O   UNL A   1      44.389  24.694  37.700  1.00  0.00    -0.237 OA
ATOM     94  O   UNL A   1      44.358  23.245  35.711  1.00  0.00    -0.237 OA
ATOM     95  O   UNL A   1      46.480  23.679  36.863  1.00  0.00    -0.744 OA
ENDBRANCH  89  92
ENDBRANCH  62  85
ENDBRANCH  36  37
ENDBRANCH  28  31
ENDBRANCH  26  27
ENDBRANCH  25  26
ENDBRANCH  24  25
ENDBRANCH   1  24
TORSDOF 20
ENDMDL
MODEL 3
REMARK VINA RESULT:     -10.9      3.657      9.162
REMARK SMILES CC(C)(C[NH+]1CCC(C(N)=S)CC1)C(=O)NCCCCCCNC(=O)c1ccc(-c2c3nc(c(-c4cccc(S(=O)(=O)[O-])c4F)c4ccc([nH]4)c(-c4cccc(S(=O)(=O)[O-])c4F)c4nc(c(-c5cccc(S(=O)(=O)[O-])c5F)c5ccc2[nH]5)C=C4)C=C3)cc1
REMARK SMILES IDX 19 1 18 2 17 3 16 4 14 5 15 6 2 8 1 9 3 10 4 11 5 12 6 13
REMARK SMILES IDX 13 14 7 16 12 17 8 18 9 19 11 20 10 21 20 24 21 25 22 26
REMARK SMILES IDX 23 27 24 28 25 30 26 31 27 32 88 33 28 34 87 35 29 36 30 37
REMARK SMILES IDX 31 38 81 39 32 40 86 41 80 42 82 43 33 44 85 45 79 46 78 47
REMARK SMILES IDX 34 49 66 50 46 51 65 52 47 53 50 54 64 55 83 56 48 57 49 58
REMARK SMILES IDX 63 60 84 61 51 62 35 63 36 64 44 65 37 66 39 67 45 68 38 69
REMARK SMILES IDX 40 70 41 71 42 72 43 73 67 74 68 75 76 76 69 77 71 78 77 79
REMARK SMILES IDX 70 80 72 81 73 82 74 83 75 84 52 85 53 86 61 87 54 88 56 89
REMARK SMILES IDX 62 90 55 91 57 92 58 93 59 94 60 95
REMARK H PARENT 16 7 5 15 10 22 10 23 23 29 82 48 50 59
REMARK Flexibility Score: inf
ROOT
ATOM      1  C   UNL A   1      30.965  26.537  26.084  1.00  0.00     0.002 C 
ENDROOT
BRANCH   1   2
ATOM      2  C   UNL A   1      30.873  25.932  24.682  1.00  0.00     0.021 C 
BRANCH   2   3
ATOM      3  C   UNL A   1      30.980  24.411  24.611  1.00  0.00     0.116 C 
BRANCH   3   4
ATOM      4  N   UNL A   1      31.116  23.783  25.912  1.00  0.00    -0.355 N 
ATOM      5  C   UNL A   1      32.172  23.245  26.578  1.00  0.00     0.231 C 
ATOM      6  O   UNL A   1      31.937  22.888  27.740  1.00  0.00    -0.274 OA
ATOM      7  H   UNL A   1      30.271  23.736  26.415  1.00  0.00     0.163 HD
BRANCH   5   8
ATOM      8  C   UNL A   1      33.570  23.055  25.955  1.00  0.00     0.092 C 
ATOM      9  C   UNL A   1      34.485  22.357  26.993  1.00  0.00     0.027 C 
ATOM     10  C   UNL A   1      34.238  24.435  25.737  1.00  0.00     0.027 C 
BRANCH   8  11
ATOM     11  C   UNL A   1      33.534  22.254  24.608  1.00  0.00     0.278 C 
BRANCH  11  12
ATOM     12  N   UNL A   1      33.601  20.779  24.520  1.00  0.00    -0.334 N 
ATOM     13  C   UNL A   1      34.872  20.186  24.928  1.00  0.00     0.262 C 
ATOM     14  C   UNL A   1      32.423  20.087  25.046  1.00  0.00     0.262 C 
ATOM     15  H   UNL A   1      33.572  20.608  23.515  1.00  0.00     0.348 HD
ATOM     16  C   UNL A   1      34.927  18.680  24.653  1.00  0.00     0.072 C 
ATOM     17  C   UNL A   1      32.452  18.578  24.800  1.00  0.00     0.072 C 
ATOM     18  C   UNL A   1      33.750  17.993  25.350  1.00  0.00     0.058 C 
BRANCH  18  19
ATOM     19  C   UNL A   1      33.810  16.475  25.287  1.00  0.00     0.076 C 
ATOM     20  S   UNL A   1      32.505  15.445  25.405  1.00  0.00    -0.066 S 
BRANCH  19  21
ATOM     21  N   UNL A   1      35.060  15.950  25.110  1.00  0.00    -0.393 N 
ATOM     22  H   UNL A   1      35.165  15.006  24.850  1.00  0.00     0.157 HD
ATOM     23  H   UNL A   1      35.855  16.515  25.245  1.00  0.00     0.157 HD
ENDBRANCH  19  21
ENDBRANCH  18  19
ENDBRANCH  11  12
ENDBRANCH   8  11
ENDBRANCH   5   8
ENDBRANCH   3   4
ENDBRANCH   2   3
ENDBRANCH   1   2
BRANCH   1  24
ATOM     24  C   UNL A   1      32.165  27.456  26.318  1.00  0.00     0.002 C 
BRANCH  24  25
ATOM     25  C   UNL A   1      32.717  28.150  25.069  1.00  0.00     0.021 C 
BRANCH  25  26
ATOM     26  C   UNL A   1      33.739  29.253  25.329  1.00  0.00     0.116 C 
BRANCH  26  27
ATOM     27  N   UNL A   1      33.131  30.450  25.880  1.00  0.00    -0.352 N 
ATOM     28  C   UNL A   1      33.470  31.162  27.004  1.00  0.00     0.251 C 
ATOM     29  H   UNL A   1      32.363  30.804  25.375  1.00  0.00     0.163 HD
ATOM     30  O   UNL A   1      32.725  32.051  27.406  1.00  0.00    -0.269 OA
BRANCH  28  31
ATOM     31  C   UNL A   1      34.715  30.852  27.743  1.00  0.00     0.039 A 
ATOM     32  C   UNL A   1      34.780  29.660  28.472  1.00  0.00     0.014 A 
ATOM     33  C   UNL A   1      35.803  31.732  27.747  1.00  0.00     0.014 A 
ATOM     34  C   UNL A   1      35.947  29.332  29.166  1.00  0.00     0.010 A 
ATOM     35  C   UNL A   1      36.989  31.371  28.387  1.00  0.00     0.010 A 
ATOM     36  C   UNL A   1      37.072  30.172  29.109  1.00  0.00    -0.014 A 
BRANCH  36  37
ATOM     37  C   UNL A   1      38.338  29.785  29.784  1.00  0.00     0.031 A 
ATOM     38  C   UNL A   1      38.693  30.335  31.140  1.00  0.00     0.074 A 
ATOM     39  C   UNL A   1      39.204  28.975  29.143  1.00  0.00     0.049 A 
ATOM     40  N   UNL A   1      39.739  30.078  31.883  1.00  0.00    -0.248 NA
ATOM     41  C   UNL A   1      37.768  31.316  31.729  1.00  0.00     0.031 C 
ATOM     42  C   UNL A   1      39.026  28.454  27.786  1.00  0.00     0.029 A 
ATOM     43  N   UNL A   1      40.415  28.463  29.539  1.00  0.00    -0.354 N 
ATOM     44  C   UNL A   1      39.614  30.882  33.010  1.00  0.00     0.074 A 
ATOM     45  C   UNL A   1      38.408  31.661  32.838  1.00  0.00     0.031 C 
ATOM     46  C   UNL A   1      40.082  27.689  27.467  1.00  0.00     0.029 A 
ATOM     47  C   UNL A   1      41.019  27.677  28.585  1.00  0.00     0.049 A 
ATOM     48  H   UNL A   1      40.813  28.640  30.422  1.00  0.00     0.167 HD
ATOM     49  C   UNL A   1      40.414  30.944  34.102  1.00  0.00     0.034 A 
ATOM     50  C   UNL A   1      42.192  27.013  28.610  1.00  0.00     0.034 A 
ATOM     51  C   UNL A   1      41.589  30.136  34.291  1.00  0.00     0.049 A 
ATOM     52  C   UNL A   1      43.023  27.043  29.864  1.00  0.00     0.074 A 
ATOM     53  C   UNL A   1      42.406  30.052  35.405  1.00  0.00     0.029 A 
ATOM     54  N   UNL A   1      42.121  29.276  33.343  1.00  0.00    -0.354 N 
ATOM     55  N   UNL A   1      42.789  27.664  30.995  1.00  0.00    -0.248 NA
ATOM     56  C   UNL A   1      44.256  26.243  29.863  1.00  0.00     0.031 C 
ATOM     57  C   UNL A   1      43.443  29.155  35.123  1.00  0.00     0.029 A 
ATOM     58  C   UNL A   1      43.260  28.665  33.840  1.00  0.00     0.049 A 
ATOM     59  H   UNL A   1      41.744  29.122  32.447  1.00  0.00     0.167 HD
ATOM     60  C   UNL A   1      43.827  27.308  31.847  1.00  0.00     0.074 A 
ATOM     61  C   UNL A   1      44.675  26.392  31.112  1.00  0.00     0.031 C 
ATOM     62  C   UNL A   1      44.071  27.720  33.116  1.00  0.00     0.034 A 
BRANCH  49  63
ATOM     63  C   UNL A   1      40.009  31.878  35.215  1.00  0.00     0.023 A 
ATOM     64  C   UNL A   1      40.490  33.203  35.215  1.00  0.00     0.012 A 
ATOM     65  C   UNL A   1      39.102  31.472  36.213  1.00  0.00     0.148 A 
ATOM     66  C   UNL A   1      40.102  34.100  36.209  1.00  0.00     0.002 A 
ATOM     67  C   UNL A   1      38.687  32.385  37.178  1.00  0.00     0.091 A 
ATOM     68  F   UNL A   1      38.671  30.203  36.209  1.00  0.00    -0.205 F 
ATOM     69  C   UNL A   1      39.194  33.695  37.183  1.00  0.00     0.022 A 
BRANCH  67  70
ATOM     70  S   UNL A   1      37.461  31.985  38.428  1.00  0.00     0.127 S 
ATOM     71  O   UNL A   1      36.358  32.868  38.051  1.00  0.00    -0.237 OA
ATOM     72  O   UNL A   1      37.217  30.565  38.179  1.00  0.00    -0.237 OA
ATOM     73  O   UNL A   1      38.087  32.277  39.711  1.00  0.00    -0.744 OA
ENDBRANCH  67  70
ENDBRANCH  49  63
BRANCH  50  74
ATOM     74  C   UNL A   1      42.607  26.198  27.435  1.00  0.00     0.023 A 
ATOM     75  C   UNL A   1      43.458  26.765  26.466  1.00  0.00     0.012 A 
ATOM     76  C   UNL A   1      42.195  24.860  27.288  1.00  0.00     0.148 A 
ATOM     77  C   UNL A   1      43.866  26.023  25.357  1.00  0.00     0.002 A 
ATOM     78  C   UNL A   1      42.651  24.109  26.211  1.00  0.00     0.091 A 
ATOM     79  F   UNL A   1      41.374  24.342  28.213  1.00  0.00    -0.205 F 
ATOM     80  C   UNL A   1      43.472  24.694  25.235  1.00  0.00     0.022 A 
BRANCH  78  81
ATOM     81  S   UNL A   1      42.306  22.353  26.053  1.00  0.00     0.127 S 
ATOM     82  O   UNL A   1      43.032  22.012  24.834  1.00  0.00    -0.237 OA
ATOM     83  O   UNL A   1      42.882  21.817  27.287  1.00  0.00    -0.237 OA
ATOM     84  O   UNL A   1      40.854  22.247  25.981  1.00  0.00    -0.744 OA
ENDBRANCH  78  81
ENDBRANCH  50  74
BRANCH  62  85
ATOM     85  C   UNL A   1      45.297  27.172  33.800  1.00  0.00     0.023 A 
ATOM     86  C   UNL A   1      46.516  27.873  33.711  1.00  0.00     0.012 A 
ATOM     87  C   UNL A   1      45.233  25.993  34.568  1.00  0.00     0.148 A 
ATOM     88  C   UNL A   1      47.662  27.388  34.341  1.00  0.00     0.002 A 
ATOM     89  C   UNL A   1      46.368  25.541  35.233  1.00  0.00     0.091 A 
ATOM     90  F   UNL A   1      44.072  25.325  34.625  1.00  0.00    -0.205 F 
ATOM     91  C   UNL A   1      47.585  26.230  35.110  1.00  0.00     0.022 A 
BRANCH  89  92
ATOM     92  S   UNL A   1      46.332  24.110  36.317  1.00  0.00     0.127 S 
ATOM     93  O   UNL A   1      47.719  24.043  36.771  1.00  0.00    -0.237 OA
ATOM     94  O   UNL A   1      45.373  24.516  37.345  1.00  0.00    -0.237 OA
ATOM     95  O   UNL A   1      45.885  22.998  35.488  1.00  0.00    -0.744 OA
ENDBRANCH  89  92
ENDBRANCH  62  85
ENDBRANCH  36  37
ENDBRANCH  28  31
ENDBRANCH  26  27
ENDBRANCH  25  26
ENDBRANCH  24  25
ENDBRANCH   1  24
TORSDOF 20
ENDMDL
