MODEL 1
REMARK VINA RESULT:     -12.2      0.000      0.000
REMARK SMILES O=C(NCCCCCCNC(=O)c1ccc(-c2c3nc(c(-c4cccc(S(=O)(=O)[O-])c4F)c4ccc([nH]4)c(-c4cccc(S(=O)(=O)[O-])c4F)c4nc(c(-c5cccc(S(=O)(=O)[O-])c5F)c5ccc2[nH]5)C=C4)C=C3)cc1)C1=Cc2cc(OC(F)(F)F)ccc2O[C@@H]1C(F)(F)F
REMARK SMILES IDX 7 1 6 2 5 3 4 4 3 5 1 6 2 7 76 9 77 10 90 11 78 12 89 13
REMARK SMILES IDX 79 14 88 15 80 16 87 17 86 18 91 19 92 20 93 21 94 22 81 23
REMARK SMILES IDX 82 24 83 25 84 26 85 27 8 28 9 29 10 30 11 31 12 33 13 34
REMARK SMILES IDX 14 35 75 36 15 37 74 38 16 39 17 40 18 41 68 42 19 43 73 44
REMARK SMILES IDX 67 45 69 46 20 47 72 48 66 49 65 50 21 52 53 53 33 54 52 55
REMARK SMILES IDX 34 56 37 57 51 58 70 59 35 60 36 61 50 63 71 64 38 65 22 66
REMARK SMILES IDX 23 67 31 68 24 69 26 70 32 71 25 72 27 73 28 74 29 75 30 76
REMARK SMILES IDX 54 77 55 78 63 79 56 80 58 81 64 82 57 83 59 84 60 85 61 86
REMARK SMILES IDX 62 87 39 88 40 89 48 90 41 91 43 92 49 93 42 94 44 95 45 96
REMARK SMILES IDX 46 97 47 98
REMARK H PARENT 3 8 10 32 69 51 37 62
REMARK Flexibility Score: inf
ROOT
ATOM      1  C   UNL A   1      30.711  28.991  24.165  1.00  0.00     0.002 C 
ENDROOT
BRANCH   1   2
ATOM      2  C   UNL A   1      30.945  28.496  22.732  1.00  0.00     0.002 C 
BRANCH   2   3
ATOM      3  C   UNL A   1      31.915  27.329  22.558  1.00  0.00     0.021 C 
BRANCH   3   4
ATOM      4  C   UNL A   1      31.393  26.124  21.787  1.00  0.00     0.116 C 
BRANCH   4   5
ATOM      5  N   UNL A   1      32.403  25.181  21.340  1.00  0.00    -0.352 N 
ATOM      6  O   UNL A   1      33.654  23.318  21.354  1.00  0.00    -0.270 OA
ATOM      7  C   UNL A   1      32.894  24.069  21.966  1.00  0.00     0.251 C 
ATOM      8  H   UNL A   1      32.793  25.371  20.456  1.00  0.00     0.163 HD
BRANCH   7   9
ATOM      9  C   UNL A   1      32.473  23.665  23.344  1.00  0.00     0.067 C 
ATOM     10  C   UNL A   1      31.780  22.540  23.596  1.00  0.00     0.025 C 
ATOM     11  C   UNL A   1      33.425  24.176  24.404  1.00  0.00     0.314 C 
ATOM     12  C   UNL A   1      32.659  21.505  24.208  1.00  0.00     0.021 A 
ATOM     13  O   UNL A   1      34.373  23.145  24.795  1.00  0.00    -0.475 OA
ATOM     14  C   UNL A   1      32.300  20.158  24.080  1.00  0.00     0.058 A 
ATOM     15  C   UNL A   1      33.943  21.848  24.653  1.00  0.00     0.128 A 
ATOM     16  C   UNL A   1      33.252  19.151  24.267  1.00  0.00     0.130 A 
ATOM     17  C   UNL A   1      34.888  20.847  24.855  1.00  0.00     0.051 A 
ATOM     18  C   UNL A   1      34.553  19.504  24.629  1.00  0.00     0.050 A 
BRANCH  11  19
ATOM     19  C   UNL A   1      32.692  24.778  25.614  1.00  0.00     0.429 C 
ATOM     20  F   UNL A   1      33.391  25.806  26.154  1.00  0.00    -0.167 F 
ATOM     21  F   UNL A   1      31.480  25.276  25.262  1.00  0.00    -0.167 F 
ATOM     22  F   UNL A   1      32.475  23.877  26.600  1.00  0.00    -0.167 F 
ENDBRANCH  11  19
BRANCH  16  23
ATOM     23  O   UNL A   1      32.775  17.888  24.065  1.00  0.00    -0.406 OA
BRANCH  23  24
ATOM     24  C   UNL A   1      33.508  16.793  24.592  1.00  0.00     0.573 C 
ATOM     25  F   UNL A   1      32.896  15.633  24.262  1.00  0.00    -0.132 F 
ATOM     26  F   UNL A   1      34.777  16.772  24.151  1.00  0.00    -0.132 F 
ATOM     27  F   UNL A   1      33.514  16.888  25.937  1.00  0.00    -0.132 F 
ENDBRANCH  23  24
ENDBRANCH  16  23
ENDBRANCH   7   9
ENDBRANCH   4   5
ENDBRANCH   3   4
ENDBRANCH   2   3
ENDBRANCH   1   2
BRANCH   1  28
ATOM     28  C   UNL A   1      31.733  28.566  25.222  1.00  0.00     0.021 C 
BRANCH  28  29
ATOM     29  C   UNL A   1      32.935  29.486  25.415  1.00  0.00     0.116 C 
BRANCH  29  30
ATOM     30  N   UNL A   1      32.580  30.800  25.921  1.00  0.00    -0.352 N 
ATOM     31  C   UNL A   1      33.138  31.529  26.944  1.00  0.00     0.251 C 
ATOM     32  H   UNL A   1      31.826  31.235  25.459  1.00  0.00     0.163 HD
ATOM     33  O   UNL A   1      32.603  32.576  27.296  1.00  0.00    -0.269 OA
BRANCH  31  34
ATOM     34  C   UNL A   1      34.358  31.054  27.644  1.00  0.00     0.039 A 
ATOM     35  C   UNL A   1      35.370  31.979  27.923  1.00  0.00     0.014 A 
ATOM     36  C   UNL A   1      34.533  29.714  28.000  1.00  0.00     0.014 A 
ATOM     37  C   UNL A   1      36.525  31.573  28.599  1.00  0.00     0.010 A 
ATOM     38  C   UNL A   1      35.651  29.325  28.742  1.00  0.00     0.010 A 
ATOM     39  C   UNL A   1      36.666  30.247  29.040  1.00  0.00    -0.014 A 
BRANCH  39  40
ATOM     40  C   UNL A   1      37.868  29.817  29.809  1.00  0.00     0.031 A 
ATOM     41  C   UNL A   1      38.105  30.324  31.208  1.00  0.00     0.074 A 
ATOM     42  C   UNL A   1      38.781  29.011  29.228  1.00  0.00     0.049 A 
ATOM     43  N   UNL A   1      39.099  30.070  32.020  1.00  0.00    -0.248 NA
ATOM     44  C   UNL A   1      37.106  31.254  31.763  1.00  0.00     0.031 C 
ATOM     45  C   UNL A   1      38.710  28.500  27.858  1.00  0.00     0.029 A 
ATOM     46  N   UNL A   1      39.960  28.495  29.711  1.00  0.00    -0.354 N 
ATOM     47  C   UNL A   1      38.871  30.837  33.157  1.00  0.00     0.074 A 
ATOM     48  C   UNL A   1      37.655  31.584  32.924  1.00  0.00     0.031 C 
ATOM     49  C   UNL A   1      39.787  27.736  27.615  1.00  0.00     0.029 A 
ATOM     50  C   UNL A   1      40.644  27.727  28.797  1.00  0.00     0.049 A 
ATOM     51  H   UNL A   1      40.285  28.660  30.626  1.00  0.00     0.167 HD
ATOM     52  C   UNL A   1      39.591  30.897  34.303  1.00  0.00     0.034 A 
ATOM     53  C   UNL A   1      41.831  27.093  28.893  1.00  0.00     0.034 A 
ATOM     54  C   UNL A   1      40.775  30.119  34.556  1.00  0.00     0.049 A 
ATOM     55  C   UNL A   1      42.595  27.158  30.190  1.00  0.00     0.074 A 
ATOM     56  C   UNL A   1      41.514  30.035  35.723  1.00  0.00     0.029 A 
ATOM     57  N   UNL A   1      41.402  29.304  33.627  1.00  0.00    -0.354 N 
ATOM     58  N   UNL A   1      42.271  27.755  31.311  1.00  0.00    -0.248 NA
ATOM     59  C   UNL A   1      43.873  26.432  30.244  1.00  0.00     0.031 C 
ATOM     60  C   UNL A   1      42.611  29.202  35.487  1.00  0.00     0.029 A 
ATOM     61  C   UNL A   1      42.530  28.731  34.187  1.00  0.00     0.049 A 
ATOM     62  H   UNL A   1      41.090  29.154  32.705  1.00  0.00     0.167 HD
ATOM     63  C   UNL A   1      43.281  27.441  32.214  1.00  0.00     0.074 A 
ATOM     64  C   UNL A   1      44.217  26.585  31.516  1.00  0.00     0.031 C 
ATOM     65  C   UNL A   1      43.426  27.835  33.503  1.00  0.00     0.034 A 
BRANCH  52  66
ATOM     66  C   UNL A   1      39.107  31.812  35.398  1.00  0.00     0.023 A 
ATOM     67  C   UNL A   1      38.169  31.343  36.341  1.00  0.00     0.012 A 
ATOM     68  C   UNL A   1      39.645  33.106  35.544  1.00  0.00     0.148 A 
ATOM     69  C   UNL A   1      37.750  32.158  37.392  1.00  0.00     0.002 A 
ATOM     70  C   UNL A   1      39.258  33.894  36.622  1.00  0.00     0.091 A 
ATOM     71  F   UNL A   1      40.522  33.540  34.629  1.00  0.00    -0.205 F 
ATOM     72  C   UNL A   1      38.303  33.428  37.539  1.00  0.00     0.022 A 
BRANCH  70  73
ATOM     73  S   UNL A   1      39.974  35.510  36.949  1.00  0.00     0.127 S 
ATOM     74  O   UNL A   1      39.298  35.886  38.190  1.00  0.00    -0.237 OA
ATOM     75  O   UNL A   1      41.394  35.191  37.099  1.00  0.00    -0.237 OA
ATOM     76  O   UNL A   1      39.654  36.335  35.791  1.00  0.00    -0.744 OA
ENDBRANCH  70  73
ENDBRANCH  52  66
BRANCH  53  77
ATOM     77  C   UNL A   1      42.352  26.291  27.749  1.00  0.00     0.023 A 
ATOM     78  C   UNL A   1      43.250  26.884  26.839  1.00  0.00     0.012 A 
ATOM     79  C   UNL A   1      41.962  24.953  27.553  1.00  0.00     0.148 A 
ATOM     80  C   UNL A   1      43.715  26.175  25.732  1.00  0.00     0.002 A 
ATOM     81  C   UNL A   1      42.475  24.233  26.480  1.00  0.00     0.091 A 
ATOM     82  F   UNL A   1      41.098  24.408  28.421  1.00  0.00    -0.205 F 
ATOM     83  C   UNL A   1      43.335  24.847  25.556  1.00  0.00     0.022 A 
BRANCH  81  84
ATOM     84  S   UNL A   1      42.142  22.483  26.247  1.00  0.00     0.127 S 
ATOM     85  O   UNL A   1      40.686  22.468  26.132  1.00  0.00    -0.237 OA
ATOM     86  O   UNL A   1      42.862  22.202  25.005  1.00  0.00    -0.237 OA
ATOM     87  O   UNL A   1      42.691  21.818  27.421  1.00  0.00    -0.744 OA
ENDBRANCH  81  84
ENDBRANCH  53  77
BRANCH  65  88
ATOM     88  C   UNL A   1      44.612  27.309  34.271  1.00  0.00     0.023 A 
ATOM     89  C   UNL A   1      45.813  28.043  34.309  1.00  0.00     0.012 A 
ATOM     90  C   UNL A   1      44.506  26.118  35.017  1.00  0.00     0.148 A 
ATOM     91  C   UNL A   1      46.904  27.581  35.047  1.00  0.00     0.002 A 
ATOM     92  C   UNL A   1      45.577  25.693  35.794  1.00  0.00     0.091 A 
ATOM     93  F   UNL A   1      43.360  25.425  34.957  1.00  0.00    -0.205 F 
ATOM     94  C   UNL A   1      46.781  26.415  35.798  1.00  0.00     0.022 A 
BRANCH  92  95
ATOM     95  S   UNL A   1      45.477  24.259  36.872  1.00  0.00     0.127 S 
ATOM     96  O   UNL A   1      44.821  24.820  38.053  1.00  0.00    -0.237 OA
ATOM     97  O   UNL A   1      44.647  23.342  36.090  1.00  0.00    -0.237 OA
ATOM     98  O   UNL A   1      46.849  23.811  37.075  1.00  0.00    -0.744 OA
ENDBRANCH  92  95
ENDBRANCH  65  88
ENDBRANCH  39  40
ENDBRANCH  31  34
ENDBRANCH  29  30
ENDBRANCH  28  29
ENDBRANCH   1  28
TORSDOF 19
ENDMDL
MODEL 2
REMARK VINA RESULT:     -12.1      2.505      7.850
REMARK SMILES O=C(NCCCCCCNC(=O)c1ccc(-c2c3nc(c(-c4cccc(S(=O)(=O)[O-])c4F)c4ccc([nH]4)c(-c4cccc(S(=O)(=O)[O-])c4F)c4nc(c(-c5cccc(S(=O)(=O)[O-])c5F)c5ccc2[nH]5)C=C4)C=C3)cc1)C1=Cc2cc(OC(F)(F)F)ccc2O[C@@H]1C(F)(F)F
REMARK SMILES IDX 7 1 6 2 5 3 4 4 3 5 1 6 2 7 76 9 77 10 90 11 78 12 89 13
REMARK SMILES IDX 79 14 88 15 80 16 87 17 86 18 91 19 92 20 93 21 94 22 81 23
REMARK SMILES IDX 82 24 83 25 84 26 85 27 8 28 9 29 10 30 11 31 12 33 13 34
REMARK SMILES IDX 14 35 75 36 15 37 74 38 16 39 17 40 18 41 68 42 19 43 73 44
REMARK SMILES IDX 67 45 69 46 20 47 72 48 66 49 65 50 21 52 53 53 33 54 52 55
REMARK SMILES IDX 34 56 37 57 51 58 70 59 35 60 36 61 50 63 71 64 38 65 22 66
REMARK SMILES IDX 23 67 31 68 24 69 26 70 32 71 25 72 27 73 28 74 29 75 30 76
REMARK SMILES IDX 54 77 55 78 63 79 56 80 58 81 64 82 57 83 59 84 60 85 61 86
REMARK SMILES IDX 62 87 39 88 40 89 48 90 41 91 43 92 49 93 42 94 44 95 45 96
REMARK SMILES IDX 46 97 47 98
REMARK H PARENT 3 8 10 32 69 51 37 62
REMARK Flexibility Score: inf
ROOT
ATOM      1  C   UNL A   1      31.793  30.288  26.832  1.00  0.00     0.002 C 
ENDROOT
BRANCH   1   2
ATOM      2  C   UNL A   1      31.693  29.614  25.457  1.00  0.00     0.002 C 
BRANCH   2   3
ATOM      3  C   UNL A   1      31.351  28.126  25.445  1.00  0.00     0.021 C 
BRANCH   3   4
ATOM      4  C   UNL A   1      31.783  27.321  26.664  1.00  0.00     0.116 C 
BRANCH   4   5
ATOM      5  N   UNL A   1      31.069  26.074  26.876  1.00  0.00    -0.352 N 
ATOM      6  O   UNL A   1      30.739  23.855  26.927  1.00  0.00    -0.270 OA
ATOM      7  C   UNL A   1      31.423  24.799  26.530  1.00  0.00     0.251 C 
ATOM      8  H   UNL A   1      30.203  26.159  27.335  1.00  0.00     0.163 HD
BRANCH   7   9
ATOM      9  C   UNL A   1      32.668  24.486  25.764  1.00  0.00     0.067 C 
ATOM     10  C   UNL A   1      33.468  23.445  26.061  1.00  0.00     0.025 C 
ATOM     11  C   UNL A   1      32.577  24.933  24.320  1.00  0.00     0.314 C 
ATOM     12  C   UNL A   1      33.296  22.348  25.069  1.00  0.00     0.021 A 
ATOM     13  O   UNL A   1      32.211  23.825  23.453  1.00  0.00    -0.475 OA
ATOM     14  C   UNL A   1      33.619  21.040  25.451  1.00  0.00     0.058 A 
ATOM     15  C   UNL A   1      32.574  22.574  23.889  1.00  0.00     0.128 A 
ATOM     16  C   UNL A   1      33.115  19.949  24.736  1.00  0.00     0.130 A 
ATOM     17  C   UNL A   1      32.085  21.490  23.167  1.00  0.00     0.051 A 
ATOM     18  C   UNL A   1      32.325  20.181  23.608  1.00  0.00     0.050 A 
BRANCH  11  19
ATOM     19  C   UNL A   1      33.853  25.646  23.842  1.00  0.00     0.429 C 
ATOM     20  F   UNL A   1      33.609  26.942  23.531  1.00  0.00    -0.167 F 
ATOM     21  F   UNL A   1      34.808  25.652  24.806  1.00  0.00    -0.167 F 
ATOM     22  F   UNL A   1      34.402  25.066  22.749  1.00  0.00    -0.167 F 
ENDBRANCH  11  19
BRANCH  16  23
ATOM     23  O   UNL A   1      33.471  18.735  25.247  1.00  0.00    -0.406 OA
BRANCH  23  24
ATOM     24  C   UNL A   1      34.363  17.919  24.502  1.00  0.00     0.573 C 
ATOM     25  F   UNL A   1      34.502  16.720  25.112  1.00  0.00    -0.132 F 
ATOM     26  F   UNL A   1      33.945  17.734  23.238  1.00  0.00    -0.132 F 
ATOM     27  F   UNL A   1      35.573  18.515  24.481  1.00  0.00    -0.132 F 
ENDBRANCH  23  24
ENDBRANCH  16  23
ENDBRANCH   7   9
ENDBRANCH   4   5
ENDBRANCH   3   4
ENDBRANCH   2   3
ENDBRANCH   1   2
BRANCH   1  28
ATOM     28  C   UNL A   1      31.600  31.805  26.876  1.00  0.00     0.021 C 
BRANCH  28  29
ATOM     29  C   UNL A   1      32.857  32.646  27.083  1.00  0.00     0.116 C 
BRANCH  29  30
ATOM     30  N   UNL A   1      32.581  33.990  27.557  1.00  0.00    -0.352 N 
ATOM     31  C   UNL A   1      33.158  34.696  28.587  1.00  0.00     0.251 C 
ATOM     32  H   UNL A   1      31.874  34.469  27.066  1.00  0.00     0.163 HD
ATOM     33  O   UNL A   1      32.689  35.784  28.906  1.00  0.00    -0.269 OA
BRANCH  31  34
ATOM     34  C   UNL A   1      34.321  34.148  29.330  1.00  0.00     0.039 A 
ATOM     35  C   UNL A   1      34.078  33.310  30.424  1.00  0.00     0.014 A 
ATOM     36  C   UNL A   1      35.637  34.472  28.988  1.00  0.00     0.014 A 
ATOM     37  C   UNL A   1      35.149  32.758  31.135  1.00  0.00     0.010 A 
ATOM     38  C   UNL A   1      36.704  33.860  29.651  1.00  0.00     0.010 A 
ATOM     39  C   UNL A   1      36.474  33.006  30.740  1.00  0.00    -0.014 A 
BRANCH  39  40
ATOM     40  C   UNL A   1      37.619  32.380  31.458  1.00  0.00     0.031 A 
ATOM     41  C   UNL A   1      38.399  31.256  30.824  1.00  0.00     0.074 A 
ATOM     42  C   UNL A   1      37.928  32.783  32.708  1.00  0.00     0.049 A 
ATOM     43  N   UNL A   1      39.413  30.583  31.304  1.00  0.00    -0.248 NA
ATOM     44  C   UNL A   1      37.973  30.815  29.485  1.00  0.00     0.031 C 
ATOM     45  C   UNL A   1      37.215  33.814  33.465  1.00  0.00     0.029 A 
ATOM     46  N   UNL A   1      38.910  32.361  33.571  1.00  0.00    -0.354 N 
ATOM     47  C   UNL A   1      39.718  29.617  30.352  1.00  0.00     0.074 A 
ATOM     48  C   UNL A   1      38.767  29.774  29.274  1.00  0.00     0.031 C 
ATOM     49  C   UNL A   1      37.789  33.953  34.671  1.00  0.00     0.029 A 
ATOM     50  C   UNL A   1      38.889  33.001  34.790  1.00  0.00     0.049 A 
ATOM     51  H   UNL A   1      39.567  31.665  33.340  1.00  0.00     0.167 HD
ATOM     52  C   UNL A   1      40.713  28.698  30.359  1.00  0.00     0.034 A 
ATOM     53  C   UNL A   1      39.661  32.835  35.883  1.00  0.00     0.034 A 
ATOM     54  C   UNL A   1      41.690  28.571  31.407  1.00  0.00     0.049 A 
ATOM     55  C   UNL A   1      40.776  31.823  35.850  1.00  0.00     0.074 A 
ATOM     56  C   UNL A   1      42.795  27.739  31.455  1.00  0.00     0.029 A 
ATOM     57  N   UNL A   1      41.672  29.280  32.597  1.00  0.00    -0.354 N 
ATOM     58  N   UNL A   1      41.149  31.037  34.869  1.00  0.00    -0.248 NA
ATOM     59  C   UNL A   1      41.598  31.699  37.063  1.00  0.00     0.031 C 
ATOM     60  C   UNL A   1      43.422  27.916  32.692  1.00  0.00     0.029 A 
ATOM     61  C   UNL A   1      42.734  28.890  33.395  1.00  0.00     0.049 A 
ATOM     62  H   UNL A   1      41.004  29.961  32.840  1.00  0.00     0.167 HD
ATOM     63  C   UNL A   1      42.273  30.360  35.331  1.00  0.00     0.074 A 
ATOM     64  C   UNL A   1      42.531  30.842  36.672  1.00  0.00     0.031 C 
ATOM     65  C   UNL A   1      43.017  29.416  34.705  1.00  0.00     0.034 A 
BRANCH  52  66
ATOM     66  C   UNL A   1      40.828  27.768  29.178  1.00  0.00     0.023 A 
ATOM     67  C   UNL A   1      40.010  26.622  29.105  1.00  0.00     0.012 A 
ATOM     68  C   UNL A   1      41.683  28.076  28.101  1.00  0.00     0.148 A 
ATOM     69  C   UNL A   1      40.065  25.779  27.995  1.00  0.00     0.002 A 
ATOM     70  C   UNL A   1      41.696  27.258  26.977  1.00  0.00     0.091 A 
ATOM     71  F   UNL A   1      42.464  29.161  28.196  1.00  0.00    -0.205 F 
ATOM     72  C   UNL A   1      40.898  26.104  26.928  1.00  0.00     0.022 A 
BRANCH  70  73
ATOM     73  S   UNL A   1      42.670  27.634  25.515  1.00  0.00     0.127 S 
ATOM     74  O   UNL A   1      42.402  26.467  24.675  1.00  0.00    -0.237 OA
ATOM     75  O   UNL A   1      42.054  28.876  25.048  1.00  0.00    -0.237 OA
ATOM     76  O   UNL A   1      44.047  27.770  25.970  1.00  0.00    -0.744 OA
ENDBRANCH  70  73
ENDBRANCH  52  66
BRANCH  53  77
ATOM     77  C   UNL A   1      39.449  33.685  37.090  1.00  0.00     0.023 A 
ATOM     78  C   UNL A   1      39.976  34.992  37.118  1.00  0.00     0.012 A 
ATOM     79  C   UNL A   1      38.739  33.210  38.209  1.00  0.00     0.148 A 
ATOM     80  C   UNL A   1      39.837  35.793  38.252  1.00  0.00     0.002 A 
ATOM     81  C   UNL A   1      38.554  34.034  39.313  1.00  0.00     0.091 A 
ATOM     82  F   UNL A   1      38.255  31.960  38.170  1.00  0.00    -0.205 F 
ATOM     83  C   UNL A   1      39.119  35.317  39.346  1.00  0.00     0.022 A 
BRANCH  81  84
ATOM     84  S   UNL A   1      37.537  33.553  40.714  1.00  0.00     0.127 S 
ATOM     85  O   UNL A   1      36.339  33.042  40.053  1.00  0.00    -0.237 OA
ATOM     86  O   UNL A   1      38.370  32.536  41.356  1.00  0.00    -0.237 OA
ATOM     87  O   UNL A   1      37.357  34.764  41.502  1.00  0.00    -0.744 OA
ENDBRANCH  81  84
ENDBRANCH  53  77
BRANCH  65  88
ATOM     88  C   UNL A   1      44.219  28.869  35.434  1.00  0.00     0.023 A 
ATOM     89  C   UNL A   1      45.486  29.456  35.251  1.00  0.00     0.012 A 
ATOM     90  C   UNL A   1      44.073  27.816  36.360  1.00  0.00     0.148 A 
ATOM     91  C   UNL A   1      46.596  28.980  35.949  1.00  0.00     0.002 A 
ATOM     92  C   UNL A   1      45.172  27.384  37.092  1.00  0.00     0.091 A 
ATOM     93  F   UNL A   1      42.862  27.260  36.510  1.00  0.00    -0.205 F 
ATOM     94  C   UNL A   1      46.437  27.954  36.877  1.00  0.00     0.022 A 
BRANCH  92  95
ATOM     95  S   UNL A   1      45.042  26.139  38.381  1.00  0.00     0.127 S 
ATOM     96  O   UNL A   1      43.976  26.687  39.218  1.00  0.00    -0.237 OA
ATOM     97  O   UNL A   1      44.669  24.945  37.621  1.00  0.00    -0.237 OA
ATOM     98  O   UNL A   1      46.355  26.071  39.009  1.00  0.00    -0.744 OA
ENDBRANCH  92  95
ENDBRANCH  65  88
ENDBRANCH  39  40
ENDBRANCH  31  34
ENDBRANCH  29  30
ENDBRANCH  28  29
ENDBRANCH   1  28
TORSDOF 19
ENDMDL
MODEL 3
REMARK VINA RESULT:     -12.1      2.040      2.727
REMARK SMILES O=C(NCCCCCCNC(=O)c1ccc(-c2c3nc(c(-c4cccc(S(=O)(=O)[O-])c4F)c4ccc([nH]4)c(-c4cccc(S(=O)(=O)[O-])c4F)c4nc(c(-c5cccc(S(=O)(=O)[O-])c5F)c5ccc2[nH]5)C=C4)C=C3)cc1)C1=Cc2cc(OC(F)(F)F)ccc2O[C@@H]1C(F)(F)F
REMARK SMILES IDX 7 1 6 2 5 3 4 4 3 5 1 6 2 7 76 9 77 10 90 11 78 12 89 13
REMARK SMILES IDX 79 14 88 15 80 16 87 17 86 18 91 19 92 20 93 21 94 22 81 23
REMARK SMILES IDX 82 24 83 25 84 26 85 27 8 28 9 29 10 30 11 31 12 33 13 34
REMARK SMILES IDX 14 35 75 36 15 37 74 38 16 39 17 40 18 41 68 42 19 43 73 44
REMARK SMILES IDX 67 45 69 46 20 47 72 48 66 49 65 50 21 52 53 53 33 54 52 55
REMARK SMILES IDX 34 56 37 57 51 58 70 59 35 60 36 61 50 63 71 64 38 65 22 66
REMARK SMILES IDX 23 67 31 68 24 69 26 70 32 71 25 72 27 73 28 74 29 75 30 76
REMARK SMILES IDX 54 77 55 78 63 79 56 80 58 81 64 82 57 83 59 84 60 85 61 86
REMARK SMILES IDX 62 87 39 88 40 89 48 90 41 91 43 92 49 93 42 94 44 95 45 96
REMARK SMILES IDX 46 97 47 98
REMARK H PARENT 3 8 10 32 69 51 37 62
REMARK Flexibility Score: inf
ROOT
ATOM      1  C   UNL A   1      32.320  27.907  24.659  1.00  0.00     0.002 C 
ENDROOT
BRANCH   1   2
ATOM      2  C   UNL A   1      32.380  27.978  23.128  1.00  0.00     0.002 C 
BRANCH   2   3
ATOM      3  C   UNL A   1      31.334  27.172  22.361  1.00  0.00     0.021 C 
BRANCH   3   4
ATOM      4  C   UNL A   1      31.862  26.108  21.408  1.00  0.00     0.116 C 
BRANCH   4   5
ATOM      5  N   UNL A   1      33.134  25.512  21.780  1.00  0.00    -0.352 N 
ATOM      6  O   UNL A   1      34.537  24.029  22.711  1.00  0.00    -0.270 OA
ATOM      7  C   UNL A   1      33.394  24.480  22.639  1.00  0.00     0.251 C 
ATOM      8  H   UNL A   1      33.925  25.908  21.350  1.00  0.00     0.163 HD
BRANCH   7   9
ATOM      9  C   UNL A   1      32.324  23.803  23.437  1.00  0.00     0.067 C 
ATOM     10  C   UNL A   1      31.804  22.609  23.098  1.00  0.00     0.025 C 
ATOM     11  C   UNL A   1      32.389  24.169  24.904  1.00  0.00     0.314 C 
ATOM     12  C   UNL A   1      32.318  21.537  23.995  1.00  0.00     0.021 A 
ATOM     13  O   UNL A   1      33.085  23.146  25.667  1.00  0.00    -0.475 OA
ATOM     14  C   UNL A   1      32.322  20.217  23.529  1.00  0.00     0.058 A 
ATOM     15  C   UNL A   1      33.031  21.872  25.153  1.00  0.00     0.128 A 
ATOM     16  C   UNL A   1      33.137  19.255  24.135  1.00  0.00     0.130 A 
ATOM     17  C   UNL A   1      33.831  20.913  25.768  1.00  0.00     0.051 A 
ATOM     18  C   UNL A   1      33.910  19.617  25.240  1.00  0.00     0.050 A 
BRANCH  11  19
ATOM     19  C   UNL A   1      31.005  24.490  25.493  1.00  0.00     0.429 C 
ATOM     20  F   UNL A   1      31.097  25.369  26.521  1.00  0.00    -0.167 F 
ATOM     21  F   UNL A   1      30.193  25.060  24.568  1.00  0.00    -0.167 F 
ATOM     22  F   UNL A   1      30.363  23.393  25.958  1.00  0.00    -0.167 F 
ENDBRANCH  11  19
BRANCH  16  23
ATOM     23  O   UNL A   1      33.075  18.023  23.550  1.00  0.00    -0.406 OA
BRANCH  23  24
ATOM     24  C   UNL A   1      34.166  17.132  23.727  1.00  0.00     0.573 C 
ATOM     25  F   UNL A   1      33.940  16.343  24.802  1.00  0.00    -0.132 F 
ATOM     26  F   UNL A   1      34.376  16.365  22.644  1.00  0.00    -0.132 F 
ATOM     27  F   UNL A   1      35.276  17.856  23.973  1.00  0.00    -0.132 F 
ENDBRANCH  23  24
ENDBRANCH  16  23
ENDBRANCH   7   9
ENDBRANCH   4   5
ENDBRANCH   3   4
ENDBRANCH   2   3
ENDBRANCH   1   2
BRANCH   1  28
ATOM     28  C   UNL A   1      33.652  27.774  25.400  1.00  0.00     0.021 C 
BRANCH  28  29
ATOM     29  C   UNL A   1      33.656  28.180  26.871  1.00  0.00     0.116 C 
BRANCH  29  30
ATOM     30  N   UNL A   1      33.487  29.608  27.075  1.00  0.00    -0.352 N 
ATOM     31  C   UNL A   1      34.324  30.516  27.681  1.00  0.00     0.251 C 
ATOM     32  H   UNL A   1      32.645  29.983  26.726  1.00  0.00     0.163 HD
ATOM     33  O   UNL A   1      33.933  31.665  27.862  1.00  0.00    -0.269 OA
BRANCH  31  34
ATOM     34  C   UNL A   1      35.678  30.117  28.141  1.00  0.00     0.039 A 
ATOM     35  C   UNL A   1      35.826  29.640  29.447  1.00  0.00     0.014 A 
ATOM     36  C   UNL A   1      36.803  30.236  27.319  1.00  0.00     0.014 A 
ATOM     37  C   UNL A   1      37.083  29.235  29.908  1.00  0.00     0.010 A 
ATOM     38  C   UNL A   1      38.042  29.760  27.754  1.00  0.00     0.010 A 
ATOM     39  C   UNL A   1      38.200  29.266  29.058  1.00  0.00    -0.014 A 
BRANCH  39  40
ATOM     40  C   UNL A   1      39.533  28.787  29.522  1.00  0.00     0.031 A 
ATOM     41  C   UNL A   1      40.254  29.492  30.642  1.00  0.00     0.074 A 
ATOM     42  C   UNL A   1      40.126  27.748  28.898  1.00  0.00     0.049 A 
ATOM     43  N   UNL A   1      41.422  29.227  31.167  1.00  0.00    -0.248 NA
ATOM     44  C   UNL A   1      39.585  30.662  31.239  1.00  0.00     0.031 C 
ATOM     45  C   UNL A   1      39.570  27.016  27.758  1.00  0.00     0.029 A 
ATOM     46  N   UNL A   1      41.337  27.138  29.122  1.00  0.00    -0.354 N 
ATOM     47  C   UNL A   1      41.648  30.214  32.119  1.00  0.00     0.074 A 
ATOM     48  C   UNL A   1      40.506  31.100  32.086  1.00  0.00     0.031 C 
ATOM     49  C   UNL A   1      40.429  26.051  27.392  1.00  0.00     0.029 A 
ATOM     50  C   UNL A   1      41.611  26.113  28.245  1.00  0.00     0.049 A 
ATOM     51  H   UNL A   1      41.951  27.409  29.843  1.00  0.00     0.167 HD
ATOM     52  C   UNL A   1      42.698  30.359  32.963  1.00  0.00     0.034 A 
ATOM     53  C   UNL A   1      42.695  25.318  28.134  1.00  0.00     0.034 A 
ATOM     54  C   UNL A   1      43.813  29.454  33.031  1.00  0.00     0.049 A 
ATOM     55  C   UNL A   1      43.834  25.487  29.104  1.00  0.00     0.074 A 
ATOM     56  C   UNL A   1      44.872  29.460  33.922  1.00  0.00     0.029 A 
ATOM     57  N   UNL A   1      44.024  28.390  32.167  1.00  0.00    -0.354 N 
ATOM     58  N   UNL A   1      43.947  26.323  30.107  1.00  0.00    -0.248 NA
ATOM     59  C   UNL A   1      44.981  24.580  28.948  1.00  0.00     0.031 C 
ATOM     60  C   UNL A   1      45.745  28.426  33.571  1.00  0.00     0.029 A 
ATOM     61  C   UNL A   1      45.207  27.747  32.490  1.00  0.00     0.049 A 
ATOM     62  H   UNL A   1      43.422  28.130  31.433  1.00  0.00     0.167 HD
ATOM     63  C   UNL A   1      45.154  26.014  30.726  1.00  0.00     0.074 A 
ATOM     64  C   UNL A   1      45.725  24.901  29.997  1.00  0.00     0.031 C 
ATOM     65  C   UNL A   1      45.741  26.605  31.796  1.00  0.00     0.034 A 
BRANCH  52  66
ATOM     66  C   UNL A   1      42.684  31.526  33.918  1.00  0.00     0.023 A 
ATOM     67  C   UNL A   1      43.200  32.773  33.509  1.00  0.00     0.012 A 
ATOM     68  C   UNL A   1      42.083  31.410  35.187  1.00  0.00     0.148 A 
ATOM     69  C   UNL A   1      43.147  33.877  34.360  1.00  0.00     0.002 A 
ATOM     70  C   UNL A   1      41.991  32.527  36.009  1.00  0.00     0.091 A 
ATOM     71  F   UNL A   1      41.613  30.213  35.563  1.00  0.00    -0.205 F 
ATOM     72  C   UNL A   1      42.532  33.756  35.603  1.00  0.00     0.022 A 
BRANCH  70  73
ATOM     73  S   UNL A   1      41.143  32.498  37.593  1.00  0.00     0.127 S 
ATOM     74  O   UNL A   1      39.845  31.935  37.223  1.00  0.00    -0.237 OA
ATOM     75  O   UNL A   1      41.994  31.604  38.379  1.00  0.00    -0.237 OA
ATOM     76  O   UNL A   1      41.113  33.877  38.060  1.00  0.00    -0.744 OA
ENDBRANCH  70  73
ENDBRANCH  52  66
BRANCH  53  77
ATOM     77  C   UNL A   1      42.739  24.245  27.098  1.00  0.00     0.023 A 
ATOM     78  C   UNL A   1      43.499  24.444  25.928  1.00  0.00     0.012 A 
ATOM     79  C   UNL A   1      42.033  23.039  27.260  1.00  0.00     0.148 A 
ATOM     80  C   UNL A   1      43.519  23.480  24.919  1.00  0.00     0.002 A 
ATOM     81  C   UNL A   1      42.105  22.057  26.277  1.00  0.00     0.091 A 
ATOM     82  F   UNL A   1      41.307  22.872  28.374  1.00  0.00    -0.205 F 
ATOM     83  C   UNL A   1      42.829  22.283  25.097  1.00  0.00     0.022 A 
BRANCH  81  84
ATOM     84  S   UNL A   1      41.354  20.438  26.477  1.00  0.00     0.127 S 
ATOM     85  O   UNL A   1      39.952  20.720  26.183  1.00  0.00    -0.237 OA
ATOM     86  O   UNL A   1      42.053  19.654  25.458  1.00  0.00    -0.237 OA
ATOM     87  O   UNL A   1      41.646  20.036  27.847  1.00  0.00    -0.744 OA
ENDBRANCH  81  84
ENDBRANCH  53  77
BRANCH  65  88
ATOM     88  C   UNL A   1      47.048  26.036  32.285  1.00  0.00     0.023 A 
ATOM     89  C   UNL A   1      48.267  26.513  31.765  1.00  0.00     0.012 A 
ATOM     90  C   UNL A   1      47.066  25.077  33.318  1.00  0.00     0.148 A 
ATOM     91  C   UNL A   1      49.483  26.017  32.238  1.00  0.00     0.002 A 
ATOM     92  C   UNL A   1      48.281  24.628  33.823  1.00  0.00     0.091 A 
ATOM     93  F   UNL A   1      45.895  24.624  33.790  1.00  0.00    -0.205 F 
ATOM     94  C   UNL A   1      49.489  25.086  33.274  1.00  0.00     0.022 A 
BRANCH  92  95
ATOM     95  S   UNL A   1      48.388  23.508  35.223  1.00  0.00     0.127 S 
ATOM     96  O   UNL A   1      47.764  22.300  34.686  1.00  0.00    -0.237 OA
ATOM     97  O   UNL A   1      49.834  23.408  35.428  1.00  0.00    -0.237 OA
ATOM     98  O   UNL A   1      47.666  24.152  36.311  1.00  0.00    -0.744 OA
ENDBRANCH  92  95
ENDBRANCH  65  88
ENDBRANCH  39  40
ENDBRANCH  31  34
ENDBRANCH  29  30
ENDBRANCH  28  29
ENDBRANCH   1  28
TORSDOF 19
ENDMDL
