MODEL 1
REMARK VINA RESULT:      -7.3      0.000      0.000
REMARK SMILES CCSc1cccc(-c2ccc([C@@H](C)C(=O)NCCCCCCNC(=O)c3ccc(-c4c5nc(c(-c6cccc(S(=O)(=O)[O-])c6F)c6ccc([nH]6)c(-c6cccc(S(=O)(=O)[O-])c6F)c6nc(c(-c7cccc(S(=O)(=O)[O-])c7F)c7ccc4[nH]7)C=C6)C=C5)cc3)cc2)c1
REMARK SMILES IDX 20 1 19 2 18 3 17 4 15 5 16 6 13 8 14 9 12 10 9 11 10 12
REMARK SMILES IDX 91 13 11 14 90 15 8 16 4 17 5 18 92 19 6 20 7 21 3 22 2 23
REMARK SMILES IDX 1 24 21 25 22 26 23 27 24 28 25 29 26 31 27 32 28 33 89 34
REMARK SMILES IDX 29 35 88 36 30 37 31 38 32 39 82 40 33 41 87 42 81 43 83 44
REMARK SMILES IDX 34 45 86 46 80 47 79 48 35 50 67 51 47 52 66 53 48 54 51 55
REMARK SMILES IDX 65 56 84 57 49 58 50 59 64 61 85 62 52 63 36 64 37 65 45 66
REMARK SMILES IDX 38 67 40 68 46 69 39 70 41 71 42 72 43 73 44 74 68 75 69 76
REMARK SMILES IDX 77 77 70 78 72 79 78 80 71 81 73 82 74 83 75 84 76 85 53 86
REMARK SMILES IDX 54 87 62 88 55 89 57 90 63 91 56 92 58 93 59 94 60 95 61 96
REMARK H PARENT 17 7 24 30 83 49 51 60
REMARK Flexibility Score: inf
ROOT
ATOM      1  C   UNL A   1      39.591  32.660  37.189  1.00  0.00     0.002 C 
ENDROOT
BRANCH   1   2
ATOM      2  C   UNL A   1      38.862  32.344  35.880  1.00  0.00     0.021 C 
BRANCH   2   3
ATOM      3  C   UNL A   1      38.766  30.849  35.569  1.00  0.00     0.116 C 
BRANCH   3   4
ATOM      4  N   UNL A   1      37.874  30.586  34.456  1.00  0.00    -0.356 N 
ATOM      5  C   UNL A   1      38.070  30.623  33.110  1.00  0.00     0.227 C 
ATOM      6  O   UNL A   1      37.073  30.421  32.404  1.00  0.00    -0.274 OA
ATOM      7  H   UNL A   1      36.960  30.336  34.723  1.00  0.00     0.163 HD
BRANCH   5   8
ATOM      8  C   UNL A   1      39.435  30.873  32.448  1.00  0.00     0.105 C 
ATOM      9  C   UNL A   1      39.657  32.325  32.021  1.00  0.00     0.023 C 
BRANCH   8  10
ATOM     10  C   UNL A   1      39.825  29.814  31.428  1.00  0.00    -0.036 A 
ATOM     11  C   UNL A   1      40.430  27.777  29.512  1.00  0.00    -0.018 A 
ATOM     12  C   UNL A   1      40.547  29.143  29.209  1.00  0.00     0.009 A 
ATOM     13  C   UNL A   1      40.015  27.450  30.810  1.00  0.00     0.009 A 
ATOM     14  C   UNL A   1      40.289  30.137  30.155  1.00  0.00     0.005 A 
ATOM     15  C   UNL A   1      39.701  28.451  31.746  1.00  0.00     0.005 A 
BRANCH  11  16
ATOM     16  C   UNL A   1      40.731  26.763  28.474  1.00  0.00    -0.017 A 
ATOM     17  C   UNL A   1      41.607  24.577  27.782  1.00  0.00     0.008 A 
ATOM     18  C   UNL A   1      41.038  24.753  26.520  1.00  0.00     0.015 A 
ATOM     19  C   UNL A   1      41.431  25.575  28.757  1.00  0.00     0.023 A 
ATOM     20  C   UNL A   1      40.385  25.935  26.200  1.00  0.00     0.002 A 
ATOM     21  C   UNL A   1      40.251  26.933  27.161  1.00  0.00     0.009 A 
BRANCH  17  22
ATOM     22  S   UNL A   1      42.460  23.068  28.212  1.00  0.00    -0.126 SA
BRANCH  22  23
ATOM     23  C   UNL A   1      43.930  23.706  29.098  1.00  0.00     0.071 C 
ATOM     24  C   UNL A   1      44.986  24.290  28.173  1.00  0.00     0.016 C 
ENDBRANCH  22  23
ENDBRANCH  17  22
ENDBRANCH  11  16
ENDBRANCH   8  10
ENDBRANCH   5   8
ENDBRANCH   3   4
ENDBRANCH   2   3
ENDBRANCH   1   2
BRANCH   1  25
ATOM     25  C   UNL A   1      38.729  33.317  38.275  1.00  0.00     0.002 C 
BRANCH  25  26
ATOM     26  C   UNL A   1      39.402  34.448  39.060  1.00  0.00     0.021 C 
BRANCH  26  27
ATOM     27  C   UNL A   1      39.040  35.856  38.594  1.00  0.00     0.116 C 
BRANCH  27  28
ATOM     28  N   UNL A   1      40.109  36.806  38.863  1.00  0.00    -0.352 N 
ATOM     29  C   UNL A   1      41.384  36.860  38.357  1.00  0.00     0.251 C 
ATOM     30  H   UNL A   1      39.884  37.518  39.504  1.00  0.00     0.163 HD
ATOM     31  O   UNL A   1      42.217  37.592  38.880  1.00  0.00    -0.269 OA
BRANCH  29  32
ATOM     32  C   UNL A   1      41.757  36.033  37.188  1.00  0.00     0.039 A 
ATOM     33  C   UNL A   1      42.985  35.367  37.193  1.00  0.00     0.014 A 
ATOM     34  C   UNL A   1      40.917  35.944  36.074  1.00  0.00     0.014 A 
ATOM     35  C   UNL A   1      43.346  34.568  36.104  1.00  0.00     0.010 A 
ATOM     36  C   UNL A   1      41.247  35.095  35.020  1.00  0.00     0.010 A 
ATOM     37  C   UNL A   1      42.468  34.404  35.020  1.00  0.00    -0.014 A 
BRANCH  37  38
ATOM     38  C   UNL A   1      42.802  33.498  33.891  1.00  0.00     0.031 A 
ATOM     39  C   UNL A   1      42.986  34.045  32.501  1.00  0.00     0.074 A 
ATOM     40  C   UNL A   1      42.849  32.167  34.102  1.00  0.00     0.049 A 
ATOM     41  N   UNL A   1      43.231  33.401  31.389  1.00  0.00    -0.248 NA
ATOM     42  C   UNL A   1      42.850  35.501  32.332  1.00  0.00     0.031 C 
ATOM     43  C   UNL A   1      42.600  31.508  35.386  1.00  0.00     0.029 A 
ATOM     44  N   UNL A   1      43.090  31.130  33.237  1.00  0.00    -0.354 N 
ATOM     45  C   UNL A   1      43.242  34.364  30.386  1.00  0.00     0.074 A 
ATOM     46  C   UNL A   1      42.951  35.633  31.016  1.00  0.00     0.031 C 
ATOM     47  C   UNL A   1      42.700  30.178  35.224  1.00  0.00     0.029 A 
ATOM     48  C   UNL A   1      42.995  29.889  33.825  1.00  0.00     0.049 A 
ATOM     49  H   UNL A   1      43.312  31.261  32.288  1.00  0.00     0.167 HD
ATOM     50  C   UNL A   1      43.498  34.209  29.064  1.00  0.00     0.034 A 
ATOM     51  C   UNL A   1      43.121  28.657  33.295  1.00  0.00     0.034 A 
ATOM     52  C   UNL A   1      43.837  32.953  28.451  1.00  0.00     0.049 A 
ATOM     53  C   UNL A   1      43.464  28.519  31.836  1.00  0.00     0.074 A 
ATOM     54  C   UNL A   1      44.216  32.711  27.142  1.00  0.00     0.029 A 
ATOM     55  N   UNL A   1      43.830  31.728  29.098  1.00  0.00    -0.354 N 
ATOM     56  N   UNL A   1      43.645  29.458  30.940  1.00  0.00    -0.248 NA
ATOM     57  C   UNL A   1      43.660  27.154  31.325  1.00  0.00     0.031 C 
ATOM     58  C   UNL A   1      44.417  31.335  26.993  1.00  0.00     0.029 A 
ATOM     59  C   UNL A   1      44.186  30.723  28.214  1.00  0.00     0.049 A 
ATOM     60  H   UNL A   1      43.604  31.592  30.047  1.00  0.00     0.167 HD
ATOM     61  C   UNL A   1      44.007  28.803  29.769  1.00  0.00     0.074 A 
ATOM     62  C   UNL A   1      44.044  27.388  30.076  1.00  0.00     0.031 C 
ATOM     63  C   UNL A   1      44.270  29.324  28.545  1.00  0.00     0.034 A 
BRANCH  50  64
ATOM     64  C   UNL A   1      43.480  35.440  28.196  1.00  0.00     0.023 A 
ATOM     65  C   UNL A   1      42.251  35.930  27.709  1.00  0.00     0.012 A 
ATOM     66  C   UNL A   1      44.664  36.153  27.923  1.00  0.00     0.148 A 
ATOM     67  C   UNL A   1      42.204  37.090  26.938  1.00  0.00     0.002 A 
ATOM     68  C   UNL A   1      44.604  37.332  27.190  1.00  0.00     0.091 A 
ATOM     69  F   UNL A   1      45.827  35.662  28.377  1.00  0.00    -0.205 F 
ATOM     70  C   UNL A   1      43.376  37.797  26.688  1.00  0.00     0.022 A 
BRANCH  68  71
ATOM     71  S   UNL A   1      46.046  38.358  26.880  1.00  0.00     0.127 S 
ATOM     72  O   UNL A   1      45.467  39.458  26.112  1.00  0.00    -0.237 OA
ATOM     73  O   UNL A   1      46.467  38.715  28.236  1.00  0.00    -0.237 OA
ATOM     74  O   UNL A   1      46.988  37.517  26.154  1.00  0.00    -0.744 OA
ENDBRANCH  68  71
ENDBRANCH  50  64
BRANCH  51  75
ATOM     75  C   UNL A   1      42.988  27.455  34.168  1.00  0.00     0.023 A 
ATOM     76  C   UNL A   1      41.705  26.973  34.492  1.00  0.00     0.012 A 
ATOM     77  C   UNL A   1      44.120  26.770  34.647  1.00  0.00     0.148 A 
ATOM     78  C   UNL A   1      41.551  25.850  35.305  1.00  0.00     0.002 A 
ATOM     79  C   UNL A   1      43.961  25.618  35.410  1.00  0.00     0.091 A 
ATOM     80  F   UNL A   1      45.333  27.250  34.338  1.00  0.00    -0.205 F 
ATOM     81  C   UNL A   1      42.677  25.167  35.755  1.00  0.00     0.022 A 
BRANCH  79  82
ATOM     82  S   UNL A   1      45.353  24.601  35.914  1.00  0.00     0.127 S 
ATOM     83  O   UNL A   1      46.047  24.394  34.646  1.00  0.00    -0.237 OA
ATOM     84  O   UNL A   1      46.043  25.477  36.861  1.00  0.00    -0.237 OA
ATOM     85  O   UNL A   1      44.769  23.411  36.521  1.00  0.00    -0.744 OA
ENDBRANCH  79  82
ENDBRANCH  51  75
BRANCH  63  86
ATOM     86  C   UNL A   1      44.651  28.368  27.445  1.00  0.00     0.023 A 
ATOM     87  C   UNL A   1      43.652  27.823  26.614  1.00  0.00     0.012 A 
ATOM     88  C   UNL A   1      46.003  28.069  27.188  1.00  0.00     0.148 A 
ATOM     89  C   UNL A   1      43.990  26.970  25.565  1.00  0.00     0.002 A 
ATOM     90  C   UNL A   1      46.337  27.256  26.111  1.00  0.00     0.091 A 
ATOM     91  F   UNL A   1      46.939  28.581  28.002  1.00  0.00    -0.205 F 
ATOM     92  C   UNL A   1      45.331  26.697  25.306  1.00  0.00     0.022 A 
BRANCH  90  93
ATOM     93  S   UNL A   1      48.040  26.928  25.645  1.00  0.00     0.127 S 
ATOM     94  O   UNL A   1      47.927  25.621  25.001  1.00  0.00    -0.237 OA
ATOM     95  O   UNL A   1      48.331  28.035  24.731  1.00  0.00    -0.237 OA
ATOM     96  O   UNL A   1      48.806  26.953  26.884  1.00  0.00    -0.744 OA
ENDBRANCH  90  93
ENDBRANCH  63  86
ENDBRANCH  37  38
ENDBRANCH  29  32
ENDBRANCH  27  28
ENDBRANCH  26  27
ENDBRANCH  25  26
ENDBRANCH   1  25
TORSDOF 20
ENDMDL
MODEL 2
REMARK VINA RESULT:      -7.1      4.470      8.364
REMARK SMILES CCSc1cccc(-c2ccc([C@@H](C)C(=O)NCCCCCCNC(=O)c3ccc(-c4c5nc(c(-c6cccc(S(=O)(=O)[O-])c6F)c6ccc([nH]6)c(-c6cccc(S(=O)(=O)[O-])c6F)c6nc(c(-c7cccc(S(=O)(=O)[O-])c7F)c7ccc4[nH]7)C=C6)C=C5)cc3)cc2)c1
REMARK SMILES IDX 20 1 19 2 18 3 17 4 15 5 16 6 13 8 14 9 12 10 9 11 10 12
REMARK SMILES IDX 91 13 11 14 90 15 8 16 4 17 5 18 92 19 6 20 7 21 3 22 2 23
REMARK SMILES IDX 1 24 21 25 22 26 23 27 24 28 25 29 26 31 27 32 28 33 89 34
REMARK SMILES IDX 29 35 88 36 30 37 31 38 32 39 82 40 33 41 87 42 81 43 83 44
REMARK SMILES IDX 34 45 86 46 80 47 79 48 35 50 67 51 47 52 66 53 48 54 51 55
REMARK SMILES IDX 65 56 84 57 49 58 50 59 64 61 85 62 52 63 36 64 37 65 45 66
REMARK SMILES IDX 38 67 40 68 46 69 39 70 41 71 42 72 43 73 44 74 68 75 69 76
REMARK SMILES IDX 77 77 70 78 72 79 78 80 71 81 73 82 74 83 75 84 76 85 53 86
REMARK SMILES IDX 54 87 62 88 55 89 57 90 63 91 56 92 58 93 59 94 60 95 61 96
REMARK H PARENT 17 7 24 30 83 49 51 60
REMARK Flexibility Score: inf
ROOT
ATOM      1  C   UNL A   1      40.390  26.483  28.851  1.00  0.00     0.002 C 
ENDROOT
BRANCH   1   2
ATOM      2  C   UNL A   1      41.319  26.898  27.707  1.00  0.00     0.021 C 
BRANCH   2   3
ATOM      3  C   UNL A   1      40.879  26.386  26.334  1.00  0.00     0.116 C 
BRANCH   3   4
ATOM      4  N   UNL A   1      41.684  25.262  25.895  1.00  0.00    -0.356 N 
ATOM      5  C   UNL A   1      41.667  23.946  26.238  1.00  0.00     0.227 C 
ATOM      6  O   UNL A   1      42.549  23.236  25.738  1.00  0.00    -0.274 OA
ATOM      7  H   UNL A   1      42.369  25.495  25.227  1.00  0.00     0.163 HD
BRANCH   5   8
ATOM      8  C   UNL A   1      40.619  23.317  27.171  1.00  0.00     0.105 C 
ATOM      9  C   UNL A   1      41.190  22.255  28.113  1.00  0.00     0.023 C 
BRANCH   8  10
ATOM     10  C   UNL A   1      39.317  22.953  26.473  1.00  0.00    -0.036 A 
ATOM     11  C   UNL A   1      36.848  22.174  25.255  1.00  0.00    -0.018 A 
ATOM     12  C   UNL A   1      37.045  23.460  25.784  1.00  0.00     0.009 A 
ATOM     13  C   UNL A   1      37.928  21.285  25.336  1.00  0.00     0.009 A 
ATOM     14  C   UNL A   1      38.261  23.853  26.343  1.00  0.00     0.005 A 
ATOM     15  C   UNL A   1      39.135  21.662  25.951  1.00  0.00     0.005 A 
BRANCH  11  16
ATOM     16  C   UNL A   1      35.540  21.814  24.658  1.00  0.00    -0.017 A 
ATOM     17  C   UNL A   1      33.559  20.373  24.509  1.00  0.00     0.008 A 
ATOM     18  C   UNL A   1      32.938  21.317  23.691  1.00  0.00     0.015 A 
ATOM     19  C   UNL A   1      34.848  20.638  25.005  1.00  0.00     0.023 A 
ATOM     20  C   UNL A   1      33.616  22.462  23.295  1.00  0.00     0.002 A 
ATOM     21  C   UNL A   1      34.907  22.695  23.760  1.00  0.00     0.009 A 
BRANCH  17  22
ATOM     22  S   UNL A   1      32.707  18.890  25.023  1.00  0.00    -0.126 SA
BRANCH  22  23
ATOM     23  C   UNL A   1      32.722  17.896  23.485  1.00  0.00     0.071 C 
ATOM     24  C   UNL A   1      34.044  17.188  23.237  1.00  0.00     0.016 C 
ENDBRANCH  22  23
ENDBRANCH  17  22
ENDBRANCH  11  16
ENDBRANCH   8  10
ENDBRANCH   5   8
ENDBRANCH   3   4
ENDBRANCH   2   3
ENDBRANCH   1   2
BRANCH   1  25
ATOM     25  C   UNL A   1      39.937  27.625  29.771  1.00  0.00     0.002 C 
BRANCH  25  26
ATOM     26  C   UNL A   1      38.611  27.397  30.505  1.00  0.00     0.021 C 
BRANCH  26  27
ATOM     27  C   UNL A   1      38.669  27.611  32.015  1.00  0.00     0.116 C 
BRANCH  27  28
ATOM     28  N   UNL A   1      37.747  28.650  32.450  1.00  0.00    -0.352 N 
ATOM     29  C   UNL A   1      37.931  30.007  32.539  1.00  0.00     0.251 C 
ATOM     30  H   UNL A   1      36.856  28.331  32.721  1.00  0.00     0.163 HD
ATOM     31  O   UNL A   1      37.120  30.694  33.151  1.00  0.00    -0.269 OA
BRANCH  29  32
ATOM     32  C   UNL A   1      39.107  30.642  31.904  1.00  0.00     0.039 A 
ATOM     33  C   UNL A   1      40.244  30.891  32.679  1.00  0.00     0.014 A 
ATOM     34  C   UNL A   1      39.079  31.025  30.561  1.00  0.00     0.014 A 
ATOM     35  C   UNL A   1      41.370  31.474  32.093  1.00  0.00     0.010 A 
ATOM     36  C   UNL A   1      40.225  31.545  29.962  1.00  0.00     0.010 A 
ATOM     37  C   UNL A   1      41.379  31.782  30.722  1.00  0.00    -0.014 A 
BRANCH  37  38
ATOM     38  C   UNL A   1      42.594  32.330  30.065  1.00  0.00     0.031 A 
ATOM     39  C   UNL A   1      42.717  33.806  29.795  1.00  0.00     0.074 A 
ATOM     40  C   UNL A   1      43.549  31.485  29.630  1.00  0.00     0.049 A 
ATOM     41  N   UNL A   1      43.678  34.455  29.191  1.00  0.00    -0.248 NA
ATOM     42  C   UNL A   1      41.602  34.661  30.236  1.00  0.00     0.031 C 
ATOM     43  C   UNL A   1      43.504  30.026  29.753  1.00  0.00     0.029 A 
ATOM     44  N   UNL A   1      44.727  31.726  28.969  1.00  0.00    -0.354 N 
ATOM     45  C   UNL A   1      43.271  35.783  29.145  1.00  0.00     0.074 A 
ATOM     46  C   UNL A   1      41.962  35.845  29.757  1.00  0.00     0.031 C 
ATOM     47  C   UNL A   1      44.603  29.503  29.184  1.00  0.00     0.029 A 
ATOM     48  C   UNL A   1      45.417  30.582  28.636  1.00  0.00     0.049 A 
ATOM     49  H   UNL A   1      45.049  32.631  28.754  1.00  0.00     0.167 HD
ATOM     50  C   UNL A   1      43.938  36.859  28.661  1.00  0.00     0.034 A 
ATOM     51  C   UNL A   1      46.570  30.421  27.959  1.00  0.00     0.034 A 
ATOM     52  C   UNL A   1      45.261  36.800  28.099  1.00  0.00     0.049 A 
ATOM     53  C   UNL A   1      47.318  31.638  27.485  1.00  0.00     0.074 A 
ATOM     54  C   UNL A   1      46.063  37.847  27.678  1.00  0.00     0.029 A 
ATOM     55  N   UNL A   1      45.974  35.634  27.869  1.00  0.00    -0.354 N 
ATOM     56  N   UNL A   1      46.997  32.902  27.611  1.00  0.00    -0.248 NA
ATOM     57  C   UNL A   1      48.606  31.408  26.814  1.00  0.00     0.031 C 
ATOM     58  C   UNL A   1      47.252  37.312  27.174  1.00  0.00     0.029 A 
ATOM     59  C   UNL A   1      47.201  35.933  27.302  1.00  0.00     0.049 A 
ATOM     60  H   UNL A   1      45.654  34.727  28.078  1.00  0.00     0.167 HD
ATOM     61  C   UNL A   1      48.054  33.620  27.064  1.00  0.00     0.074 A 
ATOM     62  C   UNL A   1      49.038  32.649  26.629  1.00  0.00     0.031 C 
ATOM     63  C   UNL A   1      48.193  34.961  26.921  1.00  0.00     0.034 A 
BRANCH  50  64
ATOM     64  C   UNL A   1      43.273  38.206  28.770  1.00  0.00     0.023 A 
ATOM     65  C   UNL A   1      42.304  38.583  27.818  1.00  0.00     0.012 A 
ATOM     66  C   UNL A   1      43.551  39.067  29.851  1.00  0.00     0.148 A 
ATOM     67  C   UNL A   1      41.645  39.807  27.921  1.00  0.00     0.002 A 
ATOM     68  C   UNL A   1      42.858  40.266  29.970  1.00  0.00     0.091 A 
ATOM     69  F   UNL A   1      44.489  38.702  30.736  1.00  0.00    -0.205 F 
ATOM     70  C   UNL A   1      41.913  40.643  29.001  1.00  0.00     0.022 A 
BRANCH  68  71
ATOM     71  S   UNL A   1      43.074  41.376  31.366  1.00  0.00     0.127 S 
ATOM     72  O   UNL A   1      42.353  40.666  32.422  1.00  0.00    -0.237 OA
ATOM     73  O   UNL A   1      44.529  41.393  31.526  1.00  0.00    -0.237 OA
ATOM     74  O   UNL A   1      42.493  42.649  30.961  1.00  0.00    -0.744 OA
ENDBRANCH  68  71
ENDBRANCH  50  64
BRANCH  51  75
ATOM     75  C   UNL A   1      47.122  29.052  27.747  1.00  0.00     0.023 A 
ATOM     76  C   UNL A   1      47.973  28.490  28.719  1.00  0.00     0.012 A 
ATOM     77  C   UNL A   1      46.782  28.293  26.611  1.00  0.00     0.148 A 
ATOM     78  C   UNL A   1      48.502  27.211  28.548  1.00  0.00     0.002 A 
ATOM     79  C   UNL A   1      47.268  26.997  26.473  1.00  0.00     0.091 A 
ATOM     80  F   UNL A   1      45.981  28.849  25.690  1.00  0.00    -0.205 F 
ATOM     81  C   UNL A   1      48.142  26.461  27.431  1.00  0.00     0.022 A 
BRANCH  79  82
ATOM     82  S   UNL A   1      46.745  25.914  25.139  1.00  0.00     0.127 S 
ATOM     83  O   UNL A   1      45.314  25.785  25.401  1.00  0.00    -0.237 OA
ATOM     84  O   UNL A   1      47.088  26.702  23.955  1.00  0.00    -0.237 OA
ATOM     85  O   UNL A   1      47.532  24.696  25.293  1.00  0.00    -0.744 OA
ENDBRANCH  79  82
ENDBRANCH  51  75
BRANCH  63  86
ATOM     86  C   UNL A   1      49.464  35.470  26.294  1.00  0.00     0.023 A 
ATOM     87  C   UNL A   1      49.521  35.684  24.902  1.00  0.00     0.012 A 
ATOM     88  C   UNL A   1      50.576  35.806  27.091  1.00  0.00     0.148 A 
ATOM     89  C   UNL A   1      50.674  36.195  24.310  1.00  0.00     0.002 A 
ATOM     90  C   UNL A   1      51.706  36.359  26.500  1.00  0.00     0.091 A 
ATOM     91  F   UNL A   1      50.511  35.576  28.411  1.00  0.00    -0.205 F 
ATOM     92  C   UNL A   1      51.761  36.543  25.109  1.00  0.00     0.022 A 
BRANCH  90  93
ATOM     93  S   UNL A   1      53.113  36.926  27.460  1.00  0.00     0.127 S 
ATOM     94  O   UNL A   1      53.592  35.679  28.053  1.00  0.00    -0.237 OA
ATOM     95  O   UNL A   1      53.988  37.487  26.429  1.00  0.00    -0.237 OA
ATOM     96  O   UNL A   1      52.587  37.906  28.401  1.00  0.00    -0.744 OA
ENDBRANCH  90  93
ENDBRANCH  63  86
ENDBRANCH  37  38
ENDBRANCH  29  32
ENDBRANCH  27  28
ENDBRANCH  26  27
ENDBRANCH  25  26
ENDBRANCH   1  25
TORSDOF 20
ENDMDL
MODEL 3
REMARK VINA RESULT:      -7.1      5.800     11.396
REMARK SMILES CCSc1cccc(-c2ccc([C@@H](C)C(=O)NCCCCCCNC(=O)c3ccc(-c4c5nc(c(-c6cccc(S(=O)(=O)[O-])c6F)c6ccc([nH]6)c(-c6cccc(S(=O)(=O)[O-])c6F)c6nc(c(-c7cccc(S(=O)(=O)[O-])c7F)c7ccc4[nH]7)C=C6)C=C5)cc3)cc2)c1
REMARK SMILES IDX 20 1 19 2 18 3 17 4 15 5 16 6 13 8 14 9 12 10 9 11 10 12
REMARK SMILES IDX 91 13 11 14 90 15 8 16 4 17 5 18 92 19 6 20 7 21 3 22 2 23
REMARK SMILES IDX 1 24 21 25 22 26 23 27 24 28 25 29 26 31 27 32 28 33 89 34
REMARK SMILES IDX 29 35 88 36 30 37 31 38 32 39 82 40 33 41 87 42 81 43 83 44
REMARK SMILES IDX 34 45 86 46 80 47 79 48 35 50 67 51 47 52 66 53 48 54 51 55
REMARK SMILES IDX 65 56 84 57 49 58 50 59 64 61 85 62 52 63 36 64 37 65 45 66
REMARK SMILES IDX 38 67 40 68 46 69 39 70 41 71 42 72 43 73 44 74 68 75 69 76
REMARK SMILES IDX 77 77 70 78 72 79 78 80 71 81 73 82 74 83 75 84 76 85 53 86
REMARK SMILES IDX 54 87 62 88 55 89 57 90 63 91 56 92 58 93 59 94 60 95 61 96
REMARK H PARENT 17 7 24 30 83 49 51 60
REMARK Flexibility Score: inf
ROOT
ATOM      1  C   UNL A   1      37.918  22.939  25.668  1.00  0.00     0.002 C 
ENDROOT
BRANCH   1   2
ATOM      2  C   UNL A   1      36.997  22.356  24.592  1.00  0.00     0.021 C 
BRANCH   2   3
ATOM      3  C   UNL A   1      36.332  21.037  24.993  1.00  0.00     0.116 C 
BRANCH   3   4
ATOM      4  N   UNL A   1      34.918  21.029  24.674  1.00  0.00    -0.356 N 
ATOM      5  C   UNL A   1      33.849  21.610  25.283  1.00  0.00     0.227 C 
ATOM      6  O   UNL A   1      32.736  21.347  24.808  1.00  0.00    -0.274 OA
ATOM      7  H   UNL A   1      34.689  20.507  23.872  1.00  0.00     0.163 HD
BRANCH   5   8
ATOM      8  C   UNL A   1      33.959  22.566  26.482  1.00  0.00     0.105 C 
ATOM      9  C   UNL A   1      33.497  21.951  27.806  1.00  0.00     0.023 C 
BRANCH   8  10
ATOM     10  C   UNL A   1      33.458  23.973  26.193  1.00  0.00    -0.036 A 
ATOM     11  C   UNL A   1      32.512  26.587  25.518  1.00  0.00    -0.018 A 
ATOM     12  C   UNL A   1      31.769  25.711  26.324  1.00  0.00     0.009 A 
ATOM     13  C   UNL A   1      33.757  26.127  25.066  1.00  0.00     0.009 A 
ATOM     14  C   UNL A   1      32.246  24.451  26.686  1.00  0.00     0.005 A 
ATOM     15  C   UNL A   1      34.214  24.836  25.383  1.00  0.00     0.005 A 
BRANCH  11  16
ATOM     16  C   UNL A   1      31.965  27.921  25.176  1.00  0.00    -0.017 A 
ATOM     17  C   UNL A   1      30.518  29.383  23.837  1.00  0.00     0.008 A 
ATOM     18  C   UNL A   1      30.743  30.425  24.737  1.00  0.00     0.015 A 
ATOM     19  C   UNL A   1      31.114  28.131  24.075  1.00  0.00     0.023 A 
ATOM     20  C   UNL A   1      31.616  30.258  25.804  1.00  0.00     0.002 A 
ATOM     21  C   UNL A   1      32.232  29.027  26.007  1.00  0.00     0.009 A 
BRANCH  17  22
ATOM     22  S   UNL A   1      29.406  29.578  22.453  1.00  0.00    -0.126 SA
BRANCH  22  23
ATOM     23  C   UNL A   1      28.886  31.325  22.633  1.00  0.00     0.071 C 
ATOM     24  C   UNL A   1      27.637  31.498  23.483  1.00  0.00     0.016 C 
ENDBRANCH  22  23
ENDBRANCH  17  22
ENDBRANCH  11  16
ENDBRANCH   8  10
ENDBRANCH   5   8
ENDBRANCH   3   4
ENDBRANCH   2   3
ENDBRANCH   1   2
BRANCH   1  25
ATOM     25  C   UNL A   1      39.060  22.018  26.118  1.00  0.00     0.002 C 
BRANCH  25  26
ATOM     26  C   UNL A   1      39.997  22.599  27.183  1.00  0.00     0.021 C 
BRANCH  26  27
ATOM     27  C   UNL A   1      41.265  21.787  27.434  1.00  0.00     0.116 C 
BRANCH  27  28
ATOM     28  N   UNL A   1      42.128  21.756  26.263  1.00  0.00    -0.352 N 
ATOM     29  C   UNL A   1      42.722  22.789  25.582  1.00  0.00     0.251 C 
ATOM     30  H   UNL A   1      42.313  20.858  25.904  1.00  0.00     0.163 HD
ATOM     31  O   UNL A   1      43.219  22.586  24.479  1.00  0.00    -0.269 OA
BRANCH  29  32
ATOM     32  C   UNL A   1      42.759  24.146  26.171  1.00  0.00     0.039 A 
ATOM     33  C   UNL A   1      43.233  24.305  27.476  1.00  0.00     0.014 A 
ATOM     34  C   UNL A   1      42.295  25.253  25.456  1.00  0.00     0.014 A 
ATOM     35  C   UNL A   1      43.291  25.580  28.043  1.00  0.00     0.010 A 
ATOM     36  C   UNL A   1      42.416  26.531  25.997  1.00  0.00     0.010 A 
ATOM     37  C   UNL A   1      42.908  26.708  27.299  1.00  0.00    -0.014 A 
BRANCH  37  38
ATOM     38  C   UNL A   1      43.037  28.079  27.857  1.00  0.00     0.031 A 
ATOM     39  C   UNL A   1      44.384  28.742  27.953  1.00  0.00     0.074 A 
ATOM     40  C   UNL A   1      41.948  28.692  28.363  1.00  0.00     0.049 A 
ATOM     41  N   UNL A   1      44.693  29.910  28.454  1.00  0.00    -0.248 NA
ATOM     42  C   UNL A   1      45.540  27.984  27.446  1.00  0.00     0.031 C 
ATOM     43  C   UNL A   1      40.601  28.117  28.409  1.00  0.00     0.029 A 
ATOM     44  N   UNL A   1      41.806  29.919  28.961  1.00  0.00    -0.354 N 
ATOM     45  C   UNL A   1      46.077  30.012  28.358  1.00  0.00     0.074 A 
ATOM     46  C   UNL A   1      46.551  28.776  27.776  1.00  0.00     0.031 C 
ATOM     47  C   UNL A   1      39.772  28.989  29.006  1.00  0.00     0.029 A 
ATOM     48  C   UNL A   1      40.528  30.171  29.405  1.00  0.00     0.049 A 
ATOM     49  H   UNL A   1      42.547  30.557  29.063  1.00  0.00     0.167 HD
ATOM     50  C   UNL A   1      46.876  31.052  28.697  1.00  0.00     0.034 A 
ATOM     51  C   UNL A   1      40.023  31.230  30.067  1.00  0.00     0.034 A 
ATOM     52  C   UNL A   1      46.394  32.299  29.229  1.00  0.00     0.049 A 
ATOM     53  C   UNL A   1      40.923  32.395  30.378  1.00  0.00     0.074 A 
ATOM     54  C   UNL A   1      47.112  33.449  29.506  1.00  0.00     0.029 A 
ATOM     55  N   UNL A   1      45.077  32.557  29.573  1.00  0.00    -0.354 N 
ATOM     56  N   UNL A   1      42.199  32.543  30.117  1.00  0.00    -0.248 NA
ATOM     57  C   UNL A   1      40.306  33.555  31.039  1.00  0.00     0.031 C 
ATOM     58  C   UNL A   1      46.231  34.397  30.038  1.00  0.00     0.029 A 
ATOM     59  C   UNL A   1      44.961  33.845  30.070  1.00  0.00     0.049 A 
ATOM     60  H   UNL A   1      44.333  31.919  29.477  1.00  0.00     0.167 HD
ATOM     61  C   UNL A   1      42.531  33.821  30.550  1.00  0.00     0.074 A 
ATOM     62  C   UNL A   1      41.316  34.416  31.068  1.00  0.00     0.031 C 
ATOM     63  C   UNL A   1      43.737  34.443  30.535  1.00  0.00     0.034 A 
BRANCH  50  64
ATOM     64  C   UNL A   1      48.355  30.911  28.451  1.00  0.00     0.023 A 
ATOM     65  C   UNL A   1      48.896  31.312  27.212  1.00  0.00     0.012 A 
ATOM     66  C   UNL A   1      49.220  30.452  29.465  1.00  0.00     0.148 A 
ATOM     67  C   UNL A   1      50.267  31.230  26.975  1.00  0.00     0.002 A 
ATOM     68  C   UNL A   1      50.590  30.414  29.236  1.00  0.00     0.091 A 
ATOM     69  F   UNL A   1      48.687  30.056  30.630  1.00  0.00    -0.205 F 
ATOM     70  C   UNL A   1      51.115  30.793  27.989  1.00  0.00     0.022 A 
BRANCH  68  71
ATOM     71  S   UNL A   1      51.773  29.941  30.503  1.00  0.00     0.127 S 
ATOM     72  O   UNL A   1      51.421  28.541  30.729  1.00  0.00    -0.237 OA
ATOM     73  O   UNL A   1      53.053  30.147  29.823  1.00  0.00    -0.237 OA
ATOM     74  O   UNL A   1      51.534  30.835  31.629  1.00  0.00    -0.744 OA
ENDBRANCH  68  71
ENDBRANCH  50  64
BRANCH  51  75
ATOM     75  C   UNL A   1      38.575  31.265  30.420  1.00  0.00     0.023 A 
ATOM     76  C   UNL A   1      38.134  30.630  31.598  1.00  0.00     0.012 A 
ATOM     77  C   UNL A   1      37.642  31.950  29.619  1.00  0.00     0.148 A 
ATOM     78  C   UNL A   1      36.785  30.648  31.954  1.00  0.00     0.002 A 
ATOM     79  C   UNL A   1      36.308  32.012  30.008  1.00  0.00     0.091 A 
ATOM     80  F   UNL A   1      38.078  32.537  28.495  1.00  0.00    -0.205 F 
ATOM     81  C   UNL A   1      35.875  31.347  31.165  1.00  0.00     0.022 A 
BRANCH  79  82
ATOM     82  S   UNL A   1      35.098  33.005  29.127  1.00  0.00     0.127 S 
ATOM     83  O   UNL A   1      35.426  32.712  27.735  1.00  0.00    -0.237 OA
ATOM     84  O   UNL A   1      33.836  32.434  29.599  1.00  0.00    -0.237 OA
ATOM     85  O   UNL A   1      35.329  34.378  29.560  1.00  0.00    -0.744 OA
ENDBRANCH  79  82
ENDBRANCH  51  75
BRANCH  63  86
ATOM     86  C   UNL A   1      43.805  35.849  31.067  1.00  0.00     0.023 A 
ATOM     87  C   UNL A   1      44.039  36.068  32.439  1.00  0.00     0.012 A 
ATOM     88  C   UNL A   1      43.712  36.954  30.197  1.00  0.00     0.148 A 
ATOM     89  C   UNL A   1      44.148  37.364  32.942  1.00  0.00     0.002 A 
ATOM     90  C   UNL A   1      43.868  38.241  30.697  1.00  0.00     0.091 A 
ATOM     91  F   UNL A   1      43.468  36.727  28.898  1.00  0.00    -0.205 F 
ATOM     92  C   UNL A   1      44.074  38.448  32.071  1.00  0.00     0.022 A 
BRANCH  90  93
ATOM     93  S   UNL A   1      43.885  39.690  29.636  1.00  0.00     0.127 S 
ATOM     94  O   UNL A   1      42.514  39.706  29.131  1.00  0.00    -0.237 OA
ATOM     95  O   UNL A   1      44.201  40.763  30.580  1.00  0.00    -0.237 OA
ATOM     96  O   UNL A   1      44.918  39.442  28.638  1.00  0.00    -0.744 OA
ENDBRANCH  90  93
ENDBRANCH  63  86
ENDBRANCH  37  38
ENDBRANCH  29  32
ENDBRANCH  27  28
ENDBRANCH  26  27
ENDBRANCH  25  26
ENDBRANCH   1  25
TORSDOF 20
ENDMDL
