MODEL 1
REMARK VINA RESULT:     -11.2      0.000      0.000
REMARK SMILES C[C@H]1[C@@H](C(=O)NCCCCCCNC(=O)c2ccc(-c3c4nc(c(-c5cccc(S(=O)(=O)[O-])c5F)c5ccc([nH]5)c(-c5cccc(S(=O)(=O)[O-])c5F)c5nc(c(-c6cccc(S(=O)(=O)[O-])c6F)c6ccc3[nH]6)C=C5)C=C4)cc2)CCN1C(=O)c1cc2cc(F)ccc2s1
REMARK SMILES IDX 10 1 9 2 8 3 7 4 6 5 4 6 5 7 3 9 1 10 2 11 81 12 79 13 80 14
REMARK SMILES IDX 82 15 83 16 84 17 85 18 93 19 86 20 92 21 87 22 91 23 88 24
REMARK SMILES IDX 90 25 89 26 11 27 12 28 13 29 14 30 15 32 16 33 17 34 78 35
REMARK SMILES IDX 18 36 77 37 19 38 20 39 21 40 71 41 22 42 76 43 70 44 72 45
REMARK SMILES IDX 23 46 75 47 69 48 68 49 24 51 56 52 36 53 55 54 37 55 40 56
REMARK SMILES IDX 54 57 73 58 38 59 39 60 53 62 74 63 41 64 25 65 26 66 34 67
REMARK SMILES IDX 27 68 29 69 35 70 28 71 30 72 31 73 32 74 33 75 57 76 58 77
REMARK SMILES IDX 66 78 59 79 61 80 67 81 60 82 62 83 63 84 64 85 65 86 42 87
REMARK SMILES IDX 43 88 51 89 44 90 46 91 52 92 45 93 47 94 48 95 49 96 50 97
REMARK H PARENT 6 8 13 31 72 50 40 61
REMARK Flexibility Score: inf
ROOT
ATOM      1  C   UNL A   1      33.215  31.192  27.829  1.00  0.00     0.002 C 
ENDROOT
BRANCH   1   2
ATOM      2  C   UNL A   1      34.733  31.251  27.637  1.00  0.00     0.002 C 
BRANCH   2   3
ATOM      3  C   UNL A   1      35.366  29.908  27.274  1.00  0.00     0.021 C 
BRANCH   3   4
ATOM      4  C   UNL A   1      34.375  28.895  26.694  1.00  0.00     0.116 C 
BRANCH   4   5
ATOM      5  N   UNL A   1      34.033  29.305  25.349  1.00  0.00    -0.356 N 
ATOM      6  C   UNL A   1      33.213  28.728  24.433  1.00  0.00     0.225 C 
ATOM      7  O   UNL A   1      33.329  29.140  23.274  1.00  0.00    -0.275 OA
ATOM      8  H   UNL A   1      34.465  30.136  25.049  1.00  0.00     0.163 HD
BRANCH   6   9
ATOM      9  C   UNL A   1      32.118  27.734  24.846  1.00  0.00     0.102 C 
ATOM     10  C   UNL A   1      33.697  25.728  25.494  1.00  0.00     0.032 C 
ATOM     11  C   UNL A   1      32.404  26.213  24.877  1.00  0.00     0.094 C 
ATOM     12  N   UNL A   1      32.167  25.736  23.508  1.00  0.00    -0.334 N 
ATOM     13  C   UNL A   1      31.017  27.771  23.766  1.00  0.00     0.037 C 
ATOM     14  C   UNL A   1      31.554  26.796  22.725  1.00  0.00     0.121 C 
BRANCH  12  15
ATOM     15  C   UNL A   1      31.692  24.444  23.307  1.00  0.00     0.264 C 
ATOM     16  O   UNL A   1      30.488  24.235  23.151  1.00  0.00    -0.268 OA
BRANCH  15  17
ATOM     17  C   UNL A   1      32.647  23.361  23.216  1.00  0.00     0.093 A 
ATOM     18  C   UNL A   1      33.939  23.450  22.743  1.00  0.00     0.034 A 
ATOM     19  S   UNL A   1      32.391  21.884  24.033  1.00  0.00    -0.130 S 
ATOM     20  C   UNL A   1      34.813  22.579  23.473  1.00  0.00    -0.004 A 
ATOM     21  C   UNL A   1      34.091  21.687  24.274  1.00  0.00     0.035 A 
ATOM     22  C   UNL A   1      36.223  22.593  23.577  1.00  0.00     0.048 A 
ATOM     23  C   UNL A   1      34.733  20.815  25.175  1.00  0.00     0.022 A 
ATOM     24  C   UNL A   1      36.842  21.798  24.537  1.00  0.00     0.123 A 
ATOM     25  C   UNL A   1      36.118  20.922  25.328  1.00  0.00     0.041 A 
ATOM     26  F   UNL A   1      38.161  21.925  24.733  1.00  0.00    -0.207 F 
ENDBRANCH  15  17
ENDBRANCH  12  15
ENDBRANCH   6   9
ENDBRANCH   4   5
ENDBRANCH   3   4
ENDBRANCH   2   3
ENDBRANCH   1   2
BRANCH   1  27
ATOM     27  C   UNL A   1      32.433  32.387  27.271  1.00  0.00     0.021 C 
BRANCH  27  28
ATOM     28  C   UNL A   1      33.245  33.667  27.074  1.00  0.00     0.116 C 
BRANCH  28  29
ATOM     29  N   UNL A   1      32.795  34.734  27.953  1.00  0.00    -0.352 N 
ATOM     30  C   UNL A   1      33.144  35.003  29.252  1.00  0.00     0.251 C 
ATOM     31  H   UNL A   1      32.144  35.358  27.557  1.00  0.00     0.163 HD
ATOM     32  O   UNL A   1      32.489  35.811  29.905  1.00  0.00    -0.269 OA
BRANCH  30  33
ATOM     33  C   UNL A   1      34.299  34.316  29.872  1.00  0.00     0.039 A 
ATOM     34  C   UNL A   1      35.589  34.637  29.438  1.00  0.00     0.014 A 
ATOM     35  C   UNL A   1      34.111  33.333  30.847  1.00  0.00     0.014 A 
ATOM     36  C   UNL A   1      36.692  34.007  30.018  1.00  0.00     0.010 A 
ATOM     37  C   UNL A   1      35.215  32.748  31.465  1.00  0.00     0.010 A 
ATOM     38  C   UNL A   1      36.516  33.072  31.051  1.00  0.00    -0.014 A 
BRANCH  38  39
ATOM     39  C   UNL A   1      37.678  32.429  31.715  1.00  0.00     0.031 A 
ATOM     40  C   UNL A   1      38.406  31.297  31.042  1.00  0.00     0.074 A 
ATOM     41  C   UNL A   1      38.022  32.804  32.962  1.00  0.00     0.049 A 
ATOM     42  N   UNL A   1      39.403  30.579  31.488  1.00  0.00    -0.248 NA
ATOM     43  C   UNL A   1      37.937  30.905  29.703  1.00  0.00     0.031 C 
ATOM     44  C   UNL A   1      37.344  33.834  33.752  1.00  0.00     0.029 A 
ATOM     45  N   UNL A   1      39.009  32.342  33.796  1.00  0.00    -0.354 N 
ATOM     46  C   UNL A   1      39.659  29.631  30.506  1.00  0.00     0.074 A 
ATOM     47  C   UNL A   1      38.693  29.847  29.449  1.00  0.00     0.031 C 
ATOM     48  C   UNL A   1      37.932  33.923  34.955  1.00  0.00     0.029 A 
ATOM     49  C   UNL A   1      39.016  32.947  35.031  1.00  0.00     0.049 A 
ATOM     50  H   UNL A   1      39.653  31.643  33.535  1.00  0.00     0.167 HD
ATOM     51  C   UNL A   1      40.629  28.686  30.469  1.00  0.00     0.034 A 
ATOM     52  C   UNL A   1      39.803  32.739  36.105  1.00  0.00     0.034 A 
ATOM     53  C   UNL A   1      41.624  28.510  31.492  1.00  0.00     0.049 A 
ATOM     54  C   UNL A   1      40.909  31.721  36.016  1.00  0.00     0.074 A 
ATOM     55  C   UNL A   1      42.706  27.648  31.501  1.00  0.00     0.029 A 
ATOM     56  N   UNL A   1      41.658  29.208  32.689  1.00  0.00    -0.354 N 
ATOM     57  N   UNL A   1      41.240  30.950  35.009  1.00  0.00    -0.248 NA
ATOM     58  C   UNL A   1      41.772  31.571  37.196  1.00  0.00     0.031 C 
ATOM     59  C   UNL A   1      43.392  27.821  32.708  1.00  0.00     0.029 A 
ATOM     60  C   UNL A   1      42.740  28.795  33.447  1.00  0.00     0.049 A 
ATOM     61  H   UNL A   1      41.009  29.897  32.959  1.00  0.00     0.167 HD
ATOM     62  C   UNL A   1      42.365  30.245  35.422  1.00  0.00     0.074 A 
ATOM     63  C   UNL A   1      42.672  30.698  36.763  1.00  0.00     0.031 C 
ATOM     64  C   UNL A   1      43.068  29.296  34.757  1.00  0.00     0.034 A 
BRANCH  51  65
ATOM     65  C   UNL A   1      40.706  27.814  29.244  1.00  0.00     0.023 A 
ATOM     66  C   UNL A   1      39.861  26.690  29.145  1.00  0.00     0.012 A 
ATOM     67  C   UNL A   1      41.565  28.128  28.173  1.00  0.00     0.148 A 
ATOM     68  C   UNL A   1      39.889  25.874  28.015  1.00  0.00     0.002 A 
ATOM     69  C   UNL A   1      41.562  27.331  27.033  1.00  0.00     0.091 A 
ATOM     70  F   UNL A   1      42.380  29.186  28.293  1.00  0.00    -0.205 F 
ATOM     71  C   UNL A   1      40.732  26.200  26.956  1.00  0.00     0.022 A 
BRANCH  69  72
ATOM     72  S   UNL A   1      42.563  27.711  25.590  1.00  0.00     0.127 S 
ATOM     73  O   UNL A   1      43.905  27.759  26.165  1.00  0.00    -0.237 OA
ATOM     74  O   UNL A   1      42.311  26.559  24.723  1.00  0.00    -0.237 OA
ATOM     75  O   UNL A   1      42.050  28.975  25.075  1.00  0.00    -0.744 OA
ENDBRANCH  69  72
ENDBRANCH  51  65
BRANCH  52  76
ATOM     76  C   UNL A   1      39.627  33.576  37.324  1.00  0.00     0.023 A 
ATOM     77  C   UNL A   1      40.222  34.851  37.372  1.00  0.00     0.012 A 
ATOM     78  C   UNL A   1      38.841  33.142  38.409  1.00  0.00     0.148 A 
ATOM     79  C   UNL A   1      40.056  35.673  38.487  1.00  0.00     0.002 A 
ATOM     80  C   UNL A   1      38.638  33.987  39.496  1.00  0.00     0.091 A 
ATOM     81  F   UNL A   1      38.297  31.919  38.353  1.00  0.00    -0.205 F 
ATOM     82  C   UNL A   1      39.256  35.246  39.544  1.00  0.00     0.022 A 
BRANCH  80  83
ATOM     83  S   UNL A   1      37.512  33.567  40.833  1.00  0.00     0.127 S 
ATOM     84  O   UNL A   1      37.418  34.833  41.555  1.00  0.00    -0.237 OA
ATOM     85  O   UNL A   1      36.301  33.181  40.106  1.00  0.00    -0.237 OA
ATOM     86  O   UNL A   1      38.151  32.470  41.547  1.00  0.00    -0.744 OA
ENDBRANCH  80  83
ENDBRANCH  52  76
BRANCH  64  87
ATOM     87  C   UNL A   1      44.252  28.686  35.459  1.00  0.00     0.023 A 
ATOM     88  C   UNL A   1      45.542  29.192  35.205  1.00  0.00     0.012 A 
ATOM     89  C   UNL A   1      44.081  27.674  36.423  1.00  0.00     0.148 A 
ATOM     90  C   UNL A   1      46.648  28.681  35.884  1.00  0.00     0.002 A 
ATOM     91  C   UNL A   1      45.185  27.199  37.125  1.00  0.00     0.091 A 
ATOM     92  F   UNL A   1      42.849  27.190  36.634  1.00  0.00    -0.205 F 
ATOM     93  C   UNL A   1      46.469  27.696  36.851  1.00  0.00     0.022 A 
BRANCH  91  94
ATOM     94  S   UNL A   1      45.027  25.993  38.448  1.00  0.00     0.127 S 
ATOM     95  O   UNL A   1      44.525  24.824  37.727  1.00  0.00    -0.237 OA
ATOM     96  O   UNL A   1      46.405  25.868  38.926  1.00  0.00    -0.237 OA
ATOM     97  O   UNL A   1      44.110  26.581  39.414  1.00  0.00    -0.744 OA
ENDBRANCH  91  94
ENDBRANCH  64  87
ENDBRANCH  38  39
ENDBRANCH  30  33
ENDBRANCH  28  29
ENDBRANCH  27  28
ENDBRANCH   1  27
TORSDOF 18
ENDMDL
MODEL 2
REMARK VINA RESULT:     -11.0      2.032      7.632
REMARK SMILES C[C@H]1[C@@H](C(=O)NCCCCCCNC(=O)c2ccc(-c3c4nc(c(-c5cccc(S(=O)(=O)[O-])c5F)c5ccc([nH]5)c(-c5cccc(S(=O)(=O)[O-])c5F)c5nc(c(-c6cccc(S(=O)(=O)[O-])c6F)c6ccc3[nH]6)C=C5)C=C4)cc2)CCN1C(=O)c1cc2cc(F)ccc2s1
REMARK SMILES IDX 10 1 9 2 8 3 7 4 6 5 4 6 5 7 3 9 1 10 2 11 81 12 79 13 80 14
REMARK SMILES IDX 82 15 83 16 84 17 85 18 93 19 86 20 92 21 87 22 91 23 88 24
REMARK SMILES IDX 90 25 89 26 11 27 12 28 13 29 14 30 15 32 16 33 17 34 78 35
REMARK SMILES IDX 18 36 77 37 19 38 20 39 21 40 71 41 22 42 76 43 70 44 72 45
REMARK SMILES IDX 23 46 75 47 69 48 68 49 24 51 56 52 36 53 55 54 37 55 40 56
REMARK SMILES IDX 54 57 73 58 38 59 39 60 53 62 74 63 41 64 25 65 26 66 34 67
REMARK SMILES IDX 27 68 29 69 35 70 28 71 30 72 31 73 32 74 33 75 57 76 58 77
REMARK SMILES IDX 66 78 59 79 61 80 67 81 60 82 62 83 63 84 64 85 65 86 42 87
REMARK SMILES IDX 43 88 51 89 44 90 46 91 52 92 45 93 47 94 48 95 49 96 50 97
REMARK H PARENT 6 8 13 31 72 50 40 61
REMARK Flexibility Score: inf
ROOT
ATOM      1  C   UNL A   1      35.826  33.152  28.008  1.00  0.00     0.002 C 
ENDROOT
BRANCH   1   2
ATOM      2  C   UNL A   1      35.321  31.766  28.416  1.00  0.00     0.002 C 
BRANCH   2   3
ATOM      3  C   UNL A   1      35.966  30.617  27.642  1.00  0.00     0.021 C 
BRANCH   3   4
ATOM      4  C   UNL A   1      35.146  29.323  27.662  1.00  0.00     0.116 C 
BRANCH   4   5
ATOM      5  N   UNL A   1      33.764  29.651  27.384  1.00  0.00    -0.356 N 
ATOM      6  C   UNL A   1      32.935  29.212  26.402  1.00  0.00     0.225 C 
ATOM      7  O   UNL A   1      31.902  29.870  26.239  1.00  0.00    -0.275 OA
ATOM      8  H   UNL A   1      33.360  30.296  28.007  1.00  0.00     0.163 HD
BRANCH   6   9
ATOM      9  C   UNL A   1      33.202  27.901  25.650  1.00  0.00     0.102 C 
ATOM     10  C   UNL A   1      33.653  28.949  23.276  1.00  0.00     0.032 C 
ATOM     11  C   UNL A   1      33.063  27.833  24.109  1.00  0.00     0.094 C 
ATOM     12  N   UNL A   1      31.643  27.565  23.850  1.00  0.00    -0.334 N 
ATOM     13  C   UNL A   1      32.106  26.894  26.055  1.00  0.00     0.037 C 
ATOM     14  C   UNL A   1      30.972  27.249  25.100  1.00  0.00     0.121 C 
BRANCH  12  15
ATOM     15  C   UNL A   1      31.281  26.821  22.731  1.00  0.00     0.264 C 
ATOM     16  O   UNL A   1      30.662  27.343  21.804  1.00  0.00    -0.268 OA
BRANCH  15  17
ATOM     17  C   UNL A   1      31.708  25.441  22.649  1.00  0.00     0.093 A 
ATOM     18  C   UNL A   1      32.941  24.991  22.225  1.00  0.00     0.034 A 
ATOM     19  S   UNL A   1      30.834  24.197  23.424  1.00  0.00    -0.130 S 
ATOM     20  C   UNL A   1      33.348  23.834  22.966  1.00  0.00    -0.004 A 
ATOM     21  C   UNL A   1      32.289  23.315  23.720  1.00  0.00     0.035 A 
ATOM     22  C   UNL A   1      34.632  23.265  23.120  1.00  0.00     0.048 A 
ATOM     23  C   UNL A   1      32.477  22.250  24.624  1.00  0.00     0.022 A 
ATOM     24  C   UNL A   1      34.829  22.280  24.083  1.00  0.00     0.123 A 
ATOM     25  C   UNL A   1      33.776  21.776  24.829  1.00  0.00     0.041 A 
ATOM     26  F   UNL A   1      36.074  21.850  24.329  1.00  0.00    -0.207 F 
ENDBRANCH  15  17
ENDBRANCH  12  15
ENDBRANCH   6   9
ENDBRANCH   4   5
ENDBRANCH   3   4
ENDBRANCH   2   3
ENDBRANCH   1   2
BRANCH   1  27
ATOM     27  C   UNL A   1      34.764  34.257  27.969  1.00  0.00     0.021 C 
BRANCH  27  28
ATOM     28  C   UNL A   1      33.418  33.894  28.596  1.00  0.00     0.116 C 
BRANCH  28  29
ATOM     29  N   UNL A   1      33.027  34.842  29.626  1.00  0.00    -0.352 N 
ATOM     30  C   UNL A   1      33.454  34.950  30.925  1.00  0.00     0.251 C 
ATOM     31  H   UNL A   1      32.355  35.508  29.350  1.00  0.00     0.163 HD
ATOM     32  O   UNL A   1      32.843  35.669  31.711  1.00  0.00    -0.269 OA
BRANCH  30  33
ATOM     33  C   UNL A   1      34.642  34.197  31.384  1.00  0.00     0.039 A 
ATOM     34  C   UNL A   1      34.462  32.937  31.962  1.00  0.00     0.014 A 
ATOM     35  C   UNL A   1      35.924  34.744  31.281  1.00  0.00     0.014 A 
ATOM     36  C   UNL A   1      35.572  32.205  32.392  1.00  0.00     0.010 A 
ATOM     37  C   UNL A   1      37.034  33.990  31.657  1.00  0.00     0.010 A 
ATOM     38  C   UNL A   1      36.869  32.717  32.224  1.00  0.00    -0.014 A 
BRANCH  38  39
ATOM     39  C   UNL A   1      38.063  31.934  32.629  1.00  0.00     0.031 A 
ATOM     40  C   UNL A   1      38.775  32.246  33.917  1.00  0.00     0.074 A 
ATOM     41  C   UNL A   1      38.562  31.003  31.793  1.00  0.00     0.049 A 
ATOM     42  N   UNL A   1      39.862  31.710  34.408  1.00  0.00    -0.248 NA
ATOM     43  C   UNL A   1      38.205  33.315  34.752  1.00  0.00     0.031 C 
ATOM     44  C   UNL A   1      38.009  30.664  30.479  1.00  0.00     0.029 A 
ATOM     45  N   UNL A   1      39.662  30.191  31.909  1.00  0.00    -0.354 N 
ATOM     46  C   UNL A   1      40.127  32.396  35.586  1.00  0.00     0.074 A 
ATOM     47  C   UNL A   1      39.101  33.408  35.724  1.00  0.00     0.031 C 
ATOM     48  C   UNL A   1      38.773  29.718  29.912  1.00  0.00     0.029 A 
ATOM     49  C   UNL A   1      39.880  29.395  30.810  1.00  0.00     0.049 A 
ATOM     50  H   UNL A   1      40.241  30.178  32.706  1.00  0.00     0.167 HD
ATOM     51  C   UNL A   1      41.114  32.185  36.489  1.00  0.00     0.034 A 
ATOM     52  C   UNL A   1      40.860  28.506  30.550  1.00  0.00     0.034 A 
ATOM     53  C   UNL A   1      42.097  31.142  36.381  1.00  0.00     0.049 A 
ATOM     54  C   UNL A   1      41.912  28.252  31.595  1.00  0.00     0.074 A 
ATOM     55  C   UNL A   1      43.077  30.784  37.290  1.00  0.00     0.029 A 
ATOM     56  N   UNL A   1      42.229  30.290  35.296  1.00  0.00    -0.354 N 
ATOM     57  N   UNL A   1      42.045  28.796  32.781  1.00  0.00    -0.248 NA
ATOM     58  C   UNL A   1      42.927  27.234  31.284  1.00  0.00     0.031 C 
ATOM     59  C   UNL A   1      43.805  29.718  36.752  1.00  0.00     0.029 A 
ATOM     60  C   UNL A   1      43.274  29.408  35.510  1.00  0.00     0.049 A 
ATOM     61  H   UNL A   1      41.661  30.308  34.492  1.00  0.00     0.167 HD
ATOM     62  C   UNL A   1      43.138  28.168  33.368  1.00  0.00     0.074 A 
ATOM     63  C   UNL A   1      43.617  27.187  32.416  1.00  0.00     0.031 C 
ATOM     64  C   UNL A   1      43.705  28.397  34.578  1.00  0.00     0.034 A 
BRANCH  51  65
ATOM     65  C   UNL A   1      41.134  33.057  37.717  1.00  0.00     0.023 A 
ATOM     66  C   UNL A   1      40.361  32.686  38.836  1.00  0.00     0.012 A 
ATOM     67  C   UNL A   1      41.948  34.204  37.789  1.00  0.00     0.148 A 
ATOM     68  C   UNL A   1      40.373  33.458  39.997  1.00  0.00     0.002 A 
ATOM     69  C   UNL A   1      41.984  34.949  38.963  1.00  0.00     0.091 A 
ATOM     70  F   UNL A   1      42.656  34.556  36.706  1.00  0.00    -0.205 F 
ATOM     71  C   UNL A   1      41.191  34.583  40.063  1.00  0.00     0.022 A 
BRANCH  69  72
ATOM     72  S   UNL A   1      43.059  36.374  39.167  1.00  0.00     0.127 S 
ATOM     73  O   UNL A   1      44.379  35.779  38.967  1.00  0.00    -0.237 OA
ATOM     74  O   UNL A   1      42.618  37.256  38.086  1.00  0.00    -0.237 OA
ATOM     75  O   UNL A   1      42.791  36.882  40.506  1.00  0.00    -0.744 OA
ENDBRANCH  69  72
ENDBRANCH  51  65
BRANCH  52  76
ATOM     76  C   UNL A   1      40.836  27.731  29.280  1.00  0.00     0.023 A 
ATOM     77  C   UNL A   1      39.895  26.694  29.126  1.00  0.00     0.012 A 
ATOM     78  C   UNL A   1      41.699  28.039  28.210  1.00  0.00     0.148 A 
ATOM     79  C   UNL A   1      39.828  25.963  27.940  1.00  0.00     0.002 A 
ATOM     80  C   UNL A   1      41.592  27.341  27.011  1.00  0.00     0.091 A 
ATOM     81  F   UNL A   1      42.599  29.017  28.380  1.00  0.00    -0.205 F 
ATOM     82  C   UNL A   1      40.668  26.293  26.879  1.00  0.00     0.022 A 
BRANCH  80  83
ATOM     83  S   UNL A   1      42.541  27.795  25.555  1.00  0.00     0.127 S 
ATOM     84  O   UNL A   1      42.305  26.653  24.675  1.00  0.00    -0.237 OA
ATOM     85  O   UNL A   1      41.891  29.039  25.139  1.00  0.00    -0.237 OA
ATOM     86  O   UNL A   1      43.910  27.968  26.023  1.00  0.00    -0.744 OA
ENDBRANCH  80  83
ENDBRANCH  52  76
BRANCH  64  87
ATOM     87  C   UNL A   1      44.901  27.566  34.956  1.00  0.00     0.023 A 
ATOM     88  C   UNL A   1      46.196  28.064  34.711  1.00  0.00     0.012 A 
ATOM     89  C   UNL A   1      44.747  26.335  35.624  1.00  0.00     0.148 A 
ATOM     90  C   UNL A   1      47.319  27.338  35.103  1.00  0.00     0.002 A 
ATOM     91  C   UNL A   1      45.872  25.637  36.048  1.00  0.00     0.091 A 
ATOM     92  F   UNL A   1      43.507  25.867  35.828  1.00  0.00    -0.205 F 
ATOM     93  C   UNL A   1      47.159  26.132  35.781  1.00  0.00     0.022 A 
BRANCH  91  94
ATOM     94  S   UNL A   1      45.751  24.121  37.005  1.00  0.00     0.127 S 
ATOM     95  O   UNL A   1      45.198  23.191  36.021  1.00  0.00    -0.237 OA
ATOM     96  O   UNL A   1      47.145  23.865  37.370  1.00  0.00    -0.237 OA
ATOM     97  O   UNL A   1      44.884  24.433  38.134  1.00  0.00    -0.744 OA
ENDBRANCH  91  94
ENDBRANCH  64  87
ENDBRANCH  38  39
ENDBRANCH  30  33
ENDBRANCH  28  29
ENDBRANCH  27  28
ENDBRANCH   1  27
TORSDOF 18
ENDMDL
MODEL 3
REMARK VINA RESULT:     -11.0      6.355     10.294
REMARK SMILES C[C@H]1[C@@H](C(=O)NCCCCCCNC(=O)c2ccc(-c3c4nc(c(-c5cccc(S(=O)(=O)[O-])c5F)c5ccc([nH]5)c(-c5cccc(S(=O)(=O)[O-])c5F)c5nc(c(-c6cccc(S(=O)(=O)[O-])c6F)c6ccc3[nH]6)C=C5)C=C4)cc2)CCN1C(=O)c1cc2cc(F)ccc2s1
REMARK SMILES IDX 10 1 9 2 8 3 7 4 6 5 4 6 5 7 3 9 1 10 2 11 81 12 79 13 80 14
REMARK SMILES IDX 82 15 83 16 84 17 85 18 93 19 86 20 92 21 87 22 91 23 88 24
REMARK SMILES IDX 90 25 89 26 11 27 12 28 13 29 14 30 15 32 16 33 17 34 78 35
REMARK SMILES IDX 18 36 77 37 19 38 20 39 21 40 71 41 22 42 76 43 70 44 72 45
REMARK SMILES IDX 23 46 75 47 69 48 68 49 24 51 56 52 36 53 55 54 37 55 40 56
REMARK SMILES IDX 54 57 73 58 38 59 39 60 53 62 74 63 41 64 25 65 26 66 34 67
REMARK SMILES IDX 27 68 29 69 35 70 28 71 30 72 31 73 32 74 33 75 57 76 58 77
REMARK SMILES IDX 66 78 59 79 61 80 67 81 60 82 62 83 63 84 64 85 65 86 42 87
REMARK SMILES IDX 43 88 51 89 44 90 46 91 52 92 45 93 47 94 48 95 49 96 50 97
REMARK H PARENT 6 8 13 31 72 50 40 61
REMARK Flexibility Score: inf
ROOT
ATOM      1  C   UNL A   1      37.009  20.149  24.900  1.00  0.00     0.002 C 
ENDROOT
BRANCH   1   2
ATOM      2  C   UNL A   1      37.003  21.642  24.566  1.00  0.00     0.002 C 
BRANCH   2   3
ATOM      3  C   UNL A   1      35.612  22.213  24.291  1.00  0.00     0.021 C 
BRANCH   3   4
ATOM      4  C   UNL A   1      34.660  22.119  25.487  1.00  0.00     0.116 C 
BRANCH   4   5
ATOM      5  N   UNL A   1      33.328  22.465  25.041  1.00  0.00    -0.356 N 
ATOM      6  C   UNL A   1      32.639  23.632  25.143  1.00  0.00     0.225 C 
ATOM      7  O   UNL A   1      31.425  23.558  24.929  1.00  0.00    -0.275 OA
ATOM      8  H   UNL A   1      32.841  21.738  24.592  1.00  0.00     0.163 HD
BRANCH   6   9
ATOM      9  C   UNL A   1      33.355  24.971  25.365  1.00  0.00     0.102 C 
ATOM     10  C   UNL A   1      31.313  26.293  26.374  1.00  0.00     0.032 C 
ATOM     11  C   UNL A   1      32.547  26.285  25.499  1.00  0.00     0.094 C 
ATOM     12  N   UNL A   1      32.323  26.756  24.127  1.00  0.00    -0.334 N 
ATOM     13  C   UNL A   1      34.161  25.291  24.088  1.00  0.00     0.037 C 
ATOM     14  C   UNL A   1      33.115  25.959  23.205  1.00  0.00     0.121 C 
BRANCH  12  15
ATOM     15  C   UNL A   1      32.246  28.123  23.878  1.00  0.00     0.264 C 
ATOM     16  O   UNL A   1      33.266  28.782  23.670  1.00  0.00    -0.268 OA
BRANCH  15  17
ATOM     17  C   UNL A   1      30.940  28.741  23.799  1.00  0.00     0.093 A 
ATOM     18  C   UNL A   1      30.527  29.869  24.477  1.00  0.00     0.034 A 
ATOM     19  S   UNL A   1      29.844  28.337  22.554  1.00  0.00    -0.130 S 
ATOM     20  C   UNL A   1      29.637  30.654  23.673  1.00  0.00    -0.004 A 
ATOM     21  C   UNL A   1      29.216  29.946  22.541  1.00  0.00     0.035 A 
ATOM     22  C   UNL A   1      29.258  32.009  23.805  1.00  0.00     0.048 A 
ATOM     23  C   UNL A   1      28.434  30.553  21.539  1.00  0.00     0.022 A 
ATOM     24  C   UNL A   1      28.568  32.626  22.766  1.00  0.00     0.123 A 
ATOM     25  C   UNL A   1      28.160  31.919  21.647  1.00  0.00     0.041 A 
ATOM     26  F   UNL A   1      28.342  33.945  22.829  1.00  0.00    -0.207 F 
ENDBRANCH  15  17
ENDBRANCH  12  15
ENDBRANCH   6   9
ENDBRANCH   4   5
ENDBRANCH   3   4
ENDBRANCH   2   3
ENDBRANCH   1   2
BRANCH   1  27
ATOM     27  C   UNL A   1      38.394  19.495  24.978  1.00  0.00     0.021 C 
BRANCH  27  28
ATOM     28  C   UNL A   1      39.383  20.167  25.931  1.00  0.00     0.116 C 
BRANCH  28  29
ATOM     29  N   UNL A   1      40.539  19.326  26.193  1.00  0.00    -0.352 N 
ATOM     30  C   UNL A   1      41.838  19.681  26.457  1.00  0.00     0.251 C 
ATOM     31  H   UNL A   1      40.365  18.357  26.181  1.00  0.00     0.163 HD
ATOM     32  O   UNL A   1      42.722  18.829  26.426  1.00  0.00    -0.269 OA
BRANCH  30  33
ATOM     33  C   UNL A   1      42.178  21.087  26.768  1.00  0.00     0.039 A 
ATOM     34  C   UNL A   1      42.350  21.991  25.715  1.00  0.00     0.014 A 
ATOM     35  C   UNL A   1      42.365  21.505  28.089  1.00  0.00     0.014 A 
ATOM     36  C   UNL A   1      42.661  23.325  25.990  1.00  0.00     0.010 A 
ATOM     37  C   UNL A   1      42.618  22.848  28.363  1.00  0.00     0.010 A 
ATOM     38  C   UNL A   1      42.777  23.769  27.317  1.00  0.00    -0.014 A 
BRANCH  38  39
ATOM     39  C   UNL A   1      43.057  25.193  27.630  1.00  0.00     0.031 A 
ATOM     40  C   UNL A   1      44.459  25.731  27.529  1.00  0.00     0.074 A 
ATOM     41  C   UNL A   1      42.066  25.979  28.092  1.00  0.00     0.049 A 
ATOM     42  N   UNL A   1      44.904  26.927  27.814  1.00  0.00    -0.248 NA
ATOM     43  C   UNL A   1      45.500  24.797  27.070  1.00  0.00     0.031 C 
ATOM     44  C   UNL A   1      40.682  25.553  28.311  1.00  0.00     0.029 A 
ATOM     45  N   UNL A   1      42.076  27.292  28.490  1.00  0.00    -0.354 N 
ATOM     46  C   UNL A   1      46.277  26.881  27.605  1.00  0.00     0.074 A 
ATOM     47  C   UNL A   1      46.597  25.531  27.194  1.00  0.00     0.031 C 
ATOM     48  C   UNL A   1      39.978  26.584  28.805  1.00  0.00     0.029 A 
ATOM     49  C   UNL A   1      40.862  27.737  28.957  1.00  0.00     0.049 A 
ATOM     50  H   UNL A   1      42.878  27.864  28.445  1.00  0.00     0.167 HD
ATOM     51  C   UNL A   1      47.186  27.880  27.712  1.00  0.00     0.034 A 
ATOM     52  C   UNL A   1      40.498  28.937  29.453  1.00  0.00     0.034 A 
ATOM     53  C   UNL A   1      46.859  29.235  28.063  1.00  0.00     0.049 A 
ATOM     54  C   UNL A   1      41.516  30.044  29.509  1.00  0.00     0.074 A 
ATOM     55  C   UNL A   1      47.692  30.340  28.103  1.00  0.00     0.029 A 
ATOM     56  N   UNL A   1      45.598  29.672  28.437  1.00  0.00    -0.354 N 
ATOM     57  N   UNL A   1      42.775  30.025  29.144  1.00  0.00    -0.248 NA
ATOM     58  C   UNL A   1      41.055  31.348  30.008  1.00  0.00     0.031 C 
ATOM     59  C   UNL A   1      46.934  31.444  28.507  1.00  0.00     0.029 A 
ATOM     60  C   UNL A   1      45.629  31.028  28.712  1.00  0.00     0.049 A 
ATOM     61  H   UNL A   1      44.797  29.102  28.496  1.00  0.00     0.167 HD
ATOM     62  C   UNL A   1      43.249  31.317  29.342  1.00  0.00     0.074 A 
ATOM     63  C   UNL A   1      42.135  32.099  29.838  1.00  0.00     0.031 C 
ATOM     64  C   UNL A   1      44.498  31.807  29.149  1.00  0.00     0.034 A 
BRANCH  51  65
ATOM     65  C   UNL A   1      48.617  27.558  27.374  1.00  0.00     0.023 A 
ATOM     66  C   UNL A   1      49.450  27.001  28.366  1.00  0.00     0.012 A 
ATOM     67  C   UNL A   1      49.126  27.752  26.075  1.00  0.00     0.148 A 
ATOM     68  C   UNL A   1      50.774  26.670  28.080  1.00  0.00     0.002 A 
ATOM     69  C   UNL A   1      50.436  27.385  25.787  1.00  0.00     0.091 A 
ATOM     70  F   UNL A   1      48.328  28.307  25.151  1.00  0.00    -0.205 F 
ATOM     71  C   UNL A   1      51.263  26.853  26.790  1.00  0.00     0.022 A 
BRANCH  69  72
ATOM     72  S   UNL A   1      51.134  27.520  24.137  1.00  0.00     0.127 S 
ATOM     73  O   UNL A   1      51.285  28.966  23.997  1.00  0.00    -0.237 OA
ATOM     74  O   UNL A   1      52.392  26.785  24.268  1.00  0.00    -0.237 OA
ATOM     75  O   UNL A   1      50.163  26.897  23.246  1.00  0.00    -0.744 OA
ENDBRANCH  69  72
ENDBRANCH  51  65
BRANCH  52  76
ATOM     76  C   UNL A   1      39.084  29.173  29.852  1.00  0.00     0.023 A 
ATOM     77  C   UNL A   1      38.671  28.828  31.153  1.00  0.00     0.012 A 
ATOM     78  C   UNL A   1      38.161  29.777  28.976  1.00  0.00     0.148 A 
ATOM     79  C   UNL A   1      37.359  29.059  31.569  1.00  0.00     0.002 A 
ATOM     80  C   UNL A   1      36.869  30.052  29.413  1.00  0.00     0.091 A 
ATOM     81  F   UNL A   1      38.567  30.083  27.735  1.00  0.00    -0.205 F 
ATOM     82  C   UNL A   1      36.462  29.681  30.704  1.00  0.00     0.022 A 
BRANCH  80  83
ATOM     83  S   UNL A   1      35.697  30.972  28.409  1.00  0.00     0.127 S 
ATOM     84  O   UNL A   1      34.731  31.420  29.409  1.00  0.00    -0.237 OA
ATOM     85  O   UNL A   1      36.537  32.030  27.846  1.00  0.00    -0.237 OA
ATOM     86  O   UNL A   1      35.201  30.020  27.424  1.00  0.00    -0.744 OA
ENDBRANCH  80  83
ENDBRANCH  52  76
BRANCH  64  87
ATOM     87  C   UNL A   1      44.732  33.261  29.459  1.00  0.00     0.023 A 
ATOM     88  C   UNL A   1      45.207  33.630  30.733  1.00  0.00     0.012 A 
ATOM     89  C   UNL A   1      44.562  34.250  28.470  1.00  0.00     0.148 A 
ATOM     90  C   UNL A   1      45.485  34.964  31.026  1.00  0.00     0.002 A 
ATOM     91  C   UNL A   1      44.881  35.573  28.758  1.00  0.00     0.091 A 
ATOM     92  F   UNL A   1      44.088  33.883  27.271  1.00  0.00    -0.205 F 
ATOM     93  C   UNL A   1      45.335  35.933  30.037  1.00  0.00     0.022 A 
BRANCH  91  94
ATOM     94  S   UNL A   1      44.798  36.867  27.514  1.00  0.00     0.127 S 
ATOM     95  O   UNL A   1      44.992  38.070  28.321  1.00  0.00    -0.237 OA
ATOM     96  O   UNL A   1      45.922  36.534  26.637  1.00  0.00    -0.237 OA
ATOM     97  O   UNL A   1      43.490  36.731  26.887  1.00  0.00    -0.744 OA
ENDBRANCH  91  94
ENDBRANCH  64  87
ENDBRANCH  38  39
ENDBRANCH  30  33
ENDBRANCH  28  29
ENDBRANCH  27  28
ENDBRANCH   1  27
TORSDOF 18
ENDMDL
