MODEL 1
REMARK VINA RESULT:     -11.8      0.000      0.000
REMARK SMILES O=C(CCc1cccnc1)Nc1ccsc1C(=O)NCCCCCCNC(=O)c1ccc(-c2c3nc(c(-c4cccc(S(=O)(=O)[O-])c4F)c4ccc([nH]4)c(-c4cccc(S(=O)(=O)[O-])c4F)c4nc(c(-c5cccc(S(=O)(=O)[O-])c5F)c5ccc2[nH]5)C=C4)C=C3)cc1
REMARK SMILES IDX 22 1 21 2 20 3 19 4 17 5 18 6 16 8 12 9 13 10 14 11 15 12
REMARK SMILES IDX 11 13 1 14 2 15 3 17 4 18 5 19 6 20 10 21 7 22 9 23 8 24
REMARK SMILES IDX 23 25 24 26 25 27 26 28 27 29 28 31 29 32 30 33 91 34 31 35
REMARK SMILES IDX 90 36 32 37 33 38 34 39 84 40 35 41 89 42 83 43 85 44 36 45
REMARK SMILES IDX 88 46 82 47 81 48 37 50 69 51 49 52 68 53 50 54 53 55 67 56
REMARK SMILES IDX 86 57 51 58 52 59 66 61 87 62 54 63 38 64 39 65 47 66 40 67
REMARK SMILES IDX 42 68 48 69 41 70 43 71 44 72 45 73 46 74 70 75 71 76 79 77
REMARK SMILES IDX 72 78 74 79 80 80 73 81 75 82 76 83 77 84 78 85 55 86 56 87
REMARK SMILES IDX 64 88 57 89 59 90 65 91 58 92 60 93 61 94 62 95 63 96
REMARK H PARENT 19 7 11 16 26 30 85 49 53 60
REMARK Flexibility Score: inf
ROOT
ATOM      1  C   UNL A   1      30.327  27.800  23.379  1.00  0.00     0.002 C 
ENDROOT
BRANCH   1   2
ATOM      2  C   UNL A   1      29.812  26.449  23.914  1.00  0.00     0.021 C 
BRANCH   2   3
ATOM      3  C   UNL A   1      30.287  25.043  23.498  1.00  0.00     0.116 C 
BRANCH   3   4
ATOM      4  N   UNL A   1      31.214  24.882  22.399  1.00  0.00    -0.351 N 
ATOM      5  C   UNL A   1      32.588  24.649  22.451  1.00  0.00     0.263 C 
ATOM      6  O   UNL A   1      33.168  24.598  21.363  1.00  0.00    -0.268 OA
ATOM      7  H   UNL A   1      30.824  24.945  21.498  1.00  0.00     0.163 HD
BRANCH   5   8
ATOM      8  C   UNL A   1      33.299  24.540  23.727  1.00  0.00     0.115 A 
ATOM      9  C   UNL A   1      33.594  23.469  24.562  1.00  0.00     0.065 A 
ATOM     10  C   UNL A   1      34.183  23.890  25.796  1.00  0.00     0.038 A 
ATOM     11  C   UNL A   1      34.477  25.232  25.807  1.00  0.00     0.068 A 
ATOM     12  S   UNL A   1      33.951  26.003  24.380  1.00  0.00    -0.137 S 
BRANCH   9  13
ATOM     13  N   UNL A   1      33.395  22.141  24.213  1.00  0.00    -0.325 N 
ATOM     14  O   UNL A   1      31.417  21.807  25.353  1.00  0.00    -0.275 OA
ATOM     15  C   UNL A   1      32.336  21.377  24.658  1.00  0.00     0.224 C 
ATOM     16  H   UNL A   1      34.050  21.719  23.611  1.00  0.00     0.169 HD
BRANCH  15  17
ATOM     17  C   UNL A   1      32.349  19.925  24.199  1.00  0.00     0.105 C 
BRANCH  17  18
ATOM     18  C   UNL A   1      33.686  19.203  24.360  1.00  0.00     0.047 C 
BRANCH  18  19
ATOM     19  C   UNL A   1      33.608  17.743  24.743  1.00  0.00    -0.029 A 
ATOM     20  C   UNL A   1      32.429  17.165  25.201  1.00  0.00     0.007 A 
ATOM     21  C   UNL A   1      34.704  16.893  24.632  1.00  0.00     0.114 A 
ATOM     22  C   UNL A   1      32.409  15.812  25.542  1.00  0.00     0.020 A 
ATOM     23  N   UNL A   1      34.729  15.588  24.970  1.00  0.00    -0.264 NA
ATOM     24  C   UNL A   1      33.573  15.072  25.418  1.00  0.00     0.111 A 
ENDBRANCH  18  19
ENDBRANCH  17  18
ENDBRANCH  15  17
ENDBRANCH   9  13
ENDBRANCH   5   8
ENDBRANCH   3   4
ENDBRANCH   2   3
ENDBRANCH   1   2
BRANCH   1  25
ATOM     25  C   UNL A   1      30.648  29.058  24.202  1.00  0.00     0.002 C 
BRANCH  25  26
ATOM     26  C   UNL A   1      31.972  29.231  24.952  1.00  0.00     0.021 C 
BRANCH  26  27
ATOM     27  C   UNL A   1      31.974  29.733  26.392  1.00  0.00     0.116 C 
BRANCH  27  28
ATOM     28  N   UNL A   1      31.956  31.182  26.485  1.00  0.00    -0.352 N 
ATOM     29  C   UNL A   1      32.798  32.032  27.170  1.00  0.00     0.251 C 
ATOM     30  H   UNL A   1      31.234  31.624  25.983  1.00  0.00     0.163 HD
ATOM     31  O   UNL A   1      32.485  33.218  27.271  1.00  0.00    -0.269 OA
BRANCH  29  32
ATOM     32  C   UNL A   1      34.070  31.562  27.787  1.00  0.00     0.039 A 
ATOM     33  C   UNL A   1      34.225  30.194  28.056  1.00  0.00     0.014 A 
ATOM     34  C   UNL A   1      35.070  32.450  28.194  1.00  0.00     0.014 A 
ATOM     35  C   UNL A   1      35.374  29.720  28.706  1.00  0.00     0.010 A 
ATOM     36  C   UNL A   1      36.241  31.970  28.792  1.00  0.00     0.010 A 
ATOM     37  C   UNL A   1      36.397  30.605  29.077  1.00  0.00    -0.014 A 
BRANCH  37  38
ATOM     38  C   UNL A   1      37.617  30.130  29.790  1.00  0.00     0.031 A 
ATOM     39  C   UNL A   1      37.910  30.597  31.194  1.00  0.00     0.074 A 
ATOM     40  C   UNL A   1      38.508  29.345  29.153  1.00  0.00     0.049 A 
ATOM     41  N   UNL A   1      38.941  30.335  31.956  1.00  0.00    -0.248 NA
ATOM     42  C   UNL A   1      36.925  31.500  31.812  1.00  0.00     0.031 C 
ATOM     43  C   UNL A   1      38.386  28.882  27.770  1.00  0.00     0.029 A 
ATOM     44  N   UNL A   1      39.707  28.821  29.573  1.00  0.00    -0.354 N 
ATOM     45  C   UNL A   1      38.752  31.069  33.122  1.00  0.00     0.074 A 
ATOM     46  C   UNL A   1      37.521  31.811  32.955  1.00  0.00     0.031 C 
ATOM     47  C   UNL A   1      39.467  28.153  27.453  1.00  0.00     0.029 A 
ATOM     48  C   UNL A   1      40.370  28.109  28.601  1.00  0.00     0.049 A 
ATOM     49  H   UNL A   1      40.058  28.944  30.485  1.00  0.00     0.167 HD
ATOM     50  C   UNL A   1      39.516  31.104  34.242  1.00  0.00     0.034 A 
ATOM     51  C   UNL A   1      41.569  27.492  28.627  1.00  0.00     0.034 A 
ATOM     52  C   UNL A   1      40.711  30.325  34.428  1.00  0.00     0.049 A 
ATOM     53  C   UNL A   1      42.369  27.491  29.902  1.00  0.00     0.074 A 
ATOM     54  C   UNL A   1      41.497  30.210  35.561  1.00  0.00     0.029 A 
ATOM     55  N   UNL A   1      41.298  29.533  33.455  1.00  0.00    -0.354 N 
ATOM     56  N   UNL A   1      42.087  28.055  31.052  1.00  0.00    -0.248 NA
ATOM     57  C   UNL A   1      43.630  26.736  29.898  1.00  0.00     0.031 C 
ATOM     58  C   UNL A   1      42.570  29.362  35.267  1.00  0.00     0.029 A 
ATOM     59  C   UNL A   1      42.440  28.932  33.956  1.00  0.00     0.049 A 
ATOM     60  H   UNL A   1      40.954  29.414  32.540  1.00  0.00     0.167 HD
ATOM     61  C   UNL A   1      43.116  27.697  31.916  1.00  0.00     0.074 A 
ATOM     62  C   UNL A   1      44.018  26.850  31.162  1.00  0.00     0.031 C 
ATOM     63  C   UNL A   1      43.304  28.050  33.212  1.00  0.00     0.034 A 
BRANCH  50  64
ATOM     64  C   UNL A   1      39.048  31.976  35.381  1.00  0.00     0.023 A 
ATOM     65  C   UNL A   1      39.230  33.372  35.306  1.00  0.00     0.012 A 
ATOM     66  C   UNL A   1      38.392  31.427  36.499  1.00  0.00     0.148 A 
ATOM     67  C   UNL A   1      38.806  34.204  36.343  1.00  0.00     0.002 A 
ATOM     68  C   UNL A   1      37.933  32.266  37.511  1.00  0.00     0.091 A 
ATOM     69  F   UNL A   1      38.243  30.096  36.567  1.00  0.00    -0.205 F 
ATOM     70  C   UNL A   1      38.150  33.651  37.439  1.00  0.00     0.022 A 
BRANCH  68  71
ATOM     71  S   UNL A   1      37.008  31.658  38.926  1.00  0.00     0.127 S 
ATOM     72  O   UNL A   1      37.957  31.880  40.016  1.00  0.00    -0.237 OA
ATOM     73  O   UNL A   1      35.844  32.544  38.942  1.00  0.00    -0.237 OA
ATOM     74  O   UNL A   1      36.701  30.264  38.632  1.00  0.00    -0.744 OA
ENDBRANCH  68  71
ENDBRANCH  50  64
BRANCH  51  75
ATOM     75  C   UNL A   1      42.042  26.755  27.420  1.00  0.00     0.023 A 
ATOM     76  C   UNL A   1      42.728  27.454  26.408  1.00  0.00     0.012 A 
ATOM     77  C   UNL A   1      41.872  25.361  27.297  1.00  0.00     0.148 A 
ATOM     78  C   UNL A   1      43.215  26.786  25.286  1.00  0.00     0.002 A 
ATOM     79  C   UNL A   1      42.410  24.693  26.203  1.00  0.00     0.091 A 
ATOM     80  F   UNL A   1      41.205  24.715  28.264  1.00  0.00    -0.205 F 
ATOM     81  C   UNL A   1      43.068  25.405  25.189  1.00  0.00     0.022 A 
BRANCH  79  82
ATOM     82  S   UNL A   1      42.396  22.900  26.074  1.00  0.00     0.127 S 
ATOM     83  O   UNL A   1      43.184  22.511  27.245  1.00  0.00    -0.237 OA
ATOM     84  O   UNL A   1      40.963  22.602  26.174  1.00  0.00    -0.237 OA
ATOM     85  O   UNL A   1      42.980  22.591  24.784  1.00  0.00    -0.744 OA
ENDBRANCH  79  82
ENDBRANCH  51  75
BRANCH  63  86
ATOM     86  C   UNL A   1      44.520  27.507  33.918  1.00  0.00     0.023 A 
ATOM     87  C   UNL A   1      45.723  28.240  33.901  1.00  0.00     0.012 A 
ATOM     88  C   UNL A   1      44.446  26.315  34.665  1.00  0.00     0.148 A 
ATOM     89  C   UNL A   1      46.842  27.780  34.593  1.00  0.00     0.002 A 
ATOM     90  C   UNL A   1      45.552  25.886  35.390  1.00  0.00     0.091 A 
ATOM     91  F   UNL A   1      43.299  25.620  34.652  1.00  0.00    -0.205 F 
ATOM     92  C   UNL A   1      46.755  26.612  35.347  1.00  0.00     0.022 A 
BRANCH  90  93
ATOM     93  S   UNL A   1      45.499  24.445  36.462  1.00  0.00     0.127 S 
ATOM     94  O   UNL A   1      46.812  24.504  37.105  1.00  0.00    -0.237 OA
ATOM     95  O   UNL A   1      44.374  24.754  37.345  1.00  0.00    -0.237 OA
ATOM     96  O   UNL A   1      45.280  23.303  35.585  1.00  0.00    -0.744 OA
ENDBRANCH  90  93
ENDBRANCH  63  86
ENDBRANCH  37  38
ENDBRANCH  29  32
ENDBRANCH  27  28
ENDBRANCH  26  27
ENDBRANCH  25  26
ENDBRANCH   1  25
TORSDOF 20
ENDMDL
MODEL 2
REMARK VINA RESULT:     -11.8      1.878      4.335
REMARK SMILES O=C(CCc1cccnc1)Nc1ccsc1C(=O)NCCCCCCNC(=O)c1ccc(-c2c3nc(c(-c4cccc(S(=O)(=O)[O-])c4F)c4ccc([nH]4)c(-c4cccc(S(=O)(=O)[O-])c4F)c4nc(c(-c5cccc(S(=O)(=O)[O-])c5F)c5ccc2[nH]5)C=C4)C=C3)cc1
REMARK SMILES IDX 22 1 21 2 20 3 19 4 17 5 18 6 16 8 12 9 13 10 14 11 15 12
REMARK SMILES IDX 11 13 1 14 2 15 3 17 4 18 5 19 6 20 10 21 7 22 9 23 8 24
REMARK SMILES IDX 23 25 24 26 25 27 26 28 27 29 28 31 29 32 30 33 91 34 31 35
REMARK SMILES IDX 90 36 32 37 33 38 34 39 84 40 35 41 89 42 83 43 85 44 36 45
REMARK SMILES IDX 88 46 82 47 81 48 37 50 69 51 49 52 68 53 50 54 53 55 67 56
REMARK SMILES IDX 86 57 51 58 52 59 66 61 87 62 54 63 38 64 39 65 47 66 40 67
REMARK SMILES IDX 42 68 48 69 41 70 43 71 44 72 45 73 46 74 70 75 71 76 79 77
REMARK SMILES IDX 72 78 74 79 80 80 73 81 75 82 76 83 77 84 78 85 55 86 56 87
REMARK SMILES IDX 64 88 57 89 59 90 65 91 58 92 60 93 61 94 62 95 63 96
REMARK H PARENT 19 7 11 16 26 30 85 49 53 60
REMARK Flexibility Score: inf
ROOT
ATOM      1  C   UNL A   1      33.380  26.624  25.629  1.00  0.00     0.002 C 
ENDROOT
BRANCH   1   2
ATOM      2  C   UNL A   1      34.164  25.299  25.714  1.00  0.00     0.021 C 
BRANCH   2   3
ATOM      3  C   UNL A   1      33.767  24.034  26.501  1.00  0.00     0.116 C 
BRANCH   3   4
ATOM      4  N   UNL A   1      32.375  23.753  26.776  1.00  0.00    -0.351 N 
ATOM      5  C   UNL A   1      31.482  22.987  26.028  1.00  0.00     0.263 C 
ATOM      6  O   UNL A   1      30.324  22.939  26.452  1.00  0.00    -0.268 OA
ATOM      7  H   UNL A   1      32.012  24.154  27.598  1.00  0.00     0.163 HD
BRANCH   5   8
ATOM      8  C   UNL A   1      31.888  22.338  24.778  1.00  0.00     0.115 A 
ATOM      9  C   UNL A   1      32.090  22.808  23.486  1.00  0.00     0.065 A 
ATOM     10  C   UNL A   1      32.334  21.748  22.556  1.00  0.00     0.038 A 
ATOM     11  C   UNL A   1      32.480  20.530  23.175  1.00  0.00     0.068 A 
ATOM     12  S   UNL A   1      32.221  20.643  24.856  1.00  0.00    -0.137 S 
BRANCH   9  13
ATOM     13  N   UNL A   1      32.113  24.153  23.148  1.00  0.00    -0.325 N 
ATOM     14  O   UNL A   1      29.844  24.552  23.286  1.00  0.00    -0.275 OA
ATOM     15  C   UNL A   1      30.984  24.938  23.034  1.00  0.00     0.224 C 
ATOM     16  H   UNL A   1      32.987  24.573  22.982  1.00  0.00     0.169 HD
BRANCH  15  17
ATOM     17  C   UNL A   1      31.237  26.374  22.592  1.00  0.00     0.105 C 
BRANCH  17  18
ATOM     18  C   UNL A   1      30.718  27.450  23.545  1.00  0.00     0.047 C 
BRANCH  18  19
ATOM     19  C   UNL A   1      29.761  28.456  22.947  1.00  0.00    -0.029 A 
ATOM     20  C   UNL A   1      30.204  29.519  22.167  1.00  0.00     0.007 A 
ATOM     21  C   UNL A   1      28.384  28.357  23.123  1.00  0.00     0.114 A 
ATOM     22  C   UNL A   1      29.279  30.420  21.638  1.00  0.00     0.020 A 
ATOM     23  N   UNL A   1      27.463  29.218  22.645  1.00  0.00    -0.264 NA
ATOM     24  C   UNL A   1      27.934  30.236  21.907  1.00  0.00     0.111 A 
ENDBRANCH  18  19
ENDBRANCH  17  18
ENDBRANCH  15  17
ENDBRANCH   9  13
ENDBRANCH   5   8
ENDBRANCH   3   4
ENDBRANCH   2   3
ENDBRANCH   1   2
BRANCH   1  25
ATOM     25  C   UNL A   1      32.524  27.264  26.735  1.00  0.00     0.002 C 
BRANCH  25  26
ATOM     26  C   UNL A   1      32.133  28.745  26.716  1.00  0.00     0.021 C 
BRANCH  26  27
ATOM     27  C   UNL A   1      32.938  29.735  25.881  1.00  0.00     0.116 C 
BRANCH  27  28
ATOM     28  N   UNL A   1      32.781  31.108  26.326  1.00  0.00    -0.352 N 
ATOM     29  C   UNL A   1      33.496  31.816  27.268  1.00  0.00     0.251 C 
ATOM     30  H   UNL A   1      32.054  31.608  25.891  1.00  0.00     0.163 HD
ATOM     31  O   UNL A   1      33.069  32.912  27.632  1.00  0.00    -0.269 OA
BRANCH  29  32
ATOM     32  C   UNL A   1      34.765  31.300  27.855  1.00  0.00     0.039 A 
ATOM     33  C   UNL A   1      34.786  29.999  28.379  1.00  0.00     0.014 A 
ATOM     34  C   UNL A   1      35.902  32.103  27.986  1.00  0.00     0.014 A 
ATOM     35  C   UNL A   1      35.937  29.503  29.009  1.00  0.00     0.010 A 
ATOM     36  C   UNL A   1      37.068  31.588  28.564  1.00  0.00     0.010 A 
ATOM     37  C   UNL A   1      37.093  30.293  29.104  1.00  0.00    -0.014 A 
BRANCH  37  38
ATOM     38  C   UNL A   1      38.320  29.797  29.789  1.00  0.00     0.031 A 
ATOM     39  C   UNL A   1      38.691  30.314  31.157  1.00  0.00     0.074 A 
ATOM     40  C   UNL A   1      39.149  28.944  29.156  1.00  0.00     0.049 A 
ATOM     41  N   UNL A   1      39.741  30.041  31.889  1.00  0.00    -0.248 NA
ATOM     42  C   UNL A   1      37.773  31.287  31.770  1.00  0.00     0.031 C 
ATOM     43  C   UNL A   1      38.950  28.425  27.802  1.00  0.00     0.029 A 
ATOM     44  N   UNL A   1      40.341  28.388  29.552  1.00  0.00    -0.354 N 
ATOM     45  C   UNL A   1      39.633  30.836  33.025  1.00  0.00     0.074 A 
ATOM     46  C   UNL A   1      38.429  31.623  32.873  1.00  0.00     0.031 C 
ATOM     47  C   UNL A   1      39.985  27.635  27.477  1.00  0.00     0.029 A 
ATOM     48  C   UNL A   1      40.932  27.604  28.589  1.00  0.00     0.049 A 
ATOM     49  H   UNL A   1      40.736  28.536  30.443  1.00  0.00     0.167 HD
ATOM     50  C   UNL A   1      40.443  30.888  34.111  1.00  0.00     0.034 A 
ATOM     51  C   UNL A   1      42.104  26.935  28.597  1.00  0.00     0.034 A 
ATOM     52  C   UNL A   1      41.611  30.066  34.286  1.00  0.00     0.049 A 
ATOM     53  C   UNL A   1      42.957  26.957  29.837  1.00  0.00     0.074 A 
ATOM     54  C   UNL A   1      42.439  29.968  35.391  1.00  0.00     0.029 A 
ATOM     55  N   UNL A   1      42.123  29.205  33.329  1.00  0.00    -0.354 N 
ATOM     56  N   UNL A   1      42.747  27.585  30.969  1.00  0.00    -0.248 NA
ATOM     57  C   UNL A   1      44.183  26.147  29.819  1.00  0.00     0.031 C 
ATOM     58  C   UNL A   1      43.461  29.060  35.095  1.00  0.00     0.029 A 
ATOM     59  C   UNL A   1      43.258  28.577  33.812  1.00  0.00     0.049 A 
ATOM     60  H   UNL A   1      41.736  29.059  32.435  1.00  0.00     0.167 HD
ATOM     61  C   UNL A   1      43.795  27.221  31.808  1.00  0.00     0.074 A 
ATOM     62  C   UNL A   1      44.628  26.302  31.059  1.00  0.00     0.031 C 
ATOM     63  C   UNL A   1      44.052  27.625  33.077  1.00  0.00     0.034 A 
BRANCH  50  64
ATOM     64  C   UNL A   1      40.061  31.831  35.225  1.00  0.00     0.023 A 
ATOM     65  C   UNL A   1      40.611  33.129  35.255  1.00  0.00     0.012 A 
ATOM     66  C   UNL A   1      39.130  31.455  36.213  1.00  0.00     0.148 A 
ATOM     67  C   UNL A   1      40.275  34.023  36.271  1.00  0.00     0.002 A 
ATOM     68  C   UNL A   1      38.767  32.367  37.200  1.00  0.00     0.091 A 
ATOM     69  F   UNL A   1      38.631  30.212  36.184  1.00  0.00    -0.205 F 
ATOM     70  C   UNL A   1      39.347  33.645  37.237  1.00  0.00     0.022 A 
BRANCH  68  71
ATOM     71  S   UNL A   1      37.521  32.000  38.442  1.00  0.00     0.127 S 
ATOM     72  O   UNL A   1      38.228  32.339  39.676  1.00  0.00    -0.237 OA
ATOM     73  O   UNL A   1      36.443  32.923  38.084  1.00  0.00    -0.237 OA
ATOM     74  O   UNL A   1      37.191  30.592  38.271  1.00  0.00    -0.744 OA
ENDBRANCH  68  71
ENDBRANCH  50  64
BRANCH  51  75
ATOM     75  C   UNL A   1      42.495  26.124  27.408  1.00  0.00     0.023 A 
ATOM     76  C   UNL A   1      43.290  26.708  26.404  1.00  0.00     0.012 A 
ATOM     77  C   UNL A   1      42.136  24.765  27.296  1.00  0.00     0.148 A 
ATOM     78  C   UNL A   1      43.703  25.963  25.299  1.00  0.00     0.002 A 
ATOM     79  C   UNL A   1      42.598  24.014  26.221  1.00  0.00     0.091 A 
ATOM     80  F   UNL A   1      41.367  24.231  28.255  1.00  0.00    -0.205 F 
ATOM     81  C   UNL A   1      43.368  24.615  25.214  1.00  0.00     0.022 A 
BRANCH  79  82
ATOM     82  S   UNL A   1      42.338  22.239  26.112  1.00  0.00     0.127 S 
ATOM     83  O   UNL A   1      40.885  22.159  25.949  1.00  0.00    -0.237 OA
ATOM     84  O   UNL A   1      43.108  21.895  24.912  1.00  0.00    -0.237 OA
ATOM     85  O   UNL A   1      42.870  21.684  27.340  1.00  0.00    -0.744 OA
ENDBRANCH  79  82
ENDBRANCH  51  75
BRANCH  63  86
ATOM     86  C   UNL A   1      45.272  27.061  33.758  1.00  0.00     0.023 A 
ATOM     87  C   UNL A   1      46.503  27.739  33.661  1.00  0.00     0.012 A 
ATOM     88  C   UNL A   1      45.180  25.907  34.562  1.00  0.00     0.148 A 
ATOM     89  C   UNL A   1      47.630  27.262  34.329  1.00  0.00     0.002 A 
ATOM     90  C   UNL A   1      46.296  25.464  35.262  1.00  0.00     0.091 A 
ATOM     91  F   UNL A   1      44.005  25.264  34.626  1.00  0.00    -0.205 F 
ATOM     92  C   UNL A   1      47.525  26.133  35.138  1.00  0.00     0.022 A 
BRANCH  90  93
ATOM     93  S   UNL A   1      46.227  24.075  36.401  1.00  0.00     0.127 S 
ATOM     94  O   UNL A   1      47.645  23.760  36.572  1.00  0.00    -0.237 OA
ATOM     95  O   UNL A   1      45.587  24.667  37.577  1.00  0.00    -0.237 OA
ATOM     96  O   UNL A   1      45.433  23.052  35.735  1.00  0.00    -0.744 OA
ENDBRANCH  90  93
ENDBRANCH  63  86
ENDBRANCH  37  38
ENDBRANCH  29  32
ENDBRANCH  27  28
ENDBRANCH  26  27
ENDBRANCH  25  26
ENDBRANCH   1  25
TORSDOF 20
ENDMDL
MODEL 3
REMARK VINA RESULT:     -11.7      2.422      8.542
REMARK SMILES O=C(CCc1cccnc1)Nc1ccsc1C(=O)NCCCCCCNC(=O)c1ccc(-c2c3nc(c(-c4cccc(S(=O)(=O)[O-])c4F)c4ccc([nH]4)c(-c4cccc(S(=O)(=O)[O-])c4F)c4nc(c(-c5cccc(S(=O)(=O)[O-])c5F)c5ccc2[nH]5)C=C4)C=C3)cc1
REMARK SMILES IDX 22 1 21 2 20 3 19 4 17 5 18 6 16 8 12 9 13 10 14 11 15 12
REMARK SMILES IDX 11 13 1 14 2 15 3 17 4 18 5 19 6 20 10 21 7 22 9 23 8 24
REMARK SMILES IDX 23 25 24 26 25 27 26 28 27 29 28 31 29 32 30 33 91 34 31 35
REMARK SMILES IDX 90 36 32 37 33 38 34 39 84 40 35 41 89 42 83 43 85 44 36 45
REMARK SMILES IDX 88 46 82 47 81 48 37 50 69 51 49 52 68 53 50 54 53 55 67 56
REMARK SMILES IDX 86 57 51 58 52 59 66 61 87 62 54 63 38 64 39 65 47 66 40 67
REMARK SMILES IDX 42 68 48 69 41 70 43 71 44 72 45 73 46 74 70 75 71 76 79 77
REMARK SMILES IDX 72 78 74 79 80 80 73 81 75 82 76 83 77 84 78 85 55 86 56 87
REMARK SMILES IDX 64 88 57 89 59 90 65 91 58 92 60 93 61 94 62 95 63 96
REMARK H PARENT 19 7 11 16 26 30 85 49 53 60
REMARK Flexibility Score: inf
ROOT
ATOM      1  C   UNL A   1      32.488  29.422  25.369  1.00  0.00     0.002 C 
ENDROOT
BRANCH   1   2
ATOM      2  C   UNL A   1      33.260  28.910  24.138  1.00  0.00     0.021 C 
BRANCH   2   3
ATOM      3  C   UNL A   1      33.655  27.451  23.830  1.00  0.00     0.116 C 
BRANCH   3   4
ATOM      4  N   UNL A   1      33.519  26.927  22.488  1.00  0.00    -0.351 N 
ATOM      5  C   UNL A   1      33.296  25.609  22.092  1.00  0.00     0.263 C 
ATOM      6  O   UNL A   1      33.266  25.408  20.875  1.00  0.00    -0.268 OA
ATOM      7  H   UNL A   1      33.592  27.586  21.762  1.00  0.00     0.163 HD
BRANCH   5   8
ATOM      8  C   UNL A   1      33.173  24.524  23.071  1.00  0.00     0.115 A 
ATOM      9  C   UNL A   1      32.241  24.240  24.061  1.00  0.00     0.065 A 
ATOM     10  C   UNL A   1      32.638  23.135  24.878  1.00  0.00     0.038 A 
ATOM     11  C   UNL A   1      33.761  22.504  24.399  1.00  0.00     0.068 A 
ATOM     12  S   UNL A   1      34.394  23.300  23.030  1.00  0.00    -0.137 S 
BRANCH   9  13
ATOM     13  N   UNL A   1      31.035  24.911  24.201  1.00  0.00    -0.325 N 
ATOM     14  O   UNL A   1      31.522  26.031  26.159  1.00  0.00    -0.275 OA
ATOM     15  C   UNL A   1      30.733  25.741  25.262  1.00  0.00     0.224 C 
ATOM     16  H   UNL A   1      30.353  24.789  23.501  1.00  0.00     0.169 HD
BRANCH  15  17
ATOM     17  C   UNL A   1      29.327  26.325  25.246  1.00  0.00     0.105 C 
BRANCH  17  18
ATOM     18  C   UNL A   1      28.690  26.451  23.862  1.00  0.00     0.047 C 
BRANCH  18  19
ATOM     19  C   UNL A   1      28.842  27.794  23.185  1.00  0.00    -0.029 A 
ATOM     20  C   UNL A   1      27.799  28.712  23.129  1.00  0.00     0.007 A 
ATOM     21  C   UNL A   1      30.043  28.194  22.604  1.00  0.00     0.114 A 
ATOM     22  C   UNL A   1      27.992  29.939  22.492  1.00  0.00     0.020 A 
ATOM     23  N   UNL A   1      30.260  29.360  21.964  1.00  0.00    -0.264 NA
ATOM     24  C   UNL A   1      29.224  30.213  21.923  1.00  0.00     0.111 A 
ENDBRANCH  18  19
ENDBRANCH  17  18
ENDBRANCH  15  17
ENDBRANCH   9  13
ENDBRANCH   5   8
ENDBRANCH   3   4
ENDBRANCH   2   3
ENDBRANCH   1   2
BRANCH   1  25
ATOM     25  C   UNL A   1      31.280  30.374  25.372  1.00  0.00     0.002 C 
BRANCH  25  26
ATOM     26  C   UNL A   1      31.204  31.598  26.290  1.00  0.00     0.021 C 
BRANCH  26  27
ATOM     27  C   UNL A   1      32.472  32.150  26.933  1.00  0.00     0.116 C 
BRANCH  27  28
ATOM     28  N   UNL A   1      32.369  33.560  27.265  1.00  0.00    -0.352 N 
ATOM     29  C   UNL A   1      33.025  34.286  28.236  1.00  0.00     0.251 C 
ATOM     30  H   UNL A   1      31.737  34.074  26.713  1.00  0.00     0.163 HD
ATOM     31  O   UNL A   1      32.643  35.433  28.473  1.00  0.00    -0.269 OA
BRANCH  29  32
ATOM     32  C   UNL A   1      34.176  33.731  29.002  1.00  0.00     0.039 A 
ATOM     33  C   UNL A   1      35.465  34.209  28.723  1.00  0.00     0.014 A 
ATOM     34  C   UNL A   1      34.023  32.684  29.915  1.00  0.00     0.014 A 
ATOM     35  C   UNL A   1      36.584  33.658  29.366  1.00  0.00     0.010 A 
ATOM     36  C   UNL A   1      35.134  32.174  30.597  1.00  0.00     0.010 A 
ATOM     37  C   UNL A   1      36.428  32.636  30.314  1.00  0.00    -0.014 A 
BRANCH  37  38
ATOM     38  C   UNL A   1      37.603  32.019  30.993  1.00  0.00     0.031 A 
ATOM     39  C   UNL A   1      38.451  31.001  30.272  1.00  0.00     0.074 A 
ATOM     40  C   UNL A   1      37.865  32.307  32.283  1.00  0.00     0.049 A 
ATOM     41  N   UNL A   1      39.479  30.320  30.711  1.00  0.00    -0.248 NA
ATOM     42  C   UNL A   1      38.077  30.689  28.884  1.00  0.00     0.031 C 
ATOM     43  C   UNL A   1      37.080  33.215  33.119  1.00  0.00     0.029 A 
ATOM     44  N   UNL A   1      38.846  31.843  33.126  1.00  0.00    -0.354 N 
ATOM     45  C   UNL A   1      39.848  29.471  29.673  1.00  0.00     0.074 A 
ATOM     46  C   UNL A   1      38.915  29.703  28.591  1.00  0.00     0.031 C 
ATOM     47  C   UNL A   1      37.602  33.236  34.356  1.00  0.00     0.029 A 
ATOM     48  C   UNL A   1      38.747  32.330  34.409  1.00  0.00     0.049 A 
ATOM     49  H   UNL A   1      39.553  31.220  32.839  1.00  0.00     0.167 HD
ATOM     50  C   UNL A   1      40.883  28.599  29.610  1.00  0.00     0.034 A 
ATOM     51  C   UNL A   1      39.491  32.077  35.505  1.00  0.00     0.034 A 
ATOM     52  C   UNL A   1      41.843  28.407  30.665  1.00  0.00     0.049 A 
ATOM     53  C   UNL A   1      40.675  31.153  35.394  1.00  0.00     0.074 A 
ATOM     54  C   UNL A   1      42.985  27.626  30.661  1.00  0.00     0.029 A 
ATOM     55  N   UNL A   1      41.769  28.998  31.917  1.00  0.00    -0.354 N 
ATOM     56  N   UNL A   1      41.106  30.489  34.349  1.00  0.00    -0.248 NA
ATOM     57  C   UNL A   1      41.498  30.975  36.599  1.00  0.00     0.031 C 
ATOM     58  C   UNL A   1      43.593  27.731  31.917  1.00  0.00     0.029 A 
ATOM     59  C   UNL A   1      42.839  28.594  32.697  1.00  0.00     0.049 A 
ATOM     60  H   UNL A   1      41.060  29.615  32.210  1.00  0.00     0.167 HD
ATOM     61  C   UNL A   1      42.267  29.842  34.760  1.00  0.00     0.074 A 
ATOM     62  C   UNL A   1      42.482  30.210  36.144  1.00  0.00     0.031 C 
ATOM     63  C   UNL A   1      43.072  29.007  34.058  1.00  0.00     0.034 A 
BRANCH  50  64
ATOM     64  C   UNL A   1      41.067  27.820  28.330  1.00  0.00     0.023 A 
ATOM     65  C   UNL A   1      41.630  28.458  27.205  1.00  0.00     0.012 A 
ATOM     66  C   UNL A   1      40.728  26.456  28.250  1.00  0.00     0.148 A 
ATOM     67  C   UNL A   1      41.814  27.764  26.009  1.00  0.00     0.002 A 
ATOM     68  C   UNL A   1      40.953  25.758  27.067  1.00  0.00     0.091 A 
ATOM     69  F   UNL A   1      40.175  25.868  29.320  1.00  0.00    -0.205 F 
ATOM     70  C   UNL A   1      41.484  26.413  25.944  1.00  0.00     0.022 A 
BRANCH  68  71
ATOM     71  S   UNL A   1      40.634  23.997  26.908  1.00  0.00     0.127 S 
ATOM     72  O   UNL A   1      39.183  23.976  26.731  1.00  0.00    -0.237 OA
ATOM     73  O   UNL A   1      41.400  23.648  25.711  1.00  0.00    -0.237 OA
ATOM     74  O   UNL A   1      41.127  23.390  28.137  1.00  0.00    -0.744 OA
ENDBRANCH  68  71
ENDBRANCH  50  64
BRANCH  51  75
ATOM     75  C   UNL A   1      39.178  32.777  36.784  1.00  0.00     0.023 A 
ATOM     76  C   UNL A   1      39.727  34.051  37.026  1.00  0.00     0.012 A 
ATOM     77  C   UNL A   1      38.295  32.219  37.730  1.00  0.00     0.148 A 
ATOM     78  C   UNL A   1      39.422  34.747  38.195  1.00  0.00     0.002 A 
ATOM     79  C   UNL A   1      37.951  32.943  38.866  1.00  0.00     0.091 A 
ATOM     80  F   UNL A   1      37.792  31.000  37.488  1.00  0.00    -0.205 F 
ATOM     81  C   UNL A   1      38.525  34.200  39.108  1.00  0.00     0.022 A 
BRANCH  79  82
ATOM     82  S   UNL A   1      36.691  32.378  40.017  1.00  0.00     0.127 S 
ATOM     83  O   UNL A   1      37.291  31.146  40.534  1.00  0.00    -0.237 OA
ATOM     84  O   UNL A   1      36.641  33.484  40.977  1.00  0.00    -0.237 OA
ATOM     85  O   UNL A   1      35.483  32.214  39.233  1.00  0.00    -0.744 OA
ENDBRANCH  79  82
ENDBRANCH  51  75
BRANCH  63  86
ATOM     86  C   UNL A   1      44.281  28.444  34.760  1.00  0.00     0.023 A 
ATOM     87  C   UNL A   1      45.501  29.150  34.725  1.00  0.00     0.012 A 
ATOM     88  C   UNL A   1      44.187  27.263  35.521  1.00  0.00     0.148 A 
ATOM     89  C   UNL A   1      46.615  28.673  35.414  1.00  0.00     0.002 A 
ATOM     90  C   UNL A   1      45.289  26.818  36.242  1.00  0.00     0.091 A 
ATOM     91  F   UNL A   1      43.025  26.594  35.525  1.00  0.00    -0.205 F 
ATOM     92  C   UNL A   1      46.507  27.516  36.181  1.00  0.00     0.022 A 
BRANCH  90  93
ATOM     93  S   UNL A   1      45.213  25.391  37.331  1.00  0.00     0.127 S 
ATOM     94  O   UNL A   1      46.566  25.365  37.884  1.00  0.00    -0.237 OA
ATOM     95  O   UNL A   1      44.172  25.780  38.284  1.00  0.00    -0.237 OA
ATOM     96  O   UNL A   1      44.860  24.260  36.483  1.00  0.00    -0.744 OA
ENDBRANCH  90  93
ENDBRANCH  63  86
ENDBRANCH  37  38
ENDBRANCH  29  32
ENDBRANCH  27  28
ENDBRANCH  26  27
ENDBRANCH  25  26
ENDBRANCH   1  25
TORSDOF 20
ENDMDL
