MODEL 1
REMARK VINA RESULT:     -12.0      0.000      0.000
REMARK SMILES Cc1ccc(C)c(S(=O)(=O)N[C@H](CC2=c3ccccc3=NC2)C(=O)NCCCCCCNC(=O)c2ccc(-c3c4nc(c(-c5cccc(S(=O)(=O)[O-])c5F)c5ccc([nH]5)c(-c5cccc(S(=O)(=O)[O-])c5F)c5nc(c(-c6cccc(S(=O)(=O)[O-])c6F)c6ccc3[nH]6)C=C5)C=C4)cc2)c1
REMARK SMILES IDX 28 1 27 2 26 3 25 4 23 5 24 6 12 8 11 9 8 11 9 12 10 13 7 14
REMARK SMILES IDX 1 15 2 16 3 17 98 18 4 19 5 20 6 21 13 22 14 23 15 24 22 25
REMARK SMILES IDX 16 26 20 27 21 28 17 29 19 30 18 31 29 32 30 33 31 34 32 35
REMARK SMILES IDX 33 36 34 38 35 39 36 40 97 41 37 42 96 43 38 44 39 45 40 46
REMARK SMILES IDX 90 47 41 48 95 49 89 50 91 51 42 52 94 53 88 54 87 55 43 57
REMARK SMILES IDX 75 58 55 59 74 60 56 61 59 62 73 63 92 64 57 65 58 66 72 68
REMARK SMILES IDX 93 69 60 70 44 71 45 72 53 73 46 74 48 75 54 76 47 77 49 78
REMARK SMILES IDX 50 79 51 80 52 81 76 82 77 83 85 84 78 85 80 86 86 87 79 88
REMARK SMILES IDX 81 89 82 90 83 91 84 92 61 93 62 94 70 95 63 96 65 97 71 98
REMARK SMILES IDX 64 99 66 100 67 101 68 102 69 103
REMARK H PARENT 25 7 11 10 32 37 91 56 59 67
REMARK Flexibility Score: inf
ROOT
ATOM      1  C   UNL A   1      37.740  23.116  25.837  1.00  0.00     0.002 C 
ENDROOT
BRANCH   1   2
ATOM      2  C   UNL A   1      37.127  23.827  24.628  1.00  0.00     0.021 C 
BRANCH   2   3
ATOM      3  C   UNL A   1      36.457  22.958  23.548  1.00  0.00     0.116 C 
BRANCH   3   4
ATOM      4  N   UNL A   1      35.208  22.312  23.931  1.00  0.00    -0.355 N 
ATOM      5  C   UNL A   1      33.961  22.761  24.272  1.00  0.00     0.238 C 
ATOM      6  O   UNL A   1      33.150  21.884  24.601  1.00  0.00    -0.273 OA
ATOM      7  H   UNL A   1      35.276  21.330  23.947  1.00  0.00     0.163 HD
BRANCH   5   8
ATOM      8  C   UNL A   1      33.539  24.242  24.261  1.00  0.00     0.163 C 
BRANCH   8   9
ATOM      9  N   UNL A   1      33.923  24.847  22.960  1.00  0.00    -0.198 NA
ATOM     10  H   UNL A   1      34.448  25.693  23.183  1.00  0.00     0.142 HD
BRANCH   9  11
ATOM     11  S   UNL A   1      32.795  25.287  21.819  1.00  0.00     0.241 S 
ATOM     12  O   UNL A   1      31.956  24.156  21.530  1.00  0.00    -0.207 OA
ATOM     13  O   UNL A   1      33.555  25.959  20.773  1.00  0.00    -0.207 OA
BRANCH  11  14
ATOM     14  C   UNL A   1      31.809  26.544  22.607  1.00  0.00     0.085 A 
ATOM     15  C   UNL A   1      28.256  26.851  23.944  1.00  0.00     0.044 C 
ATOM     16  C   UNL A   1      29.669  27.198  23.572  1.00  0.00    -0.050 A 
ATOM     17  C   UNL A   1      30.160  28.490  23.750  1.00  0.00     0.004 A 
ATOM     18  C   UNL A   1      30.498  26.232  22.994  1.00  0.00     0.025 A 
ATOM     19  C   UNL A   1      31.477  28.799  23.403  1.00  0.00     0.005 A 
ATOM     20  C   UNL A   1      32.330  27.830  22.844  1.00  0.00    -0.031 A 
ATOM     21  C   UNL A   1      33.745  28.244  22.550  1.00  0.00     0.046 C 
ENDBRANCH  11  14
ENDBRANCH   9  11
ENDBRANCH   8   9
BRANCH   8  22
ATOM     22  C   UNL A   1      33.999  25.137  25.444  1.00  0.00     0.063 C 
BRANCH  22  23
ATOM     23  C   UNL A   1      33.069  26.174  26.023  1.00  0.00    -0.037 C 
ATOM     24  C   UNL A   1      33.243  27.454  26.357  1.00  0.00     0.001 A 
ATOM     25  C   UNL A   1      31.750  25.724  26.555  1.00  0.00     0.174 C 
ATOM     26  C   UNL A   1      34.320  28.392  26.386  1.00  0.00     0.010 A 
ATOM     27  C   UNL A   1      31.917  27.834  26.883  1.00  0.00     0.065 A 
ATOM     28  N   UNL A   1      31.009  26.917  26.998  1.00  0.00    -0.280 NA
ATOM     29  C   UNL A   1      34.093  29.627  26.870  1.00  0.00     0.001 A 
ATOM     30  C   UNL A   1      31.705  29.248  27.231  1.00  0.00     0.028 A 
ATOM     31  C   UNL A   1      32.764  30.067  27.256  1.00  0.00     0.002 A 
ENDBRANCH  22  23
ENDBRANCH   8  22
ENDBRANCH   5   8
ENDBRANCH   3   4
ENDBRANCH   2   3
ENDBRANCH   1   2
BRANCH   1  32
ATOM     32  C   UNL A   1      37.717  21.590  25.807  1.00  0.00     0.002 C 
BRANCH  32  33
ATOM     33  C   UNL A   1      39.054  20.860  25.598  1.00  0.00     0.021 C 
BRANCH  33  34
ATOM     34  C   UNL A   1      39.027  19.330  25.583  1.00  0.00     0.116 C 
BRANCH  34  35
ATOM     35  N   UNL A   1      40.341  18.735  25.844  1.00  0.00    -0.352 N 
ATOM     36  C   UNL A   1      41.598  19.283  26.020  1.00  0.00     0.251 C 
ATOM     37  H   UNL A   1      40.326  17.753  25.908  1.00  0.00     0.163 HD
ATOM     38  O   UNL A   1      42.580  18.571  25.814  1.00  0.00    -0.269 OA
BRANCH  36  39
ATOM     39  C   UNL A   1      41.797  20.678  26.477  1.00  0.00     0.039 A 
ATOM     40  C   UNL A   1      42.509  21.614  25.708  1.00  0.00     0.014 A 
ATOM     41  C   UNL A   1      41.361  21.048  27.738  1.00  0.00     0.014 A 
ATOM     42  C   UNL A   1      42.757  22.892  26.224  1.00  0.00     0.010 A 
ATOM     43  C   UNL A   1      41.454  22.336  28.185  1.00  0.00     0.010 A 
ATOM     44  C   UNL A   1      42.232  23.234  27.472  1.00  0.00    -0.014 A 
BRANCH  44  45
ATOM     45  C   UNL A   1      42.419  24.524  28.114  1.00  0.00     0.031 A 
ATOM     46  C   UNL A   1      41.316  25.488  27.952  1.00  0.00     0.074 A 
ATOM     47  C   UNL A   1      43.328  24.686  29.101  1.00  0.00     0.049 A 
ATOM     48  N   UNL A   1      41.369  26.627  27.346  1.00  0.00    -0.248 NA
ATOM     49  C   UNL A   1      39.980  25.119  28.441  1.00  0.00     0.031 C 
ATOM     50  C   UNL A   1      44.275  23.687  29.606  1.00  0.00     0.029 A 
ATOM     51  N   UNL A   1      43.467  25.715  29.987  1.00  0.00    -0.354 N 
ATOM     52  C   UNL A   1      40.143  27.222  27.599  1.00  0.00     0.074 A 
ATOM     53  C   UNL A   1      39.263  26.179  28.065  1.00  0.00     0.031 C 
ATOM     54  C   UNL A   1      44.698  24.064  30.829  1.00  0.00     0.029 A 
ATOM     55  C   UNL A   1      44.178  25.374  31.134  1.00  0.00     0.049 A 
ATOM     56  H   UNL A   1      43.099  26.615  29.829  1.00  0.00     0.167 HD
ATOM     57  C   UNL A   1      40.007  28.571  27.694  1.00  0.00     0.034 A 
ATOM     58  C   UNL A   1      44.310  26.103  32.267  1.00  0.00     0.034 A 
ATOM     59  C   UNL A   1      41.187  29.283  27.283  1.00  0.00     0.049 A 
ATOM     60  C   UNL A   1      44.062  27.508  31.890  1.00  0.00     0.074 A 
ATOM     61  C   UNL A   1      41.972  29.304  26.147  1.00  0.00     0.029 A 
ATOM     62  N   UNL A   1      41.951  29.840  28.280  1.00  0.00    -0.354 N 
ATOM     63  N   UNL A   1      44.840  28.184  31.093  1.00  0.00    -0.248 NA
ATOM     64  C   UNL A   1      42.726  28.045  32.080  1.00  0.00     0.031 C 
ATOM     65  C   UNL A   1      43.309  29.436  26.623  1.00  0.00     0.029 A 
ATOM     66  C   UNL A   1      43.259  29.529  28.016  1.00  0.00     0.049 A 
ATOM     67  H   UNL A   1      41.620  30.366  29.043  1.00  0.00     0.167 HD
ATOM     68  C   UNL A   1      43.960  28.937  30.329  1.00  0.00     0.074 A 
ATOM     69  C   UNL A   1      42.700  28.914  31.067  1.00  0.00     0.031 C 
ATOM     70  C   UNL A   1      44.249  29.248  29.032  1.00  0.00     0.034 A 
BRANCH  57  71
ATOM     71  C   UNL A   1      38.922  29.229  28.490  1.00  0.00     0.023 A 
ATOM     72  C   UNL A   1      38.001  30.049  27.816  1.00  0.00     0.012 A 
ATOM     73  C   UNL A   1      38.884  29.222  29.901  1.00  0.00     0.148 A 
ATOM     74  C   UNL A   1      37.054  30.800  28.519  1.00  0.00     0.002 A 
ATOM     75  C   UNL A   1      37.877  29.882  30.588  1.00  0.00     0.091 A 
ATOM     76  F   UNL A   1      39.896  28.673  30.589  1.00  0.00    -0.205 F 
ATOM     77  C   UNL A   1      36.971  30.692  29.904  1.00  0.00     0.022 A 
BRANCH  75  78
ATOM     78  S   UNL A   1      37.675  29.660  32.358  1.00  0.00     0.127 S 
ATOM     79  O   UNL A   1      37.466  28.219  32.452  1.00  0.00    -0.237 OA
ATOM     80  O   UNL A   1      38.958  30.139  32.874  1.00  0.00    -0.237 OA
ATOM     81  O   UNL A   1      36.543  30.510  32.709  1.00  0.00    -0.744 OA
ENDBRANCH  75  78
ENDBRANCH  57  71
BRANCH  58  82
ATOM     82  C   UNL A   1      44.413  25.696  33.688  1.00  0.00     0.023 A 
ATOM     83  C   UNL A   1      45.685  25.548  34.274  1.00  0.00     0.012 A 
ATOM     84  C   UNL A   1      43.289  25.791  34.541  1.00  0.00     0.148 A 
ATOM     85  C   UNL A   1      45.845  25.539  35.665  1.00  0.00     0.002 A 
ATOM     86  C   UNL A   1      43.456  25.806  35.925  1.00  0.00     0.091 A 
ATOM     87  F   UNL A   1      42.078  25.956  33.991  1.00  0.00    -0.205 F 
ATOM     88  C   UNL A   1      44.733  25.685  36.488  1.00  0.00     0.022 A 
BRANCH  86  89
ATOM     89  S   UNL A   1      42.105  26.091  37.073  1.00  0.00     0.127 S 
ATOM     90  O   UNL A   1      41.369  24.829  36.999  1.00  0.00    -0.237 OA
ATOM     91  O   UNL A   1      42.802  26.297  38.339  1.00  0.00    -0.237 OA
ATOM     92  O   UNL A   1      41.376  27.249  36.574  1.00  0.00    -0.744 OA
ENDBRANCH  86  89
ENDBRANCH  58  82
BRANCH  70  93
ATOM     93  C   UNL A   1      45.649  28.993  28.531  1.00  0.00     0.023 A 
ATOM     94  C   UNL A   1      46.712  29.877  28.815  1.00  0.00     0.012 A 
ATOM     95  C   UNL A   1      45.934  27.741  27.966  1.00  0.00     0.148 A 
ATOM     96  C   UNL A   1      48.035  29.514  28.545  1.00  0.00     0.002 A 
ATOM     97  C   UNL A   1      47.254  27.368  27.736  1.00  0.00     0.091 A 
ATOM     98  F   UNL A   1      44.909  26.912  27.717  1.00  0.00    -0.205 F 
ATOM     99  C   UNL A   1      48.307  28.254  28.020  1.00  0.00     0.022 A 
BRANCH  97 100
ATOM    100  S   UNL A   1      47.693  25.721  27.175  1.00  0.00     0.127 S 
ATOM    101  O   UNL A   1      47.000  25.639  25.891  1.00  0.00    -0.237 OA
ATOM    102  O   UNL A   1      49.151  25.807  27.079  1.00  0.00    -0.237 OA
ATOM    103  O   UNL A   1      47.210  24.800  28.197  1.00  0.00    -0.744 OA
ENDBRANCH  97 100
ENDBRANCH  70  93
ENDBRANCH  44  45
ENDBRANCH  36  39
ENDBRANCH  34  35
ENDBRANCH  33  34
ENDBRANCH  32  33
ENDBRANCH   1  32
TORSDOF 21
ENDMDL
MODEL 2
REMARK VINA RESULT:     -11.5      2.094      2.435
REMARK SMILES Cc1ccc(C)c(S(=O)(=O)N[C@H](CC2=c3ccccc3=NC2)C(=O)NCCCCCCNC(=O)c2ccc(-c3c4nc(c(-c5cccc(S(=O)(=O)[O-])c5F)c5ccc([nH]5)c(-c5cccc(S(=O)(=O)[O-])c5F)c5nc(c(-c6cccc(S(=O)(=O)[O-])c6F)c6ccc3[nH]6)C=C5)C=C4)cc2)c1
REMARK SMILES IDX 28 1 27 2 26 3 25 4 23 5 24 6 12 8 11 9 8 11 9 12 10 13 7 14
REMARK SMILES IDX 1 15 2 16 3 17 98 18 4 19 5 20 6 21 13 22 14 23 15 24 22 25
REMARK SMILES IDX 16 26 20 27 21 28 17 29 19 30 18 31 29 32 30 33 31 34 32 35
REMARK SMILES IDX 33 36 34 38 35 39 36 40 97 41 37 42 96 43 38 44 39 45 40 46
REMARK SMILES IDX 90 47 41 48 95 49 89 50 91 51 42 52 94 53 88 54 87 55 43 57
REMARK SMILES IDX 75 58 55 59 74 60 56 61 59 62 73 63 92 64 57 65 58 66 72 68
REMARK SMILES IDX 93 69 60 70 44 71 45 72 53 73 46 74 48 75 54 76 47 77 49 78
REMARK SMILES IDX 50 79 51 80 52 81 76 82 77 83 85 84 78 85 80 86 86 87 79 88
REMARK SMILES IDX 81 89 82 90 83 91 84 92 61 93 62 94 70 95 63 96 65 97 71 98
REMARK SMILES IDX 64 99 66 100 67 101 68 102 69 103
REMARK H PARENT 25 7 11 10 32 37 91 56 59 67
REMARK Flexibility Score: inf
ROOT
ATOM      1  C   UNL A   1      38.946  22.928  25.855  1.00  0.00     0.002 C 
ENDROOT
BRANCH   1   2
ATOM      2  C   UNL A   1      37.487  23.316  25.605  1.00  0.00     0.021 C 
BRANCH   2   3
ATOM      3  C   UNL A   1      36.485  22.186  25.303  1.00  0.00     0.116 C 
BRANCH   3   4
ATOM      4  N   UNL A   1      35.577  21.831  26.387  1.00  0.00    -0.355 N 
ATOM      5  C   UNL A   1      34.333  22.249  26.772  1.00  0.00     0.238 C 
ATOM      6  O   UNL A   1      33.896  21.737  27.813  1.00  0.00    -0.273 OA
ATOM      7  H   UNL A   1      35.941  21.130  26.974  1.00  0.00     0.163 HD
BRANCH   5   8
ATOM      8  C   UNL A   1      33.486  23.279  26.001  1.00  0.00     0.163 C 
BRANCH   8   9
ATOM      9  N   UNL A   1      33.179  22.742  24.650  1.00  0.00    -0.198 NA
ATOM     10  H   UNL A   1      33.754  23.272  23.996  1.00  0.00     0.142 HD
BRANCH   9  11
ATOM     11  S   UNL A   1      31.638  22.746  24.024  1.00  0.00     0.241 S 
ATOM     12  O   UNL A   1      30.698  22.549  25.094  1.00  0.00    -0.207 OA
ATOM     13  O   UNL A   1      31.690  21.844  22.881  1.00  0.00    -0.207 OA
BRANCH  11  14
ATOM     14  C   UNL A   1      31.414  24.383  23.360  1.00  0.00     0.085 A 
ATOM     15  C   UNL A   1      28.829  27.165  23.646  1.00  0.00     0.044 C 
ATOM     16  C   UNL A   1      30.052  26.400  23.230  1.00  0.00    -0.050 A 
ATOM     17  C   UNL A   1      30.932  26.916  22.281  1.00  0.00     0.004 A 
ATOM     18  C   UNL A   1      30.297  25.130  23.760  1.00  0.00     0.025 A 
ATOM     19  C   UNL A   1      32.069  26.195  21.905  1.00  0.00     0.005 A 
ATOM     20  C   UNL A   1      32.340  24.927  22.449  1.00  0.00    -0.031 A 
ATOM     21  C   UNL A   1      33.612  24.251  22.021  1.00  0.00     0.046 C 
ENDBRANCH  11  14
ENDBRANCH   9  11
ENDBRANCH   8   9
BRANCH   8  22
ATOM     22  C   UNL A   1      34.020  24.734  25.908  1.00  0.00     0.063 C 
BRANCH  22  23
ATOM     23  C   UNL A   1      33.070  25.902  25.999  1.00  0.00    -0.037 C 
ATOM     24  C   UNL A   1      33.051  27.097  25.405  1.00  0.00     0.001 A 
ATOM     25  C   UNL A   1      32.050  25.904  27.088  1.00  0.00     0.174 C 
ATOM     26  C   UNL A   1      33.881  27.831  24.503  1.00  0.00     0.010 A 
ATOM     27  C   UNL A   1      31.851  27.729  25.986  1.00  0.00     0.065 A 
ATOM     28  N   UNL A   1      31.212  27.103  26.924  1.00  0.00    -0.280 NA
ATOM     29  C   UNL A   1      33.531  29.089  24.175  1.00  0.00     0.001 A 
ATOM     30  C   UNL A   1      31.442  29.036  25.446  1.00  0.00     0.028 A 
ATOM     31  C   UNL A   1      32.279  29.677  24.619  1.00  0.00     0.002 A 
ENDBRANCH  22  23
ENDBRANCH   8  22
ENDBRANCH   5   8
ENDBRANCH   3   4
ENDBRANCH   2   3
ENDBRANCH   1   2
BRANCH   1  32
ATOM     32  C   UNL A   1      39.189  21.525  26.404  1.00  0.00     0.002 C 
BRANCH  32  33
ATOM     33  C   UNL A   1      39.652  20.442  25.416  1.00  0.00     0.021 C 
BRANCH  33  34
ATOM     34  C   UNL A   1      40.043  19.080  25.995  1.00  0.00     0.116 C 
BRANCH  34  35
ATOM     35  N   UNL A   1      41.479  18.807  25.886  1.00  0.00    -0.352 N 
ATOM     36  C   UNL A   1      42.588  19.632  25.841  1.00  0.00     0.251 C 
ATOM     37  H   UNL A   1      41.698  17.849  25.835  1.00  0.00     0.163 HD
ATOM     38  O   UNL A   1      43.623  19.194  25.339  1.00  0.00    -0.269 OA
BRANCH  36  39
ATOM     39  C   UNL A   1      42.579  21.002  26.403  1.00  0.00     0.039 A 
ATOM     40  C   UNL A   1      42.888  22.125  25.618  1.00  0.00     0.014 A 
ATOM     41  C   UNL A   1      42.361  21.178  27.759  1.00  0.00     0.014 A 
ATOM     42  C   UNL A   1      42.963  23.391  26.214  1.00  0.00     0.010 A 
ATOM     43  C   UNL A   1      42.272  22.421  28.320  1.00  0.00     0.010 A 
ATOM     44  C   UNL A   1      42.664  23.519  27.573  1.00  0.00    -0.014 A 
BRANCH  44  45
ATOM     45  C   UNL A   1      42.706  24.774  28.305  1.00  0.00     0.031 A 
ATOM     46  C   UNL A   1      41.532  25.651  28.145  1.00  0.00     0.074 A 
ATOM     47  C   UNL A   1      43.548  24.943  29.349  1.00  0.00     0.049 A 
ATOM     48  N   UNL A   1      41.516  26.829  27.617  1.00  0.00    -0.248 NA
ATOM     49  C   UNL A   1      40.211  25.139  28.536  1.00  0.00     0.031 C 
ATOM     50  C   UNL A   1      44.553  23.994  29.839  1.00  0.00     0.029 A 
ATOM     51  N   UNL A   1      43.553  25.917  30.305  1.00  0.00    -0.354 N 
ATOM     52  C   UNL A   1      40.231  27.301  27.841  1.00  0.00     0.074 A 
ATOM     53  C   UNL A   1      39.424  26.158  28.191  1.00  0.00     0.031 C 
ATOM     54  C   UNL A   1      44.881  24.320  31.105  1.00  0.00     0.029 A 
ATOM     55  C   UNL A   1      44.235  25.558  31.465  1.00  0.00     0.049 A 
ATOM     56  H   UNL A   1      43.117  26.791  30.186  1.00  0.00     0.167 HD
ATOM     57  C   UNL A   1      39.975  28.624  28.015  1.00  0.00     0.034 A 
ATOM     58  C   UNL A   1      44.247  26.216  32.648  1.00  0.00     0.034 A 
ATOM     59  C   UNL A   1      41.107  29.459  27.716  1.00  0.00     0.049 A 
ATOM     60  C   UNL A   1      43.896  27.618  32.350  1.00  0.00     0.074 A 
ATOM     61  C   UNL A   1      41.942  29.623  26.628  1.00  0.00     0.029 A 
ATOM     62  N   UNL A   1      41.770  30.008  28.787  1.00  0.00    -0.354 N 
ATOM     63  N   UNL A   1      44.651  28.410  31.641  1.00  0.00    -0.248 NA
ATOM     64  C   UNL A   1      42.511  28.027  32.500  1.00  0.00     0.031 C 
ATOM     65  C   UNL A   1      43.237  29.834  27.184  1.00  0.00     0.029 A 
ATOM     66  C   UNL A   1      43.111  29.826  28.575  1.00  0.00     0.049 A 
ATOM     67  H   UNL A   1      41.357  30.451  29.563  1.00  0.00     0.167 HD
ATOM     68  C   UNL A   1      43.747  29.137  30.880  1.00  0.00     0.074 A 
ATOM     69  C   UNL A   1      42.459  28.959  31.545  1.00  0.00     0.031 C 
ATOM     70  C   UNL A   1      44.071  29.559  29.624  1.00  0.00     0.034 A 
BRANCH  57  71
ATOM     71  C   UNL A   1      38.799  29.133  28.791  1.00  0.00     0.023 A 
ATOM     72  C   UNL A   1      38.666  28.744  30.136  1.00  0.00     0.012 A 
ATOM     73  C   UNL A   1      37.720  29.825  28.199  1.00  0.00     0.148 A 
ATOM     74  C   UNL A   1      37.522  29.068  30.871  1.00  0.00     0.002 A 
ATOM     75  C   UNL A   1      36.637  30.237  28.960  1.00  0.00     0.091 A 
ATOM     76  F   UNL A   1      37.683  29.982  26.869  1.00  0.00    -0.205 F 
ATOM     77  C   UNL A   1      36.521  29.843  30.293  1.00  0.00     0.022 A 
BRANCH  75  78
ATOM     78  S   UNL A   1      35.397  31.337  28.272  1.00  0.00     0.127 S 
ATOM     79  O   UNL A   1      36.225  32.398  27.707  1.00  0.00    -0.237 OA
ATOM     80  O   UNL A   1      34.735  30.475  27.292  1.00  0.00    -0.237 OA
ATOM     81  O   UNL A   1      34.554  31.698  29.406  1.00  0.00    -0.744 OA
ENDBRANCH  75  78
ENDBRANCH  57  71
BRANCH  58  82
ATOM     82  C   UNL A   1      44.315  25.722  34.043  1.00  0.00     0.023 A 
ATOM     83  C   UNL A   1      43.124  25.383  34.716  1.00  0.00     0.012 A 
ATOM     84  C   UNL A   1      45.541  25.263  34.579  1.00  0.00     0.148 A 
ATOM     85  C   UNL A   1      43.143  24.577  35.860  1.00  0.00     0.002 A 
ATOM     86  C   UNL A   1      45.552  24.442  35.706  1.00  0.00     0.091 A 
ATOM     87  F   UNL A   1      46.676  25.561  33.931  1.00  0.00    -0.205 F 
ATOM     88  C   UNL A   1      44.354  24.094  36.344  1.00  0.00     0.022 A 
BRANCH  86  89
ATOM     89  S   UNL A   1      47.047  23.681  36.350  1.00  0.00     0.127 S 
ATOM     90  O   UNL A   1      46.530  22.894  37.470  1.00  0.00    -0.237 OA
ATOM     91  O   UNL A   1      47.505  22.876  35.221  1.00  0.00    -0.237 OA
ATOM     92  O   UNL A   1      47.933  24.772  36.732  1.00  0.00    -0.744 OA
ENDBRANCH  86  89
ENDBRANCH  58  82
BRANCH  70  93
ATOM     93  C   UNL A   1      45.510  29.458  29.184  1.00  0.00     0.023 A 
ATOM     94  C   UNL A   1      46.468  30.429  29.546  1.00  0.00     0.012 A 
ATOM     95  C   UNL A   1      45.943  28.258  28.598  1.00  0.00     0.148 A 
ATOM     96  C   UNL A   1      47.831  30.205  29.331  1.00  0.00     0.002 A 
ATOM     97  C   UNL A   1      47.301  28.023  28.422  1.00  0.00     0.091 A 
ATOM     98  F   UNL A   1      45.016  27.344  28.274  1.00  0.00    -0.205 F 
ATOM     99  C   UNL A   1      48.249  28.995  28.783  1.00  0.00     0.022 A 
BRANCH  97 100
ATOM    100  S   UNL A   1      47.925  26.445  27.835  1.00  0.00     0.127 S 
ATOM    101  O   UNL A   1      47.245  26.305  26.549  1.00  0.00    -0.237 OA
ATOM    102  O   UNL A   1      49.363  26.698  27.742  1.00  0.00    -0.237 OA
ATOM    103  O   UNL A   1      47.550  25.459  28.841  1.00  0.00    -0.744 OA
ENDBRANCH  97 100
ENDBRANCH  70  93
ENDBRANCH  44  45
ENDBRANCH  36  39
ENDBRANCH  34  35
ENDBRANCH  33  34
ENDBRANCH  32  33
ENDBRANCH   1  32
TORSDOF 21
ENDMDL
MODEL 3
REMARK VINA RESULT:     -11.5      2.526      3.107
REMARK SMILES Cc1ccc(C)c(S(=O)(=O)N[C@H](CC2=c3ccccc3=NC2)C(=O)NCCCCCCNC(=O)c2ccc(-c3c4nc(c(-c5cccc(S(=O)(=O)[O-])c5F)c5ccc([nH]5)c(-c5cccc(S(=O)(=O)[O-])c5F)c5nc(c(-c6cccc(S(=O)(=O)[O-])c6F)c6ccc3[nH]6)C=C5)C=C4)cc2)c1
REMARK SMILES IDX 28 1 27 2 26 3 25 4 23 5 24 6 12 8 11 9 8 11 9 12 10 13 7 14
REMARK SMILES IDX 1 15 2 16 3 17 98 18 4 19 5 20 6 21 13 22 14 23 15 24 22 25
REMARK SMILES IDX 16 26 20 27 21 28 17 29 19 30 18 31 29 32 30 33 31 34 32 35
REMARK SMILES IDX 33 36 34 38 35 39 36 40 97 41 37 42 96 43 38 44 39 45 40 46
REMARK SMILES IDX 90 47 41 48 95 49 89 50 91 51 42 52 94 53 88 54 87 55 43 57
REMARK SMILES IDX 75 58 55 59 74 60 56 61 59 62 73 63 92 64 57 65 58 66 72 68
REMARK SMILES IDX 93 69 60 70 44 71 45 72 53 73 46 74 48 75 54 76 47 77 49 78
REMARK SMILES IDX 50 79 51 80 52 81 76 82 77 83 85 84 78 85 80 86 86 87 79 88
REMARK SMILES IDX 81 89 82 90 83 91 84 92 61 93 62 94 70 95 63 96 65 97 71 98
REMARK SMILES IDX 64 99 66 100 67 101 68 102 69 103
REMARK H PARENT 25 7 11 10 32 37 91 56 59 67
REMARK Flexibility Score: inf
ROOT
ATOM      1  C   UNL A   1      38.917  22.793  25.959  1.00  0.00     0.002 C 
ENDROOT
BRANCH   1   2
ATOM      2  C   UNL A   1      37.511  22.962  25.378  1.00  0.00     0.021 C 
BRANCH   2   3
ATOM      3  C   UNL A   1      36.508  21.810  25.578  1.00  0.00     0.116 C 
BRANCH   3   4
ATOM      4  N   UNL A   1      35.543  21.984  26.657  1.00  0.00    -0.355 N 
ATOM      5  C   UNL A   1      34.451  22.785  26.847  1.00  0.00     0.238 C 
ATOM      6  O   UNL A   1      33.900  22.683  27.953  1.00  0.00    -0.273 OA
ATOM      7  H   UNL A   1      35.716  21.389  27.422  1.00  0.00     0.163 HD
BRANCH   5   8
ATOM      8  C   UNL A   1      33.896  23.761  25.793  1.00  0.00     0.163 C 
BRANCH   8   9
ATOM      9  N   UNL A   1      33.588  23.008  24.549  1.00  0.00    -0.198 NA
ATOM     10  H   UNL A   1      33.941  23.576  23.778  1.00  0.00     0.142 HD
BRANCH   9  11
ATOM     11  S   UNL A   1      32.036  22.577  24.136  1.00  0.00     0.241 S 
ATOM     12  O   UNL A   1      31.630  21.458  24.943  1.00  0.00    -0.207 OA
ATOM     13  O   UNL A   1      32.036  22.505  22.680  1.00  0.00    -0.207 OA
BRANCH  11  14
ATOM     14  C   UNL A   1      31.035  23.986  24.567  1.00  0.00     0.085 A 
ATOM     15  C   UNL A   1      29.851  27.177  22.858  1.00  0.00     0.044 C 
ATOM     16  C   UNL A   1      30.060  26.118  23.902  1.00  0.00    -0.050 A 
ATOM     17  C   UNL A   1      29.567  26.280  25.195  1.00  0.00     0.004 A 
ATOM     18  C   UNL A   1      30.798  24.971  23.597  1.00  0.00     0.025 A 
ATOM     19  C   UNL A   1      29.765  25.286  26.157  1.00  0.00     0.005 A 
ATOM     20  C   UNL A   1      30.485  24.115  25.857  1.00  0.00    -0.031 A 
ATOM     21  C   UNL A   1      30.603  23.081  26.941  1.00  0.00     0.046 C 
ENDBRANCH  11  14
ENDBRANCH   9  11
ENDBRANCH   8   9
BRANCH   8  22
ATOM     22  C   UNL A   1      34.725  25.036  25.476  1.00  0.00     0.063 C 
BRANCH  22  23
ATOM     23  C   UNL A   1      34.040  26.291  24.997  1.00  0.00    -0.037 C 
ATOM     24  C   UNL A   1      33.264  27.185  25.612  1.00  0.00     0.001 A 
ATOM     25  C   UNL A   1      33.981  26.550  23.529  1.00  0.00     0.174 C 
ATOM     26  C   UNL A   1      32.693  27.360  26.910  1.00  0.00     0.010 A 
ATOM     27  C   UNL A   1      32.933  28.128  24.527  1.00  0.00     0.065 A 
ATOM     28  N   UNL A   1      33.328  27.854  23.323  1.00  0.00    -0.280 NA
ATOM     29  C   UNL A   1      31.880  28.409  27.127  1.00  0.00     0.001 A 
ATOM     30  C   UNL A   1      32.180  29.341  24.887  1.00  0.00     0.028 A 
ATOM     31  C   UNL A   1      31.657  29.428  26.117  1.00  0.00     0.002 A 
ENDBRANCH  22  23
ENDBRANCH   8  22
ENDBRANCH   5   8
ENDBRANCH   3   4
ENDBRANCH   2   3
ENDBRANCH   1   2
BRANCH   1  32
ATOM     32  C   UNL A   1      39.262  21.410  26.503  1.00  0.00     0.002 C 
BRANCH  32  33
ATOM     33  C   UNL A   1      39.627  20.315  25.489  1.00  0.00     0.021 C 
BRANCH  33  34
ATOM     34  C   UNL A   1      40.064  18.956  26.043  1.00  0.00     0.116 C 
BRANCH  34  35
ATOM     35  N   UNL A   1      41.499  18.707  25.872  1.00  0.00    -0.352 N 
ATOM     36  C   UNL A   1      42.589  19.550  25.769  1.00  0.00     0.251 C 
ATOM     37  H   UNL A   1      41.732  17.752  25.820  1.00  0.00     0.163 HD
ATOM     38  O   UNL A   1      43.608  19.124  25.224  1.00  0.00    -0.269 OA
BRANCH  36  39
ATOM     39  C   UNL A   1      42.582  20.926  26.318  1.00  0.00     0.039 A 
ATOM     40  C   UNL A   1      42.829  22.046  25.507  1.00  0.00     0.014 A 
ATOM     41  C   UNL A   1      42.429  21.111  27.681  1.00  0.00     0.014 A 
ATOM     42  C   UNL A   1      42.909  23.319  26.087  1.00  0.00     0.010 A 
ATOM     43  C   UNL A   1      42.344  22.359  28.234  1.00  0.00     0.010 A 
ATOM     44  C   UNL A   1      42.676  23.456  27.457  1.00  0.00    -0.014 A 
BRANCH  44  45
ATOM     45  C   UNL A   1      42.731  24.719  28.175  1.00  0.00     0.031 A 
ATOM     46  C   UNL A   1      41.546  25.585  28.041  1.00  0.00     0.074 A 
ATOM     47  C   UNL A   1      43.602  24.906  29.191  1.00  0.00     0.049 A 
ATOM     48  N   UNL A   1      41.505  26.758  27.501  1.00  0.00    -0.248 NA
ATOM     49  C   UNL A   1      40.241  25.068  28.477  1.00  0.00     0.031 C 
ATOM     50  C   UNL A   1      44.629  23.969  29.661  1.00  0.00     0.029 A 
ATOM     51  N   UNL A   1      43.629  25.890  30.136  1.00  0.00    -0.354 N 
ATOM     52  C   UNL A   1      40.224  27.222  27.758  1.00  0.00     0.074 A 
ATOM     53  C   UNL A   1      39.437  26.077  28.144  1.00  0.00     0.031 C 
ATOM     54  C   UNL A   1      44.992  24.311  30.913  1.00  0.00     0.029 A 
ATOM     55  C   UNL A   1      44.348  25.548  31.279  1.00  0.00     0.049 A 
ATOM     56  H   UNL A   1      43.182  26.759  30.021  1.00  0.00     0.167 HD
ATOM     57  C   UNL A   1      39.962  28.545  27.926  1.00  0.00     0.034 A 
ATOM     58  C   UNL A   1      44.390  26.219  32.453  1.00  0.00     0.034 A 
ATOM     59  C   UNL A   1      41.078  29.385  27.584  1.00  0.00     0.049 A 
ATOM     60  C   UNL A   1      44.019  27.615  32.151  1.00  0.00     0.074 A 
ATOM     61  C   UNL A   1      41.879  29.544  26.470  1.00  0.00     0.029 A 
ATOM     62  N   UNL A   1      41.768  29.951  28.629  1.00  0.00    -0.354 N 
ATOM     63  N   UNL A   1      44.747  28.405  31.412  1.00  0.00    -0.248 NA
ATOM     64  C   UNL A   1      42.636  28.015  32.339  1.00  0.00     0.031 C 
ATOM     65  C   UNL A   1      43.189  29.770  26.984  1.00  0.00     0.029 A 
ATOM     66  C   UNL A   1      43.105  29.776  28.378  1.00  0.00     0.049 A 
ATOM     67  H   UNL A   1      41.376  30.399  29.412  1.00  0.00     0.167 HD
ATOM     68  C   UNL A   1      43.815  29.117  30.671  1.00  0.00     0.074 A 
ATOM     69  C   UNL A   1      42.549  28.936  31.376  1.00  0.00     0.031 C 
ATOM     70  C   UNL A   1      44.097  29.528  29.401  1.00  0.00     0.034 A 
BRANCH  57  71
ATOM     71  C   UNL A   1      38.806  29.053  28.732  1.00  0.00     0.023 A 
ATOM     72  C   UNL A   1      38.678  28.622  30.063  1.00  0.00     0.012 A 
ATOM     73  C   UNL A   1      37.738  29.790  28.176  1.00  0.00     0.148 A 
ATOM     74  C   UNL A   1      37.549  28.946  30.822  1.00  0.00     0.002 A 
ATOM     75  C   UNL A   1      36.672  30.200  28.962  1.00  0.00     0.091 A 
ATOM     76  F   UNL A   1      37.691  29.993  26.852  1.00  0.00    -0.205 F 
ATOM     77  C   UNL A   1      36.561  29.763  30.282  1.00  0.00     0.022 A 
BRANCH  75  78
ATOM     78  S   UNL A   1      35.451  31.351  28.325  1.00  0.00     0.127 S 
ATOM     79  O   UNL A   1      34.716  31.701  29.536  1.00  0.00    -0.237 OA
ATOM     80  O   UNL A   1      36.293  32.416  27.778  1.00  0.00    -0.237 OA
ATOM     81  O   UNL A   1      34.724  30.594  27.313  1.00  0.00    -0.744 OA
ENDBRANCH  75  78
ENDBRANCH  57  71
BRANCH  58  82
ATOM     82  C   UNL A   1      44.504  25.741  33.851  1.00  0.00     0.023 A 
ATOM     83  C   UNL A   1      43.333  25.490  34.594  1.00  0.00     0.012 A 
ATOM     84  C   UNL A   1      45.725  25.211  34.327  1.00  0.00     0.148 A 
ATOM     85  C   UNL A   1      43.364  24.700  35.749  1.00  0.00     0.002 A 
ATOM     86  C   UNL A   1      45.747  24.406  35.465  1.00  0.00     0.091 A 
ATOM     87  F   UNL A   1      46.840  25.425  33.613  1.00  0.00    -0.205 F 
ATOM     88  C   UNL A   1      44.566  24.145  36.174  1.00  0.00     0.022 A 
BRANCH  86  89
ATOM     89  S   UNL A   1      47.223  23.558  36.040  1.00  0.00     0.127 S 
ATOM     90  O   UNL A   1      48.186  24.655  36.137  1.00  0.00    -0.237 OA
ATOM     91  O   UNL A   1      46.800  23.025  37.332  1.00  0.00    -0.237 OA
ATOM     92  O   UNL A   1      47.542  22.556  35.033  1.00  0.00    -0.744 OA
ENDBRANCH  86  89
ENDBRANCH  58  82
BRANCH  70  93
ATOM     93  C   UNL A   1      45.524  29.433  28.919  1.00  0.00     0.023 A 
ATOM     94  C   UNL A   1      46.127  28.192  28.625  1.00  0.00     0.012 A 
ATOM     95  C   UNL A   1      46.178  30.616  28.544  1.00  0.00     0.148 A 
ATOM     96  C   UNL A   1      47.358  28.133  27.965  1.00  0.00     0.002 A 
ATOM     97  C   UNL A   1      47.383  30.553  27.853  1.00  0.00     0.091 A 
ATOM     98  F   UNL A   1      45.580  31.784  28.822  1.00  0.00    -0.205 F 
ATOM     99  C   UNL A   1      47.979  29.313  27.565  1.00  0.00     0.022 A 
BRANCH  97 100
ATOM    100  S   UNL A   1      48.183  32.021  27.200  1.00  0.00     0.127 S 
ATOM    101  O   UNL A   1      49.432  31.478  26.668  1.00  0.00    -0.237 OA
ATOM    102  O   UNL A   1      47.228  32.466  26.184  1.00  0.00    -0.237 OA
ATOM    103  O   UNL A   1      48.338  32.936  28.324  1.00  0.00    -0.744 OA
ENDBRANCH  97 100
ENDBRANCH  70  93
ENDBRANCH  44  45
ENDBRANCH  36  39
ENDBRANCH  34  35
ENDBRANCH  33  34
ENDBRANCH  32  33
ENDBRANCH   1  32
TORSDOF 21
ENDMDL
