MODEL 1
REMARK VINA RESULT:     -10.3      0.000      0.000
REMARK SMILES COc1ccc(S(=O)(=O)N2CCC[C@H](C(=O)N3CCC[C@H](C(=O)NCCCCCCNC(=O)c4ccc(-c5c6nc(c(-c7cccc(S(=O)(=O)[O-])c7F)c7ccc([nH]7)c(-c7cccc(S(=O)(=O)[O-])c7F)c7nc(c(-c8cccc(S(=O)(=O)[O-])c8F)c8ccc5[nH]8)C=C7)C=C6)cc4)C3)C2)cc1
REMARK SMILES IDX 26 1 25 2 24 3 22 4 23 5 21 7 17 8 18 9 97 10 19 11 20 12
REMARK SMILES IDX 15 13 16 14 14 15 10 16 11 17 98 18 12 19 13 20 7 21 8 22
REMARK SMILES IDX 9 23 6 24 3 25 4 26 100 27 5 28 99 29 2 30 1 31 27 32 28 33
REMARK SMILES IDX 29 34 30 35 31 36 32 37 33 39 34 40 35 41 96 42 36 43 95 44
REMARK SMILES IDX 37 45 38 46 39 47 89 48 40 49 94 50 88 51 90 52 41 53 93 54
REMARK SMILES IDX 87 55 86 56 42 58 74 59 54 60 73 61 55 62 58 63 72 64 91 65
REMARK SMILES IDX 56 66 57 67 71 69 92 70 59 71 43 72 44 73 52 74 45 75 47 76
REMARK SMILES IDX 53 77 46 78 48 79 49 80 50 81 51 82 75 83 76 84 84 85 77 86
REMARK SMILES IDX 79 87 85 88 78 89 80 90 81 91 82 92 83 93 60 94 61 95 69 96
REMARK SMILES IDX 62 97 64 98 70 99 63 100 65 101 66 102 67 103 68 104
REMARK H PARENT 24 6 31 38 90 57 58 68
REMARK Flexibility Score: inf
ROOT
ATOM      1  C   UNL A   1      35.201  31.711  28.860  1.00  0.00     0.021 C 
ENDROOT
BRANCH   1   2
ATOM      2  C   UNL A   1      34.393  31.623  27.570  1.00  0.00     0.116 C 
BRANCH   2   3
ATOM      3  N   UNL A   1      33.096  31.013  27.743  1.00  0.00    -0.356 N 
ATOM      4  C   UNL A   1      32.565  29.919  27.146  1.00  0.00     0.224 C 
ATOM      5  O   UNL A   1      31.506  29.488  27.621  1.00  0.00    -0.275 OA
ATOM      6  H   UNL A   1      32.508  31.461  28.394  1.00  0.00     0.163 HD
BRANCH   4   7
ATOM      7  C   UNL A   1      33.188  29.209  25.938  1.00  0.00     0.098 C 
ATOM      8  N   UNL A   1      32.288  26.950  25.307  1.00  0.00    -0.342 N 
ATOM      9  C   UNL A   1      33.608  26.335  25.368  1.00  0.00     0.119 C 
ATOM     10  C   UNL A   1      32.213  28.383  25.096  1.00  0.00     0.133 C 
ATOM     11  C   UNL A   1      34.548  27.036  26.341  1.00  0.00     0.022 C 
ATOM     12  C   UNL A   1      34.552  28.554  26.184  1.00  0.00     0.017 C 
BRANCH   8  13
ATOM     13  C   UNL A   1      31.174  26.178  25.566  1.00  0.00     0.227 C 
ATOM     14  O   UNL A   1      30.938  25.762  26.703  1.00  0.00    -0.275 OA
BRANCH  13  15
ATOM     15  C   UNL A   1      30.358  25.650  24.390  1.00  0.00     0.094 C 
ATOM     16  N   UNL A   1      32.196  25.069  22.844  1.00  0.00    -0.197 NA
ATOM     17  C   UNL A   1      31.943  26.210  21.952  1.00  0.00     0.102 C 
ATOM     18  C   UNL A   1      31.122  24.534  23.700  1.00  0.00     0.116 C 
ATOM     19  C   UNL A   1      30.705  27.046  22.245  1.00  0.00     0.018 C 
ATOM     20  C   UNL A   1      29.785  26.632  23.385  1.00  0.00     0.016 C 
BRANCH  16  21
ATOM     21  S   UNL A   1      33.426  23.988  22.365  1.00  0.00     0.243 S 
ATOM     22  O   UNL A   1      34.684  24.503  22.843  1.00  0.00    -0.207 OA
ATOM     23  O   UNL A   1      33.206  23.725  20.954  1.00  0.00    -0.207 OA
BRANCH  21  24
ATOM     24  C   UNL A   1      33.099  22.452  23.209  1.00  0.00     0.082 A 
ATOM     25  C   UNL A   1      32.921  19.948  24.437  1.00  0.00     0.118 A 
ATOM     26  C   UNL A   1      33.713  20.950  25.000  1.00  0.00     0.048 A 
ATOM     27  C   UNL A   1      32.153  20.228  23.308  1.00  0.00     0.048 A 
ATOM     28  C   UNL A   1      33.815  22.199  24.383  1.00  0.00     0.025 A 
ATOM     29  C   UNL A   1      32.246  21.476  22.691  1.00  0.00     0.025 A 
BRANCH  25  30
ATOM     30  O   UNL A   1      32.945  18.732  25.064  1.00  0.00    -0.497 OA
ATOM     31  C   UNL A   1      33.893  17.815  24.521  1.00  0.00     0.278 C 
ENDBRANCH  25  30
ENDBRANCH  21  24
ENDBRANCH  16  21
ENDBRANCH  13  15
ENDBRANCH   8  13
ENDBRANCH   4   7
ENDBRANCH   2   3
ENDBRANCH   1   2
BRANCH   1  32
ATOM     32  C   UNL A   1      36.130  32.924  28.933  1.00  0.00     0.002 C 
BRANCH  32  33
ATOM     33  C   UNL A   1      36.369  33.498  30.336  1.00  0.00     0.002 C 
BRANCH  33  34
ATOM     34  C   UNL A   1      35.511  32.917  31.465  1.00  0.00     0.021 C 
BRANCH  34  35
ATOM     35  C   UNL A   1      36.270  32.428  32.694  1.00  0.00     0.116 C 
BRANCH  35  36
ATOM     36  N   UNL A   1      36.335  30.977  32.770  1.00  0.00    -0.352 N 
ATOM     37  C   UNL A   1      37.272  30.106  32.275  1.00  0.00     0.251 C 
ATOM     38  H   UNL A   1      35.590  30.553  33.253  1.00  0.00     0.163 HD
ATOM     39  O   UNL A   1      37.054  28.897  32.314  1.00  0.00    -0.269 OA
BRANCH  37  40
ATOM     40  C   UNL A   1      38.532  30.608  31.684  1.00  0.00     0.039 A 
ATOM     41  C   UNL A   1      39.524  31.098  32.541  1.00  0.00     0.014 A 
ATOM     42  C   UNL A   1      38.723  30.643  30.300  1.00  0.00     0.014 A 
ATOM     43  C   UNL A   1      40.726  31.577  32.014  1.00  0.00     0.010 A 
ATOM     44  C   UNL A   1      39.943  31.071  29.779  1.00  0.00     0.010 A 
ATOM     45  C   UNL A   1      40.952  31.548  30.628  1.00  0.00    -0.014 A 
BRANCH  45  46
ATOM     46  C   UNL A   1      42.235  32.016  30.045  1.00  0.00     0.031 A 
ATOM     47  C   UNL A   1      42.391  33.451  29.624  1.00  0.00     0.074 A 
ATOM     48  C   UNL A   1      43.223  31.130  29.815  1.00  0.00     0.049 A 
ATOM     49  N   UNL A   1      43.396  34.028  29.017  1.00  0.00    -0.248 NA
ATOM     50  C   UNL A   1      41.259  34.352  29.899  1.00  0.00     0.031 C 
ATOM     51  C   UNL A   1      43.159  29.697  30.112  1.00  0.00     0.029 A 
ATOM     52  N   UNL A   1      44.459  31.295  29.243  1.00  0.00    -0.354 N 
ATOM     53  C   UNL A   1      43.008  35.346  28.808  1.00  0.00     0.074 A 
ATOM     54  C   UNL A   1      41.664  35.478  29.329  1.00  0.00     0.031 C 
ATOM     55  C   UNL A   1      44.298  29.112  29.706  1.00  0.00     0.029 A 
ATOM     56  C   UNL A   1      45.165  30.122  29.105  1.00  0.00     0.049 A 
ATOM     57  H   UNL A   1      44.808  32.171  28.958  1.00  0.00     0.167 HD
ATOM     58  C   UNL A   1      43.717  36.363  28.262  1.00  0.00     0.034 A 
ATOM     59  C   UNL A   1      46.370  29.887  28.551  1.00  0.00     0.034 A 
ATOM     60  C   UNL A   1      45.070  36.238  27.791  1.00  0.00     0.049 A 
ATOM     61  C   UNL A   1      47.163  31.047  28.011  1.00  0.00     0.074 A 
ATOM     62  C   UNL A   1      45.895  37.221  27.276  1.00  0.00     0.029 A 
ATOM     63  N   UNL A   1      45.798  35.060  27.785  1.00  0.00    -0.354 N 
ATOM     64  N   UNL A   1      46.835  32.316  27.955  1.00  0.00    -0.248 NA
ATOM     65  C   UNL A   1      48.508  30.753  27.495  1.00  0.00     0.031 C 
ATOM     66  C   UNL A   1      47.128  36.637  26.964  1.00  0.00     0.029 A 
ATOM     67  C   UNL A   1      47.069  35.291  27.288  1.00  0.00     0.049 A 
ATOM     68  H   UNL A   1      45.462  34.187  28.091  1.00  0.00     0.167 HD
ATOM     69  C   UNL A   1      47.940  32.974  27.430  1.00  0.00     0.074 A 
ATOM     70  C   UNL A   1      48.958  31.967  27.205  1.00  0.00     0.031 C 
ATOM     71  C   UNL A   1      48.092  34.288  27.138  1.00  0.00     0.034 A 
BRANCH  58  72
ATOM     72  C   UNL A   1      43.070  37.722  28.221  1.00  0.00     0.023 A 
ATOM     73  C   UNL A   1      42.295  38.075  27.097  1.00  0.00     0.012 A 
ATOM     74  C   UNL A   1      43.172  38.620  29.300  1.00  0.00     0.148 A 
ATOM     75  C   UNL A   1      41.655  39.312  27.033  1.00  0.00     0.002 A 
ATOM     76  C   UNL A   1      42.501  39.838  29.245  1.00  0.00     0.091 A 
ATOM     77  F   UNL A   1      43.930  38.277  30.350  1.00  0.00    -0.205 F 
ATOM     78  C   UNL A   1      41.750  40.188  28.111  1.00  0.00     0.022 A 
BRANCH  76  79
ATOM     79  S   UNL A   1      42.502  41.008  30.609  1.00  0.00     0.127 S 
ATOM     80  O   UNL A   1      42.687  40.121  31.757  1.00  0.00    -0.237 OA
ATOM     81  O   UNL A   1      43.658  41.849  30.297  1.00  0.00    -0.237 OA
ATOM     82  O   UNL A   1      41.219  41.695  30.548  1.00  0.00    -0.744 OA
ENDBRANCH  76  79
ENDBRANCH  58  72
BRANCH  59  83
ATOM     83  C   UNL A   1      46.934  28.507  28.559  1.00  0.00     0.023 A 
ATOM     84  C   UNL A   1      47.745  28.102  29.638  1.00  0.00     0.012 A 
ATOM     85  C   UNL A   1      46.648  27.585  27.534  1.00  0.00     0.148 A 
ATOM     86  C   UNL A   1      48.285  26.817  29.680  1.00  0.00     0.002 A 
ATOM     87  C   UNL A   1      47.148  26.288  27.609  1.00  0.00     0.091 A 
ATOM     88  F   UNL A   1      45.891  27.989  26.504  1.00  0.00    -0.205 F 
ATOM     89  C   UNL A   1      47.978  25.906  28.674  1.00  0.00     0.022 A 
BRANCH  87  90
ATOM     90  S   UNL A   1      46.682  25.024  26.420  1.00  0.00     0.127 S 
ATOM     91  O   UNL A   1      47.165  25.596  25.167  1.00  0.00    -0.237 OA
ATOM     92  O   UNL A   1      47.430  23.857  26.891  1.00  0.00    -0.237 OA
ATOM     93  O   UNL A   1      45.237  24.892  26.554  1.00  0.00    -0.744 OA
ENDBRANCH  87  90
ENDBRANCH  59  83
BRANCH  71  94
ATOM     94  C   UNL A   1      49.414  34.730  26.570  1.00  0.00     0.023 A 
ATOM     95  C   UNL A   1      49.559  34.864  25.175  1.00  0.00     0.012 A 
ATOM     96  C   UNL A   1      50.480  35.093  27.416  1.00  0.00     0.148 A 
ATOM     97  C   UNL A   1      50.753  35.331  24.629  1.00  0.00     0.002 A 
ATOM     98  C   UNL A   1      51.654  35.595  26.867  1.00  0.00     0.091 A 
ATOM     99  F   UNL A   1      50.330  34.937  28.740  1.00  0.00    -0.205 F 
ATOM    100  C   UNL A   1      51.795  35.708  25.474  1.00  0.00     0.022 A 
BRANCH  98 101
ATOM    101  S   UNL A   1      53.012  36.183  27.886  1.00  0.00     0.127 S 
ATOM    102  O   UNL A   1      54.171  35.851  27.060  1.00  0.00    -0.237 OA
ATOM    103  O   UNL A   1      52.729  37.616  27.991  1.00  0.00    -0.237 OA
ATOM    104  O   UNL A   1      52.907  35.457  29.145  1.00  0.00    -0.744 OA
ENDBRANCH  98 101
ENDBRANCH  71  94
ENDBRANCH  45  46
ENDBRANCH  37  40
ENDBRANCH  35  36
ENDBRANCH  34  35
ENDBRANCH  33  34
ENDBRANCH  32  33
ENDBRANCH   1  32
TORSDOF 21
ENDMDL
MODEL 2
REMARK VINA RESULT:     -10.2      5.191      9.336
REMARK SMILES COc1ccc(S(=O)(=O)N2CCC[C@H](C(=O)N3CCC[C@H](C(=O)NCCCCCCNC(=O)c4ccc(-c5c6nc(c(-c7cccc(S(=O)(=O)[O-])c7F)c7ccc([nH]7)c(-c7cccc(S(=O)(=O)[O-])c7F)c7nc(c(-c8cccc(S(=O)(=O)[O-])c8F)c8ccc5[nH]8)C=C7)C=C6)cc4)C3)C2)cc1
REMARK SMILES IDX 26 1 25 2 24 3 22 4 23 5 21 7 17 8 18 9 97 10 19 11 20 12
REMARK SMILES IDX 15 13 16 14 14 15 10 16 11 17 98 18 12 19 13 20 7 21 8 22
REMARK SMILES IDX 9 23 6 24 3 25 4 26 100 27 5 28 99 29 2 30 1 31 27 32 28 33
REMARK SMILES IDX 29 34 30 35 31 36 32 37 33 39 34 40 35 41 96 42 36 43 95 44
REMARK SMILES IDX 37 45 38 46 39 47 89 48 40 49 94 50 88 51 90 52 41 53 93 54
REMARK SMILES IDX 87 55 86 56 42 58 74 59 54 60 73 61 55 62 58 63 72 64 91 65
REMARK SMILES IDX 56 66 57 67 71 69 92 70 59 71 43 72 44 73 52 74 45 75 47 76
REMARK SMILES IDX 53 77 46 78 48 79 49 80 50 81 51 82 75 83 76 84 84 85 77 86
REMARK SMILES IDX 79 87 85 88 78 89 80 90 81 91 82 92 83 93 60 94 61 95 69 96
REMARK SMILES IDX 62 97 64 98 70 99 63 100 65 101 66 102 67 103 68 104
REMARK H PARENT 24 6 31 38 90 57 58 68
REMARK Flexibility Score: inf
ROOT
ATOM      1  C   UNL A   1      39.074  24.869  27.637  1.00  0.00     0.021 C 
ENDROOT
BRANCH   1   2
ATOM      2  C   UNL A   1      38.879  23.958  26.431  1.00  0.00     0.116 C 
BRANCH   2   3
ATOM      3  N   UNL A   1      37.821  22.992  26.604  1.00  0.00    -0.356 N 
ATOM      4  C   UNL A   1      36.720  22.765  25.847  1.00  0.00     0.224 C 
ATOM      5  O   UNL A   1      36.073  21.741  26.103  1.00  0.00    -0.275 OA
ATOM      6  H   UNL A   1      37.912  22.409  27.393  1.00  0.00     0.163 HD
BRANCH   4   7
ATOM      7  C   UNL A   1      36.241  23.692  24.723  1.00  0.00     0.098 C 
ATOM      8  N   UNL A   1      33.996  24.790  24.979  1.00  0.00    -0.342 N 
ATOM      9  C   UNL A   1      33.525  24.274  23.700  1.00  0.00     0.119 C 
ATOM     10  C   UNL A   1      35.429  24.904  25.182  1.00  0.00     0.133 C 
ATOM     11  C   UNL A   1      34.194  22.963  23.303  1.00  0.00     0.022 C 
ATOM     12  C   UNL A   1      35.711  22.991  23.466  1.00  0.00     0.017 C 
BRANCH   8  13
ATOM     13  C   UNL A   1      33.082  25.039  25.982  1.00  0.00     0.227 C 
ATOM     14  O   UNL A   1      32.432  24.124  26.493  1.00  0.00    -0.275 OA
BRANCH  13  15
ATOM     15  C   UNL A   1      32.715  26.486  26.297  1.00  0.00     0.094 C 
ATOM     16  N   UNL A   1      31.637  27.109  24.163  1.00  0.00    -0.197 NA
ATOM     17  C   UNL A   1      32.763  27.943  23.719  1.00  0.00     0.102 C 
ATOM     18  C   UNL A   1      31.416  26.846  25.596  1.00  0.00     0.116 C 
ATOM     19  C   UNL A   1      33.887  28.165  24.722  1.00  0.00     0.018 C 
ATOM     20  C   UNL A   1      33.760  27.572  26.118  1.00  0.00     0.016 C 
BRANCH  16  21
ATOM     21  S   UNL A   1      30.269  27.073  23.142  1.00  0.00     0.243 S 
ATOM     22  O   UNL A   1      29.375  26.053  23.629  1.00  0.00    -0.207 OA
ATOM     23  O   UNL A   1      30.780  27.042  21.783  1.00  0.00    -0.207 OA
BRANCH  21  24
ATOM     24  C   UNL A   1      29.463  28.651  23.331  1.00  0.00     0.082 A 
ATOM     25  C   UNL A   1      28.230  31.159  23.268  1.00  0.00     0.118 A 
ATOM     26  C   UNL A   1      27.555  30.034  22.793  1.00  0.00     0.048 A 
ATOM     27  C   UNL A   1      29.487  31.014  23.852  1.00  0.00     0.048 A 
ATOM     28  C   UNL A   1      28.172  28.781  22.811  1.00  0.00     0.025 A 
ATOM     29  C   UNL A   1      30.106  29.764  23.879  1.00  0.00     0.025 A 
BRANCH  25  30
ATOM     30  O   UNL A   1      27.581  32.356  23.136  1.00  0.00    -0.497 OA
ATOM     31  C   UNL A   1      28.390  33.402  22.603  1.00  0.00     0.278 C 
ENDBRANCH  25  30
ENDBRANCH  21  24
ENDBRANCH  16  21
ENDBRANCH  13  15
ENDBRANCH   8  13
ENDBRANCH   4   7
ENDBRANCH   2   3
ENDBRANCH   1   2
BRANCH   1  32
ATOM     32  C   UNL A   1      39.975  26.076  27.368  1.00  0.00     0.002 C 
BRANCH  32  33
ATOM     33  C   UNL A   1      39.549  27.389  28.039  1.00  0.00     0.002 C 
BRANCH  33  34
ATOM     34  C   UNL A   1      39.517  27.391  29.571  1.00  0.00     0.021 C 
BRANCH  34  35
ATOM     35  C   UNL A   1      38.665  28.479  30.218  1.00  0.00     0.116 C 
BRANCH  35  36
ATOM     36  N   UNL A   1      37.820  29.172  29.257  1.00  0.00    -0.352 N 
ATOM     37  C   UNL A   1      37.703  30.512  28.987  1.00  0.00     0.251 C 
ATOM     38  H   UNL A   1      37.242  28.588  28.716  1.00  0.00     0.163 HD
ATOM     39  O   UNL A   1      36.809  30.902  28.240  1.00  0.00    -0.269 OA
BRANCH  37  40
ATOM     40  C   UNL A   1      38.634  31.489  29.593  1.00  0.00     0.039 A 
ATOM     41  C   UNL A   1      38.189  32.801  29.795  1.00  0.00     0.014 A 
ATOM     42  C   UNL A   1      39.946  31.138  29.920  1.00  0.00     0.014 A 
ATOM     43  C   UNL A   1      39.044  33.747  30.367  1.00  0.00     0.010 A 
ATOM     44  C   UNL A   1      40.780  32.067  30.541  1.00  0.00     0.010 A 
ATOM     45  C   UNL A   1      40.340  33.380  30.763  1.00  0.00    -0.014 A 
BRANCH  45  46
ATOM     46  C   UNL A   1      41.254  34.356  31.408  1.00  0.00     0.031 A 
ATOM     47  C   UNL A   1      41.199  34.570  32.896  1.00  0.00     0.074 A 
ATOM     48  C   UNL A   1      42.069  35.109  30.644  1.00  0.00     0.049 A 
ATOM     49  N   UNL A   1      41.849  35.437  33.629  1.00  0.00    -0.248 NA
ATOM     50  C   UNL A   1      40.272  33.715  33.656  1.00  0.00     0.031 C 
ATOM     51  C   UNL A   1      42.157  35.044  29.184  1.00  0.00     0.029 A 
ATOM     52  N   UNL A   1      42.951  36.104  30.985  1.00  0.00    -0.354 N 
ATOM     53  C   UNL A   1      41.389  35.256  34.928  1.00  0.00     0.074 A 
ATOM     54  C   UNL A   1      40.385  34.215  34.879  1.00  0.00     0.031 C 
ATOM     55  C   UNL A   1      43.031  35.969  28.753  1.00  0.00     0.029 A 
ATOM     56  C   UNL A   1      43.552  36.704  29.903  1.00  0.00     0.049 A 
ATOM     57  H   UNL A   1      43.136  36.364  31.917  1.00  0.00     0.167 HD
ATOM     58  C   UNL A   1      41.790  35.875  36.064  1.00  0.00     0.034 A 
ATOM     59  C   UNL A   1      44.418  37.734  29.843  1.00  0.00     0.034 A 
ATOM     60  C   UNL A   1      42.824  36.874  36.114  1.00  0.00     0.049 A 
ATOM     61  C   UNL A   1      44.895  38.360  31.126  1.00  0.00     0.074 A 
ATOM     62  C   UNL A   1      43.343  37.519  37.222  1.00  0.00     0.029 A 
ATOM     63  N   UNL A   1      43.500  37.365  35.010  1.00  0.00    -0.354 N 
ATOM     64  N   UNL A   1      44.555  38.073  32.360  1.00  0.00    -0.248 NA
ATOM     65  C   UNL A   1      45.905  39.423  31.015  1.00  0.00     0.031 C 
ATOM     66  C   UNL A   1      44.341  38.398  36.786  1.00  0.00     0.029 A 
ATOM     67  C   UNL A   1      44.443  38.297  35.408  1.00  0.00     0.049 A 
ATOM     68  H   UNL A   1      43.336  37.091  34.079  1.00  0.00     0.167 HD
ATOM     69  C   UNL A   1      45.329  38.895  33.171  1.00  0.00     0.074 A 
ATOM     70  C   UNL A   1      46.175  39.674  32.290  1.00  0.00     0.031 C 
ATOM     71  C   UNL A   1      45.325  39.011  34.521  1.00  0.00     0.034 A 
BRANCH  58  72
ATOM     72  C   UNL A   1      41.164  35.431  37.360  1.00  0.00     0.023 A 
ATOM     73  C   UNL A   1      39.827  35.788  37.630  1.00  0.00     0.012 A 
ATOM     74  C   UNL A   1      41.862  34.621  38.275  1.00  0.00     0.148 A 
ATOM     75  C   UNL A   1      39.202  35.371  38.804  1.00  0.00     0.002 A 
ATOM     76  C   UNL A   1      41.220  34.178  39.428  1.00  0.00     0.091 A 
ATOM     77  F   UNL A   1      43.139  34.309  38.013  1.00  0.00    -0.205 F 
ATOM     78  C   UNL A   1      39.895  34.559  39.697  1.00  0.00     0.022 A 
BRANCH  76  79
ATOM     79  S   UNL A   1      42.001  33.072  40.608  1.00  0.00     0.127 S 
ATOM     80  O   UNL A   1      41.208  33.316  41.812  1.00  0.00    -0.237 OA
ATOM     81  O   UNL A   1      41.788  31.761  39.994  1.00  0.00    -0.237 OA
ATOM     82  O   UNL A   1      43.396  33.485  40.682  1.00  0.00    -0.744 OA
ENDBRANCH  76  79
ENDBRANCH  58  72
BRANCH  59  83
ATOM     83  C   UNL A   1      44.955  38.177  28.525  1.00  0.00     0.023 A 
ATOM     84  C   UNL A   1      45.894  37.367  27.858  1.00  0.00     0.012 A 
ATOM     85  C   UNL A   1      44.519  39.368  27.911  1.00  0.00     0.148 A 
ATOM     86  C   UNL A   1      46.414  37.749  26.620  1.00  0.00     0.002 A 
ATOM     87  C   UNL A   1      45.003  39.716  26.653  1.00  0.00     0.091 A 
ATOM     88  F   UNL A   1      43.640  40.139  28.566  1.00  0.00    -0.205 F 
ATOM     89  C   UNL A   1      45.960  38.916  26.013  1.00  0.00     0.022 A 
BRANCH  87  90
ATOM     90  S   UNL A   1      44.362  41.133  25.752  1.00  0.00     0.127 S 
ATOM     91  O   UNL A   1      45.290  41.221  24.629  1.00  0.00    -0.237 OA
ATOM     92  O   UNL A   1      43.010  40.696  25.400  1.00  0.00    -0.237 OA
ATOM     93  O   UNL A   1      44.396  42.234  26.705  1.00  0.00    -0.744 OA
ENDBRANCH  87  90
ENDBRANCH  59  83
BRANCH  71  94
ATOM     94  C   UNL A   1      46.282  39.993  35.140  1.00  0.00     0.023 A 
ATOM     95  C   UNL A   1      47.589  39.577  35.463  1.00  0.00     0.012 A 
ATOM     96  C   UNL A   1      45.919  41.341  35.322  1.00  0.00     0.148 A 
ATOM     97  C   UNL A   1      48.513  40.484  35.979  1.00  0.00     0.002 A 
ATOM     98  C   UNL A   1      46.857  42.249  35.801  1.00  0.00     0.091 A 
ATOM     99  F   UNL A   1      44.663  41.712  35.031  1.00  0.00    -0.205 F 
ATOM    100  C   UNL A   1      48.152  41.820  36.137  1.00  0.00     0.022 A 
BRANCH  98 101
ATOM    101  S   UNL A   1      46.501  44.003  35.953  1.00  0.00     0.127 S 
ATOM    102  O   UNL A   1      46.175  44.120  37.372  1.00  0.00    -0.237 OA
ATOM    103  O   UNL A   1      47.774  44.616  35.568  1.00  0.00    -0.237 OA
ATOM    104  O   UNL A   1      45.404  44.266  35.030  1.00  0.00    -0.744 OA
ENDBRANCH  98 101
ENDBRANCH  71  94
ENDBRANCH  45  46
ENDBRANCH  37  40
ENDBRANCH  35  36
ENDBRANCH  34  35
ENDBRANCH  33  34
ENDBRANCH  32  33
ENDBRANCH   1  32
TORSDOF 21
ENDMDL
MODEL 3
REMARK VINA RESULT:     -10.2      5.877      8.769
REMARK SMILES COc1ccc(S(=O)(=O)N2CCC[C@H](C(=O)N3CCC[C@H](C(=O)NCCCCCCNC(=O)c4ccc(-c5c6nc(c(-c7cccc(S(=O)(=O)[O-])c7F)c7ccc([nH]7)c(-c7cccc(S(=O)(=O)[O-])c7F)c7nc(c(-c8cccc(S(=O)(=O)[O-])c8F)c8ccc5[nH]8)C=C7)C=C6)cc4)C3)C2)cc1
REMARK SMILES IDX 26 1 25 2 24 3 22 4 23 5 21 7 17 8 18 9 97 10 19 11 20 12
REMARK SMILES IDX 15 13 16 14 14 15 10 16 11 17 98 18 12 19 13 20 7 21 8 22
REMARK SMILES IDX 9 23 6 24 3 25 4 26 100 27 5 28 99 29 2 30 1 31 27 32 28 33
REMARK SMILES IDX 29 34 30 35 31 36 32 37 33 39 34 40 35 41 96 42 36 43 95 44
REMARK SMILES IDX 37 45 38 46 39 47 89 48 40 49 94 50 88 51 90 52 41 53 93 54
REMARK SMILES IDX 87 55 86 56 42 58 74 59 54 60 73 61 55 62 58 63 72 64 91 65
REMARK SMILES IDX 56 66 57 67 71 69 92 70 59 71 43 72 44 73 52 74 45 75 47 76
REMARK SMILES IDX 53 77 46 78 48 79 49 80 50 81 51 82 75 83 76 84 84 85 77 86
REMARK SMILES IDX 79 87 85 88 78 89 80 90 81 91 82 92 83 93 60 94 61 95 69 96
REMARK SMILES IDX 62 97 64 98 70 99 63 100 65 101 66 102 67 103 68 104
REMARK H PARENT 24 6 31 38 90 57 58 68
REMARK Flexibility Score: inf
ROOT
ATOM      1  C   UNL A   1      36.262  30.505  30.725  1.00  0.00     0.021 C 
ENDROOT
BRANCH   1   2
ATOM      2  C   UNL A   1      37.785  30.463  30.681  1.00  0.00     0.116 C 
BRANCH   2   3
ATOM      3  N   UNL A   1      38.324  29.124  30.671  1.00  0.00    -0.356 N 
ATOM      4  C   UNL A   1      39.343  28.605  29.943  1.00  0.00     0.224 C 
ATOM      5  O   UNL A   1      39.738  27.478  30.269  1.00  0.00    -0.275 OA
ATOM      6  H   UNL A   1      37.886  28.492  31.285  1.00  0.00     0.163 HD
BRANCH   4   7
ATOM      7  C   UNL A   1      40.008  29.318  28.759  1.00  0.00     0.098 C 
ATOM      8  N   UNL A   1      41.110  27.903  27.000  1.00  0.00    -0.342 N 
ATOM      9  C   UNL A   1      42.378  28.606  27.136  1.00  0.00     0.119 C 
ATOM     10  C   UNL A   1      39.901  28.589  27.418  1.00  0.00     0.133 C 
ATOM     11  C   UNL A   1      42.590  29.191  28.528  1.00  0.00     0.022 C 
ATOM     12  C   UNL A   1      41.373  29.951  29.050  1.00  0.00     0.017 C 
BRANCH   8  13
ATOM     13  C   UNL A   1      41.111  26.584  26.594  1.00  0.00     0.227 C 
ATOM     14  O   UNL A   1      41.280  26.283  25.409  1.00  0.00    -0.275 OA
BRANCH  13  15
ATOM     15  C   UNL A   1      40.673  25.511  27.585  1.00  0.00     0.094 C 
ATOM     16  N   UNL A   1      42.859  24.454  28.039  1.00  0.00    -0.197 NA
ATOM     17  C   UNL A   1      42.554  23.248  27.257  1.00  0.00     0.102 C 
ATOM     18  C   UNL A   1      41.775  25.277  28.604  1.00  0.00     0.116 C 
ATOM     19  C   UNL A   1      41.135  23.122  26.719  1.00  0.00     0.018 C 
ATOM     20  C   UNL A   1      40.116  24.200  27.061  1.00  0.00     0.016 C 
BRANCH  16  21
ATOM     21  S   UNL A   1      44.359  24.473  28.853  1.00  0.00     0.243 S 
ATOM     22  O   UNL A   1      44.812  23.111  28.986  1.00  0.00    -0.207 OA
ATOM     23  O   UNL A   1      44.178  25.324  30.015  1.00  0.00    -0.207 OA
BRANCH  21  24
ATOM     24  C   UNL A   1      45.498  25.333  27.785  1.00  0.00     0.082 A 
ATOM     25  C   UNL A   1      46.995  26.764  25.909  1.00  0.00     0.118 A 
ATOM     26  C   UNL A   1      46.168  27.439  26.807  1.00  0.00     0.048 A 
ATOM     27  C   UNL A   1      47.138  25.381  26.006  1.00  0.00     0.048 A 
ATOM     28  C   UNL A   1      45.408  26.727  27.738  1.00  0.00     0.025 A 
ATOM     29  C   UNL A   1      46.386  24.665  26.939  1.00  0.00     0.025 A 
BRANCH  25  30
ATOM     30  O   UNL A   1      47.638  27.536  24.980  1.00  0.00    -0.497 OA
ATOM     31  C   UNL A   1      46.792  28.024  23.941  1.00  0.00     0.278 C 
ENDBRANCH  25  30
ENDBRANCH  21  24
ENDBRANCH  16  21
ENDBRANCH  13  15
ENDBRANCH   8  13
ENDBRANCH   4   7
ENDBRANCH   2   3
ENDBRANCH   1   2
BRANCH   1  32
ATOM     32  C   UNL A   1      35.690  31.751  31.403  1.00  0.00     0.002 C 
BRANCH  32  33
ATOM     33  C   UNL A   1      36.177  32.013  32.835  1.00  0.00     0.002 C 
BRANCH  33  34
ATOM     34  C   UNL A   1      36.468  33.473  33.199  1.00  0.00     0.021 C 
BRANCH  34  35
ATOM     35  C   UNL A   1      37.535  33.692  34.267  1.00  0.00     0.116 C 
BRANCH  35  36
ATOM     36  N   UNL A   1      37.272  32.939  35.483  1.00  0.00    -0.352 N 
ATOM     37  C   UNL A   1      37.902  31.831  35.991  1.00  0.00     0.251 C 
ATOM     38  H   UNL A   1      36.525  33.276  36.027  1.00  0.00     0.163 HD
ATOM     39  O   UNL A   1      37.418  31.252  36.961  1.00  0.00    -0.269 OA
BRANCH  37  40
ATOM     40  C   UNL A   1      39.148  31.323  35.378  1.00  0.00     0.039 A 
ATOM     41  C   UNL A   1      39.050  30.399  34.330  1.00  0.00     0.014 A 
ATOM     42  C   UNL A   1      40.404  31.709  35.853  1.00  0.00     0.014 A 
ATOM     43  C   UNL A   1      40.209  29.901  33.729  1.00  0.00     0.010 A 
ATOM     44  C   UNL A   1      41.558  31.254  35.216  1.00  0.00     0.010 A 
ATOM     45  C   UNL A   1      41.472  30.341  34.155  1.00  0.00    -0.014 A 
BRANCH  45  46
ATOM     46  C   UNL A   1      42.717  29.857  33.508  1.00  0.00     0.031 A 
ATOM     47  C   UNL A   1      43.321  30.628  32.366  1.00  0.00     0.074 A 
ATOM     48  C   UNL A   1      43.250  28.680  33.889  1.00  0.00     0.049 A 
ATOM     49  N   UNL A   1      44.348  30.322  31.616  1.00  0.00    -0.248 NA
ATOM     50  C   UNL A   1      42.669  31.897  32.002  1.00  0.00     0.031 C 
ATOM     51  C   UNL A   1      42.711  27.808  34.934  1.00  0.00     0.029 A 
ATOM     52  N   UNL A   1      44.343  27.997  33.417  1.00  0.00    -0.354 N 
ATOM     53  C   UNL A   1      44.448  31.339  30.674  1.00  0.00     0.074 A 
ATOM     54  C   UNL A   1      43.359  32.259  30.929  1.00  0.00     0.031 C 
ATOM     55  C   UNL A   1      43.464  26.698  35.013  1.00  0.00     0.029 A 
ATOM     56  C   UNL A   1      44.528  26.772  34.015  1.00  0.00     0.049 A 
ATOM     57  H   UNL A   1      44.938  28.350  32.716  1.00  0.00     0.167 HD
ATOM     58  C   UNL A   1      45.379  31.511  29.707  1.00  0.00     0.034 A 
ATOM     59  C   UNL A   1      45.446  25.814  33.781  1.00  0.00     0.034 A 
ATOM     60  C   UNL A   1      46.487  30.621  29.489  1.00  0.00     0.049 A 
ATOM     61  C   UNL A   1      46.508  26.061  32.743  1.00  0.00     0.074 A 
ATOM     62  C   UNL A   1      47.518  30.737  28.574  1.00  0.00     0.029 A 
ATOM     63  N   UNL A   1      46.713  29.454  30.200  1.00  0.00    -0.354 N 
ATOM     64  N   UNL A   1      46.670  27.101  31.960  1.00  0.00    -0.248 NA
ATOM     65  C   UNL A   1      47.538  25.024  32.583  1.00  0.00     0.031 C 
ATOM     66  C   UNL A   1      48.372  29.641  28.737  1.00  0.00     0.029 A 
ATOM     67  C   UNL A   1      47.874  28.845  29.755  1.00  0.00     0.049 A 
ATOM     68  H   UNL A   1      46.134  29.109  30.918  1.00  0.00     0.167 HD
ATOM     69  C   UNL A   1      47.834  26.859  31.239  1.00  0.00     0.074 A 
ATOM     70  C   UNL A   1      48.350  25.585  31.695  1.00  0.00     0.031 C 
ATOM     71  C   UNL A   1      48.410  27.612  30.271  1.00  0.00     0.034 A 
BRANCH  58  72
ATOM     72  C   UNL A   1      45.286  32.753  28.860  1.00  0.00     0.023 A 
ATOM     73  C   UNL A   1      45.853  33.951  29.341  1.00  0.00     0.012 A 
ATOM     74  C   UNL A   1      44.699  32.731  27.581  1.00  0.00     0.148 A 
ATOM     75  C   UNL A   1      45.814  35.115  28.576  1.00  0.00     0.002 A 
ATOM     76  C   UNL A   1      44.696  33.888  26.807  1.00  0.00     0.091 A 
ATOM     77  F   UNL A   1      44.145  31.590  27.149  1.00  0.00    -0.205 F 
ATOM     78  C   UNL A   1      45.244  35.081  27.306  1.00  0.00     0.022 A 
BRANCH  76  79
ATOM     79  S   UNL A   1      44.049  33.932  25.132  1.00  0.00     0.127 S 
ATOM     80  O   UNL A   1      43.699  32.529  24.914  1.00  0.00    -0.237 OA
ATOM     81  O   UNL A   1      42.902  34.832  25.264  1.00  0.00    -0.237 OA
ATOM     82  O   UNL A   1      45.128  34.445  24.299  1.00  0.00    -0.744 OA
ENDBRANCH  76  79
ENDBRANCH  58  72
BRANCH  59  83
ATOM     83  C   UNL A   1      45.450  24.572  34.605  1.00  0.00     0.023 A 
ATOM     84  C   UNL A   1      44.851  23.405  34.093  1.00  0.00     0.012 A 
ATOM     85  C   UNL A   1      46.070  24.525  35.869  1.00  0.00     0.148 A 
ATOM     86  C   UNL A   1      44.840  22.224  34.835  1.00  0.00     0.002 A 
ATOM     87  C   UNL A   1      46.101  23.329  36.581  1.00  0.00     0.091 A 
ATOM     88  F   UNL A   1      46.619  25.648  36.353  1.00  0.00    -0.205 F 
ATOM     89  C   UNL A   1      45.475  22.182  36.073  1.00  0.00     0.022 A 
BRANCH  87  90
ATOM     90  S   UNL A   1      47.017  23.168  38.119  1.00  0.00     0.127 S 
ATOM     91  O   UNL A   1      46.315  24.107  38.988  1.00  0.00    -0.237 OA
ATOM     92  O   UNL A   1      46.823  21.757  38.454  1.00  0.00    -0.237 OA
ATOM     93  O   UNL A   1      48.392  23.510  37.778  1.00  0.00    -0.744 OA
ENDBRANCH  87  90
ENDBRANCH  59  83
BRANCH  71  94
ATOM     94  C   UNL A   1      49.684  27.100  29.654  1.00  0.00     0.023 A 
ATOM     95  C   UNL A   1      49.616  26.205  28.569  1.00  0.00     0.012 A 
ATOM     96  C   UNL A   1      50.938  27.570  30.089  1.00  0.00     0.148 A 
ATOM     97  C   UNL A   1      50.780  25.766  27.940  1.00  0.00     0.002 A 
ATOM     98  C   UNL A   1      52.093  27.158  29.433  1.00  0.00     0.091 A 
ATOM     99  F   UNL A   1      50.983  28.404  31.138  1.00  0.00    -0.205 F 
ATOM    100  C   UNL A   1      52.016  26.251  28.363  1.00  0.00     0.022 A 
BRANCH  98 101
ATOM    101  S   UNL A   1      53.716  27.800  29.858  1.00  0.00     0.127 S 
ATOM    102  O   UNL A   1      54.051  27.007  31.038  1.00  0.00    -0.237 OA
ATOM    103  O   UNL A   1      54.502  27.481  28.665  1.00  0.00    -0.237 OA
ATOM    104  O   UNL A   1      53.530  29.227  30.090  1.00  0.00    -0.744 OA
ENDBRANCH  98 101
ENDBRANCH  71  94
ENDBRANCH  45  46
ENDBRANCH  37  40
ENDBRANCH  35  36
ENDBRANCH  34  35
ENDBRANCH  33  34
ENDBRANCH  32  33
ENDBRANCH   1  32
TORSDOF 21
ENDMDL
