MODEL 1
REMARK VINA RESULT:     -11.2      0.000      0.000
REMARK SMILES C[C@H](C(=O)NCCCCCCNC(=O)c1ccc(-c2c3nc(c(-c4cccc(S(=O)(=O)[O-])c4F)c4ccc([nH]4)c(-c4cccc(S(=O)(=O)[O-])c4F)c4nc(c(-c5cccc(S(=O)(=O)[O-])c5F)c5ccc2[nH]5)C=C4)C=C3)cc1)N1C(=O)C[C@@H](N2C(=O)/C(=C/c3ccccc3)SC2=S)C1=O
REMARK SMILES IDX 8 1 7 2 6 3 5 4 3 5 4 6 2 8 1 9 78 10 79 11 97 12 80 13
REMARK SMILES IDX 81 14 82 15 98 16 83 17 84 18 95 19 85 20 86 21 94 22 96 23
REMARK SMILES IDX 87 24 88 25 89 26 93 27 90 28 92 29 91 30 9 31 10 32 11 33
REMARK SMILES IDX 12 34 13 35 14 37 15 38 16 39 77 40 17 41 76 42 18 43 19 44
REMARK SMILES IDX 20 45 70 46 21 47 75 48 69 49 71 50 22 51 74 52 68 53 67 54
REMARK SMILES IDX 23 56 55 57 35 58 54 59 36 60 39 61 53 62 72 63 37 64 38 65
REMARK SMILES IDX 52 67 73 68 40 69 24 70 25 71 33 72 26 73 28 74 34 75 27 76
REMARK SMILES IDX 29 77 30 78 31 79 32 80 56 81 57 82 65 83 58 84 60 85 66 86
REMARK SMILES IDX 59 87 61 88 62 89 63 90 64 91 41 92 42 93 50 94 43 95 45 96
REMARK SMILES IDX 51 97 44 98 46 99 47 100 48 101 49 102
REMARK H PARENT 5 7 12 36 71 55 39 66
REMARK Flexibility Score: inf
ROOT
ATOM      1  C   UNL A   1      39.582  22.842  26.458  1.00  0.00     0.002 C 
ENDROOT
BRANCH   1   2
ATOM      2  C   UNL A   1      38.532  23.893  26.836  1.00  0.00     0.021 C 
BRANCH   2   3
ATOM      3  C   UNL A   1      37.217  23.718  26.078  1.00  0.00     0.116 C 
BRANCH   3   4
ATOM      4  N   UNL A   1      37.078  22.353  25.611  1.00  0.00    -0.354 N 
ATOM      5  C   UNL A   1      35.963  21.567  25.539  1.00  0.00     0.243 C 
ATOM      6  O   UNL A   1      36.104  20.423  25.104  1.00  0.00    -0.273 OA
ATOM      7  H   UNL A   1      37.911  21.928  25.302  1.00  0.00     0.163 HD
BRANCH   5   8
ATOM      8  C   UNL A   1      34.593  22.141  25.950  1.00  0.00     0.179 C 
ATOM      9  C   UNL A   1      34.746  23.318  26.913  1.00  0.00     0.042 C 
BRANCH   8  10
ATOM     10  N   UNL A   1      33.777  22.456  24.775  1.00  0.00    -0.268 N 
ATOM     11  C   UNL A   1      32.762  21.650  24.337  1.00  0.00     0.232 C 
ATOM     12  C   UNL A   1      33.840  23.629  24.071  1.00  0.00     0.253 C 
ATOM     13  O   UNL A   1      32.391  20.598  24.832  1.00  0.00    -0.274 OA
ATOM     14  C   UNL A   1      32.182  22.215  23.076  1.00  0.00     0.136 C 
ATOM     15  C   UNL A   1      32.721  23.635  23.045  1.00  0.00     0.191 C 
ATOM     16  O   UNL A   1      34.586  24.577  24.269  1.00  0.00    -0.272 OA
BRANCH  15  17
ATOM     17  N   UNL A   1      31.727  24.674  23.368  1.00  0.00    -0.280 N 
ATOM     18  C   UNL A   1      31.501  25.700  22.464  1.00  0.00     0.266 C 
ATOM     19  C   UNL A   1      30.984  24.720  24.530  1.00  0.00     0.149 C 
ATOM     20  O   UNL A   1      31.992  25.790  21.351  1.00  0.00    -0.268 OA
ATOM     21  C   UNL A   1      30.573  26.705  23.030  1.00  0.00     0.081 C 
ATOM     22  S   UNL A   1      29.985  26.172  24.547  1.00  0.00    -0.054 SA
ATOM     23  S   UNL A   1      30.988  23.645  25.804  1.00  0.00    -0.052 S 
ATOM     24  C   UNL A   1      30.324  27.848  22.379  1.00  0.00     0.029 C 
BRANCH  24  25
ATOM     25  C   UNL A   1      29.501  28.957  22.866  1.00  0.00    -0.024 A 
ATOM     26  C   UNL A   1      28.122  28.951  22.632  1.00  0.00     0.008 A 
ATOM     27  C   UNL A   1      30.085  30.055  23.508  1.00  0.00     0.008 A 
ATOM     28  C   UNL A   1      27.333  30.019  23.063  1.00  0.00     0.001 A 
ATOM     29  C   UNL A   1      29.295  31.120  23.940  1.00  0.00     0.001 A 
ATOM     30  C   UNL A   1      27.919  31.100  23.720  1.00  0.00     0.000 A 
ENDBRANCH  24  25
ENDBRANCH  15  17
ENDBRANCH   8  10
ENDBRANCH   5   8
ENDBRANCH   3   4
ENDBRANCH   2   3
ENDBRANCH   1   2
BRANCH   1  31
ATOM     31  C   UNL A   1      40.379  22.284  27.644  1.00  0.00     0.002 C 
BRANCH  31  32
ATOM     32  C   UNL A   1      40.901  20.858  27.448  1.00  0.00     0.021 C 
BRANCH  32  33
ATOM     33  C   UNL A   1      41.009  20.434  25.989  1.00  0.00     0.116 C 
BRANCH  33  34
ATOM     34  N   UNL A   1      42.355  19.989  25.661  1.00  0.00    -0.352 N 
ATOM     35  C   UNL A   1      43.511  20.719  25.579  1.00  0.00     0.251 C 
ATOM     36  H   UNL A   1      42.447  19.027  25.473  1.00  0.00     0.163 HD
ATOM     37  O   UNL A   1      44.510  20.227  25.061  1.00  0.00    -0.269 OA
BRANCH  35  38
ATOM     38  C   UNL A   1      43.551  22.097  26.113  1.00  0.00     0.039 A 
ATOM     39  C   UNL A   1      43.202  23.158  25.277  1.00  0.00     0.014 A 
ATOM     40  C   UNL A   1      43.963  22.342  27.427  1.00  0.00     0.014 A 
ATOM     41  C   UNL A   1      43.249  24.465  25.764  1.00  0.00     0.010 A 
ATOM     42  C   UNL A   1      43.923  23.634  27.936  1.00  0.00     0.010 A 
ATOM     43  C   UNL A   1      43.601  24.713  27.102  1.00  0.00    -0.014 A 
BRANCH  43  44
ATOM     44  C   UNL A   1      43.686  26.099  27.627  1.00  0.00     0.031 A 
ATOM     45  C   UNL A   1      45.022  26.791  27.709  1.00  0.00     0.074 A 
ATOM     46  C   UNL A   1      42.576  26.715  28.077  1.00  0.00     0.049 A 
ATOM     47  N   UNL A   1      45.304  27.991  28.144  1.00  0.00    -0.248 NA
ATOM     48  C   UNL A   1      46.202  26.024  27.275  1.00  0.00     0.031 C 
ATOM     49  C   UNL A   1      41.237  26.124  28.118  1.00  0.00     0.029 A 
ATOM     50  N   UNL A   1      42.401  27.971  28.601  1.00  0.00    -0.354 N 
ATOM     51  C   UNL A   1      46.687  28.106  28.077  1.00  0.00     0.074 A 
ATOM     52  C   UNL A   1      47.193  26.841  27.597  1.00  0.00     0.031 C 
ATOM     53  C   UNL A   1      40.375  27.023  28.621  1.00  0.00     0.029 A 
ATOM     54  C   UNL A   1      41.103  28.240  28.965  1.00  0.00     0.049 A 
ATOM     55  H   UNL A   1      43.135  28.617  28.707  1.00  0.00     0.167 HD
ATOM     56  C   UNL A   1      47.467  29.177  28.359  1.00  0.00     0.034 A 
ATOM     57  C   UNL A   1      40.561  29.346  29.513  1.00  0.00     0.034 A 
ATOM     58  C   UNL A   1      46.953  30.448  28.791  1.00  0.00     0.049 A 
ATOM     59  C   UNL A   1      41.443  30.537  29.774  1.00  0.00     0.074 A 
ATOM     60  C   UNL A   1      47.647  31.625  29.014  1.00  0.00     0.029 A 
ATOM     61  N   UNL A   1      45.623  30.707  29.077  1.00  0.00    -0.354 N 
ATOM     62  N   UNL A   1      42.727  30.679  29.556  1.00  0.00    -0.248 NA
ATOM     63  C   UNL A   1      40.791  31.738  30.316  1.00  0.00     0.031 C 
ATOM     64  C   UNL A   1      46.739  32.584  29.472  1.00  0.00     0.029 A 
ATOM     65  C   UNL A   1      45.474  32.020  29.487  1.00  0.00     0.049 A 
ATOM     66  H   UNL A   1      44.891  30.053  29.001  1.00  0.00     0.167 HD
ATOM     67  C   UNL A   1      43.028  31.996  29.886  1.00  0.00     0.074 A 
ATOM     68  C   UNL A   1      41.786  32.613  30.305  1.00  0.00     0.031 C 
ATOM     69  C   UNL A   1      44.223  32.636  29.849  1.00  0.00     0.034 A 
BRANCH  56  70
ATOM     70  C   UNL A   1      48.956  29.029  28.177  1.00  0.00     0.023 A 
ATOM     71  C   UNL A   1      49.777  28.756  29.290  1.00  0.00     0.012 A 
ATOM     72  C   UNL A   1      49.536  29.114  26.896  1.00  0.00     0.148 A 
ATOM     73  C   UNL A   1      51.156  28.611  29.138  1.00  0.00     0.002 A 
ATOM     74  C   UNL A   1      50.903  28.916  26.745  1.00  0.00     0.091 A 
ATOM     75  F   UNL A   1      48.743  29.396  25.853  1.00  0.00    -0.205 F 
ATOM     76  C   UNL A   1      51.716  28.680  27.866  1.00  0.00     0.022 A 
BRANCH  74  77
ATOM     77  S   UNL A   1      51.707  28.900  25.139  1.00  0.00     0.127 S 
ATOM     78  O   UNL A   1      53.045  28.422  25.485  1.00  0.00    -0.237 OA
ATOM     79  O   UNL A   1      50.890  27.941  24.396  1.00  0.00    -0.237 OA
ATOM     80  O   UNL A   1      51.643  30.268  24.643  1.00  0.00    -0.744 OA
ENDBRANCH  74  77
ENDBRANCH  56  70
BRANCH  57  81
ATOM     81  C   UNL A   1      39.096  29.407  29.781  1.00  0.00     0.023 A 
ATOM     82  C   UNL A   1      38.613  29.088  31.066  1.00  0.00     0.012 A 
ATOM     83  C   UNL A   1      38.184  29.788  28.780  1.00  0.00     0.148 A 
ATOM     84  C   UNL A   1      37.245  29.106  31.337  1.00  0.00     0.002 A 
ATOM     85  C   UNL A   1      36.827  29.860  29.072  1.00  0.00     0.091 A 
ATOM     86  F   UNL A   1      38.663  30.084  27.563  1.00  0.00    -0.205 F 
ATOM     87  C   UNL A   1      36.353  29.499  30.343  1.00  0.00     0.022 A 
BRANCH  85  88
ATOM     88  S   UNL A   1      35.617  30.474  27.896  1.00  0.00     0.127 S 
ATOM     89  O   UNL A   1      36.119  31.818  27.623  1.00  0.00    -0.237 OA
ATOM     90  O   UNL A   1      35.763  29.524  26.792  1.00  0.00    -0.237 OA
ATOM     91  O   UNL A   1      34.333  30.407  28.580  1.00  0.00    -0.744 OA
ENDBRANCH  85  88
ENDBRANCH  57  81
BRANCH  69  92
ATOM     92  C   UNL A   1      44.244  34.099  30.209  1.00  0.00     0.023 A 
ATOM     93  C   UNL A   1      44.503  34.505  31.532  1.00  0.00     0.012 A 
ATOM     94  C   UNL A   1      44.067  35.076  29.208  1.00  0.00     0.148 A 
ATOM     95  C   UNL A   1      44.541  35.858  31.864  1.00  0.00     0.002 A 
ATOM     96  C   UNL A   1      44.164  36.423  29.535  1.00  0.00     0.091 A 
ATOM     97  F   UNL A   1      43.804  34.672  27.957  1.00  0.00    -0.205 F 
ATOM     98  C   UNL A   1      44.384  36.817  30.864  1.00  0.00     0.022 A 
BRANCH  96  99
ATOM     99  S   UNL A   1      44.081  37.719  28.294  1.00  0.00     0.127 S 
ATOM    100  O   UNL A   1      42.638  37.904  28.153  1.00  0.00    -0.237 OA
ATOM    101  O   UNL A   1      44.776  38.824  28.954  1.00  0.00    -0.237 OA
ATOM    102  O   UNL A   1      44.762  37.194  27.119  1.00  0.00    -0.744 OA
ENDBRANCH  96  99
ENDBRANCH  69  92
ENDBRANCH  43  44
ENDBRANCH  35  38
ENDBRANCH  33  34
ENDBRANCH  32  33
ENDBRANCH  31  32
ENDBRANCH   1  31
TORSDOF 19
ENDMDL
MODEL 2
REMARK VINA RESULT:     -11.1      5.650     10.755
REMARK SMILES C[C@H](C(=O)NCCCCCCNC(=O)c1ccc(-c2c3nc(c(-c4cccc(S(=O)(=O)[O-])c4F)c4ccc([nH]4)c(-c4cccc(S(=O)(=O)[O-])c4F)c4nc(c(-c5cccc(S(=O)(=O)[O-])c5F)c5ccc2[nH]5)C=C4)C=C3)cc1)N1C(=O)C[C@@H](N2C(=O)/C(=C/c3ccccc3)SC2=S)C1=O
REMARK SMILES IDX 8 1 7 2 6 3 5 4 3 5 4 6 2 8 1 9 78 10 79 11 97 12 80 13
REMARK SMILES IDX 81 14 82 15 98 16 83 17 84 18 95 19 85 20 86 21 94 22 96 23
REMARK SMILES IDX 87 24 88 25 89 26 93 27 90 28 92 29 91 30 9 31 10 32 11 33
REMARK SMILES IDX 12 34 13 35 14 37 15 38 16 39 77 40 17 41 76 42 18 43 19 44
REMARK SMILES IDX 20 45 70 46 21 47 75 48 69 49 71 50 22 51 74 52 68 53 67 54
REMARK SMILES IDX 23 56 55 57 35 58 54 59 36 60 39 61 53 62 72 63 37 64 38 65
REMARK SMILES IDX 52 67 73 68 40 69 24 70 25 71 33 72 26 73 28 74 34 75 27 76
REMARK SMILES IDX 29 77 30 78 31 79 32 80 56 81 57 82 65 83 58 84 60 85 66 86
REMARK SMILES IDX 59 87 61 88 62 89 63 90 64 91 41 92 42 93 50 94 43 95 45 96
REMARK SMILES IDX 51 97 44 98 46 99 47 100 48 101 49 102
REMARK H PARENT 5 7 12 36 71 55 39 66
REMARK Flexibility Score: inf
ROOT
ATOM      1  C   UNL A   1      32.832  30.673  27.223  1.00  0.00     0.002 C 
ENDROOT
BRANCH   1   2
ATOM      2  C   UNL A   1      31.804  30.122  26.228  1.00  0.00     0.021 C 
BRANCH   2   3
ATOM      3  C   UNL A   1      32.440  29.619  24.933  1.00  0.00     0.116 C 
BRANCH   3   4
ATOM      4  N   UNL A   1      31.423  29.365  23.933  1.00  0.00    -0.354 N 
ATOM      5  C   UNL A   1      31.481  28.589  22.811  1.00  0.00     0.243 C 
ATOM      6  O   UNL A   1      30.472  28.537  22.106  1.00  0.00    -0.273 OA
ATOM      7  H   UNL A   1      30.563  29.821  24.083  1.00  0.00     0.163 HD
BRANCH   5   8
ATOM      8  C   UNL A   1      32.760  27.789  22.497  1.00  0.00     0.179 C 
ATOM      9  C   UNL A   1      33.968  28.349  23.247  1.00  0.00     0.042 C 
BRANCH   8  10
ATOM     10  N   UNL A   1      32.556  26.356  22.718  1.00  0.00    -0.268 N 
ATOM     11  C   UNL A   1      32.734  25.419  21.736  1.00  0.00     0.232 C 
ATOM     12  C   UNL A   1      32.300  25.780  23.933  1.00  0.00     0.253 C 
ATOM     13  O   UNL A   1      33.078  25.618  20.581  1.00  0.00    -0.274 OA
ATOM     14  C   UNL A   1      32.370  24.064  22.264  1.00  0.00     0.136 C 
ATOM     15  C   UNL A   1      32.328  24.271  23.768  1.00  0.00     0.191 C 
ATOM     16  O   UNL A   1      32.167  26.343  25.010  1.00  0.00    -0.272 OA
BRANCH  15  17
ATOM     17  N   UNL A   1      33.469  23.691  24.497  1.00  0.00    -0.280 N 
ATOM     18  C   UNL A   1      34.691  23.567  23.857  1.00  0.00     0.266 C 
ATOM     19  C   UNL A   1      33.424  23.240  25.801  1.00  0.00     0.149 C 
ATOM     20  O   UNL A   1      34.957  23.982  22.741  1.00  0.00    -0.268 OA
ATOM     21  C   UNL A   1      35.662  22.843  24.709  1.00  0.00     0.081 C 
ATOM     22  S   UNL A   1      34.979  22.544  26.250  1.00  0.00    -0.054 SA
ATOM     23  S   UNL A   1      32.135  23.261  26.858  1.00  0.00    -0.052 S 
ATOM     24  C   UNL A   1      36.863  22.494  24.233  1.00  0.00     0.029 C 
BRANCH  24  25
ATOM     25  C   UNL A   1      37.875  21.704  24.937  1.00  0.00    -0.024 A 
ATOM     26  C   UNL A   1      37.871  20.311  24.819  1.00  0.00     0.008 A 
ATOM     27  C   UNL A   1      38.809  22.320  25.778  1.00  0.00     0.008 A 
ATOM     28  C   UNL A   1      38.810  19.545  25.512  1.00  0.00     0.001 A 
ATOM     29  C   UNL A   1      39.748  21.554  26.468  1.00  0.00     0.001 A 
ATOM     30  C   UNL A   1      39.750  20.167  26.333  1.00  0.00     0.000 A 
ENDBRANCH  24  25
ENDBRANCH  15  17
ENDBRANCH   8  10
ENDBRANCH   5   8
ENDBRANCH   3   4
ENDBRANCH   2   3
ENDBRANCH   1   2
BRANCH   1  31
ATOM     31  C   UNL A   1      32.792  32.195  27.401  1.00  0.00     0.002 C 
BRANCH  31  32
ATOM     32  C   UNL A   1      34.050  32.797  28.031  1.00  0.00     0.021 C 
BRANCH  32  33
ATOM     33  C   UNL A   1      34.091  34.320  27.999  1.00  0.00     0.116 C 
BRANCH  33  34
ATOM     34  N   UNL A   1      33.405  34.896  29.145  1.00  0.00    -0.352 N 
ATOM     35  C   UNL A   1      33.607  34.663  30.480  1.00  0.00     0.251 C 
ATOM     36  H   UNL A   1      32.697  35.545  28.931  1.00  0.00     0.163 HD
ATOM     37  O   UNL A   1      32.782  35.055  31.301  1.00  0.00    -0.269 OA
BRANCH  35  38
ATOM     38  C   UNL A   1      34.815  33.938  30.926  1.00  0.00     0.039 A 
ATOM     39  C   UNL A   1      36.072  34.472  30.638  1.00  0.00     0.014 A 
ATOM     40  C   UNL A   1      34.708  32.717  31.600  1.00  0.00     0.014 A 
ATOM     41  C   UNL A   1      37.221  33.791  31.040  1.00  0.00     0.010 A 
ATOM     42  C   UNL A   1      35.850  32.086  32.078  1.00  0.00     0.010 A 
ATOM     43  C   UNL A   1      37.119  32.596  31.773  1.00  0.00    -0.014 A 
BRANCH  43  44
ATOM     44  C   UNL A   1      38.331  31.842  32.181  1.00  0.00     0.031 A 
ATOM     45  C   UNL A   1      39.033  32.188  33.468  1.00  0.00     0.074 A 
ATOM     46  C   UNL A   1      38.831  30.887  31.373  1.00  0.00     0.049 A 
ATOM     47  N   UNL A   1      40.107  31.655  33.992  1.00  0.00    -0.248 NA
ATOM     48  C   UNL A   1      38.475  33.299  34.259  1.00  0.00     0.031 C 
ATOM     49  C   UNL A   1      38.285  30.511  30.068  1.00  0.00     0.029 A 
ATOM     50  N   UNL A   1      39.921  30.069  31.525  1.00  0.00    -0.354 N 
ATOM     51  C   UNL A   1      40.374  32.389  35.141  1.00  0.00     0.074 A 
ATOM     52  C   UNL A   1      39.376  33.430  35.220  1.00  0.00     0.031 C 
ATOM     53  C   UNL A   1      39.030  29.522  29.547  1.00  0.00     0.029 A 
ATOM     54  C   UNL A   1      40.122  29.216  30.465  1.00  0.00     0.049 A 
ATOM     55  H   UNL A   1      40.504  30.090  32.317  1.00  0.00     0.167 HD
ATOM     56  C   UNL A   1      41.345  32.197  36.066  1.00  0.00     0.034 A 
ATOM     57  C   UNL A   1      41.080  28.291  30.259  1.00  0.00     0.034 A 
ATOM     58  C   UNL A   1      42.306  31.129  36.007  1.00  0.00     0.049 A 
ATOM     59  C   UNL A   1      42.120  28.067  31.324  1.00  0.00     0.074 A 
ATOM     60  C   UNL A   1      43.272  30.788  36.938  1.00  0.00     0.029 A 
ATOM     61  N   UNL A   1      42.433  30.237  34.954  1.00  0.00    -0.354 N 
ATOM     62  N   UNL A   1      42.263  28.669  32.479  1.00  0.00    -0.248 NA
ATOM     63  C   UNL A   1      43.105  27.004  31.075  1.00  0.00     0.031 C 
ATOM     64  C   UNL A   1      44.006  29.714  36.429  1.00  0.00     0.029 A 
ATOM     65  C   UNL A   1      43.467  29.353  35.205  1.00  0.00     0.049 A 
ATOM     66  H   UNL A   1      41.870  30.233  34.146  1.00  0.00     0.167 HD
ATOM     67  C   UNL A   1      43.319  28.027  33.116  1.00  0.00     0.074 A 
ATOM     68  C   UNL A   1      43.770  26.980  32.222  1.00  0.00     0.031 C 
ATOM     69  C   UNL A   1      43.869  28.282  34.330  1.00  0.00     0.034 A 
BRANCH  56  70
ATOM     70  C   UNL A   1      41.395  33.142  37.240  1.00  0.00     0.023 A 
ATOM     71  C   UNL A   1      40.681  32.841  38.417  1.00  0.00     0.012 A 
ATOM     72  C   UNL A   1      42.189  34.304  37.192  1.00  0.00     0.148 A 
ATOM     73  C   UNL A   1      40.721  33.702  39.513  1.00  0.00     0.002 A 
ATOM     74  C   UNL A   1      42.267  35.131  38.307  1.00  0.00     0.091 A 
ATOM     75  F   UNL A   1      42.844  34.585  36.057  1.00  0.00    -0.205 F 
ATOM     76  C   UNL A   1      41.522  34.839  39.462  1.00  0.00     0.022 A 
BRANCH  74  77
ATOM     77  S   UNL A   1      43.336  36.572  38.371  1.00  0.00     0.127 S 
ATOM     78  O   UNL A   1      43.009  37.238  37.111  1.00  0.00    -0.237 OA
ATOM     79  O   UNL A   1      42.851  37.260  39.568  1.00  0.00    -0.237 OA
ATOM     80  O   UNL A   1      44.696  36.061  38.471  1.00  0.00    -0.744 OA
ENDBRANCH  74  77
ENDBRANCH  56  70
BRANCH  57  81
ATOM     81  C   UNL A   1      41.057  27.452  29.027  1.00  0.00     0.023 A 
ATOM     82  C   UNL A   1      40.093  26.432  28.901  1.00  0.00     0.012 A 
ATOM     83  C   UNL A   1      41.973  27.663  27.980  1.00  0.00     0.148 A 
ATOM     84  C   UNL A   1      40.067  25.611  27.774  1.00  0.00     0.002 A 
ATOM     85  C   UNL A   1      41.906  26.879  26.834  1.00  0.00     0.091 A 
ATOM     86  F   UNL A   1      42.886  28.635  28.120  1.00  0.00    -0.205 F 
ATOM     87  C   UNL A   1      40.968  25.838  26.738  1.00  0.00     0.022 A 
BRANCH  85  88
ATOM     88  S   UNL A   1      42.941  27.177  25.398  1.00  0.00     0.127 S 
ATOM     89  O   UNL A   1      42.837  25.907  24.684  1.00  0.00    -0.237 OA
ATOM     90  O   UNL A   1      42.254  28.301  24.761  1.00  0.00    -0.237 OA
ATOM     91  O   UNL A   1      44.261  27.499  25.923  1.00  0.00    -0.744 OA
ENDBRANCH  85  88
ENDBRANCH  57  81
BRANCH  69  92
ATOM     92  C   UNL A   1      44.979  27.377  34.798  1.00  0.00     0.023 A 
ATOM     93  C   UNL A   1      46.325  27.726  34.578  1.00  0.00     0.012 A 
ATOM     94  C   UNL A   1      44.677  26.203  35.519  1.00  0.00     0.148 A 
ATOM     95  C   UNL A   1      47.354  26.899  35.027  1.00  0.00     0.002 A 
ATOM     96  C   UNL A   1      45.708  25.414  36.014  1.00  0.00     0.091 A 
ATOM     97  F   UNL A   1      43.390  25.878  35.704  1.00  0.00    -0.205 F 
ATOM     98  C   UNL A   1      47.046  25.751  35.755  1.00  0.00     0.022 A 
BRANCH  96  99
ATOM     99  S   UNL A   1      45.404  23.979  37.050  1.00  0.00     0.127 S 
ATOM    100  O   UNL A   1      44.591  23.142  36.169  1.00  0.00    -0.237 OA
ATOM    101  O   UNL A   1      46.757  23.478  37.289  1.00  0.00    -0.237 OA
ATOM    102  O   UNL A   1      44.726  24.479  38.238  1.00  0.00    -0.744 OA
ENDBRANCH  96  99
ENDBRANCH  69  92
ENDBRANCH  43  44
ENDBRANCH  35  38
ENDBRANCH  33  34
ENDBRANCH  32  33
ENDBRANCH  31  32
ENDBRANCH   1  31
TORSDOF 19
ENDMDL
MODEL 3
REMARK VINA RESULT:     -11.0      6.300     11.200
REMARK SMILES C[C@H](C(=O)NCCCCCCNC(=O)c1ccc(-c2c3nc(c(-c4cccc(S(=O)(=O)[O-])c4F)c4ccc([nH]4)c(-c4cccc(S(=O)(=O)[O-])c4F)c4nc(c(-c5cccc(S(=O)(=O)[O-])c5F)c5ccc2[nH]5)C=C4)C=C3)cc1)N1C(=O)C[C@@H](N2C(=O)/C(=C/c3ccccc3)SC2=S)C1=O
REMARK SMILES IDX 8 1 7 2 6 3 5 4 3 5 4 6 2 8 1 9 78 10 79 11 97 12 80 13
REMARK SMILES IDX 81 14 82 15 98 16 83 17 84 18 95 19 85 20 86 21 94 22 96 23
REMARK SMILES IDX 87 24 88 25 89 26 93 27 90 28 92 29 91 30 9 31 10 32 11 33
REMARK SMILES IDX 12 34 13 35 14 37 15 38 16 39 77 40 17 41 76 42 18 43 19 44
REMARK SMILES IDX 20 45 70 46 21 47 75 48 69 49 71 50 22 51 74 52 68 53 67 54
REMARK SMILES IDX 23 56 55 57 35 58 54 59 36 60 39 61 53 62 72 63 37 64 38 65
REMARK SMILES IDX 52 67 73 68 40 69 24 70 25 71 33 72 26 73 28 74 34 75 27 76
REMARK SMILES IDX 29 77 30 78 31 79 32 80 56 81 57 82 65 83 58 84 60 85 66 86
REMARK SMILES IDX 59 87 61 88 62 89 63 90 64 91 41 92 42 93 50 94 43 95 45 96
REMARK SMILES IDX 51 97 44 98 46 99 47 100 48 101 49 102
REMARK H PARENT 5 7 12 36 71 55 39 66
REMARK Flexibility Score: inf
ROOT
ATOM      1  C   UNL A   1      32.953  31.509  27.292  1.00  0.00     0.002 C 
ENDROOT
BRANCH   1   2
ATOM      2  C   UNL A   1      31.865  30.890  26.406  1.00  0.00     0.021 C 
BRANCH   2   3
ATOM      3  C   UNL A   1      32.229  29.493  25.907  1.00  0.00     0.116 C 
BRANCH   3   4
ATOM      4  N   UNL A   1      32.471  29.511  24.478  1.00  0.00    -0.354 N 
ATOM      5  C   UNL A   1      32.119  28.598  23.525  1.00  0.00     0.243 C 
ATOM      6  O   UNL A   1      32.447  28.839  22.363  1.00  0.00    -0.273 OA
ATOM      7  H   UNL A   1      32.962  30.296  24.146  1.00  0.00     0.163 HD
BRANCH   5   8
ATOM      8  C   UNL A   1      31.304  27.351  23.921  1.00  0.00     0.179 C 
ATOM      9  C   UNL A   1      30.901  26.534  22.693  1.00  0.00     0.042 C 
BRANCH   8  10
ATOM     10  N   UNL A   1      32.004  26.562  24.936  1.00  0.00    -0.268 N 
ATOM     11  C   UNL A   1      31.379  26.045  26.038  1.00  0.00     0.232 C 
ATOM     12  C   UNL A   1      33.304  26.142  24.842  1.00  0.00     0.253 C 
ATOM     13  O   UNL A   1      30.198  26.150  26.332  1.00  0.00    -0.274 OA
ATOM     14  C   UNL A   1      32.386  25.361  26.912  1.00  0.00     0.136 C 
ATOM     15  C   UNL A   1      33.595  25.210  26.005  1.00  0.00     0.191 C 
ATOM     16  O   UNL A   1      34.097  26.371  23.940  1.00  0.00    -0.272 OA
BRANCH  15  17
ATOM     17  N   UNL A   1      33.831  23.838  25.523  1.00  0.00    -0.280 N 
ATOM     18  C   UNL A   1      32.748  23.036  25.202  1.00  0.00     0.266 C 
ATOM     19  C   UNL A   1      35.075  23.262  25.365  1.00  0.00     0.149 C 
ATOM     20  O   UNL A   1      31.579  23.386  25.193  1.00  0.00    -0.268 OA
ATOM     21  C   UNL A   1      33.190  21.662  24.871  1.00  0.00     0.081 C 
ATOM     22  S   UNL A   1      34.900  21.584  24.854  1.00  0.00    -0.054 SA
ATOM     23  S   UNL A   1      36.573  23.944  25.633  1.00  0.00    -0.052 S 
ATOM     24  C   UNL A   1      32.295  20.688  24.663  1.00  0.00     0.029 C 
BRANCH  24  25
ATOM     25  C   UNL A   1      32.598  19.276  24.417  1.00  0.00    -0.024 A 
ATOM     26  C   UNL A   1      32.618  18.791  23.106  1.00  0.00     0.008 A 
ATOM     27  C   UNL A   1      32.807  18.391  25.481  1.00  0.00     0.008 A 
ATOM     28  C   UNL A   1      32.872  17.441  22.861  1.00  0.00     0.001 A 
ATOM     29  C   UNL A   1      33.064  17.043  25.236  1.00  0.00     0.001 A 
ATOM     30  C   UNL A   1      33.099  16.569  23.926  1.00  0.00     0.000 A 
ENDBRANCH  24  25
ENDBRANCH  15  17
ENDBRANCH   8  10
ENDBRANCH   5   8
ENDBRANCH   3   4
ENDBRANCH   2   3
ENDBRANCH   1   2
BRANCH   1  31
ATOM     31  C   UNL A   1      32.823  33.024  27.494  1.00  0.00     0.002 C 
BRANCH  31  32
ATOM     32  C   UNL A   1      33.632  33.583  28.667  1.00  0.00     0.021 C 
BRANCH  32  33
ATOM     33  C   UNL A   1      33.580  35.101  28.787  1.00  0.00     0.116 C 
BRANCH  33  34
ATOM     34  N   UNL A   1      32.917  35.517  30.013  1.00  0.00    -0.352 N 
ATOM     35  C   UNL A   1      33.158  35.122  31.303  1.00  0.00     0.251 C 
ATOM     36  H   UNL A   1      32.193  36.175  29.900  1.00  0.00     0.163 HD
ATOM     37  O   UNL A   1      32.350  35.394  32.186  1.00  0.00    -0.269 OA
BRANCH  35  38
ATOM     38  C   UNL A   1      34.389  34.369  31.624  1.00  0.00     0.039 A 
ATOM     39  C   UNL A   1      34.278  33.097  32.188  1.00  0.00     0.014 A 
ATOM     40  C   UNL A   1      35.649  34.932  31.399  1.00  0.00     0.014 A 
ATOM     41  C   UNL A   1      35.433  32.382  32.510  1.00  0.00     0.010 A 
ATOM     42  C   UNL A   1      36.795  34.183  31.636  1.00  0.00     0.010 A 
ATOM     43  C   UNL A   1      36.702  32.916  32.227  1.00  0.00    -0.014 A 
BRANCH  43  44
ATOM     44  C   UNL A   1      37.939  32.182  32.592  1.00  0.00     0.031 A 
ATOM     45  C   UNL A   1      38.661  32.513  33.872  1.00  0.00     0.074 A 
ATOM     46  C   UNL A   1      38.443  31.257  31.752  1.00  0.00     0.049 A 
ATOM     47  N   UNL A   1      39.757  31.993  34.360  1.00  0.00    -0.248 NA
ATOM     48  C   UNL A   1      38.095  33.593  34.700  1.00  0.00     0.031 C 
ATOM     49  C   UNL A   1      37.877  30.898  30.450  1.00  0.00     0.029 A 
ATOM     50  N   UNL A   1      39.554  30.461  31.861  1.00  0.00    -0.354 N 
ATOM     51  C   UNL A   1      40.033  32.706  35.520  1.00  0.00     0.074 A 
ATOM     52  C   UNL A   1      39.014  33.723  35.645  1.00  0.00     0.031 C 
ATOM     53  C   UNL A   1      38.633  29.940  29.890  1.00  0.00     0.029 A 
ATOM     54  C   UNL A   1      39.751  29.638  30.777  1.00  0.00     0.049 A 
ATOM     55  H   UNL A   1      40.153  30.477  32.641  1.00  0.00     0.167 HD
ATOM     56  C   UNL A   1      41.027  32.515  36.420  1.00  0.00     0.034 A 
ATOM     57  C   UNL A   1      40.725  28.740  30.529  1.00  0.00     0.034 A 
ATOM     58  C   UNL A   1      42.011  31.472  36.315  1.00  0.00     0.049 A 
ATOM     59  C   UNL A   1      41.792  28.515  31.566  1.00  0.00     0.074 A 
ATOM     60  C   UNL A   1      43.004  31.132  37.217  1.00  0.00     0.029 A 
ATOM     61  N   UNL A   1      42.135  30.608  35.239  1.00  0.00    -0.354 N 
ATOM     62  N   UNL A   1      41.947  29.093  32.732  1.00  0.00    -0.248 NA
ATOM     63  C   UNL A   1      42.796  27.482  31.272  1.00  0.00     0.031 C 
ATOM     64  C   UNL A   1      43.751  30.087  36.668  1.00  0.00     0.029 A 
ATOM     65  C   UNL A   1      43.194  29.743  35.447  1.00  0.00     0.049 A 
ATOM     66  H   UNL A   1      41.555  30.610  34.444  1.00  0.00     0.167 HD
ATOM     67  C   UNL A   1      43.030  28.462  33.332  1.00  0.00     0.074 A 
ATOM     68  C   UNL A   1      43.485  27.446  32.403  1.00  0.00     0.031 C 
ATOM     69  C   UNL A   1      43.601  28.701  34.538  1.00  0.00     0.034 A 
BRANCH  56  70
ATOM     70  C   UNL A   1      41.081  33.434  37.614  1.00  0.00     0.023 A 
ATOM     71  C   UNL A   1      42.028  34.477  37.657  1.00  0.00     0.012 A 
ATOM     72  C   UNL A   1      40.161  33.293  38.671  1.00  0.00     0.148 A 
ATOM     73  C   UNL A   1      42.087  35.339  38.753  1.00  0.00     0.002 A 
ATOM     74  C   UNL A   1      40.191  34.188  39.734  1.00  0.00     0.091 A 
ATOM     75  F   UNL A   1      39.282  32.283  38.623  1.00  0.00    -0.205 F 
ATOM     76  C   UNL A   1      41.163  35.202  39.783  1.00  0.00     0.022 A 
BRANCH  74  77
ATOM     77  S   UNL A   1      38.990  34.148  41.068  1.00  0.00     0.127 S 
ATOM     78  O   UNL A   1      37.816  33.600  40.392  1.00  0.00    -0.237 OA
ATOM     79  O   UNL A   1      39.624  33.238  42.024  1.00  0.00    -0.237 OA
ATOM     80  O   UNL A   1      38.858  35.522  41.532  1.00  0.00    -0.744 OA
ENDBRANCH  74  77
ENDBRANCH  56  70
BRANCH  57  81
ATOM     81  C   UNL A   1      40.694  27.929  29.278  1.00  0.00     0.023 A 
ATOM     82  C   UNL A   1      39.738  26.904  29.141  1.00  0.00     0.012 A 
ATOM     83  C   UNL A   1      41.595  28.173  28.225  1.00  0.00     0.148 A 
ATOM     84  C   UNL A   1      39.706  26.109  27.996  1.00  0.00     0.002 A 
ATOM     85  C   UNL A   1      41.521  27.415  27.063  1.00  0.00     0.091 A 
ATOM     86  F   UNL A   1      42.500  29.150  28.376  1.00  0.00    -0.205 F 
ATOM     87  C   UNL A   1      40.591  26.368  26.954  1.00  0.00     0.022 A 
BRANCH  85  88
ATOM     88  S   UNL A   1      42.535  27.756  25.621  1.00  0.00     0.127 S 
ATOM     89  O   UNL A   1      41.896  28.954  25.082  1.00  0.00    -0.237 OA
ATOM     90  O   UNL A   1      43.850  27.975  26.224  1.00  0.00    -0.237 OA
ATOM     91  O   UNL A   1      42.447  26.565  24.786  1.00  0.00    -0.744 OA
ENDBRANCH  85  88
ENDBRANCH  57  81
BRANCH  69  92
ATOM     92  C   UNL A   1      44.741  27.811  34.962  1.00  0.00     0.023 A 
ATOM     93  C   UNL A   1      46.074  28.195  34.719  1.00  0.00     0.012 A 
ATOM     94  C   UNL A   1      44.482  26.617  35.665  1.00  0.00     0.148 A 
ATOM     95  C   UNL A   1      47.130  27.381  35.126  1.00  0.00     0.002 A 
ATOM     96  C   UNL A   1      45.541  25.841  36.119  1.00  0.00     0.091 A 
ATOM     97  F   UNL A   1      43.207  26.260  35.872  1.00  0.00    -0.205 F 
ATOM     98  C   UNL A   1      46.865  26.212  35.837  1.00  0.00     0.022 A 
BRANCH  96  99
ATOM     99  S   UNL A   1      45.292  24.378  37.131  1.00  0.00     0.127 S 
ATOM    100  O   UNL A   1      44.573  23.498  36.211  1.00  0.00    -0.237 OA
ATOM    101  O   UNL A   1      46.666  23.965  37.420  1.00  0.00    -0.237 OA
ATOM    102  O   UNL A   1      44.537  24.819  38.295  1.00  0.00    -0.744 OA
ENDBRANCH  96  99
ENDBRANCH  69  92
ENDBRANCH  43  44
ENDBRANCH  35  38
ENDBRANCH  33  34
ENDBRANCH  32  33
ENDBRANCH  31  32
ENDBRANCH   1  31
TORSDOF 19
ENDMDL
