MODEL 1
REMARK VINA RESULT:     -11.5      0.000      0.000
REMARK SMILES C[C@@H](C(=O)NCCCCCCNC(=O)c1ccc(-c2c3nc(c(-c4cccc(S(=O)(=O)[O-])c4F)c4ccc([nH]4)c(-c4cccc(S(=O)(=O)[O-])c4F)c4nc(c(-c5cccc(S(=O)(=O)[O-])c5F)c5ccc2[nH]5)C=C4)C=C3)cc1)[C@@H](C)C(=O)c1cccc(Cl)c1
REMARK SMILES IDX 8 1 7 2 6 3 5 4 3 5 4 6 2 8 1 9 78 10 79 11 80 12 81 13
REMARK SMILES IDX 82 14 83 15 88 16 84 17 86 18 85 19 87 20 9 21 10 22 11 23
REMARK SMILES IDX 12 24 13 25 14 27 15 28 16 29 77 30 17 31 76 32 18 33 19 34
REMARK SMILES IDX 20 35 70 36 21 37 75 38 69 39 71 40 22 41 74 42 68 43 67 44
REMARK SMILES IDX 23 46 55 47 35 48 54 49 36 50 39 51 53 52 72 53 37 54 38 55
REMARK SMILES IDX 52 57 73 58 40 59 24 60 25 61 33 62 26 63 28 64 34 65 27 66
REMARK SMILES IDX 29 67 30 68 31 69 32 70 56 71 57 72 65 73 58 74 60 75 66 76
REMARK SMILES IDX 59 77 61 78 62 79 63 80 64 81 41 82 42 83 50 84 43 85 45 86
REMARK SMILES IDX 51 87 44 88 46 89 47 90 48 91 49 92
REMARK H PARENT 5 7 12 26 71 45 39 56
REMARK Flexibility Score: inf
ROOT
ATOM      1  C   UNL A   1      30.653  29.432  24.094  1.00  0.00     0.002 C 
ENDROOT
BRANCH   1   2
ATOM      2  C   UNL A   1      31.046  28.872  22.721  1.00  0.00     0.021 C 
BRANCH   2   3
ATOM      3  C   UNL A   1      30.563  27.442  22.470  1.00  0.00     0.116 C 
BRANCH   3   4
ATOM      4  N   UNL A   1      31.461  26.762  21.556  1.00  0.00    -0.356 N 
ATOM      5  C   UNL A   1      32.528  25.959  21.816  1.00  0.00     0.223 C 
ATOM      6  O   UNL A   1      33.277  25.680  20.882  1.00  0.00    -0.275 OA
ATOM      7  H   UNL A   1      31.269  26.902  20.601  1.00  0.00     0.163 HD
BRANCH   5   8
ATOM      8  C   UNL A   1      32.738  25.419  23.228  1.00  0.00     0.086 C 
ATOM      9  C   UNL A   1      33.821  26.245  23.932  1.00  0.00     0.019 C 
BRANCH   8  10
ATOM     10  C   UNL A   1      33.098  23.916  23.187  1.00  0.00     0.070 C 
ATOM     11  C   UNL A   1      34.502  23.626  23.725  1.00  0.00     0.017 C 
BRANCH  10  12
ATOM     12  C   UNL A   1      32.113  22.948  23.866  1.00  0.00     0.166 C 
ATOM     13  O   UNL A   1      31.092  23.368  24.416  1.00  0.00    -0.294 OA
BRANCH  12  14
ATOM     14  C   UNL A   1      32.224  21.473  23.683  1.00  0.00     0.019 A 
ATOM     15  C   UNL A   1      32.044  20.977  22.381  1.00  0.00     0.012 A 
ATOM     16  C   UNL A   1      32.463  20.581  24.727  1.00  0.00     0.032 A 
ATOM     17  C   UNL A   1      32.154  19.609  22.121  1.00  0.00     0.002 A 
ATOM     18  C   UNL A   1      32.580  19.216  24.459  1.00  0.00     0.041 A 
ATOM     19  C   UNL A   1      32.435  18.727  23.162  1.00  0.00     0.020 A 
ATOM     20  Cl  UNL A   1      32.899  18.125  25.751  1.00  0.00    -0.084 Cl
ENDBRANCH  12  14
ENDBRANCH  10  12
ENDBRANCH   8  10
ENDBRANCH   5   8
ENDBRANCH   3   4
ENDBRANCH   2   3
ENDBRANCH   1   2
BRANCH   1  21
ATOM     21  C   UNL A   1      31.792  29.494  25.116  1.00  0.00     0.002 C 
BRANCH  21  22
ATOM     22  C   UNL A   1      31.560  30.461  26.278  1.00  0.00     0.021 C 
BRANCH  22  23
ATOM     23  C   UNL A   1      32.820  30.830  27.053  1.00  0.00     0.116 C 
BRANCH  23  24
ATOM     24  N   UNL A   1      32.999  32.272  27.145  1.00  0.00    -0.352 N 
ATOM     25  C   UNL A   1      33.976  32.981  27.798  1.00  0.00     0.251 C 
ATOM     26  H   UNL A   1      32.326  32.813  26.673  1.00  0.00     0.163 HD
ATOM     27  O   UNL A   1      33.860  34.197  27.944  1.00  0.00    -0.269 OA
BRANCH  25  28
ATOM     28  C   UNL A   1      35.158  32.277  28.339  1.00  0.00     0.039 A 
ATOM     29  C   UNL A   1      36.385  32.941  28.375  1.00  0.00     0.014 A 
ATOM     30  C   UNL A   1      35.053  30.966  28.814  1.00  0.00     0.014 A 
ATOM     31  C   UNL A   1      37.495  32.310  28.938  1.00  0.00     0.010 A 
ATOM     32  C   UNL A   1      36.139  30.370  29.445  1.00  0.00     0.010 A 
ATOM     33  C   UNL A   1      37.375  31.032  29.507  1.00  0.00    -0.014 A 
BRANCH  33  34
ATOM     34  C   UNL A   1      38.528  30.376  30.179  1.00  0.00     0.031 A 
ATOM     35  C   UNL A   1      38.929  30.784  31.571  1.00  0.00     0.074 A 
ATOM     36  C   UNL A   1      39.261  29.468  29.505  1.00  0.00     0.049 A 
ATOM     37  N   UNL A   1      39.931  30.358  32.297  1.00  0.00    -0.248 NA
ATOM     38  C   UNL A   1      38.116  31.823  32.224  1.00  0.00     0.031 C 
ATOM     39  C   UNL A   1      39.021  29.044  28.124  1.00  0.00     0.029 A 
ATOM     40  N   UNL A   1      40.374  28.758  29.881  1.00  0.00    -0.354 N 
ATOM     41  C   UNL A   1      39.891  31.099  33.472  1.00  0.00     0.074 A 
ATOM     42  C   UNL A   1      38.787  32.025  33.350  1.00  0.00     0.031 C 
ATOM     43  C   UNL A   1      39.952  28.143  27.771  1.00  0.00     0.029 A 
ATOM     44  C   UNL A   1      40.876  27.952  28.885  1.00  0.00     0.049 A 
ATOM     45  H   UNL A   1      40.775  28.819  30.777  1.00  0.00     0.167 HD
ATOM     46  C   UNL A   1      40.682  30.999  34.567  1.00  0.00     0.034 A 
ATOM     47  C   UNL A   1      41.964  27.158  28.865  1.00  0.00     0.034 A 
ATOM     48  C   UNL A   1      41.757  30.053  34.700  1.00  0.00     0.049 A 
ATOM     49  C   UNL A   1      42.813  27.047  30.103  1.00  0.00     0.074 A 
ATOM     50  C   UNL A   1      42.560  29.814  35.801  1.00  0.00     0.029 A 
ATOM     51  N   UNL A   1      42.191  29.201  33.696  1.00  0.00    -0.354 N 
ATOM     52  N   UNL A   1      42.663  27.640  31.262  1.00  0.00    -0.248 NA
ATOM     53  C   UNL A   1      43.959  26.129  30.043  1.00  0.00     0.031 C 
ATOM     54  C   UNL A   1      43.505  28.844  35.451  1.00  0.00     0.029 A 
ATOM     55  C   UNL A   1      43.262  28.448  34.146  1.00  0.00     0.049 A 
ATOM     56  H   UNL A   1      41.796  29.141  32.797  1.00  0.00     0.167 HD
ATOM     57  C   UNL A   1      43.670  27.142  32.080  1.00  0.00     0.074 A 
ATOM     58  C   UNL A   1      44.411  26.182  31.288  1.00  0.00     0.031 C 
ATOM     59  C   UNL A   1      43.963  27.460  33.364  1.00  0.00     0.034 A 
BRANCH  46  60
ATOM     60  C   UNL A   1      40.388  31.913  35.730  1.00  0.00     0.023 A 
ATOM     61  C   UNL A   1      41.244  33.000  36.000  1.00  0.00     0.012 A 
ATOM     62  C   UNL A   1      39.234  31.731  36.517  1.00  0.00     0.148 A 
ATOM     63  C   UNL A   1      40.980  33.868  37.058  1.00  0.00     0.002 A 
ATOM     64  C   UNL A   1      38.951  32.630  37.540  1.00  0.00     0.091 A 
ATOM     65  F   UNL A   1      38.441  30.682  36.259  1.00  0.00    -0.205 F 
ATOM     66  C   UNL A   1      39.829  33.690  37.820  1.00  0.00     0.022 A 
BRANCH  64  67
ATOM     67  S   UNL A   1      37.453  32.536  38.527  1.00  0.00     0.127 S 
ATOM     68  O   UNL A   1      37.786  33.408  39.652  1.00  0.00    -0.237 OA
ATOM     69  O   UNL A   1      36.449  33.078  37.611  1.00  0.00    -0.237 OA
ATOM     70  O   UNL A   1      37.277  31.129  38.860  1.00  0.00    -0.744 OA
ENDBRANCH  64  67
ENDBRANCH  46  60
BRANCH  47  71
ATOM     71  C   UNL A   1      42.287  26.364  27.645  1.00  0.00     0.023 A 
ATOM     72  C   UNL A   1      42.982  26.973  26.583  1.00  0.00     0.012 A 
ATOM     73  C   UNL A   1      41.926  25.007  27.542  1.00  0.00     0.148 A 
ATOM     74  C   UNL A   1      43.281  26.255  25.424  1.00  0.00     0.002 A 
ATOM     75  C   UNL A   1      42.278  24.281  26.410  1.00  0.00     0.091 A 
ATOM     76  F   UNL A   1      41.258  24.448  28.561  1.00  0.00    -0.205 F 
ATOM     77  C   UNL A   1      42.938  24.908  25.341  1.00  0.00     0.022 A 
BRANCH  75  78
ATOM     78  S   UNL A   1      41.995  22.513  26.271  1.00  0.00     0.127 S 
ATOM     79  O   UNL A   1      40.536  22.446  26.243  1.00  0.00    -0.237 OA
ATOM     80  O   UNL A   1      42.653  22.202  25.002  1.00  0.00    -0.237 OA
ATOM     81  O   UNL A   1      42.632  21.919  27.438  1.00  0.00    -0.744 OA
ENDBRANCH  75  78
ENDBRANCH  47  71
BRANCH  59  82
ATOM     82  C   UNL A   1      45.111  26.735  34.021  1.00  0.00     0.023 A 
ATOM     83  C   UNL A   1      46.414  27.264  33.947  1.00  0.00     0.012 A 
ATOM     84  C   UNL A   1      44.881  25.565  34.772  1.00  0.00     0.148 A 
ATOM     85  C   UNL A   1      47.477  26.619  34.579  1.00  0.00     0.002 A 
ATOM     86  C   UNL A   1      45.934  24.958  35.443  1.00  0.00     0.091 A 
ATOM     87  F   UNL A   1      43.636  25.068  34.816  1.00  0.00    -0.205 F 
ATOM     88  C   UNL A   1      47.236  25.476  35.337  1.00  0.00     0.022 A 
BRANCH  86  89
ATOM     89  S   UNL A   1      45.703  23.540  36.522  1.00  0.00     0.127 S 
ATOM     90  O   UNL A   1      47.078  23.237  36.913  1.00  0.00    -0.237 OA
ATOM     91  O   UNL A   1      44.873  24.098  37.590  1.00  0.00    -0.237 OA
ATOM     92  O   UNL A   1      45.046  22.522  35.713  1.00  0.00    -0.744 OA
ENDBRANCH  86  89
ENDBRANCH  59  82
ENDBRANCH  33  34
ENDBRANCH  25  28
ENDBRANCH  23  24
ENDBRANCH  22  23
ENDBRANCH  21  22
ENDBRANCH   1  21
TORSDOF 19
ENDMDL
MODEL 2
REMARK VINA RESULT:     -11.4      2.376      3.158
REMARK SMILES C[C@@H](C(=O)NCCCCCCNC(=O)c1ccc(-c2c3nc(c(-c4cccc(S(=O)(=O)[O-])c4F)c4ccc([nH]4)c(-c4cccc(S(=O)(=O)[O-])c4F)c4nc(c(-c5cccc(S(=O)(=O)[O-])c5F)c5ccc2[nH]5)C=C4)C=C3)cc1)[C@@H](C)C(=O)c1cccc(Cl)c1
REMARK SMILES IDX 8 1 7 2 6 3 5 4 3 5 4 6 2 8 1 9 78 10 79 11 80 12 81 13
REMARK SMILES IDX 82 14 83 15 88 16 84 17 86 18 85 19 87 20 9 21 10 22 11 23
REMARK SMILES IDX 12 24 13 25 14 27 15 28 16 29 77 30 17 31 76 32 18 33 19 34
REMARK SMILES IDX 20 35 70 36 21 37 75 38 69 39 71 40 22 41 74 42 68 43 67 44
REMARK SMILES IDX 23 46 55 47 35 48 54 49 36 50 39 51 53 52 72 53 37 54 38 55
REMARK SMILES IDX 52 57 73 58 40 59 24 60 25 61 33 62 26 63 28 64 34 65 27 66
REMARK SMILES IDX 29 67 30 68 31 69 32 70 56 71 57 72 65 73 58 74 60 75 66 76
REMARK SMILES IDX 59 77 61 78 62 79 63 80 64 81 41 82 42 83 50 84 43 85 45 86
REMARK SMILES IDX 51 87 44 88 46 89 47 90 48 91 49 92
REMARK H PARENT 5 7 12 26 71 45 39 56
REMARK Flexibility Score: inf
ROOT
ATOM      1  C   UNL A   1      33.503  25.850  24.791  1.00  0.00     0.002 C 
ENDROOT
BRANCH   1   2
ATOM      2  C   UNL A   1      34.549  25.223  25.722  1.00  0.00     0.021 C 
BRANCH   2   3
ATOM      3  C   UNL A   1      34.137  23.867  26.297  1.00  0.00     0.116 C 
BRANCH   3   4
ATOM      4  N   UNL A   1      35.263  22.952  26.281  1.00  0.00    -0.356 N 
ATOM      5  C   UNL A   1      35.575  21.966  25.397  1.00  0.00     0.223 C 
ATOM      6  O   UNL A   1      36.458  21.171  25.712  1.00  0.00    -0.275 OA
ATOM      7  H   UNL A   1      35.901  23.063  27.023  1.00  0.00     0.163 HD
BRANCH   5   8
ATOM      8  C   UNL A   1      34.850  21.901  24.055  1.00  0.00     0.086 C 
ATOM      9  C   UNL A   1      35.394  22.997  23.130  1.00  0.00     0.019 C 
BRANCH   8  10
ATOM     10  C   UNL A   1      33.323  22.025  24.256  1.00  0.00     0.070 C 
ATOM     11  C   UNL A   1      32.605  22.588  23.025  1.00  0.00     0.017 C 
BRANCH  10  12
ATOM     12  C   UNL A   1      32.578  20.757  24.710  1.00  0.00     0.166 C 
ATOM     13  O   UNL A   1      31.526  20.837  25.350  1.00  0.00    -0.294 OA
BRANCH  12  14
ATOM     14  C   UNL A   1      32.958  19.409  24.200  1.00  0.00     0.019 A 
ATOM     15  C   UNL A   1      32.376  18.997  22.990  1.00  0.00     0.012 A 
ATOM     16  C   UNL A   1      33.823  18.546  24.871  1.00  0.00     0.032 A 
ATOM     17  C   UNL A   1      32.697  17.758  22.434  1.00  0.00     0.002 A 
ATOM     18  C   UNL A   1      34.146  17.312  24.305  1.00  0.00     0.041 A 
ATOM     19  C   UNL A   1      33.595  16.917  23.087  1.00  0.00     0.020 A 
ATOM     20  Cl  UNL A   1      35.234  16.263  25.128  1.00  0.00    -0.084 Cl
ENDBRANCH  12  14
ENDBRANCH  10  12
ENDBRANCH   8  10
ENDBRANCH   5   8
ENDBRANCH   3   4
ENDBRANCH   2   3
ENDBRANCH   1   2
BRANCH   1  21
ATOM     21  C   UNL A   1      32.491  26.769  25.480  1.00  0.00     0.002 C 
BRANCH  21  22
ATOM     22  C   UNL A   1      32.928  28.230  25.599  1.00  0.00     0.021 C 
BRANCH  22  23
ATOM     23  C   UNL A   1      33.559  28.593  26.940  1.00  0.00     0.116 C 
BRANCH  23  24
ATOM     24  N   UNL A   1      33.580  30.032  27.159  1.00  0.00    -0.352 N 
ATOM     25  C   UNL A   1      34.508  30.790  27.828  1.00  0.00     0.251 C 
ATOM     26  H   UNL A   1      32.825  30.531  26.772  1.00  0.00     0.163 HD
ATOM     27  O   UNL A   1      34.265  31.967  28.093  1.00  0.00    -0.269 OA
BRANCH  25  28
ATOM     28  C   UNL A   1      35.790  30.184  28.244  1.00  0.00     0.039 A 
ATOM     29  C   UNL A   1      36.882  30.245  27.375  1.00  0.00     0.014 A 
ATOM     30  C   UNL A   1      35.915  29.561  29.489  1.00  0.00     0.014 A 
ATOM     31  C   UNL A   1      38.115  29.729  27.779  1.00  0.00     0.010 A 
ATOM     32  C   UNL A   1      37.162  29.120  29.920  1.00  0.00     0.010 A 
ATOM     33  C   UNL A   1      38.274  29.192  29.067  1.00  0.00    -0.014 A 
BRANCH  33  34
ATOM     34  C   UNL A   1      39.598  28.709  29.541  1.00  0.00     0.031 A 
ATOM     35  C   UNL A   1      40.322  29.435  30.643  1.00  0.00     0.074 A 
ATOM     36  C   UNL A   1      40.183  27.662  28.926  1.00  0.00     0.049 A 
ATOM     37  N   UNL A   1      41.501  29.190  31.154  1.00  0.00    -0.248 NA
ATOM     38  C   UNL A   1      39.647  30.605  31.229  1.00  0.00     0.031 C 
ATOM     39  C   UNL A   1      39.617  26.922  27.796  1.00  0.00     0.029 A 
ATOM     40  N   UNL A   1      41.395  27.056  29.146  1.00  0.00    -0.354 N 
ATOM     41  C   UNL A   1      41.724  30.190  32.093  1.00  0.00     0.074 A 
ATOM     42  C   UNL A   1      40.575  31.067  32.057  1.00  0.00     0.031 C 
ATOM     43  C   UNL A   1      40.476  25.958  27.427  1.00  0.00     0.029 A 
ATOM     44  C   UNL A   1      41.667  26.032  28.268  1.00  0.00     0.049 A 
ATOM     45  H   UNL A   1      42.010  27.327  29.865  1.00  0.00     0.167 HD
ATOM     46  C   UNL A   1      42.777  30.350  32.930  1.00  0.00     0.034 A 
ATOM     47  C   UNL A   1      42.757  25.251  28.144  1.00  0.00     0.034 A 
ATOM     48  C   UNL A   1      43.903  29.457  32.988  1.00  0.00     0.049 A 
ATOM     49  C   UNL A   1      43.903  25.434  29.103  1.00  0.00     0.074 A 
ATOM     50  C   UNL A   1      44.976  29.484  33.860  1.00  0.00     0.029 A 
ATOM     51  N   UNL A   1      44.110  28.387  32.131  1.00  0.00    -0.354 N 
ATOM     52  N   UNL A   1      44.024  26.288  30.090  1.00  0.00    -0.248 NA
ATOM     53  C   UNL A   1      45.046  24.521  28.955  1.00  0.00     0.031 C 
ATOM     54  C   UNL A   1      45.853  28.452  33.507  1.00  0.00     0.029 A 
ATOM     55  C   UNL A   1      45.303  27.757  32.442  1.00  0.00     0.049 A 
ATOM     56  H   UNL A   1      43.500  28.117  31.408  1.00  0.00     0.167 HD
ATOM     57  C   UNL A   1      45.236  25.993  30.702  1.00  0.00     0.074 A 
ATOM     58  C   UNL A   1      45.801  24.868  29.988  1.00  0.00     0.031 C 
ATOM     59  C   UNL A   1      45.834  26.608  31.753  1.00  0.00     0.034 A 
BRANCH  46  60
ATOM     60  C   UNL A   1      42.742  31.517  33.885  1.00  0.00     0.023 A 
ATOM     61  C   UNL A   1      43.262  32.765  33.485  1.00  0.00     0.012 A 
ATOM     62  C   UNL A   1      42.141  31.395  35.153  1.00  0.00     0.148 A 
ATOM     63  C   UNL A   1      43.222  33.861  34.344  1.00  0.00     0.002 A 
ATOM     64  C   UNL A   1      42.061  32.505  35.986  1.00  0.00     0.091 A 
ATOM     65  F   UNL A   1      41.669  30.197  35.525  1.00  0.00    -0.205 F 
ATOM     66  C   UNL A   1      42.613  33.735  35.589  1.00  0.00     0.022 A 
BRANCH  64  67
ATOM     67  S   UNL A   1      41.224  32.468  37.575  1.00  0.00     0.127 S 
ATOM     68  O   UNL A   1      42.102  31.594  38.351  1.00  0.00    -0.237 OA
ATOM     69  O   UNL A   1      41.258  33.875  37.972  1.00  0.00    -0.237 OA
ATOM     70  O   UNL A   1      39.891  31.941  37.315  1.00  0.00    -0.744 OA
ENDBRANCH  64  67
ENDBRANCH  46  60
BRANCH  47  71
ATOM     71  C   UNL A   1      42.797  24.187  27.101  1.00  0.00     0.023 A 
ATOM     72  C   UNL A   1      43.499  24.415  25.901  1.00  0.00     0.012 A 
ATOM     73  C   UNL A   1      42.163  22.945  27.301  1.00  0.00     0.148 A 
ATOM     74  C   UNL A   1      43.537  23.440  24.904  1.00  0.00     0.002 A 
ATOM     75  C   UNL A   1      42.255  21.957  26.327  1.00  0.00     0.091 A 
ATOM     76  F   UNL A   1      41.495  22.750  28.446  1.00  0.00    -0.205 F 
ATOM     77  C   UNL A   1      42.925  22.209  25.120  1.00  0.00     0.022 A 
BRANCH  75  78
ATOM     78  S   UNL A   1      41.610  20.299  26.573  1.00  0.00     0.127 S 
ATOM     79  O   UNL A   1      40.170  20.543  26.622  1.00  0.00    -0.237 OA
ATOM     80  O   UNL A   1      42.079  19.612  25.370  1.00  0.00    -0.237 OA
ATOM     81  O   UNL A   1      42.211  19.821  27.811  1.00  0.00    -0.744 OA
ENDBRANCH  75  78
ENDBRANCH  47  71
BRANCH  59  82
ATOM     82  C   UNL A   1      47.153  26.054  32.230  1.00  0.00     0.023 A 
ATOM     83  C   UNL A   1      48.359  26.547  31.697  1.00  0.00     0.012 A 
ATOM     84  C   UNL A   1      47.193  25.094  33.261  1.00  0.00     0.148 A 
ATOM     85  C   UNL A   1      49.586  26.066  32.156  1.00  0.00     0.002 A 
ATOM     86  C   UNL A   1      48.418  24.658  33.750  1.00  0.00     0.091 A 
ATOM     87  F   UNL A   1      46.033  24.624  33.743  1.00  0.00    -0.205 F 
ATOM     88  C   UNL A   1      49.616  25.133  33.189  1.00  0.00     0.022 A 
BRANCH  86  89
ATOM     89  S   UNL A   1      48.557  23.534  35.144  1.00  0.00     0.127 S 
ATOM     90  O   UNL A   1      47.855  22.353  34.645  1.00  0.00    -0.237 OA
ATOM     91  O   UNL A   1      50.006  23.376  35.270  1.00  0.00    -0.237 OA
ATOM     92  O   UNL A   1      47.922  24.207  36.269  1.00  0.00    -0.744 OA
ENDBRANCH  86  89
ENDBRANCH  59  82
ENDBRANCH  33  34
ENDBRANCH  25  28
ENDBRANCH  23  24
ENDBRANCH  22  23
ENDBRANCH  21  22
ENDBRANCH   1  21
TORSDOF 19
ENDMDL
MODEL 3
REMARK VINA RESULT:     -11.3      2.505      8.264
REMARK SMILES C[C@@H](C(=O)NCCCCCCNC(=O)c1ccc(-c2c3nc(c(-c4cccc(S(=O)(=O)[O-])c4F)c4ccc([nH]4)c(-c4cccc(S(=O)(=O)[O-])c4F)c4nc(c(-c5cccc(S(=O)(=O)[O-])c5F)c5ccc2[nH]5)C=C4)C=C3)cc1)[C@@H](C)C(=O)c1cccc(Cl)c1
REMARK SMILES IDX 8 1 7 2 6 3 5 4 3 5 4 6 2 8 1 9 78 10 79 11 80 12 81 13
REMARK SMILES IDX 82 14 83 15 88 16 84 17 86 18 85 19 87 20 9 21 10 22 11 23
REMARK SMILES IDX 12 24 13 25 14 27 15 28 16 29 77 30 17 31 76 32 18 33 19 34
REMARK SMILES IDX 20 35 70 36 21 37 75 38 69 39 71 40 22 41 74 42 68 43 67 44
REMARK SMILES IDX 23 46 55 47 35 48 54 49 36 50 39 51 53 52 72 53 37 54 38 55
REMARK SMILES IDX 52 57 73 58 40 59 24 60 25 61 33 62 26 63 28 64 34 65 27 66
REMARK SMILES IDX 29 67 30 68 31 69 32 70 56 71 57 72 65 73 58 74 60 75 66 76
REMARK SMILES IDX 59 77 61 78 62 79 63 80 64 81 41 82 42 83 50 84 43 85 45 86
REMARK SMILES IDX 51 87 44 88 46 89 47 90 48 91 49 92
REMARK H PARENT 5 7 12 26 71 45 39 56
REMARK Flexibility Score: inf
ROOT
ATOM      1  C   UNL A   1      31.960  29.373  26.655  1.00  0.00     0.002 C 
ENDROOT
BRANCH   1   2
ATOM      2  C   UNL A   1      31.470  28.155  25.861  1.00  0.00     0.021 C 
BRANCH   2   3
ATOM      3  C   UNL A   1      31.626  26.826  26.602  1.00  0.00     0.116 C 
BRANCH   3   4
ATOM      4  N   UNL A   1      30.926  25.771  25.893  1.00  0.00    -0.356 N 
ATOM      5  C   UNL A   1      31.346  24.981  24.867  1.00  0.00     0.223 C 
ATOM      6  O   UNL A   1      30.501  24.311  24.277  1.00  0.00    -0.275 OA
ATOM      7  H   UNL A   1      30.008  25.600  26.201  1.00  0.00     0.163 HD
BRANCH   5   8
ATOM      8  C   UNL A   1      32.829  24.932  24.512  1.00  0.00     0.086 C 
ATOM      9  C   UNL A   1      33.106  25.899  23.355  1.00  0.00     0.019 C 
BRANCH   8  10
ATOM     10  C   UNL A   1      33.259  23.487  24.169  1.00  0.00     0.070 C 
ATOM     11  C   UNL A   1      34.173  23.414  22.942  1.00  0.00     0.017 C 
BRANCH  10  12
ATOM     12  C   UNL A   1      33.906  22.669  25.301  1.00  0.00     0.166 C 
ATOM     13  O   UNL A   1      33.217  21.969  26.048  1.00  0.00    -0.294 OA
BRANCH  12  14
ATOM     14  C   UNL A   1      35.384  22.499  25.389  1.00  0.00     0.019 A 
ATOM     15  C   UNL A   1      36.136  23.632  25.740  1.00  0.00     0.012 A 
ATOM     16  C   UNL A   1      36.041  21.300  25.116  1.00  0.00     0.032 A 
ATOM     17  C   UNL A   1      37.524  23.551  25.865  1.00  0.00     0.002 A 
ATOM     18  C   UNL A   1      37.428  21.225  25.251  1.00  0.00     0.041 A 
ATOM     19  C   UNL A   1      38.171  22.340  25.632  1.00  0.00     0.020 A 
ATOM     20  Cl  UNL A   1      38.228  19.734  24.935  1.00  0.00    -0.084 Cl
ENDBRANCH  12  14
ENDBRANCH  10  12
ENDBRANCH   8  10
ENDBRANCH   5   8
ENDBRANCH   3   4
ENDBRANCH   2   3
ENDBRANCH   1   2
BRANCH   1  21
ATOM     21  C   UNL A   1      31.803  30.717  25.938  1.00  0.00     0.002 C 
BRANCH  21  22
ATOM     22  C   UNL A   1      31.567  31.914  26.860  1.00  0.00     0.021 C 
BRANCH  22  23
ATOM     23  C   UNL A   1      32.836  32.651  27.274  1.00  0.00     0.116 C 
BRANCH  23  24
ATOM     24  N   UNL A   1      32.571  34.041  27.617  1.00  0.00    -0.352 N 
ATOM     25  C   UNL A   1      33.105  34.798  28.629  1.00  0.00     0.251 C 
ATOM     26  H   UNL A   1      31.918  34.501  27.042  1.00  0.00     0.163 HD
ATOM     27  O   UNL A   1      32.617  35.894  28.900  1.00  0.00    -0.269 OA
BRANCH  25  28
ATOM     28  C   UNL A   1      34.257  34.286  29.400  1.00  0.00     0.039 A 
ATOM     29  C   UNL A   1      34.021  33.554  30.566  1.00  0.00     0.014 A 
ATOM     30  C   UNL A   1      35.567  34.524  28.972  1.00  0.00     0.014 A 
ATOM     31  C   UNL A   1      35.098  33.013  31.271  1.00  0.00     0.010 A 
ATOM     32  C   UNL A   1      36.631  33.919  29.631  1.00  0.00     0.010 A 
ATOM     33  C   UNL A   1      36.410  33.163  30.793  1.00  0.00    -0.014 A 
BRANCH  33  34
ATOM     34  C   UNL A   1      37.561  32.530  31.489  1.00  0.00     0.031 A 
ATOM     35  C   UNL A   1      38.296  31.382  30.852  1.00  0.00     0.074 A 
ATOM     36  C   UNL A   1      37.893  32.938  32.730  1.00  0.00     0.049 A 
ATOM     37  N   UNL A   1      39.290  30.676  31.327  1.00  0.00    -0.248 NA
ATOM     38  C   UNL A   1      37.840  30.953  29.520  1.00  0.00     0.031 C 
ATOM     39  C   UNL A   1      37.209  33.989  33.486  1.00  0.00     0.029 A 
ATOM     40  N   UNL A   1      38.874  32.500  33.584  1.00  0.00    -0.354 N 
ATOM     41  C   UNL A   1      39.555  29.701  30.372  1.00  0.00     0.074 A 
ATOM     42  C   UNL A   1      38.595  29.883  29.306  1.00  0.00     0.031 C 
ATOM     43  C   UNL A   1      37.794  34.120  34.687  1.00  0.00     0.029 A 
ATOM     44  C   UNL A   1      38.870  33.140  34.803  1.00  0.00     0.049 A 
ATOM     45  H   UNL A   1      39.519  31.796  33.348  1.00  0.00     0.167 HD
ATOM     46  C   UNL A   1      40.527  28.758  30.368  1.00  0.00     0.034 A 
ATOM     47  C   UNL A   1      39.636  32.951  35.894  1.00  0.00     0.034 A 
ATOM     48  C   UNL A   1      41.502  28.601  31.414  1.00  0.00     0.049 A 
ATOM     49  C   UNL A   1      40.724  31.912  35.854  1.00  0.00     0.074 A 
ATOM     50  C   UNL A   1      42.578  27.733  31.462  1.00  0.00     0.029 A 
ATOM     51  N   UNL A   1      41.511  29.317  32.601  1.00  0.00    -0.354 N 
ATOM     52  N   UNL A   1      41.060  31.106  34.877  1.00  0.00    -0.248 NA
ATOM     53  C   UNL A   1      41.564  31.782  37.054  1.00  0.00     0.031 C 
ATOM     54  C   UNL A   1      43.217  27.897  32.695  1.00  0.00     0.029 A 
ATOM     55  C   UNL A   1      42.564  28.898  33.397  1.00  0.00     0.049 A 
ATOM     56  H   UNL A   1      40.864  30.018  32.843  1.00  0.00     0.167 HD
ATOM     57  C   UNL A   1      42.169  30.400  35.328  1.00  0.00     0.074 A 
ATOM     58  C   UNL A   1      42.461  30.890  36.659  1.00  0.00     0.031 C 
ATOM     59  C   UNL A   1      42.873  29.425  34.702  1.00  0.00     0.034 A 
BRANCH  46  60
ATOM     60  C   UNL A   1      40.609  27.842  29.173  1.00  0.00     0.023 A 
ATOM     61  C   UNL A   1      39.753  26.725  29.086  1.00  0.00     0.012 A 
ATOM     62  C   UNL A   1      41.491  28.120  28.110  1.00  0.00     0.148 A 
ATOM     63  C   UNL A   1      39.799  25.877  27.981  1.00  0.00     0.002 A 
ATOM     64  C   UNL A   1      41.497  27.298  26.989  1.00  0.00     0.091 A 
ATOM     65  F   UNL A   1      42.311  29.174  28.218  1.00  0.00    -0.205 F 
ATOM     66  C   UNL A   1      40.662  26.169  26.929  1.00  0.00     0.022 A 
BRANCH  64  67
ATOM     67  S   UNL A   1      42.512  27.633  25.545  1.00  0.00     0.127 S 
ATOM     68  O   UNL A   1      42.235  26.463  24.713  1.00  0.00    -0.237 OA
ATOM     69  O   UNL A   1      41.937  28.883  25.051  1.00  0.00    -0.237 OA
ATOM     70  O   UNL A   1      43.881  27.741  26.032  1.00  0.00    -0.744 OA
ENDBRANCH  64  67
ENDBRANCH  46  60
BRANCH  47  71
ATOM     71  C   UNL A   1      39.436  33.800  37.103  1.00  0.00     0.023 A 
ATOM     72  C   UNL A   1      39.897  35.131  37.101  1.00  0.00     0.012 A 
ATOM     73  C   UNL A   1      38.775  33.303  38.242  1.00  0.00     0.148 A 
ATOM     74  C   UNL A   1      39.736  35.941  38.226  1.00  0.00     0.002 A 
ATOM     75  C   UNL A   1      38.565  34.133  39.338  1.00  0.00     0.091 A 
ATOM     76  F   UNL A   1      38.350  32.032  38.226  1.00  0.00    -0.205 F 
ATOM     77  C   UNL A   1      39.062  35.446  39.340  1.00  0.00     0.022 A 
BRANCH  75  78
ATOM     78  S   UNL A   1      37.596  33.624  40.761  1.00  0.00     0.127 S 
ATOM     79  O   UNL A   1      37.467  34.879  41.498  1.00  0.00    -0.237 OA
ATOM     80  O   UNL A   1      36.364  33.148  40.131  1.00  0.00    -0.237 OA
ATOM     81  O   UNL A   1      38.375  32.584  41.418  1.00  0.00    -0.744 OA
ENDBRANCH  75  78
ENDBRANCH  47  71
BRANCH  59  82
ATOM     82  C   UNL A   1      44.062  28.845  35.427  1.00  0.00     0.023 A 
ATOM     83  C   UNL A   1      45.333  29.433  35.281  1.00  0.00     0.012 A 
ATOM     84  C   UNL A   1      43.900  27.757  36.308  1.00  0.00     0.148 A 
ATOM     85  C   UNL A   1      46.433  28.924  35.972  1.00  0.00     0.002 A 
ATOM     86  C   UNL A   1      44.988  27.290  37.034  1.00  0.00     0.091 A 
ATOM     87  F   UNL A   1      42.685  27.200  36.419  1.00  0.00    -0.205 F 
ATOM     88  C   UNL A   1      46.258  27.863  36.857  1.00  0.00     0.022 A 
BRANCH  86  89
ATOM     89  S   UNL A   1      44.840  25.994  38.269  1.00  0.00     0.127 S 
ATOM     90  O   UNL A   1      46.241  25.715  38.577  1.00  0.00    -0.237 OA
ATOM     91  O   UNL A   1      44.102  26.669  39.338  1.00  0.00    -0.237 OA
ATOM     92  O   UNL A   1      44.113  24.906  37.627  1.00  0.00    -0.744 OA
ENDBRANCH  86  89
ENDBRANCH  59  82
ENDBRANCH  33  34
ENDBRANCH  25  28
ENDBRANCH  23  24
ENDBRANCH  22  23
ENDBRANCH  21  22
ENDBRANCH   1  21
TORSDOF 19
ENDMDL
