MODEL 1
REMARK VINA RESULT:     -12.9      0.000      0.000
REMARK SMILES Cc1ccc(C(=O)NCCCCCCNC(=O)c2ccc(-c3c4nc(c(-c5cccc(S(=O)(=O)[O-])c5F)c5ccc([nH]5)c(-c5cccc(S(=O)(=O)[O-])c5F)c5nc(c(-c6cccc(S(=O)(=O)[O-])c6F)c6ccc3[nH]6)C=C5)C=C4)cc2)cc1N1C(=O)/C(=C\c2nc3ccccc3n2C)SC1=S
REMARK SMILES IDX 12 1 11 2 10 3 9 4 8 5 6 6 7 7 5 9 1 10 2 11 3 12 82 13 4 14
REMARK SMILES IDX 81 15 83 16 84 17 99 18 85 19 86 20 98 21 100 22 87 23 88 24
REMARK SMILES IDX 89 25 96 26 90 27 95 28 97 29 91 30 94 31 92 32 93 33 13 34
REMARK SMILES IDX 14 35 15 36 16 37 17 39 18 40 19 41 80 42 20 43 79 44 21 45
REMARK SMILES IDX 22 46 23 47 73 48 24 49 78 50 72 51 74 52 25 53 77 54 71 55
REMARK SMILES IDX 70 56 26 58 58 59 38 60 57 61 39 62 42 63 56 64 75 65 40 66
REMARK SMILES IDX 41 67 55 69 76 70 43 71 27 72 28 73 36 74 29 75 31 76 37 77
REMARK SMILES IDX 30 78 32 79 33 80 34 81 35 82 59 83 60 84 68 85 61 86 63 87
REMARK SMILES IDX 69 88 62 89 64 90 65 91 66 92 67 93 44 94 45 95 53 96 46 97
REMARK SMILES IDX 48 98 54 99 47 100 49 101 50 102 51 103 52 104
REMARK H PARENT 8 8 15 38 74 57 42 68
REMARK Flexibility Score: inf
ROOT
ATOM      1  C   UNL A   1      39.264  26.969  28.700  1.00  0.00     0.002 C 
ENDROOT
BRANCH   1   2
ATOM      2  C   UNL A   1      39.816  26.112  27.546  1.00  0.00     0.002 C 
BRANCH   2   3
ATOM      3  C   UNL A   1      39.552  24.600  27.639  1.00  0.00     0.021 C 
BRANCH   3   4
ATOM      4  C   UNL A   1      38.478  24.096  26.672  1.00  0.00     0.116 C 
BRANCH   4   5
ATOM      5  N   UNL A   1      38.658  22.683  26.390  1.00  0.00    -0.352 N 
ATOM      6  C   UNL A   1      37.991  21.796  25.586  1.00  0.00     0.251 C 
ATOM      7  O   UNL A   1      38.456  20.657  25.501  1.00  0.00    -0.269 OA
ATOM      8  H   UNL A   1      39.413  22.281  26.875  1.00  0.00     0.163 HD
BRANCH   6   9
ATOM      9  C   UNL A   1      36.790  22.140  24.770  1.00  0.00     0.041 A 
ATOM     10  C   UNL A   1      33.576  23.626  22.261  1.00  0.00     0.046 C 
ATOM     11  C   UNL A   1      34.632  23.034  23.154  1.00  0.00    -0.027 A 
ATOM     12  C   UNL A   1      35.956  23.085  22.689  1.00  0.00     0.006 A 
ATOM     13  C   UNL A   1      34.385  22.470  24.422  1.00  0.00     0.054 A 
ATOM     14  C   UNL A   1      37.019  22.672  23.496  1.00  0.00     0.014 A 
ATOM     15  C   UNL A   1      35.467  21.977  25.182  1.00  0.00     0.041 A 
BRANCH  13  16
ATOM     16  N   UNL A   1      33.108  22.559  25.057  1.00  0.00    -0.261 N 
ATOM     17  C   UNL A   1      32.787  23.729  25.743  1.00  0.00     0.270 C 
ATOM     18  C   UNL A   1      32.189  21.531  25.157  1.00  0.00     0.152 C 
ATOM     19  O   UNL A   1      33.576  24.585  26.125  1.00  0.00    -0.268 OA
ATOM     20  C   UNL A   1      31.335  23.731  26.097  1.00  0.00     0.084 C 
ATOM     21  S   UNL A   1      30.733  22.119  25.980  1.00  0.00    -0.054 SA
ATOM     22  S   UNL A   1      32.339  19.933  24.687  1.00  0.00    -0.051 S 
ATOM     23  C   UNL A   1      30.576  24.795  26.409  1.00  0.00     0.068 C 
BRANCH  23  24
ATOM     24  C   UNL A   1      31.074  26.113  26.241  1.00  0.00     0.134 A 
ATOM     25  N   UNL A   1      31.643  26.877  27.153  1.00  0.00    -0.229 NA
ATOM     26  N   UNL A   1      30.991  26.793  25.042  1.00  0.00    -0.328 N 
ATOM     27  C   UNL A   1      31.642  28.140  26.629  1.00  0.00     0.089 A 
ATOM     28  C   UNL A   1      31.216  28.129  25.304  1.00  0.00     0.068 A 
ATOM     29  C   UNL A   1      30.703  26.231  23.743  1.00  0.00     0.152 C 
ATOM     30  C   UNL A   1      31.966  29.354  27.249  1.00  0.00     0.030 A 
ATOM     31  C   UNL A   1      31.082  29.304  24.553  1.00  0.00     0.028 A 
ATOM     32  C   UNL A   1      31.817  30.540  26.524  1.00  0.00     0.002 A 
ATOM     33  C   UNL A   1      31.378  30.512  25.199  1.00  0.00     0.002 A 
ENDBRANCH  23  24
ENDBRANCH  13  16
ENDBRANCH   6   9
ENDBRANCH   4   5
ENDBRANCH   3   4
ENDBRANCH   2   3
ENDBRANCH   1   2
BRANCH   1  34
ATOM     34  C   UNL A   1      40.219  28.017  29.273  1.00  0.00     0.021 C 
BRANCH  34  35
ATOM     35  C   UNL A   1      40.210  29.337  28.516  1.00  0.00     0.116 C 
BRANCH  35  36
ATOM     36  N   UNL A   1      38.946  29.618  27.855  1.00  0.00    -0.352 N 
ATOM     37  C   UNL A   1      37.859  30.341  28.305  1.00  0.00     0.251 C 
ATOM     38  H   UNL A   1      38.850  29.235  26.952  1.00  0.00     0.163 HD
ATOM     39  O   UNL A   1      36.802  30.277  27.679  1.00  0.00    -0.269 OA
BRANCH  37  40
ATOM     40  C   UNL A   1      38.013  31.268  29.452  1.00  0.00     0.039 A 
ATOM     41  C   UNL A   1      38.271  32.617  29.176  1.00  0.00     0.014 A 
ATOM     42  C   UNL A   1      38.125  30.790  30.756  1.00  0.00     0.014 A 
ATOM     43  C   UNL A   1      38.879  33.416  30.141  1.00  0.00     0.010 A 
ATOM     44  C   UNL A   1      38.800  31.547  31.687  1.00  0.00     0.010 A 
ATOM     45  C   UNL A   1      39.237  32.831  31.352  1.00  0.00    -0.014 A 
BRANCH  45  46
ATOM     46  C   UNL A   1      40.131  33.436  32.322  1.00  0.00     0.031 A 
ATOM     47  C   UNL A   1      39.597  34.099  33.518  1.00  0.00     0.074 A 
ATOM     48  C   UNL A   1      41.457  33.205  32.195  1.00  0.00     0.049 A 
ATOM     49  N   UNL A   1      40.253  34.961  34.214  1.00  0.00    -0.248 NA
ATOM     50  C   UNL A   1      38.257  33.829  34.021  1.00  0.00     0.031 C 
ATOM     51  C   UNL A   1      42.489  33.365  33.210  1.00  0.00     0.029 A 
ATOM     52  N   UNL A   1      42.168  32.965  31.016  1.00  0.00    -0.354 N 
ATOM     53  C   UNL A   1      39.561  35.133  35.392  1.00  0.00     0.074 A 
ATOM     54  C   UNL A   1      38.289  34.476  35.190  1.00  0.00     0.031 C 
ATOM     55  C   UNL A   1      43.674  33.509  32.594  1.00  0.00     0.029 A 
ATOM     56  C   UNL A   1      43.399  33.624  31.172  1.00  0.00     0.049 A 
ATOM     57  H   UNL A   1      41.869  32.443  30.237  1.00  0.00     0.167 HD
ATOM     58  C   UNL A   1      40.203  35.643  36.480  1.00  0.00     0.034 A 
ATOM     59  C   UNL A   1      43.814  34.641  30.360  1.00  0.00     0.034 A 
ATOM     60  C   UNL A   1      41.603  35.954  36.175  1.00  0.00     0.049 A 
ATOM     61  C   UNL A   1      44.128  35.916  31.123  1.00  0.00     0.074 A 
ATOM     62  C   UNL A   1      42.784  35.252  36.369  1.00  0.00     0.029 A 
ATOM     63  N   UNL A   1      41.906  36.991  35.302  1.00  0.00    -0.354 N 
ATOM     64  N   UNL A   1      43.836  36.113  32.379  1.00  0.00    -0.248 NA
ATOM     65  C   UNL A   1      44.778  37.078  30.526  1.00  0.00     0.031 C 
ATOM     66  C   UNL A   1      43.790  35.845  35.564  1.00  0.00     0.029 A 
ATOM     67  C   UNL A   1      43.230  36.919  34.895  1.00  0.00     0.049 A 
ATOM     68  H   UNL A   1      41.268  37.682  35.011  1.00  0.00     0.167 HD
ATOM     69  C   UNL A   1      44.137  37.404  32.742  1.00  0.00     0.074 A 
ATOM     70  C   UNL A   1      44.790  37.940  31.559  1.00  0.00     0.031 C 
ATOM     71  C   UNL A   1      43.772  37.908  33.966  1.00  0.00     0.034 A 
BRANCH  58  72
ATOM     72  C   UNL A   1      39.662  35.481  37.886  1.00  0.00     0.023 A 
ATOM     73  C   UNL A   1      39.374  36.653  38.619  1.00  0.00     0.012 A 
ATOM     74  C   UNL A   1      39.486  34.256  38.568  1.00  0.00     0.148 A 
ATOM     75  C   UNL A   1      39.050  36.627  39.978  1.00  0.00     0.002 A 
ATOM     76  C   UNL A   1      39.237  34.231  39.943  1.00  0.00     0.091 A 
ATOM     77  F   UNL A   1      39.505  33.109  37.874  1.00  0.00    -0.205 F 
ATOM     78  C   UNL A   1      39.024  35.418  40.653  1.00  0.00     0.022 A 
BRANCH  76  79
ATOM     79  S   UNL A   1      39.321  32.710  40.906  1.00  0.00     0.127 S 
ATOM     80  O   UNL A   1      38.238  31.910  40.326  1.00  0.00    -0.237 OA
ATOM     81  O   UNL A   1      40.663  32.218  40.610  1.00  0.00    -0.237 OA
ATOM     82  O   UNL A   1      39.076  33.108  42.288  1.00  0.00    -0.744 OA
ENDBRANCH  76  79
ENDBRANCH  58  72
BRANCH  59  83
ATOM     83  C   UNL A   1      43.257  34.566  28.976  1.00  0.00     0.023 A 
ATOM     84  C   UNL A   1      42.221  35.479  28.655  1.00  0.00     0.012 A 
ATOM     85  C   UNL A   1      43.962  33.951  27.927  1.00  0.00     0.148 A 
ATOM     86  C   UNL A   1      42.004  35.888  27.339  1.00  0.00     0.002 A 
ATOM     87  C   UNL A   1      43.726  34.354  26.611  1.00  0.00     0.091 A 
ATOM     88  F   UNL A   1      44.899  33.043  28.226  1.00  0.00    -0.205 F 
ATOM     89  C   UNL A   1      42.784  35.353  26.321  1.00  0.00     0.022 A 
BRANCH  87  90
ATOM     90  S   UNL A   1      44.703  33.698  25.251  1.00  0.00     0.127 S 
ATOM     91  O   UNL A   1      44.002  34.247  24.095  1.00  0.00    -0.237 OA
ATOM     92  O   UNL A   1      46.024  34.275  25.496  1.00  0.00    -0.237 OA
ATOM     93  O   UNL A   1      44.644  32.254  25.424  1.00  0.00    -0.744 OA
ENDBRANCH  87  90
ENDBRANCH  59  83
BRANCH  71  94
ATOM     94  C   UNL A   1      43.867  39.358  34.437  1.00  0.00     0.023 A 
ATOM     95  C   UNL A   1      44.465  39.734  35.652  1.00  0.00     0.012 A 
ATOM     96  C   UNL A   1      43.451  40.428  33.592  1.00  0.00     0.148 A 
ATOM     97  C   UNL A   1      44.622  41.077  36.026  1.00  0.00     0.002 A 
ATOM     98  C   UNL A   1      43.712  41.758  33.916  1.00  0.00     0.091 A 
ATOM     99  F   UNL A   1      42.762  40.174  32.471  1.00  0.00    -0.205 F 
ATOM    100  C   UNL A   1      44.275  42.089  35.146  1.00  0.00     0.022 A 
BRANCH  98 101
ATOM    101  S   UNL A   1      43.473  43.074  32.711  1.00  0.00     0.127 S 
ATOM    102  O   UNL A   1      43.825  44.262  33.484  1.00  0.00    -0.237 OA
ATOM    103  O   UNL A   1      44.436  42.721  31.666  1.00  0.00    -0.237 OA
ATOM    104  O   UNL A   1      42.080  42.962  32.297  1.00  0.00    -0.744 OA
ENDBRANCH  98 101
ENDBRANCH  71  94
ENDBRANCH  45  46
ENDBRANCH  37  40
ENDBRANCH  35  36
ENDBRANCH  34  35
ENDBRANCH   1  34
TORSDOF 18
ENDMDL
MODEL 2
REMARK VINA RESULT:     -11.6      6.087     14.712
REMARK SMILES Cc1ccc(C(=O)NCCCCCCNC(=O)c2ccc(-c3c4nc(c(-c5cccc(S(=O)(=O)[O-])c5F)c5ccc([nH]5)c(-c5cccc(S(=O)(=O)[O-])c5F)c5nc(c(-c6cccc(S(=O)(=O)[O-])c6F)c6ccc3[nH]6)C=C5)C=C4)cc2)cc1N1C(=O)/C(=C\c2nc3ccccc3n2C)SC1=S
REMARK SMILES IDX 12 1 11 2 10 3 9 4 8 5 6 6 7 7 5 9 1 10 2 11 3 12 82 13 4 14
REMARK SMILES IDX 81 15 83 16 84 17 99 18 85 19 86 20 98 21 100 22 87 23 88 24
REMARK SMILES IDX 89 25 96 26 90 27 95 28 97 29 91 30 94 31 92 32 93 33 13 34
REMARK SMILES IDX 14 35 15 36 16 37 17 39 18 40 19 41 80 42 20 43 79 44 21 45
REMARK SMILES IDX 22 46 23 47 73 48 24 49 78 50 72 51 74 52 25 53 77 54 71 55
REMARK SMILES IDX 70 56 26 58 58 59 38 60 57 61 39 62 42 63 56 64 75 65 40 66
REMARK SMILES IDX 41 67 55 69 76 70 43 71 27 72 28 73 36 74 29 75 31 76 37 77
REMARK SMILES IDX 30 78 32 79 33 80 34 81 35 82 59 83 60 84 68 85 61 86 63 87
REMARK SMILES IDX 69 88 62 89 64 90 65 91 66 92 67 93 44 94 45 95 53 96 46 97
REMARK SMILES IDX 48 98 54 99 47 100 49 101 50 102 51 103 52 104
REMARK H PARENT 8 8 15 38 74 57 42 68
REMARK Flexibility Score: inf
ROOT
ATOM      1  C   UNL A   1      37.170  32.982  31.182  1.00  0.00     0.002 C 
ENDROOT
BRANCH   1   2
ATOM      2  C   UNL A   1      37.814  32.440  32.471  1.00  0.00     0.002 C 
BRANCH   2   3
ATOM      3  C   UNL A   1      37.885  33.418  33.655  1.00  0.00     0.021 C 
BRANCH   3   4
ATOM      4  C   UNL A   1      37.087  32.968  34.882  1.00  0.00     0.116 C 
BRANCH   4   5
ATOM      5  N   UNL A   1      37.584  31.700  35.385  1.00  0.00    -0.352 N 
ATOM      6  C   UNL A   1      37.983  31.276  36.625  1.00  0.00     0.251 C 
ATOM      7  O   UNL A   1      38.278  30.084  36.743  1.00  0.00    -0.269 OA
ATOM      8  H   UNL A   1      37.646  31.003  34.694  1.00  0.00     0.163 HD
BRANCH   6   9
ATOM      9  C   UNL A   1      38.018  32.144  37.839  1.00  0.00     0.041 A 
ATOM     10  C   UNL A   1      38.693  34.591  41.359  1.00  0.00     0.046 C 
ATOM     11  C   UNL A   1      38.362  33.756  40.152  1.00  0.00    -0.027 A 
ATOM     12  C   UNL A   1      39.170  33.934  39.017  1.00  0.00     0.006 A 
ATOM     13  C   UNL A   1      37.329  32.797  40.100  1.00  0.00     0.054 A 
ATOM     14  C   UNL A   1      39.018  33.121  37.891  1.00  0.00     0.014 A 
ATOM     15  C   UNL A   1      37.139  32.050  38.918  1.00  0.00     0.041 A 
BRANCH  13  16
ATOM     16  N   UNL A   1      36.595  32.408  41.262  1.00  0.00    -0.261 N 
ATOM     17  C   UNL A   1      35.584  33.249  41.722  1.00  0.00     0.270 C 
ATOM     18  C   UNL A   1      36.876  31.312  42.057  1.00  0.00     0.152 C 
ATOM     19  O   UNL A   1      35.434  34.429  41.432  1.00  0.00    -0.268 OA
ATOM     20  C   UNL A   1      34.773  32.548  42.764  1.00  0.00     0.084 C 
ATOM     21  S   UNL A   1      35.670  31.197  43.352  1.00  0.00    -0.054 SA
ATOM     22  S   UNL A   1      38.156  30.240  41.961  1.00  0.00    -0.051 S 
ATOM     23  C   UNL A   1      33.528  32.855  43.168  1.00  0.00     0.068 C 
BRANCH  23  24
ATOM     24  C   UNL A   1      32.757  33.819  42.467  1.00  0.00     0.134 A 
ATOM     25  N   UNL A   1      32.478  33.840  41.179  1.00  0.00    -0.229 NA
ATOM     26  N   UNL A   1      32.202  34.921  43.088  1.00  0.00    -0.328 N 
ATOM     27  C   UNL A   1      32.016  35.101  40.922  1.00  0.00     0.089 A 
ATOM     28  C   UNL A   1      31.849  35.820  42.102  1.00  0.00     0.068 A 
ATOM     29  C   UNL A   1      32.032  35.125  44.507  1.00  0.00     0.152 C 
ATOM     30  C   UNL A   1      31.746  35.709  39.689  1.00  0.00     0.030 A 
ATOM     31  C   UNL A   1      31.428  37.156  42.109  1.00  0.00     0.028 A 
ATOM     32  C   UNL A   1      31.346  37.049  39.673  1.00  0.00     0.002 A 
ATOM     33  C   UNL A   1      31.194  37.759  40.866  1.00  0.00     0.002 A 
ENDBRANCH  23  24
ENDBRANCH  13  16
ENDBRANCH   6   9
ENDBRANCH   4   5
ENDBRANCH   3   4
ENDBRANCH   2   3
ENDBRANCH   1   2
BRANCH   1  34
ATOM     34  C   UNL A   1      35.803  32.400  30.820  1.00  0.00     0.021 C 
BRANCH  34  35
ATOM     35  C   UNL A   1      35.549  32.313  29.322  1.00  0.00     0.116 C 
BRANCH  35  36
ATOM     36  N   UNL A   1      35.084  31.005  28.887  1.00  0.00    -0.352 N 
ATOM     37  C   UNL A   1      35.806  29.931  28.407  1.00  0.00     0.251 C 
ATOM     38  H   UNL A   1      34.111  30.866  28.943  1.00  0.00     0.163 HD
ATOM     39  O   UNL A   1      35.200  28.993  27.889  1.00  0.00    -0.269 OA
BRANCH  37  40
ATOM     40  C   UNL A   1      37.271  29.866  28.627  1.00  0.00     0.039 A 
ATOM     41  C   UNL A   1      38.104  29.872  27.500  1.00  0.00     0.014 A 
ATOM     42  C   UNL A   1      37.800  29.581  29.883  1.00  0.00     0.014 A 
ATOM     43  C   UNL A   1      39.393  29.351  27.592  1.00  0.00     0.010 A 
ATOM     44  C   UNL A   1      39.040  28.988  29.965  1.00  0.00     0.010 A 
ATOM     45  C   UNL A   1      39.802  28.812  28.807  1.00  0.00    -0.014 A 
BRANCH  45  46
ATOM     46  C   UNL A   1      40.975  27.975  28.980  1.00  0.00     0.031 A 
ATOM     47  C   UNL A   1      40.899  26.527  28.745  1.00  0.00     0.074 A 
ATOM     48  C   UNL A   1      42.167  28.581  29.170  1.00  0.00     0.049 A 
ATOM     49  N   UNL A   1      41.743  25.677  29.219  1.00  0.00    -0.248 NA
ATOM     50  C   UNL A   1      39.842  25.926  27.943  1.00  0.00     0.031 C 
ATOM     51  C   UNL A   1      43.495  28.009  28.991  1.00  0.00     0.029 A 
ATOM     52  N   UNL A   1      42.404  29.816  29.778  1.00  0.00    -0.354 N 
ATOM     53  C   UNL A   1      41.525  24.488  28.560  1.00  0.00     0.074 A 
ATOM     54  C   UNL A   1      40.282  24.669  27.842  1.00  0.00     0.031 C 
ATOM     55  C   UNL A   1      44.369  28.726  29.715  1.00  0.00     0.029 A 
ATOM     56  C   UNL A   1      43.592  29.658  30.513  1.00  0.00     0.049 A 
ATOM     57  H   UNL A   1      41.853  30.629  29.707  1.00  0.00     0.167 HD
ATOM     58  C   UNL A   1      42.508  23.545  28.533  1.00  0.00     0.034 A 
ATOM     59  C   UNL A   1      43.657  29.793  31.870  1.00  0.00     0.034 A 
ATOM     60  C   UNL A   1      43.692  23.989  29.275  1.00  0.00     0.049 A 
ATOM     61  C   UNL A   1      44.198  28.554  32.563  1.00  0.00     0.074 A 
ATOM     62  C   UNL A   1      44.878  24.589  28.877  1.00  0.00     0.029 A 
ATOM     63  N   UNL A   1      43.631  24.127  30.656  1.00  0.00    -0.354 N 
ATOM     64  N   UNL A   1      44.381  27.403  31.975  1.00  0.00    -0.248 NA
ATOM     65  C   UNL A   1      44.558  28.507  33.975  1.00  0.00     0.031 C 
ATOM     66  C   UNL A   1      45.507  25.134  30.026  1.00  0.00     0.029 A 
ATOM     67  C   UNL A   1      44.716  24.852  31.126  1.00  0.00     0.049 A 
ATOM     68  H   UNL A   1      42.915  23.760  31.224  1.00  0.00     0.167 HD
ATOM     69  C   UNL A   1      44.762  26.454  32.892  1.00  0.00     0.074 A 
ATOM     70  C   UNL A   1      44.926  27.221  34.117  1.00  0.00     0.031 C 
ATOM     71  C   UNL A   1      44.858  25.127  32.553  1.00  0.00     0.034 A 
BRANCH  58  72
ATOM     72  C   UNL A   1      42.521  22.422  27.517  1.00  0.00     0.023 A 
ATOM     73  C   UNL A   1      41.647  21.333  27.727  1.00  0.00     0.012 A 
ATOM     74  C   UNL A   1      43.388  22.324  26.405  1.00  0.00     0.148 A 
ATOM     75  C   UNL A   1      41.707  20.165  26.964  1.00  0.00     0.002 A 
ATOM     76  C   UNL A   1      43.502  21.129  25.689  1.00  0.00     0.091 A 
ATOM     77  F   UNL A   1      44.067  23.407  26.003  1.00  0.00    -0.205 F 
ATOM     78  C   UNL A   1      42.664  20.044  25.970  1.00  0.00     0.022 A 
BRANCH  76  79
ATOM     79  S   UNL A   1      44.809  20.856  24.478  1.00  0.00     0.127 S 
ATOM     80  O   UNL A   1      46.018  20.898  25.305  1.00  0.00    -0.237 OA
ATOM     81  O   UNL A   1      44.483  19.535  23.949  1.00  0.00    -0.237 OA
ATOM     82  O   UNL A   1      44.706  21.965  23.536  1.00  0.00    -0.744 OA
ENDBRANCH  76  79
ENDBRANCH  58  72
BRANCH  59  83
ATOM     83  C   UNL A   1      42.635  30.729  32.429  1.00  0.00     0.023 A 
ATOM     84  C   UNL A   1      41.485  30.142  33.012  1.00  0.00     0.012 A 
ATOM     85  C   UNL A   1      42.948  32.061  32.749  1.00  0.00     0.148 A 
ATOM     86  C   UNL A   1      40.764  30.805  34.007  1.00  0.00     0.002 A 
ATOM     87  C   UNL A   1      42.211  32.723  33.733  1.00  0.00     0.091 A 
ATOM     88  F   UNL A   1      43.999  32.638  32.153  1.00  0.00    -0.205 F 
ATOM     89  C   UNL A   1      41.151  32.082  34.393  1.00  0.00     0.022 A 
BRANCH  87  90
ATOM     90  S   UNL A   1      42.664  34.377  34.275  1.00  0.00     0.127 S 
ATOM     91  O   UNL A   1      41.644  34.644  35.284  1.00  0.00    -0.237 OA
ATOM     92  O   UNL A   1      44.013  34.183  34.806  1.00  0.00    -0.237 OA
ATOM     93  O   UNL A   1      42.611  35.184  33.066  1.00  0.00    -0.744 OA
ENDBRANCH  87  90
ENDBRANCH  59  83
BRANCH  71  94
ATOM     94  C   UNL A   1      45.085  23.945  33.493  1.00  0.00     0.023 A 
ATOM     95  C   UNL A   1      44.109  22.964  33.744  1.00  0.00     0.012 A 
ATOM     96  C   UNL A   1      46.363  23.713  34.079  1.00  0.00     0.148 A 
ATOM     97  C   UNL A   1      44.365  21.839  34.541  1.00  0.00     0.002 A 
ATOM     98  C   UNL A   1      46.646  22.538  34.774  1.00  0.00     0.091 A 
ATOM     99  F   UNL A   1      47.321  24.647  34.001  1.00  0.00    -0.205 F 
ATOM    100  C   UNL A   1      45.641  21.609  35.030  1.00  0.00     0.022 A 
BRANCH  98 101
ATOM    101  S   UNL A   1      48.333  22.111  35.233  1.00  0.00     0.127 S 
ATOM    102  O   UNL A   1      48.705  23.228  36.098  1.00  0.00    -0.237 OA
ATOM    103  O   UNL A   1      48.155  20.835  35.930  1.00  0.00    -0.237 OA
ATOM    104  O   UNL A   1      49.055  22.003  33.972  1.00  0.00    -0.744 OA
ENDBRANCH  98 101
ENDBRANCH  71  94
ENDBRANCH  45  46
ENDBRANCH  37  40
ENDBRANCH  35  36
ENDBRANCH  34  35
ENDBRANCH   1  34
TORSDOF 18
ENDMDL
MODEL 3
REMARK VINA RESULT:     -11.6      8.024     14.867
REMARK SMILES Cc1ccc(C(=O)NCCCCCCNC(=O)c2ccc(-c3c4nc(c(-c5cccc(S(=O)(=O)[O-])c5F)c5ccc([nH]5)c(-c5cccc(S(=O)(=O)[O-])c5F)c5nc(c(-c6cccc(S(=O)(=O)[O-])c6F)c6ccc3[nH]6)C=C5)C=C4)cc2)cc1N1C(=O)/C(=C\c2nc3ccccc3n2C)SC1=S
REMARK SMILES IDX 12 1 11 2 10 3 9 4 8 5 6 6 7 7 5 9 1 10 2 11 3 12 82 13 4 14
REMARK SMILES IDX 81 15 83 16 84 17 99 18 85 19 86 20 98 21 100 22 87 23 88 24
REMARK SMILES IDX 89 25 96 26 90 27 95 28 97 29 91 30 94 31 92 32 93 33 13 34
REMARK SMILES IDX 14 35 15 36 16 37 17 39 18 40 19 41 80 42 20 43 79 44 21 45
REMARK SMILES IDX 22 46 23 47 73 48 24 49 78 50 72 51 74 52 25 53 77 54 71 55
REMARK SMILES IDX 70 56 26 58 58 59 38 60 57 61 39 62 42 63 56 64 75 65 40 66
REMARK SMILES IDX 41 67 55 69 76 70 43 71 27 72 28 73 36 74 29 75 31 76 37 77
REMARK SMILES IDX 30 78 32 79 33 80 34 81 35 82 59 83 60 84 68 85 61 86 63 87
REMARK SMILES IDX 69 88 62 89 64 90 65 91 66 92 67 93 44 94 45 95 53 96 46 97
REMARK SMILES IDX 48 98 54 99 47 100 49 101 50 102 51 103 52 104
REMARK H PARENT 8 8 15 38 74 57 42 68
REMARK Flexibility Score: inf
ROOT
ATOM      1  C   UNL A   1      41.365  29.000  27.802  1.00  0.00     0.002 C 
ENDROOT
BRANCH   1   2
ATOM      2  C   UNL A   1      42.587  28.673  28.680  1.00  0.00     0.002 C 
BRANCH   2   3
ATOM      3  C   UNL A   1      43.930  29.259  28.216  1.00  0.00     0.021 C 
BRANCH   3   4
ATOM      4  C   UNL A   1      43.969  29.627  26.731  1.00  0.00     0.116 C 
BRANCH   4   5
ATOM      5  N   UNL A   1      45.214  30.294  26.396  1.00  0.00    -0.352 N 
ATOM      6  C   UNL A   1      45.587  31.611  26.344  1.00  0.00     0.251 C 
ATOM      7  O   UNL A   1      46.771  31.851  26.099  1.00  0.00    -0.269 OA
ATOM      8  H   UNL A   1      45.938  29.672  26.157  1.00  0.00     0.163 HD
BRANCH   6   9
ATOM      9  C   UNL A   1      44.670  32.755  26.625  1.00  0.00     0.041 A 
ATOM     10  C   UNL A   1      42.332  36.383  27.079  1.00  0.00     0.046 C 
ATOM     11  C   UNL A   1      43.085  35.083  26.990  1.00  0.00    -0.027 A 
ATOM     12  C   UNL A   1      43.449  34.648  25.705  1.00  0.00     0.006 A 
ATOM     13  C   UNL A   1      43.470  34.304  28.100  1.00  0.00     0.054 A 
ATOM     14  C   UNL A   1      44.253  33.519  25.530  1.00  0.00     0.014 A 
ATOM     15  C   UNL A   1      44.206  33.119  27.890  1.00  0.00     0.041 A 
BRANCH  13  16
ATOM     16  N   UNL A   1      43.322  34.769  29.443  1.00  0.00    -0.261 N 
ATOM     17  C   UNL A   1      42.160  34.438  30.137  1.00  0.00     0.270 C 
ATOM     18  C   UNL A   1      44.186  35.632  30.092  1.00  0.00     0.152 C 
ATOM     19  O   UNL A   1      41.109  34.044  29.645  1.00  0.00    -0.268 OA
ATOM     20  C   UNL A   1      42.314  34.781  31.583  1.00  0.00     0.084 C 
ATOM     21  S   UNL A   1      43.627  35.886  31.756  1.00  0.00    -0.054 SA
ATOM     22  S   UNL A   1      45.527  36.430  29.493  1.00  0.00    -0.051 S 
ATOM     23  C   UNL A   1      41.604  34.292  32.615  1.00  0.00     0.068 C 
BRANCH  23  24
ATOM     24  C   UNL A   1      40.713  33.204  32.428  1.00  0.00     0.134 A 
ATOM     25  N   UNL A   1      41.020  31.927  32.308  1.00  0.00    -0.229 NA
ATOM     26  N   UNL A   1      39.346  33.372  32.321  1.00  0.00    -0.328 N 
ATOM     27  C   UNL A   1      39.896  31.322  31.818  1.00  0.00     0.089 A 
ATOM     28  C   UNL A   1      38.824  32.209  31.792  1.00  0.00     0.068 A 
ATOM     29  C   UNL A   1      38.585  34.547  32.673  1.00  0.00     0.152 C 
ATOM     30  C   UNL A   1      39.733  30.013  31.344  1.00  0.00     0.030 A 
ATOM     31  C   UNL A   1      37.568  31.847  31.289  1.00  0.00     0.028 A 
ATOM     32  C   UNL A   1      38.493  29.639  30.817  1.00  0.00     0.002 A 
ATOM     33  C   UNL A   1      37.431  30.545  30.789  1.00  0.00     0.002 A 
ENDBRANCH  23  24
ENDBRANCH  13  16
ENDBRANCH   6   9
ENDBRANCH   4   5
ENDBRANCH   3   4
ENDBRANCH   2   3
ENDBRANCH   1   2
BRANCH   1  34
ATOM     34  C   UNL A   1      40.139  28.107  28.000  1.00  0.00     0.021 C 
BRANCH  34  35
ATOM     35  C   UNL A   1      40.352  26.986  29.006  1.00  0.00     0.116 C 
BRANCH  35  36
ATOM     36  N   UNL A   1      39.724  25.732  28.619  1.00  0.00    -0.352 N 
ATOM     37  C   UNL A   1      40.249  24.666  27.916  1.00  0.00     0.251 C 
ATOM     38  H   UNL A   1      38.786  25.629  28.900  1.00  0.00     0.163 HD
ATOM     39  O   UNL A   1      39.487  23.793  27.505  1.00  0.00    -0.269 OA
BRANCH  37  40
ATOM     40  C   UNL A   1      41.719  24.527  27.772  1.00  0.00     0.039 A 
ATOM     41  C   UNL A   1      42.390  23.688  28.670  1.00  0.00     0.014 A 
ATOM     42  C   UNL A   1      42.443  25.367  26.929  1.00  0.00     0.014 A 
ATOM     43  C   UNL A   1      43.751  23.871  28.902  1.00  0.00     0.010 A 
ATOM     44  C   UNL A   1      43.769  25.611  27.210  1.00  0.00     0.010 A 
ATOM     45  C   UNL A   1      44.398  24.911  28.243  1.00  0.00    -0.014 A 
BRANCH  45  46
ATOM     46  C   UNL A   1      45.713  25.414  28.598  1.00  0.00     0.031 A 
ATOM     47  C   UNL A   1      46.887  25.069  27.787  1.00  0.00     0.074 A 
ATOM     48  C   UNL A   1      45.794  26.353  29.566  1.00  0.00     0.049 A 
ATOM     49  N   UNL A   1      48.101  25.145  28.213  1.00  0.00    -0.248 NA
ATOM     50  C   UNL A   1      46.771  24.605  26.411  1.00  0.00     0.031 C 
ATOM     51  C   UNL A   1      46.899  27.264  29.832  1.00  0.00     0.029 A 
ATOM     52  N   UNL A   1      44.939  26.524  30.657  1.00  0.00    -0.354 N 
ATOM     53  C   UNL A   1      48.918  25.032  27.111  1.00  0.00     0.074 A 
ATOM     54  C   UNL A   1      48.052  24.614  26.031  1.00  0.00     0.031 C 
ATOM     55  C   UNL A   1      46.816  27.676  31.107  1.00  0.00     0.029 A 
ATOM     56  C   UNL A   1      45.761  26.897  31.734  1.00  0.00     0.049 A 
ATOM     57  H   UNL A   1      43.961  26.407  30.670  1.00  0.00     0.167 HD
ATOM     58  C   UNL A   1      50.201  25.487  27.176  1.00  0.00     0.034 A 
ATOM     59  C   UNL A   1      45.889  26.156  32.873  1.00  0.00     0.034 A 
ATOM     60  C   UNL A   1      50.505  26.033  28.503  1.00  0.00     0.049 A 
ATOM     61  C   UNL A   1      47.326  25.758  33.163  1.00  0.00     0.074 A 
ATOM     62  C   UNL A   1      50.497  27.324  29.009  1.00  0.00     0.029 A 
ATOM     63  N   UNL A   1      50.572  25.185  29.601  1.00  0.00    -0.354 N 
ATOM     64  N   UNL A   1      48.314  25.907  32.324  1.00  0.00    -0.248 NA
ATOM     65  C   UNL A   1      47.760  25.144  34.413  1.00  0.00     0.031 C 
ATOM     66  C   UNL A   1      50.509  27.246  30.426  1.00  0.00     0.029 A 
ATOM     67  C   UNL A   1      50.543  25.909  30.784  1.00  0.00     0.049 A 
ATOM     68  H   UNL A   1      50.631  24.204  29.547  1.00  0.00     0.167 HD
ATOM     69  C   UNL A   1      49.459  25.342  32.831  1.00  0.00     0.074 A 
ATOM     70  C   UNL A   1      49.068  24.942  34.174  1.00  0.00     0.031 C 
ATOM     71  C   UNL A   1      50.597  25.223  32.071  1.00  0.00     0.034 A 
BRANCH  58  72
ATOM     72  C   UNL A   1      51.017  25.782  25.935  1.00  0.00     0.023 A 
ATOM     73  C   UNL A   1      52.179  25.010  25.712  1.00  0.00     0.012 A 
ATOM     74  C   UNL A   1      50.765  26.817  25.007  1.00  0.00     0.148 A 
ATOM     75  C   UNL A   1      53.101  25.316  24.708  1.00  0.00     0.002 A 
ATOM     76  C   UNL A   1      51.722  27.172  24.052  1.00  0.00     0.091 A 
ATOM     77  F   UNL A   1      49.572  27.428  25.012  1.00  0.00    -0.205 F 
ATOM     78  C   UNL A   1      52.895  26.425  23.904  1.00  0.00     0.022 A 
BRANCH  76  79
ATOM     79  S   UNL A   1      51.583  28.674  23.066  1.00  0.00     0.127 S 
ATOM     80  O   UNL A   1      51.511  29.718  24.092  1.00  0.00    -0.237 OA
ATOM     81  O   UNL A   1      52.823  28.666  22.295  1.00  0.00    -0.237 OA
ATOM     82  O   UNL A   1      50.352  28.525  22.298  1.00  0.00    -0.744 OA
ENDBRANCH  76  79
ENDBRANCH  58  72
BRANCH  59  83
ATOM     83  C   UNL A   1      44.676  25.346  33.198  1.00  0.00     0.023 A 
ATOM     84  C   UNL A   1      44.756  23.952  32.951  1.00  0.00     0.012 A 
ATOM     85  C   UNL A   1      43.681  25.820  34.069  1.00  0.00     0.148 A 
ATOM     86  C   UNL A   1      43.977  23.047  33.674  1.00  0.00     0.002 A 
ATOM     87  C   UNL A   1      42.893  24.908  34.775  1.00  0.00     0.091 A 
ATOM     88  F   UNL A   1      43.564  27.140  34.257  1.00  0.00    -0.205 F 
ATOM     89  C   UNL A   1      43.072  23.525  34.614  1.00  0.00     0.022 A 
BRANCH  87  90
ATOM     90  S   UNL A   1      41.706  25.465  36.005  1.00  0.00     0.127 S 
ATOM     91  O   UNL A   1      42.572  26.155  36.956  1.00  0.00    -0.237 OA
ATOM     92  O   UNL A   1      40.828  26.342  35.230  1.00  0.00    -0.237 OA
ATOM     93  O   UNL A   1      41.065  24.245  36.472  1.00  0.00    -0.744 OA
ENDBRANCH  87  90
ENDBRANCH  59  83
BRANCH  71  94
ATOM     94  C   UNL A   1      51.872  24.460  32.426  1.00  0.00     0.023 A 
ATOM     95  C   UNL A   1      53.145  25.056  32.440  1.00  0.00     0.012 A 
ATOM     96  C   UNL A   1      51.812  23.112  32.884  1.00  0.00     0.148 A 
ATOM     97  C   UNL A   1      54.292  24.363  32.854  1.00  0.00     0.002 A 
ATOM     98  C   UNL A   1      52.934  22.466  33.401  1.00  0.00     0.091 A 
ATOM     99  F   UNL A   1      50.669  22.419  32.794  1.00  0.00    -0.205 F 
ATOM    100  C   UNL A   1      54.183  23.079  33.364  1.00  0.00     0.022 A 
BRANCH  98 101
ATOM    101  S   UNL A   1      52.787  20.892  34.262  1.00  0.00     0.127 S 
ATOM    102  O   UNL A   1      52.475  21.319  35.624  1.00  0.00    -0.237 OA
ATOM    103  O   UNL A   1      51.675  20.251  33.556  1.00  0.00    -0.237 OA
ATOM    104  O   UNL A   1      54.071  20.232  34.070  1.00  0.00    -0.744 OA
ENDBRANCH  98 101
ENDBRANCH  71  94
ENDBRANCH  45  46
ENDBRANCH  37  40
ENDBRANCH  35  36
ENDBRANCH  34  35
ENDBRANCH   1  34
TORSDOF 18
ENDMDL
