MODEL 1
REMARK VINA RESULT:     -12.9      0.000      0.000
REMARK SMILES C[C@H](c1ccc(C(=O)NCCCCCCNC(=O)c2ccc(-c3c4nc(c(-c5cccc(S(=O)(=O)[O-])c5F)c5ccc([nH]5)c(-c5cccc(S(=O)(=O)[O-])c5F)c5nc(c(-c6cccc(S(=O)(=O)[O-])c6F)c6ccc3[nH]6)C=C5)C=C4)cc2)o1)[NH+]1Cc2ccccc2C1
REMARK SMILES IDX 13 1 12 2 11 3 10 4 9 5 7 6 8 7 6 9 3 10 4 11 82 12 5 13
REMARK SMILES IDX 2 14 1 15 83 16 84 17 91 18 85 20 90 21 86 22 89 23 87 24
REMARK SMILES IDX 88 25 14 26 15 27 16 28 17 29 18 31 19 32 20 33 81 34 21 35
REMARK SMILES IDX 80 36 22 37 23 38 24 39 74 40 25 41 79 42 73 43 75 44 26 45
REMARK SMILES IDX 78 46 72 47 71 48 27 50 59 51 39 52 58 53 40 54 43 55 57 56
REMARK SMILES IDX 76 57 41 58 42 59 56 61 77 62 44 63 28 64 29 65 37 66 30 67
REMARK SMILES IDX 32 68 38 69 31 70 33 71 34 72 35 73 36 74 60 75 61 76 69 77
REMARK SMILES IDX 62 78 64 79 70 80 63 81 65 82 66 83 67 84 68 85 45 86 46 87
REMARK SMILES IDX 54 88 47 89 49 90 55 91 48 92 50 93 51 94 52 95 53 96
REMARK H PARENT 9 8 83 19 16 30 75 49 43 60
REMARK Flexibility Score: inf
ROOT
ATOM      1  C   UNL A   1      35.217  20.772  24.942  1.00  0.00     0.002 C 
ENDROOT
BRANCH   1   2
ATOM      2  C   UNL A   1      34.020  20.856  25.898  1.00  0.00     0.002 C 
BRANCH   2   3
ATOM      3  C   UNL A   1      32.703  20.326  25.317  1.00  0.00     0.021 C 
BRANCH   3   4
ATOM      4  C   UNL A   1      31.740  21.442  24.916  1.00  0.00     0.116 C 
BRANCH   4   5
ATOM      5  N   UNL A   1      30.894  21.811  26.031  1.00  0.00    -0.349 N 
ATOM      6  C   UNL A   1      30.728  23.024  26.656  1.00  0.00     0.287 C 
ATOM      7  O   UNL A   1      29.865  23.065  27.537  1.00  0.00    -0.266 OA
ATOM      8  H   UNL A   1      30.351  21.076  26.400  1.00  0.00     0.163 HD
BRANCH   6   9
ATOM      9  C   UNL A   1      31.536  24.168  26.279  1.00  0.00     0.191 A 
ATOM     10  C   UNL A   1      31.790  26.221  25.488  1.00  0.00     0.162 A 
ATOM     11  C   UNL A   1      33.043  25.791  25.874  1.00  0.00     0.053 A 
ATOM     12  O   UNL A   1      30.877  25.235  25.716  1.00  0.00    -0.450 OA
ATOM     13  C   UNL A   1      32.874  24.498  26.408  1.00  0.00     0.057 A 
BRANCH  10  14
ATOM     14  C   UNL A   1      31.246  27.577  25.124  1.00  0.00     0.248 C 
ATOM     15  C   UNL A   1      31.740  28.524  26.250  1.00  0.00     0.084 C 
BRANCH  14  16
ATOM     16  N   UNL A   1      31.362  28.001  23.687  1.00  0.00    -0.319 N 
ATOM     17  C   UNL A   1      31.295  29.474  23.439  1.00  0.00     0.300 C 
ATOM     18  C   UNL A   1      30.217  27.504  22.869  1.00  0.00     0.300 C 
ATOM     19  H   UNL A   1      32.275  27.622  23.438  1.00  0.00     0.349 HD
ATOM     20  C   UNL A   1      29.831  29.765  23.328  1.00  0.00     0.015 A 
ATOM     21  C   UNL A   1      29.174  28.568  23.025  1.00  0.00     0.015 A 
ATOM     22  C   UNL A   1      29.135  30.939  23.542  1.00  0.00     0.010 A 
ATOM     23  C   UNL A   1      27.797  28.493  23.003  1.00  0.00     0.010 A 
ATOM     24  C   UNL A   1      27.741  30.876  23.524  1.00  0.00     0.001 A 
ATOM     25  C   UNL A   1      27.077  29.660  23.276  1.00  0.00     0.001 A 
ENDBRANCH  14  16
ENDBRANCH  10  14
ENDBRANCH   6   9
ENDBRANCH   4   5
ENDBRANCH   3   4
ENDBRANCH   2   3
ENDBRANCH   1   2
BRANCH   1  26
ATOM     26  C   UNL A   1      35.756  22.127  24.475  1.00  0.00     0.021 C 
BRANCH  26  27
ATOM     27  C   UNL A   1      37.252  22.297  24.703  1.00  0.00     0.116 C 
BRANCH  27  28
ATOM     28  N   UNL A   1      37.851  21.073  25.220  1.00  0.00    -0.352 N 
ATOM     29  C   UNL A   1      39.028  20.926  25.909  1.00  0.00     0.251 C 
ATOM     30  H   UNL A   1      37.345  20.245  25.053  1.00  0.00     0.163 HD
ATOM     31  O   UNL A   1      39.529  19.815  26.065  1.00  0.00    -0.269 OA
BRANCH  29  32
ATOM     32  C   UNL A   1      39.681  22.130  26.455  1.00  0.00     0.039 A 
ATOM     33  C   UNL A   1      40.891  22.009  27.143  1.00  0.00     0.014 A 
ATOM     34  C   UNL A   1      39.102  23.383  26.243  1.00  0.00     0.014 A 
ATOM     35  C   UNL A   1      41.551  23.161  27.575  1.00  0.00     0.010 A 
ATOM     36  C   UNL A   1      39.798  24.528  26.601  1.00  0.00     0.010 A 
ATOM     37  C   UNL A   1      41.023  24.428  27.281  1.00  0.00    -0.014 A 
BRANCH  37  38
ATOM     38  C   UNL A   1      41.701  25.682  27.692  1.00  0.00     0.031 A 
ATOM     39  C   UNL A   1      40.922  26.723  28.448  1.00  0.00     0.074 A 
ATOM     40  C   UNL A   1      42.957  25.938  27.279  1.00  0.00     0.049 A 
ATOM     41  N   UNL A   1      41.254  27.950  28.745  1.00  0.00    -0.248 NA
ATOM     42  C   UNL A   1      39.569  26.341  28.895  1.00  0.00     0.031 C 
ATOM     43  C   UNL A   1      43.796  25.028  26.497  1.00  0.00     0.029 A 
ATOM     44  N   UNL A   1      43.734  27.060  27.427  1.00  0.00    -0.354 N 
ATOM     45  C   UNL A   1      40.140  28.502  29.367  1.00  0.00     0.074 A 
ATOM     46  C   UNL A   1      39.110  27.486  29.375  1.00  0.00     0.031 C 
ATOM     47  C   UNL A   1      44.965  25.631  26.225  1.00  0.00     0.029 A 
ATOM     48  C   UNL A   1      44.942  26.984  26.773  1.00  0.00     0.049 A 
ATOM     49  H   UNL A   1      43.453  27.845  27.951  1.00  0.00     0.167 HD
ATOM     50  C   UNL A   1      39.993  29.736  29.902  1.00  0.00     0.034 A 
ATOM     51  C   UNL A   1      45.910  27.907  26.613  1.00  0.00     0.034 A 
ATOM     52  C   UNL A   1      41.035  30.725  29.926  1.00  0.00     0.049 A 
ATOM     53  C   UNL A   1      45.732  29.268  27.235  1.00  0.00     0.074 A 
ATOM     54  C   UNL A   1      41.018  31.978  30.511  1.00  0.00     0.029 A 
ATOM     55  N   UNL A   1      42.279  30.574  29.334  1.00  0.00    -0.354 N 
ATOM     56  N   UNL A   1      44.718  29.733  27.924  1.00  0.00    -0.248 NA
ATOM     57  C   UNL A   1      46.842  30.220  27.085  1.00  0.00     0.031 C 
ATOM     58  C   UNL A   1      42.241  32.599  30.245  1.00  0.00     0.029 A 
ATOM     59  C   UNL A   1      43.037  31.714  29.534  1.00  0.00     0.049 A 
ATOM     60  H   UNL A   1      42.580  29.775  28.844  1.00  0.00     0.167 HD
ATOM     61  C   UNL A   1      45.089  31.008  28.335  1.00  0.00     0.074 A 
ATOM     62  C   UNL A   1      46.421  31.242  27.819  1.00  0.00     0.031 C 
ATOM     63  C   UNL A   1      44.388  31.904  29.072  1.00  0.00     0.034 A 
BRANCH  50  64
ATOM     64  C   UNL A   1      38.670  30.074  30.535  1.00  0.00     0.023 A 
ATOM     65  C   UNL A   1      38.388  29.639  31.847  1.00  0.00     0.012 A 
ATOM     66  C   UNL A   1      37.724  30.863  29.853  1.00  0.00     0.148 A 
ATOM     67  C   UNL A   1      37.170  29.946  32.452  1.00  0.00     0.002 A 
ATOM     68  C   UNL A   1      36.535  31.210  30.483  1.00  0.00     0.091 A 
ATOM     69  F   UNL A   1      38.000  31.251  28.599  1.00  0.00    -0.205 F 
ATOM     70  C   UNL A   1      36.250  30.740  31.775  1.00  0.00     0.022 A 
BRANCH  68  71
ATOM     71  S   UNL A   1      35.321  32.297  29.728  1.00  0.00     0.127 S 
ATOM     72  O   UNL A   1      34.376  32.493  30.827  1.00  0.00    -0.237 OA
ATOM     73  O   UNL A   1      36.126  33.474  29.400  1.00  0.00    -0.237 OA
ATOM     74  O   UNL A   1      34.796  31.578  28.576  1.00  0.00    -0.744 OA
ENDBRANCH  68  71
ENDBRANCH  50  64
BRANCH  51  75
ATOM     75  C   UNL A   1      47.157  27.565  25.872  1.00  0.00     0.023 A 
ATOM     76  C   UNL A   1      48.238  26.991  26.568  1.00  0.00     0.012 A 
ATOM     77  C   UNL A   1      47.272  27.785  24.486  1.00  0.00     0.148 A 
ATOM     78  C   UNL A   1      49.426  26.678  25.906  1.00  0.00     0.002 A 
ATOM     79  C   UNL A   1      48.437  27.420  23.822  1.00  0.00     0.091 A 
ATOM     80  F   UNL A   1      46.234  28.338  23.842  1.00  0.00    -0.205 F 
ATOM     81  C   UNL A   1      49.523  26.885  24.533  1.00  0.00     0.022 A 
BRANCH  79  82
ATOM     82  S   UNL A   1      48.607  27.533  22.037  1.00  0.00     0.127 S 
ATOM     83  O   UNL A   1      49.833  28.314  21.902  1.00  0.00    -0.237 OA
ATOM     84  O   UNL A   1      48.727  26.125  21.658  1.00  0.00    -0.237 OA
ATOM     85  O   UNL A   1      47.390  28.182  21.565  1.00  0.00    -0.744 OA
ENDBRANCH  79  82
ENDBRANCH  51  75
BRANCH  63  86
ATOM     86  C   UNL A   1      45.062  33.197  29.445  1.00  0.00     0.023 A 
ATOM     87  C   UNL A   1      45.845  33.283  30.610  1.00  0.00     0.012 A 
ATOM     88  C   UNL A   1      45.003  34.297  28.564  1.00  0.00     0.148 A 
ATOM     89  C   UNL A   1      46.545  34.453  30.906  1.00  0.00     0.002 A 
ATOM     90  C   UNL A   1      45.746  35.439  28.837  1.00  0.00     0.091 A 
ATOM     91  F   UNL A   1      44.236  34.198  27.469  1.00  0.00    -0.205 F 
ATOM     92  C   UNL A   1      46.507  35.522  30.012  1.00  0.00     0.022 A 
BRANCH  90  93
ATOM     93  S   UNL A   1      45.843  36.821  27.695  1.00  0.00     0.127 S 
ATOM     94  O   UNL A   1      46.810  37.690  28.362  1.00  0.00    -0.237 OA
ATOM     95  O   UNL A   1      46.337  36.178  26.476  1.00  0.00    -0.237 OA
ATOM     96  O   UNL A   1      44.493  37.357  27.592  1.00  0.00    -0.744 OA
ENDBRANCH  90  93
ENDBRANCH  63  86
ENDBRANCH  37  38
ENDBRANCH  29  32
ENDBRANCH  27  28
ENDBRANCH  26  27
ENDBRANCH   1  26
TORSDOF 18
ENDMDL
MODEL 2
REMARK VINA RESULT:     -12.8      5.183     10.416
REMARK SMILES C[C@H](c1ccc(C(=O)NCCCCCCNC(=O)c2ccc(-c3c4nc(c(-c5cccc(S(=O)(=O)[O-])c5F)c5ccc([nH]5)c(-c5cccc(S(=O)(=O)[O-])c5F)c5nc(c(-c6cccc(S(=O)(=O)[O-])c6F)c6ccc3[nH]6)C=C5)C=C4)cc2)o1)[NH+]1Cc2ccccc2C1
REMARK SMILES IDX 13 1 12 2 11 3 10 4 9 5 7 6 8 7 6 9 3 10 4 11 82 12 5 13
REMARK SMILES IDX 2 14 1 15 83 16 84 17 91 18 85 20 90 21 86 22 89 23 87 24
REMARK SMILES IDX 88 25 14 26 15 27 16 28 17 29 18 31 19 32 20 33 81 34 21 35
REMARK SMILES IDX 80 36 22 37 23 38 24 39 74 40 25 41 79 42 73 43 75 44 26 45
REMARK SMILES IDX 78 46 72 47 71 48 27 50 59 51 39 52 58 53 40 54 43 55 57 56
REMARK SMILES IDX 76 57 41 58 42 59 56 61 77 62 44 63 28 64 29 65 37 66 30 67
REMARK SMILES IDX 32 68 38 69 31 70 33 71 34 72 35 73 36 74 60 75 61 76 69 77
REMARK SMILES IDX 62 78 64 79 70 80 63 81 65 82 66 83 67 84 68 85 45 86 46 87
REMARK SMILES IDX 54 88 47 89 49 90 55 91 48 92 50 93 51 94 52 95 53 96
REMARK H PARENT 9 8 83 19 16 30 75 49 43 60
REMARK Flexibility Score: inf
ROOT
ATOM      1  C   UNL A   1      30.720  28.998  24.848  1.00  0.00     0.002 C 
ENDROOT
BRANCH   1   2
ATOM      2  C   UNL A   1      30.927  29.238  23.346  1.00  0.00     0.002 C 
BRANCH   2   3
ATOM      3  C   UNL A   1      30.182  28.253  22.436  1.00  0.00     0.021 C 
BRANCH   3   4
ATOM      4  C   UNL A   1      30.720  26.827  22.540  1.00  0.00     0.116 C 
BRANCH   4   5
ATOM      5  N   UNL A   1      31.519  26.496  21.380  1.00  0.00    -0.349 N 
ATOM      6  C   UNL A   1      32.675  25.759  21.279  1.00  0.00     0.287 C 
ATOM      7  O   UNL A   1      33.096  25.568  20.135  1.00  0.00    -0.266 OA
ATOM      8  H   UNL A   1      31.181  26.857  20.528  1.00  0.00     0.163 HD
BRANCH   6   9
ATOM      9  C   UNL A   1      33.335  25.252  22.465  1.00  0.00     0.191 A 
ATOM     10  C   UNL A   1      34.010  23.611  23.791  1.00  0.00     0.162 A 
ATOM     11  C   UNL A   1      34.498  24.781  24.336  1.00  0.00     0.053 A 
ATOM     12  O   UNL A   1      33.292  23.893  22.667  1.00  0.00    -0.450 OA
ATOM     13  C   UNL A   1      34.096  25.820  23.473  1.00  0.00     0.057 A 
BRANCH  10  14
ATOM     14  C   UNL A   1      34.319  22.160  24.050  1.00  0.00     0.248 C 
ATOM     15  C   UNL A   1      35.860  22.103  24.234  1.00  0.00     0.084 C 
BRANCH  14  16
ATOM     16  N   UNL A   1      33.425  21.428  25.011  1.00  0.00    -0.319 N 
ATOM     17  C   UNL A   1      34.009  20.199  25.631  1.00  0.00     0.300 C 
ATOM     18  C   UNL A   1      32.216  20.878  24.333  1.00  0.00     0.300 C 
ATOM     19  H   UNL A   1      33.246  22.149  25.710  1.00  0.00     0.349 HD
ATOM     20  C   UNL A   1      33.716  19.111  24.647  1.00  0.00     0.015 A 
ATOM     21  C   UNL A   1      32.660  19.537  23.835  1.00  0.00     0.015 A 
ATOM     22  C   UNL A   1      34.352  17.904  24.434  1.00  0.00     0.010 A 
ATOM     23  C   UNL A   1      32.260  18.803  22.737  1.00  0.00     0.010 A 
ATOM     24  C   UNL A   1      33.958  17.153  23.325  1.00  0.00     0.001 A 
ATOM     25  C   UNL A   1      32.934  17.607  22.473  1.00  0.00     0.001 A 
ENDBRANCH  14  16
ENDBRANCH  10  14
ENDBRANCH   6   9
ENDBRANCH   4   5
ENDBRANCH   3   4
ENDBRANCH   2   3
ENDBRANCH   1   2
BRANCH   1  26
ATOM     26  C   UNL A   1      31.955  28.475  25.585  1.00  0.00     0.021 C 
BRANCH  26  27
ATOM     27  C   UNL A   1      33.088  29.489  25.668  1.00  0.00     0.116 C 
BRANCH  27  28
ATOM     28  N   UNL A   1      32.590  30.809  26.037  1.00  0.00    -0.352 N 
ATOM     29  C   UNL A   1      33.060  31.655  27.008  1.00  0.00     0.251 C 
ATOM     30  H   UNL A   1      31.816  31.134  25.522  1.00  0.00     0.163 HD
ATOM     31  O   UNL A   1      32.395  32.621  27.374  1.00  0.00    -0.269 OA
BRANCH  29  32
ATOM     32  C   UNL A   1      34.379  31.379  27.608  1.00  0.00     0.039 A 
ATOM     33  C   UNL A   1      35.301  32.417  27.760  1.00  0.00     0.014 A 
ATOM     34  C   UNL A   1      34.676  30.089  28.052  1.00  0.00     0.014 A 
ATOM     35  C   UNL A   1      36.510  32.169  28.413  1.00  0.00     0.010 A 
ATOM     36  C   UNL A   1      35.841  29.864  28.770  1.00  0.00     0.010 A 
ATOM     37  C   UNL A   1      36.775  30.898  28.947  1.00  0.00    -0.014 A 
BRANCH  37  38
ATOM     38  C   UNL A   1      38.031  30.592  29.674  1.00  0.00     0.031 A 
ATOM     39  C   UNL A   1      39.009  29.622  29.071  1.00  0.00     0.074 A 
ATOM     40  C   UNL A   1      38.228  31.076  30.916  1.00  0.00     0.049 A 
ATOM     41  N   UNL A   1      40.068  29.076  29.606  1.00  0.00    -0.248 NA
ATOM     42  C   UNL A   1      38.734  29.176  27.693  1.00  0.00     0.031 C 
ATOM     43  C   UNL A   1      37.326  31.984  31.627  1.00  0.00     0.029 A 
ATOM     44  N   UNL A   1      39.236  30.838  31.817  1.00  0.00    -0.354 N 
ATOM     45  C   UNL A   1      40.557  28.189  28.654  1.00  0.00     0.074 A 
ATOM     46  C   UNL A   1      39.660  28.245  27.521  1.00  0.00     0.031 C 
ATOM     47  C   UNL A   1      37.815  32.218  32.856  1.00  0.00     0.029 A 
ATOM     48  C   UNL A   1      39.039  31.442  33.037  1.00  0.00     0.049 A 
ATOM     49  H   UNL A   1      40.025  30.285  31.611  1.00  0.00     0.167 HD
ATOM     50  C   UNL A   1      41.664  27.413  28.708  1.00  0.00     0.034 A 
ATOM     51  C   UNL A   1      39.750  31.361  34.179  1.00  0.00     0.034 A 
ATOM     52  C   UNL A   1      42.572  27.396  29.821  1.00  0.00     0.049 A 
ATOM     53  C   UNL A   1      40.990  30.506  34.208  1.00  0.00     0.074 A 
ATOM     54  C   UNL A   1      43.764  26.705  29.947  1.00  0.00     0.029 A 
ATOM     55  N   UNL A   1      42.386  28.096  31.003  1.00  0.00    -0.354 N 
ATOM     56  N   UNL A   1      41.503  29.766  33.256  1.00  0.00    -0.248 NA
ATOM     57  C   UNL A   1      41.765  30.499  35.457  1.00  0.00     0.031 C 
ATOM     58  C   UNL A   1      44.283  26.963  31.219  1.00  0.00     0.029 A 
ATOM     59  C   UNL A   1      43.438  27.850  31.867  1.00  0.00     0.049 A 
ATOM     60  H   UNL A   1      41.620  28.682  31.199  1.00  0.00     0.167 HD
ATOM     61  C   UNL A   1      42.687  29.250  33.770  1.00  0.00     0.074 A 
ATOM     62  C   UNL A   1      42.816  29.762  35.118  1.00  0.00     0.031 C 
ATOM     63  C   UNL A   1      43.585  28.424  33.180  1.00  0.00     0.034 A 
BRANCH  50  64
ATOM     64  C   UNL A   1      41.973  26.546  27.517  1.00  0.00     0.023 A 
ATOM     65  C   UNL A   1      42.620  27.102  26.394  1.00  0.00     0.012 A 
ATOM     66  C   UNL A   1      41.667  25.172  27.527  1.00  0.00     0.148 A 
ATOM     67  C   UNL A   1      42.919  26.314  25.283  1.00  0.00     0.002 A 
ATOM     68  C   UNL A   1      42.016  24.382  26.438  1.00  0.00     0.091 A 
ATOM     69  F   UNL A   1      41.034  24.665  28.594  1.00  0.00    -0.205 F 
ATOM     70  C   UNL A   1      42.628  24.953  25.310  1.00  0.00     0.022 A 
BRANCH  68  71
ATOM     71  S   UNL A   1      41.760  22.605  26.410  1.00  0.00     0.127 S 
ATOM     72  O   UNL A   1      40.302  22.518  26.328  1.00  0.00    -0.237 OA
ATOM     73  O   UNL A   1      42.463  22.213  25.189  1.00  0.00    -0.237 OA
ATOM     74  O   UNL A   1      42.347  22.093  27.641  1.00  0.00    -0.744 OA
ENDBRANCH  68  71
ENDBRANCH  50  64
BRANCH  51  75
ATOM     75  C   UNL A   1      39.336  32.147  35.376  1.00  0.00     0.023 A 
ATOM     76  C   UNL A   1      38.478  31.559  36.325  1.00  0.00     0.012 A 
ATOM     77  C   UNL A   1      39.799  33.460  35.588  1.00  0.00     0.148 A 
ATOM     78  C   UNL A   1      38.056  32.277  37.445  1.00  0.00     0.002 A 
ATOM     79  C   UNL A   1      39.419  34.150  36.734  1.00  0.00     0.091 A 
ATOM     80  F   UNL A   1      40.610  34.004  34.670  1.00  0.00    -0.205 F 
ATOM     81  C   UNL A   1      38.533  33.568  37.653  1.00  0.00     0.022 A 
BRANCH  79  82
ATOM     82  S   UNL A   1      40.081  35.767  37.150  1.00  0.00     0.127 S 
ATOM     83  O   UNL A   1      41.519  35.513  37.139  1.00  0.00    -0.237 OA
ATOM     84  O   UNL A   1      39.591  36.586  36.042  1.00  0.00    -0.237 OA
ATOM     85  O   UNL A   1      39.510  36.106  38.447  1.00  0.00    -0.744 OA
ENDBRANCH  79  82
ENDBRANCH  51  75
BRANCH  63  86
ATOM     86  C   UNL A   1      44.835  28.075  33.941  1.00  0.00     0.023 A 
ATOM     87  C   UNL A   1      45.962  28.915  33.886  1.00  0.00     0.012 A 
ATOM     88  C   UNL A   1      44.841  26.961  34.806  1.00  0.00     0.148 A 
ATOM     89  C   UNL A   1      47.086  28.642  34.664  1.00  0.00     0.002 A 
ATOM     90  C   UNL A   1      45.942  26.725  35.619  1.00  0.00     0.091 A 
ATOM     91  F   UNL A   1      43.762  26.165  34.830  1.00  0.00    -0.205 F 
ATOM     92  C   UNL A   1      47.069  27.558  35.541  1.00  0.00     0.022 A 
BRANCH  90  93
ATOM     93  S   UNL A   1      45.968  25.420  36.853  1.00  0.00     0.127 S 
ATOM     94  O   UNL A   1      47.185  25.740  37.598  1.00  0.00    -0.237 OA
ATOM     95  O   UNL A   1      44.723  25.662  37.582  1.00  0.00    -0.237 OA
ATOM     96  O   UNL A   1      46.004  24.166  36.113  1.00  0.00    -0.744 OA
ENDBRANCH  90  93
ENDBRANCH  63  86
ENDBRANCH  37  38
ENDBRANCH  29  32
ENDBRANCH  27  28
ENDBRANCH  26  27
ENDBRANCH   1  26
TORSDOF 18
ENDMDL
MODEL 3
REMARK VINA RESULT:     -12.7      5.787     11.223
REMARK SMILES C[C@H](c1ccc(C(=O)NCCCCCCNC(=O)c2ccc(-c3c4nc(c(-c5cccc(S(=O)(=O)[O-])c5F)c5ccc([nH]5)c(-c5cccc(S(=O)(=O)[O-])c5F)c5nc(c(-c6cccc(S(=O)(=O)[O-])c6F)c6ccc3[nH]6)C=C5)C=C4)cc2)o1)[NH+]1Cc2ccccc2C1
REMARK SMILES IDX 13 1 12 2 11 3 10 4 9 5 7 6 8 7 6 9 3 10 4 11 82 12 5 13
REMARK SMILES IDX 2 14 1 15 83 16 84 17 91 18 85 20 90 21 86 22 89 23 87 24
REMARK SMILES IDX 88 25 14 26 15 27 16 28 17 29 18 31 19 32 20 33 81 34 21 35
REMARK SMILES IDX 80 36 22 37 23 38 24 39 74 40 25 41 79 42 73 43 75 44 26 45
REMARK SMILES IDX 78 46 72 47 71 48 27 50 59 51 39 52 58 53 40 54 43 55 57 56
REMARK SMILES IDX 76 57 41 58 42 59 56 61 77 62 44 63 28 64 29 65 37 66 30 67
REMARK SMILES IDX 32 68 38 69 31 70 33 71 34 72 35 73 36 74 60 75 61 76 69 77
REMARK SMILES IDX 62 78 64 79 70 80 63 81 65 82 66 83 67 84 68 85 45 86 46 87
REMARK SMILES IDX 54 88 47 89 49 90 55 91 48 92 50 93 51 94 52 95 53 96
REMARK H PARENT 9 8 83 19 16 30 75 49 43 60
REMARK Flexibility Score: inf
ROOT
ATOM      1  C   UNL A   1      31.858  30.655  26.193  1.00  0.00     0.002 C 
ENDROOT
BRANCH   1   2
ATOM      2  C   UNL A   1      32.289  29.510  27.119  1.00  0.00     0.002 C 
BRANCH   2   3
ATOM      3  C   UNL A   1      31.733  28.134  26.730  1.00  0.00     0.021 C 
BRANCH   3   4
ATOM      4  C   UNL A   1      31.901  27.825  25.243  1.00  0.00     0.116 C 
BRANCH   4   5
ATOM      5  N   UNL A   1      30.627  27.498  24.642  1.00  0.00    -0.349 N 
ATOM      6  C   UNL A   1      29.933  26.312  24.623  1.00  0.00     0.287 C 
ATOM      7  O   UNL A   1      28.815  26.347  24.100  1.00  0.00    -0.266 OA
ATOM      8  H   UNL A   1      30.187  28.244  24.173  1.00  0.00     0.163 HD
BRANCH   6   9
ATOM      9  C   UNL A   1      30.508  25.108  25.190  1.00  0.00     0.191 A 
ATOM     10  C   UNL A   1      31.922  23.403  25.166  1.00  0.00     0.162 A 
ATOM     11  C   UNL A   1      31.241  23.332  26.364  1.00  0.00     0.053 A 
ATOM     12  O   UNL A   1      31.469  24.468  24.445  1.00  0.00    -0.450 OA
ATOM     13  C   UNL A   1      30.366  24.436  26.392  1.00  0.00     0.057 A 
BRANCH  10  14
ATOM     14  C   UNL A   1      33.163  22.720  24.658  1.00  0.00     0.248 C 
ATOM     15  C   UNL A   1      32.691  21.313  24.204  1.00  0.00     0.084 C 
BRANCH  14  16
ATOM     16  N   UNL A   1      34.076  23.522  23.773  1.00  0.00    -0.319 N 
ATOM     17  C   UNL A   1      35.153  22.748  23.082  1.00  0.00     0.300 C 
ATOM     18  C   UNL A   1      34.871  24.515  24.553  1.00  0.00     0.300 C 
ATOM     19  H   UNL A   1      33.415  23.918  23.106  1.00  0.00     0.349 HD
ATOM     20  C   UNL A   1      36.274  22.706  24.073  1.00  0.00     0.015 A 
ATOM     21  C   UNL A   1      36.082  23.747  24.987  1.00  0.00     0.015 A 
ATOM     22  C   UNL A   1      37.314  21.807  24.207  1.00  0.00     0.010 A 
ATOM     23  C   UNL A   1      36.879  23.873  26.106  1.00  0.00     0.010 A 
ATOM     24  C   UNL A   1      38.127  21.923  25.336  1.00  0.00     0.001 A 
ATOM     25  C   UNL A   1      37.900  22.936  26.286  1.00  0.00     0.001 A 
ENDBRANCH  14  16
ENDBRANCH  10  14
ENDBRANCH   6   9
ENDBRANCH   4   5
ENDBRANCH   3   4
ENDBRANCH   2   3
ENDBRANCH   1   2
BRANCH   1  26
ATOM     26  C   UNL A   1      31.542  31.970  26.910  1.00  0.00     0.021 C 
BRANCH  26  27
ATOM     27  C   UNL A   1      32.774  32.669  27.469  1.00  0.00     0.116 C 
BRANCH  27  28
ATOM     28  N   UNL A   1      32.523  34.090  27.682  1.00  0.00    -0.352 N 
ATOM     29  C   UNL A   1      33.057  34.913  28.641  1.00  0.00     0.251 C 
ATOM     30  H   UNL A   1      31.890  34.512  27.059  1.00  0.00     0.163 HD
ATOM     31  O   UNL A   1      32.571  36.020  28.858  1.00  0.00    -0.269 OA
BRANCH  29  32
ATOM     32  C   UNL A   1      34.223  34.439  29.409  1.00  0.00     0.039 A 
ATOM     33  C   UNL A   1      34.030  33.800  30.636  1.00  0.00     0.014 A 
ATOM     34  C   UNL A   1      35.506  34.601  28.882  1.00  0.00     0.014 A 
ATOM     35  C   UNL A   1      35.131  33.271  31.313  1.00  0.00     0.010 A 
ATOM     36  C   UNL A   1      36.586  34.005  29.516  1.00  0.00     0.010 A 
ATOM     37  C   UNL A   1      36.411  33.344  30.743  1.00  0.00    -0.014 A 
BRANCH  37  38
ATOM     38  C   UNL A   1      37.608  32.773  31.408  1.00  0.00     0.031 A 
ATOM     39  C   UNL A   1      38.326  31.620  30.762  1.00  0.00     0.074 A 
ATOM     40  C   UNL A   1      37.965  33.197  32.636  1.00  0.00     0.049 A 
ATOM     41  N   UNL A   1      39.269  30.859  31.245  1.00  0.00    -0.248 NA
ATOM     42  C   UNL A   1      37.893  31.252  29.401  1.00  0.00     0.031 C 
ATOM     43  C   UNL A   1      37.314  34.272  33.387  1.00  0.00     0.029 A 
ATOM     44  N   UNL A   1      38.943  32.744  33.487  1.00  0.00    -0.354 N 
ATOM     45  C   UNL A   1      39.509  29.893  30.274  1.00  0.00     0.074 A 
ATOM     46  C   UNL A   1      38.589  30.146  29.188  1.00  0.00     0.031 C 
ATOM     47  C   UNL A   1      37.903  34.389  34.588  1.00  0.00     0.029 A 
ATOM     48  C   UNL A   1      38.940  33.369  34.712  1.00  0.00     0.049 A 
ATOM     49  H   UNL A   1      39.585  32.037  33.244  1.00  0.00     0.167 HD
ATOM     50  C   UNL A   1      40.427  28.899  30.277  1.00  0.00     0.034 A 
ATOM     51  C   UNL A   1      39.674  33.132  35.817  1.00  0.00     0.034 A 
ATOM     52  C   UNL A   1      41.365  28.681  31.344  1.00  0.00     0.049 A 
ATOM     53  C   UNL A   1      40.703  32.031  35.789  1.00  0.00     0.074 A 
ATOM     54  C   UNL A   1      42.387  27.752  31.413  1.00  0.00     0.029 A 
ATOM     55  N   UNL A   1      41.392  29.398  32.529  1.00  0.00    -0.354 N 
ATOM     56  N   UNL A   1      40.998  31.205  34.816  1.00  0.00    -0.248 NA
ATOM     57  C   UNL A   1      41.520  31.852  36.997  1.00  0.00     0.031 C 
ATOM     58  C   UNL A   1      43.011  27.885  32.656  1.00  0.00     0.029 A 
ATOM     59  C   UNL A   1      42.408  28.928  33.341  1.00  0.00     0.049 A 
ATOM     60  H   UNL A   1      40.778  30.133  32.761  1.00  0.00     0.167 HD
ATOM     61  C   UNL A   1      42.069  30.445  35.272  1.00  0.00     0.074 A 
ATOM     62  C   UNL A   1      42.371  30.910  36.609  1.00  0.00     0.031 C 
ATOM     63  C   UNL A   1      42.739  29.450  34.642  1.00  0.00     0.034 A 
BRANCH  50  64
ATOM     64  C   UNL A   1      40.484  27.993  29.076  1.00  0.00     0.023 A 
ATOM     65  C   UNL A   1      39.546  26.949  28.939  1.00  0.00     0.012 A 
ATOM     66  C   UNL A   1      41.433  28.204  28.058  1.00  0.00     0.148 A 
ATOM     67  C   UNL A   1      39.579  26.104  27.831  1.00  0.00     0.002 A 
ATOM     68  C   UNL A   1      41.427  27.391  26.931  1.00  0.00     0.091 A 
ATOM     69  F   UNL A   1      42.330  29.189  28.214  1.00  0.00    -0.205 F 
ATOM     70  C   UNL A   1      40.511  26.332  26.823  1.00  0.00     0.022 A 
BRANCH  68  71
ATOM     71  S   UNL A   1      42.531  27.655  25.540  1.00  0.00     0.127 S 
ATOM     72  O   UNL A   1      42.280  26.461  24.733  1.00  0.00    -0.237 OA
ATOM     73  O   UNL A   1      42.013  28.898  24.969  1.00  0.00    -0.237 OA
ATOM     74  O   UNL A   1      43.871  27.756  26.102  1.00  0.00    -0.744 OA
ENDBRANCH  68  71
ENDBRANCH  50  64
BRANCH  51  75
ATOM     75  C   UNL A   1      39.498  33.981  37.030  1.00  0.00     0.023 A 
ATOM     76  C   UNL A   1      39.945  35.316  37.008  1.00  0.00     0.012 A 
ATOM     77  C   UNL A   1      38.877  33.483  38.191  1.00  0.00     0.148 A 
ATOM     78  C   UNL A   1      39.813  36.129  38.134  1.00  0.00     0.002 A 
ATOM     79  C   UNL A   1      38.699  34.315  39.290  1.00  0.00     0.091 A 
ATOM     80  F   UNL A   1      38.464  32.207  38.194  1.00  0.00    -0.205 F 
ATOM     81  C   UNL A   1      39.183  35.632  39.271  1.00  0.00     0.022 A 
BRANCH  79  82
ATOM     82  S   UNL A   1      37.789  33.801  40.752  1.00  0.00     0.127 S 
ATOM     83  O   UNL A   1      36.579  33.233  40.165  1.00  0.00    -0.237 OA
ATOM     84  O   UNL A   1      38.703  32.827  41.347  1.00  0.00    -0.237 OA
ATOM     85  O   UNL A   1      37.598  35.010  41.543  1.00  0.00    -0.744 OA
ENDBRANCH  79  82
ENDBRANCH  51  75
BRANCH  63  86
ATOM     86  C   UNL A   1      43.923  28.838  35.342  1.00  0.00     0.023 A 
ATOM     87  C   UNL A   1      45.202  29.412  35.216  1.00  0.00     0.012 A 
ATOM     88  C   UNL A   1      43.733  27.751  36.220  1.00  0.00     0.148 A 
ATOM     89  C   UNL A   1      46.279  28.901  35.938  1.00  0.00     0.002 A 
ATOM     90  C   UNL A   1      44.798  27.283  36.978  1.00  0.00     0.091 A 
ATOM     91  F   UNL A   1      42.509  27.210  36.311  1.00  0.00    -0.205 F 
ATOM     92  C   UNL A   1      46.074  27.849  36.829  1.00  0.00     0.022 A 
BRANCH  90  93
ATOM     93  S   UNL A   1      44.606  26.006  38.226  1.00  0.00     0.127 S 
ATOM     94  O   UNL A   1      45.996  25.723  38.578  1.00  0.00    -0.237 OA
ATOM     95  O   UNL A   1      43.842  26.702  39.262  1.00  0.00    -0.237 OA
ATOM     96  O   UNL A   1      43.895  24.912  37.579  1.00  0.00    -0.744 OA
ENDBRANCH  90  93
ENDBRANCH  63  86
ENDBRANCH  37  38
ENDBRANCH  29  32
ENDBRANCH  27  28
ENDBRANCH  26  27
ENDBRANCH   1  26
TORSDOF 18
ENDMDL
