MODEL 1
REMARK VINA RESULT:     -11.1      0.000      0.000
REMARK SMILES Cc1nn(C)cc1C[NH+]1CCN(C(=O)Cn2ccc(C(=O)NCCCCCCNC(=O)c3ccc(-c4c5nc(c(-c6cccc(S(=O)(=O)[O-])c6F)c6ccc([nH]6)c(-c6cccc(S(=O)(=O)[O-])c6F)c6nc(c(-c7cccc(S(=O)(=O)[O-])c7F)c7ccc4[nH]7)C=C6)C=C5)cc3)n2)CC1
REMARK SMILES IDX 25 1 24 2 23 3 22 4 20 5 21 6 19 8 16 9 17 10 95 11 18 12
REMARK SMILES IDX 15 13 13 14 9 15 10 16 97 17 11 19 96 20 12 21 14 22 8 23
REMARK SMILES IDX 7 24 1 25 2 26 3 27 4 28 6 29 5 30 26 31 27 32 28 33 29 34
REMARK SMILES IDX 30 35 31 37 32 38 33 39 94 40 34 41 93 42 35 43 36 44 37 45
REMARK SMILES IDX 87 46 38 47 92 48 86 49 88 50 39 51 91 52 85 53 84 54 40 56
REMARK SMILES IDX 72 57 52 58 71 59 53 60 56 61 70 62 89 63 54 64 55 65 69 67
REMARK SMILES IDX 90 68 57 69 41 70 42 71 50 72 43 73 45 74 51 75 44 76 46 77
REMARK SMILES IDX 47 78 48 79 49 80 73 81 74 82 82 83 75 84 77 85 83 86 76 87
REMARK SMILES IDX 78 88 79 89 80 90 81 91 58 92 59 93 67 94 60 95 62 96 68 97
REMARK SMILES IDX 61 98 63 99 64 100 65 101 66 102
REMARK H PARENT 22 7 9 18 29 36 88 55 56 66
REMARK Flexibility Score: inf
ROOT
ATOM      1  C   UNL A   1      36.028  30.862  27.767  1.00  0.00     0.002 C 
ENDROOT
BRANCH   1   2
ATOM      2  C   UNL A   1      35.598  29.389  27.818  1.00  0.00     0.021 C 
BRANCH   2   3
ATOM      3  C   UNL A   1      34.448  29.053  26.870  1.00  0.00     0.116 C 
BRANCH   3   4
ATOM      4  N   UNL A   1      33.264  28.676  27.609  1.00  0.00    -0.351 N 
ATOM      5  C   UNL A   1      32.030  28.212  27.219  1.00  0.00     0.271 C 
ATOM      6  O   UNL A   1      31.267  27.909  28.142  1.00  0.00    -0.267 OA
ATOM      7  H   UNL A   1      33.360  28.771  28.584  1.00  0.00     0.163 HD
BRANCH   5   8
ATOM      8  C   UNL A   1      31.657  28.044  25.798  1.00  0.00     0.150 A 
ATOM      9  N   UNL A   1      31.210  26.962  23.999  1.00  0.00    -0.263 N 
ATOM     10  C   UNL A   1      31.067  28.267  23.650  1.00  0.00     0.110 A 
ATOM     11  N   UNL A   1      31.582  26.798  25.281  1.00  0.00    -0.167 NA
ATOM     12  C   UNL A   1      31.297  28.989  24.798  1.00  0.00     0.056 A 
BRANCH   9  13
ATOM     13  C   UNL A   1      30.855  25.768  23.240  1.00  0.00     0.244 C 
BRANCH  13  14
ATOM     14  C   UNL A   1      32.049  24.908  22.875  1.00  0.00     0.244 C 
ATOM     15  N   UNL A   1      32.856  21.141  24.937  1.00  0.00    -0.328 N 
ATOM     16  C   UNL A   1      33.717  21.675  23.874  1.00  0.00     0.284 C 
ATOM     17  C   UNL A   1      32.114  22.211  25.604  1.00  0.00     0.284 C 
ATOM     18  H   UNL A   1      33.490  20.753  25.637  1.00  0.00     0.348 HD
ATOM     19  C   UNL A   1      33.076  22.696  22.917  1.00  0.00     0.181 C 
ATOM     20  C   UNL A   1      31.454  23.282  24.713  1.00  0.00     0.181 C 
ATOM     21  N   UNL A   1      32.266  23.724  23.579  1.00  0.00    -0.330 N 
ATOM     22  O   UNL A   1      32.797  25.253  21.954  1.00  0.00    -0.273 OA
BRANCH  15  23
ATOM     23  C   UNL A   1      32.087  19.930  24.609  1.00  0.00     0.302 C 
BRANCH  23  24
ATOM     24  C   UNL A   1      32.923  18.742  24.298  1.00  0.00     0.047 A 
ATOM     25  C   UNL A   1      32.274  18.207  21.802  1.00  0.00     0.069 C 
ATOM     26  C   UNL A   1      32.956  17.972  23.098  1.00  0.00     0.068 A 
ATOM     27  N   UNL A   1      33.686  16.863  23.248  1.00  0.00    -0.178 NA
ATOM     28  N   UNL A   1      34.243  16.990  24.462  1.00  0.00    -0.275 N 
ATOM     29  C   UNL A   1      33.888  18.150  25.089  1.00  0.00     0.118 A 
ATOM     30  C   UNL A   1      34.983  15.891  25.036  1.00  0.00     0.173 C 
ENDBRANCH  23  24
ENDBRANCH  15  23
ENDBRANCH  13  14
ENDBRANCH   9  13
ENDBRANCH   5   8
ENDBRANCH   3   4
ENDBRANCH   2   3
ENDBRANCH   1   2
BRANCH   1  31
ATOM     31  C   UNL A   1      34.884  31.889  27.787  1.00  0.00     0.002 C 
BRANCH  31  32
ATOM     32  C   UNL A   1      35.299  33.366  27.864  1.00  0.00     0.021 C 
BRANCH  32  33
ATOM     33  C   UNL A   1      36.073  33.713  29.126  1.00  0.00     0.116 C 
BRANCH  33  34
ATOM     34  N   UNL A   1      35.280  33.474  30.333  1.00  0.00    -0.352 N 
ATOM     35  C   UNL A   1      35.368  32.423  31.226  1.00  0.00     0.251 C 
ATOM     36  H   UNL A   1      34.596  34.152  30.536  1.00  0.00     0.163 HD
ATOM     37  O   UNL A   1      34.439  32.151  31.966  1.00  0.00    -0.269 OA
BRANCH  35  38
ATOM     38  C   UNL A   1      36.620  31.647  31.272  1.00  0.00     0.039 A 
ATOM     39  C   UNL A   1      36.618  30.255  31.137  1.00  0.00     0.014 A 
ATOM     40  C   UNL A   1      37.810  32.349  31.433  1.00  0.00     0.014 A 
ATOM     41  C   UNL A   1      37.838  29.587  31.093  1.00  0.00     0.010 A 
ATOM     42  C   UNL A   1      39.003  31.716  31.218  1.00  0.00     0.010 A 
ATOM     43  C   UNL A   1      39.027  30.330  31.120  1.00  0.00    -0.014 A 
BRANCH  43  44
ATOM     44  C   UNL A   1      40.323  29.694  30.920  1.00  0.00     0.031 A 
ATOM     45  C   UNL A   1      41.011  29.323  32.184  1.00  0.00     0.074 A 
ATOM     46  C   UNL A   1      40.726  29.260  29.706  1.00  0.00     0.049 A 
ATOM     47  N   UNL A   1      42.086  29.845  32.676  1.00  0.00    -0.248 NA
ATOM     48  C   UNL A   1      40.336  28.388  33.099  1.00  0.00     0.031 C 
ATOM     49  C   UNL A   1      39.967  29.283  28.446  1.00  0.00     0.029 A 
ATOM     50  N   UNL A   1      41.839  28.554  29.365  1.00  0.00    -0.354 N 
ATOM     51  C   UNL A   1      42.365  29.106  33.824  1.00  0.00     0.074 A 
ATOM     52  C   UNL A   1      41.147  28.418  34.158  1.00  0.00     0.031 C 
ATOM     53  C   UNL A   1      40.507  28.400  27.577  1.00  0.00     0.029 A 
ATOM     54  C   UNL A   1      41.739  27.890  28.144  1.00  0.00     0.049 A 
ATOM     55  H   UNL A   1      42.642  28.516  29.932  1.00  0.00     0.167 HD
ATOM     56  C   UNL A   1      43.651  28.888  34.220  1.00  0.00     0.034 A 
ATOM     57  C   UNL A   1      42.587  26.950  27.657  1.00  0.00     0.034 A 
ATOM     58  C   UNL A   1      44.558  29.763  33.518  1.00  0.00     0.049 A 
ATOM     59  C   UNL A   1      43.860  27.094  28.396  1.00  0.00     0.074 A 
ATOM     60  C   UNL A   1      44.700  31.129  33.379  1.00  0.00     0.029 A 
ATOM     61  N   UNL A   1      45.264  29.197  32.482  1.00  0.00    -0.354 N 
ATOM     62  N   UNL A   1      44.630  28.141  28.300  1.00  0.00    -0.248 NA
ATOM     63  C   UNL A   1      44.061  26.271  29.576  1.00  0.00     0.031 C 
ATOM     64  C   UNL A   1      45.090  31.320  32.020  1.00  0.00     0.029 A 
ATOM     65  C   UNL A   1      45.244  30.065  31.427  1.00  0.00     0.049 A 
ATOM     66  H   UNL A   1      45.707  28.319  32.500  1.00  0.00     0.167 HD
ATOM     67  C   UNL A   1      45.048  28.372  29.604  1.00  0.00     0.074 A 
ATOM     68  C   UNL A   1      44.778  27.123  30.314  1.00  0.00     0.031 C 
ATOM     69  C   UNL A   1      45.287  29.642  30.044  1.00  0.00     0.034 A 
BRANCH  56  70
ATOM     70  C   UNL A   1      44.166  27.631  34.900  1.00  0.00     0.023 A 
ATOM     71  C   UNL A   1      45.097  27.813  35.949  1.00  0.00     0.012 A 
ATOM     72  C   UNL A   1      44.028  26.318  34.396  1.00  0.00     0.148 A 
ATOM     73  C   UNL A   1      45.906  26.768  36.410  1.00  0.00     0.002 A 
ATOM     74  C   UNL A   1      44.780  25.265  34.909  1.00  0.00     0.091 A 
ATOM     75  F   UNL A   1      43.270  26.080  33.326  1.00  0.00    -0.205 F 
ATOM     76  C   UNL A   1      45.747  25.491  35.891  1.00  0.00     0.022 A 
BRANCH  74  77
ATOM     77  S   UNL A   1      44.586  23.584  34.303  1.00  0.00     0.127 S 
ATOM     78  O   UNL A   1      45.511  22.856  35.166  1.00  0.00    -0.237 OA
ATOM     79  O   UNL A   1      43.168  23.337  34.564  1.00  0.00    -0.237 OA
ATOM     80  O   UNL A   1      44.933  23.633  32.888  1.00  0.00    -0.744 OA
ENDBRANCH  74  77
ENDBRANCH  56  70
BRANCH  57  81
ATOM     81  C   UNL A   1      42.331  25.789  26.773  1.00  0.00     0.023 A 
ATOM     82  C   UNL A   1      43.195  25.540  25.687  1.00  0.00     0.012 A 
ATOM     83  C   UNL A   1      41.435  24.767  27.162  1.00  0.00     0.148 A 
ATOM     84  C   UNL A   1      43.199  24.298  25.039  1.00  0.00     0.002 A 
ATOM     85  C   UNL A   1      41.442  23.534  26.514  1.00  0.00     0.091 A 
ATOM     86  F   UNL A   1      40.644  24.974  28.223  1.00  0.00    -0.205 F 
ATOM     87  C   UNL A   1      42.334  23.292  25.460  1.00  0.00     0.022 A 
BRANCH  85  88
ATOM     88  S   UNL A   1      40.377  22.175  27.018  1.00  0.00     0.127 S 
ATOM     89  O   UNL A   1      39.044  22.757  26.861  1.00  0.00    -0.237 OA
ATOM     90  O   UNL A   1      40.709  21.141  26.042  1.00  0.00    -0.237 OA
ATOM     91  O   UNL A   1      40.737  21.867  28.397  1.00  0.00    -0.744 OA
ENDBRANCH  85  88
ENDBRANCH  57  81
BRANCH  69  92
ATOM     92  C   UNL A   1      45.379  30.741  29.015  1.00  0.00     0.023 A 
ATOM     93  C   UNL A   1      44.268  31.516  28.616  1.00  0.00     0.012 A 
ATOM     94  C   UNL A   1      46.656  31.101  28.558  1.00  0.00     0.148 A 
ATOM     95  C   UNL A   1      44.430  32.611  27.761  1.00  0.00     0.002 A 
ATOM     96  C   UNL A   1      46.819  32.218  27.748  1.00  0.00     0.091 A 
ATOM     97  F   UNL A   1      47.700  30.354  28.946  1.00  0.00    -0.205 F 
ATOM     98  C   UNL A   1      45.708  32.970  27.338  1.00  0.00     0.022 A 
BRANCH  96  99
ATOM     99  S   UNL A   1      48.452  32.794  27.283  1.00  0.00     0.127 S 
ATOM    100  O   UNL A   1      48.972  31.655  26.529  1.00  0.00    -0.237 OA
ATOM    101  O   UNL A   1      48.151  33.977  26.475  1.00  0.00    -0.237 OA
ATOM    102  O   UNL A   1      49.141  33.090  28.533  1.00  0.00    -0.744 OA
ENDBRANCH  96  99
ENDBRANCH  69  92
ENDBRANCH  43  44
ENDBRANCH  35  38
ENDBRANCH  33  34
ENDBRANCH  32  33
ENDBRANCH  31  32
ENDBRANCH   1  31
TORSDOF 20
ENDMDL
MODEL 2
REMARK VINA RESULT:     -11.0      3.060      9.416
REMARK SMILES Cc1nn(C)cc1C[NH+]1CCN(C(=O)Cn2ccc(C(=O)NCCCCCCNC(=O)c3ccc(-c4c5nc(c(-c6cccc(S(=O)(=O)[O-])c6F)c6ccc([nH]6)c(-c6cccc(S(=O)(=O)[O-])c6F)c6nc(c(-c7cccc(S(=O)(=O)[O-])c7F)c7ccc4[nH]7)C=C6)C=C5)cc3)n2)CC1
REMARK SMILES IDX 25 1 24 2 23 3 22 4 20 5 21 6 19 8 16 9 17 10 95 11 18 12
REMARK SMILES IDX 15 13 13 14 9 15 10 16 97 17 11 19 96 20 12 21 14 22 8 23
REMARK SMILES IDX 7 24 1 25 2 26 3 27 4 28 6 29 5 30 26 31 27 32 28 33 29 34
REMARK SMILES IDX 30 35 31 37 32 38 33 39 94 40 34 41 93 42 35 43 36 44 37 45
REMARK SMILES IDX 87 46 38 47 92 48 86 49 88 50 39 51 91 52 85 53 84 54 40 56
REMARK SMILES IDX 72 57 52 58 71 59 53 60 56 61 70 62 89 63 54 64 55 65 69 67
REMARK SMILES IDX 90 68 57 69 41 70 42 71 50 72 43 73 45 74 51 75 44 76 46 77
REMARK SMILES IDX 47 78 48 79 49 80 73 81 74 82 82 83 75 84 77 85 83 86 76 87
REMARK SMILES IDX 78 88 79 89 80 90 81 91 58 92 59 93 67 94 60 95 62 96 68 97
REMARK SMILES IDX 61 98 63 99 64 100 65 101 66 102
REMARK H PARENT 22 7 9 18 29 36 88 55 56 66
REMARK Flexibility Score: inf
ROOT
ATOM      1  C   UNL A   1      38.644  21.241  25.413  1.00  0.00     0.002 C 
ENDROOT
BRANCH   1   2
ATOM      2  C   UNL A   1      37.150  21.355  25.079  1.00  0.00     0.021 C 
BRANCH   2   3
ATOM      3  C   UNL A   1      36.468  22.563  25.720  1.00  0.00     0.116 C 
BRANCH   3   4
ATOM      4  N   UNL A   1      35.537  22.146  26.745  1.00  0.00    -0.351 N 
ATOM      5  C   UNL A   1      34.250  21.666  26.696  1.00  0.00     0.271 C 
ATOM      6  O   UNL A   1      33.774  21.327  27.785  1.00  0.00    -0.267 OA
ATOM      7  H   UNL A   1      35.896  22.222  27.659  1.00  0.00     0.163 HD
BRANCH   5   8
ATOM      8  C   UNL A   1      33.504  21.521  25.427  1.00  0.00     0.150 A 
ATOM      9  N   UNL A   1      32.421  22.190  23.698  1.00  0.00    -0.263 N 
ATOM     10  C   UNL A   1      32.459  20.839  23.570  1.00  0.00     0.110 A 
ATOM     11  N   UNL A   1      33.028  22.629  24.817  1.00  0.00    -0.167 NA
ATOM     12  C   UNL A   1      33.192  20.380  24.639  1.00  0.00     0.056 A 
BRANCH   9  13
ATOM     13  C   UNL A   1      31.982  23.189  22.732  1.00  0.00     0.244 C 
BRANCH  13  14
ATOM     14  C   UNL A   1      32.808  24.460  22.760  1.00  0.00     0.244 C 
ATOM     15  N   UNL A   1      31.388  28.052  24.805  1.00  0.00    -0.328 N 
ATOM     16  C   UNL A   1      32.665  27.990  24.083  1.00  0.00     0.284 C 
ATOM     17  C   UNL A   1      30.439  27.066  24.285  1.00  0.00     0.284 C 
ATOM     18  H   UNL A   1      30.994  28.969  24.592  1.00  0.00     0.348 HD
ATOM     19  C   UNL A   1      33.263  26.590  23.858  1.00  0.00     0.181 C 
ATOM     20  C   UNL A   1      30.966  25.642  24.021  1.00  0.00     0.181 C 
ATOM     21  N   UNL A   1      32.296  25.580  23.413  1.00  0.00    -0.330 N 
ATOM     22  O   UNL A   1      33.920  24.483  22.224  1.00  0.00    -0.273 OA
BRANCH  15  23
ATOM     23  C   UNL A   1      31.470  28.158  26.270  1.00  0.00     0.302 C 
BRANCH  23  24
ATOM     24  C   UNL A   1      32.591  29.001  26.759  1.00  0.00     0.047 A 
ATOM     25  C   UNL A   1      31.600  31.436  26.618  1.00  0.00     0.069 C 
ATOM     26  C   UNL A   1      32.655  30.422  26.856  1.00  0.00     0.068 A 
ATOM     27  N   UNL A   1      33.889  30.837  27.158  1.00  0.00    -0.178 NA
ATOM     28  N   UNL A   1      34.570  29.708  27.409  1.00  0.00    -0.275 N 
ATOM     29  C   UNL A   1      33.804  28.586  27.276  1.00  0.00     0.118 A 
ATOM     30  C   UNL A   1      35.998  29.758  27.619  1.00  0.00     0.173 C 
ENDBRANCH  23  24
ENDBRANCH  15  23
ENDBRANCH  13  14
ENDBRANCH   9  13
ENDBRANCH   5   8
ENDBRANCH   3   4
ENDBRANCH   2   3
ENDBRANCH   1   2
BRANCH   1  31
ATOM     31  C   UNL A   1      39.207  22.345  26.325  1.00  0.00     0.002 C 
BRANCH  31  32
ATOM     32  C   UNL A   1      40.274  21.907  27.340  1.00  0.00     0.021 C 
BRANCH  32  33
ATOM     33  C   UNL A   1      41.287  22.993  27.660  1.00  0.00     0.116 C 
BRANCH  33  34
ATOM     34  N   UNL A   1      42.207  23.226  26.545  1.00  0.00    -0.352 N 
ATOM     35  C   UNL A   1      42.627  24.430  26.013  1.00  0.00     0.251 C 
ATOM     36  H   UNL A   1      42.574  22.418  26.119  1.00  0.00     0.163 HD
ATOM     37  O   UNL A   1      43.091  24.490  24.888  1.00  0.00    -0.269 OA
BRANCH  35  38
ATOM     38  C   UNL A   1      42.515  25.640  26.847  1.00  0.00     0.039 A 
ATOM     39  C   UNL A   1      43.341  25.838  27.957  1.00  0.00     0.014 A 
ATOM     40  C   UNL A   1      41.568  26.592  26.480  1.00  0.00     0.014 A 
ATOM     41  C   UNL A   1      43.254  27.042  28.649  1.00  0.00     0.010 A 
ATOM     42  C   UNL A   1      41.602  27.834  27.051  1.00  0.00     0.010 A 
ATOM     43  C   UNL A   1      42.389  28.041  28.177  1.00  0.00    -0.014 A 
BRANCH  43  44
ATOM     44  C   UNL A   1      42.373  29.372  28.772  1.00  0.00     0.031 A 
ATOM     45  C   UNL A   1      43.522  30.224  28.368  1.00  0.00     0.074 A 
ATOM     46  C   UNL A   1      41.287  29.854  29.416  1.00  0.00     0.049 A 
ATOM     47  N   UNL A   1      44.500  30.628  29.110  1.00  0.00    -0.248 NA
ATOM     48  C   UNL A   1      43.704  30.518  26.937  1.00  0.00     0.031 C 
ATOM     49  C   UNL A   1      39.977  29.204  29.578  1.00  0.00     0.029 A 
ATOM     50  N   UNL A   1      41.064  31.096  29.924  1.00  0.00    -0.354 N 
ATOM     51  C   UNL A   1      45.268  31.455  28.292  1.00  0.00     0.074 A 
ATOM     52  C   UNL A   1      44.881  31.147  26.941  1.00  0.00     0.031 C 
ATOM     53  C   UNL A   1      39.046  30.135  29.883  1.00  0.00     0.029 A 
ATOM     54  C   UNL A   1      39.716  31.399  30.114  1.00  0.00     0.049 A 
ATOM     55  H   UNL A   1      41.790  31.725  30.137  1.00  0.00     0.167 HD
ATOM     56  C   UNL A   1      45.928  32.530  28.808  1.00  0.00     0.034 A 
ATOM     57  C   UNL A   1      39.187  32.616  30.393  1.00  0.00     0.034 A 
ATOM     58  C   UNL A   1      45.977  32.457  30.248  1.00  0.00     0.049 A 
ATOM     59  C   UNL A   1      40.286  33.450  30.927  1.00  0.00     0.074 A 
ATOM     60  C   UNL A   1      46.463  31.557  31.173  1.00  0.00     0.029 A 
ATOM     61  N   UNL A   1      45.087  33.258  30.924  1.00  0.00    -0.354 N 
ATOM     62  N   UNL A   1      40.879  33.214  32.063  1.00  0.00    -0.248 NA
ATOM     63  C   UNL A   1      41.021  34.288  29.995  1.00  0.00     0.031 C 
ATOM     64  C   UNL A   1      45.506  31.564  32.231  1.00  0.00     0.029 A 
ATOM     65  C   UNL A   1      44.534  32.524  31.935  1.00  0.00     0.049 A 
ATOM     66  H   UNL A   1      44.884  34.198  30.715  1.00  0.00     0.167 HD
ATOM     67  C   UNL A   1      42.221  33.450  31.797  1.00  0.00     0.074 A 
ATOM     68  C   UNL A   1      42.230  34.230  30.560  1.00  0.00     0.031 C 
ATOM     69  C   UNL A   1      43.193  32.735  32.436  1.00  0.00     0.034 A 
BRANCH  56  70
ATOM     70  C   UNL A   1      46.160  33.851  28.095  1.00  0.00     0.023 A 
ATOM     71  C   UNL A   1      45.009  34.605  27.765  1.00  0.00     0.012 A 
ATOM     72  C   UNL A   1      47.372  34.246  27.484  1.00  0.00     0.148 A 
ATOM     73  C   UNL A   1      45.045  35.634  26.817  1.00  0.00     0.002 A 
ATOM     74  C   UNL A   1      47.418  35.319  26.599  1.00  0.00     0.091 A 
ATOM     75  F   UNL A   1      48.476  33.515  27.639  1.00  0.00    -0.205 F 
ATOM     76  C   UNL A   1      46.252  35.993  26.234  1.00  0.00     0.022 A 
BRANCH  74  77
ATOM     77  S   UNL A   1      48.960  35.854  25.846  1.00  0.00     0.127 S 
ATOM     78  O   UNL A   1      49.256  34.731  24.961  1.00  0.00    -0.237 OA
ATOM     79  O   UNL A   1      48.549  37.086  25.173  1.00  0.00    -0.237 OA
ATOM     80  O   UNL A   1      49.888  36.059  26.952  1.00  0.00    -0.744 OA
ENDBRANCH  74  77
ENDBRANCH  56  70
BRANCH  57  81
ATOM     81  C   UNL A   1      37.875  33.200  30.031  1.00  0.00     0.023 A 
ATOM     82  C   UNL A   1      37.450  33.173  28.686  1.00  0.00     0.012 A 
ATOM     83  C   UNL A   1      36.920  33.506  31.027  1.00  0.00     0.148 A 
ATOM     84  C   UNL A   1      36.110  33.400  28.349  1.00  0.00     0.002 A 
ATOM     85  C   UNL A   1      35.588  33.731  30.687  1.00  0.00     0.091 A 
ATOM     86  F   UNL A   1      37.300  33.486  32.311  1.00  0.00    -0.205 F 
ATOM     87  C   UNL A   1      35.177  33.665  29.348  1.00  0.00     0.022 A 
BRANCH  85  88
ATOM     88  S   UNL A   1      34.319  34.050  31.922  1.00  0.00     0.127 S 
ATOM     89  O   UNL A   1      33.255  34.653  31.119  1.00  0.00    -0.237 OA
ATOM     90  O   UNL A   1      34.023  32.708  32.417  1.00  0.00    -0.237 OA
ATOM     91  O   UNL A   1      34.920  34.953  32.896  1.00  0.00    -0.744 OA
ENDBRANCH  85  88
ENDBRANCH  57  81
BRANCH  69  92
ATOM     92  C   UNL A   1      42.793  31.913  33.635  1.00  0.00     0.023 A 
ATOM     93  C   UNL A   1      42.580  32.473  34.914  1.00  0.00     0.012 A 
ATOM     94  C   UNL A   1      42.471  30.564  33.424  1.00  0.00     0.148 A 
ATOM     95  C   UNL A   1      42.079  31.693  35.962  1.00  0.00     0.002 A 
ATOM     96  C   UNL A   1      41.928  29.806  34.453  1.00  0.00     0.091 A 
ATOM     97  F   UNL A   1      42.679  30.048  32.203  1.00  0.00    -0.205 F 
ATOM     98  C   UNL A   1      41.740  30.363  35.727  1.00  0.00     0.022 A 
BRANCH  96  99
ATOM     99  S   UNL A   1      41.359  28.130  34.167  1.00  0.00     0.127 S 
ATOM    100  O   UNL A   1      40.132  28.352  33.404  1.00  0.00    -0.237 OA
ATOM    101  O   UNL A   1      42.461  27.548  33.400  1.00  0.00    -0.237 OA
ATOM    102  O   UNL A   1      41.181  27.539  35.488  1.00  0.00    -0.744 OA
ENDBRANCH  96  99
ENDBRANCH  69  92
ENDBRANCH  43  44
ENDBRANCH  35  38
ENDBRANCH  33  34
ENDBRANCH  32  33
ENDBRANCH  31  32
ENDBRANCH   1  31
TORSDOF 20
ENDMDL
MODEL 3
REMARK VINA RESULT:     -10.6      1.686      2.915
REMARK SMILES Cc1nn(C)cc1C[NH+]1CCN(C(=O)Cn2ccc(C(=O)NCCCCCCNC(=O)c3ccc(-c4c5nc(c(-c6cccc(S(=O)(=O)[O-])c6F)c6ccc([nH]6)c(-c6cccc(S(=O)(=O)[O-])c6F)c6nc(c(-c7cccc(S(=O)(=O)[O-])c7F)c7ccc4[nH]7)C=C6)C=C5)cc3)n2)CC1
REMARK SMILES IDX 25 1 24 2 23 3 22 4 20 5 21 6 19 8 16 9 17 10 95 11 18 12
REMARK SMILES IDX 15 13 13 14 9 15 10 16 97 17 11 19 96 20 12 21 14 22 8 23
REMARK SMILES IDX 7 24 1 25 2 26 3 27 4 28 6 29 5 30 26 31 27 32 28 33 29 34
REMARK SMILES IDX 30 35 31 37 32 38 33 39 94 40 34 41 93 42 35 43 36 44 37 45
REMARK SMILES IDX 87 46 38 47 92 48 86 49 88 50 39 51 91 52 85 53 84 54 40 56
REMARK SMILES IDX 72 57 52 58 71 59 53 60 56 61 70 62 89 63 54 64 55 65 69 67
REMARK SMILES IDX 90 68 57 69 41 70 42 71 50 72 43 73 45 74 51 75 44 76 46 77
REMARK SMILES IDX 47 78 48 79 49 80 73 81 74 82 82 83 75 84 77 85 83 86 76 87
REMARK SMILES IDX 78 88 79 89 80 90 81 91 58 92 59 93 67 94 60 95 62 96 68 97
REMARK SMILES IDX 61 98 63 99 64 100 65 101 66 102
REMARK H PARENT 22 7 9 18 29 36 88 55 56 66
REMARK Flexibility Score: inf
ROOT
ATOM      1  C   UNL A   1      31.454  28.844  25.713  1.00  0.00     0.002 C 
ENDROOT
BRANCH   1   2
ATOM      2  C   UNL A   1      31.086  29.919  24.682  1.00  0.00     0.021 C 
BRANCH   2   3
ATOM      3  C   UNL A   1      30.774  29.359  23.295  1.00  0.00     0.116 C 
BRANCH   3   4
ATOM      4  N   UNL A   1      29.404  28.901  23.220  1.00  0.00    -0.351 N 
ATOM      5  C   UNL A   1      28.820  27.672  23.411  1.00  0.00     0.271 C 
ATOM      6  O   UNL A   1      27.586  27.660  23.342  1.00  0.00    -0.267 OA
ATOM      7  H   UNL A   1      28.763  29.611  22.983  1.00  0.00     0.163 HD
BRANCH   5   8
ATOM      8  C   UNL A   1      29.606  26.459  23.723  1.00  0.00     0.150 A 
ATOM      9  N   UNL A   1      30.248  24.783  24.902  1.00  0.00    -0.263 N 
ATOM     10  C   UNL A   1      30.980  24.692  23.761  1.00  0.00     0.110 A 
ATOM     11  N   UNL A   1      29.424  25.847  24.914  1.00  0.00    -0.167 NA
ATOM     12  C   UNL A   1      30.555  25.726  22.959  1.00  0.00     0.056 A 
BRANCH   9  13
ATOM     13  C   UNL A   1      30.121  23.817  25.986  1.00  0.00     0.244 C 
BRANCH  13  14
ATOM     14  C   UNL A   1      31.396  23.638  26.788  1.00  0.00     0.244 C 
ATOM     15  N   UNL A   1      34.131  20.322  26.001  1.00  0.00    -0.328 N 
ATOM     16  C   UNL A   1      34.356  21.315  27.058  1.00  0.00     0.284 C 
ATOM     17  C   UNL A   1      32.708  20.206  25.679  1.00  0.00     0.284 C 
ATOM     18  H   UNL A   1      34.407  19.424  26.401  1.00  0.00     0.348 HD
ATOM     19  C   UNL A   1      33.628  22.662  26.904  1.00  0.00     0.181 C 
ATOM     20  C   UNL A   1      31.905  21.513  25.521  1.00  0.00     0.181 C 
ATOM     21  N   UNL A   1      32.221  22.551  26.503  1.00  0.00    -0.330 N 
ATOM     22  O   UNL A   1      31.693  24.458  27.662  1.00  0.00    -0.273 OA
BRANCH  15  23
ATOM     23  C   UNL A   1      35.050  20.368  24.853  1.00  0.00     0.302 C 
BRANCH  23  24
ATOM     24  C   UNL A   1      35.320  21.737  24.343  1.00  0.00     0.047 A 
ATOM     25  C   UNL A   1      37.794  22.178  25.129  1.00  0.00     0.069 C 
ATOM     26  C   UNL A   1      36.492  22.531  24.514  1.00  0.00     0.068 A 
ATOM     27  N   UNL A   1      36.303  23.781  24.081  1.00  0.00    -0.178 NA
ATOM     28  N   UNL A   1      35.095  23.755  23.498  1.00  0.00    -0.275 N 
ATOM     29  C   UNL A   1      34.510  22.524  23.547  1.00  0.00     0.118 A 
ATOM     30  C   UNL A   1      34.484  24.984  23.049  1.00  0.00     0.173 C 
ENDBRANCH  23  24
ENDBRANCH  15  23
ENDBRANCH  13  14
ENDBRANCH   9  13
ENDBRANCH   5   8
ENDBRANCH   3   4
ENDBRANCH   2   3
ENDBRANCH   1   2
BRANCH   1  31
ATOM     31  C   UNL A   1      32.263  29.334  26.925  1.00  0.00     0.002 C 
BRANCH  31  32
ATOM     32  C   UNL A   1      33.365  30.364  26.634  1.00  0.00     0.021 C 
BRANCH  32  33
ATOM     33  C   UNL A   1      34.448  30.410  27.700  1.00  0.00     0.116 C 
BRANCH  33  34
ATOM     34  N   UNL A   1      34.273  31.547  28.605  1.00  0.00    -0.352 N 
ATOM     35  C   UNL A   1      34.961  31.836  29.768  1.00  0.00     0.251 C 
ATOM     36  H   UNL A   1      33.574  32.192  28.350  1.00  0.00     0.163 HD
ATOM     37  O   UNL A   1      34.491  32.590  30.603  1.00  0.00    -0.269 OA
BRANCH  35  38
ATOM     38  C   UNL A   1      36.283  31.219  29.969  1.00  0.00     0.039 A 
ATOM     39  C   UNL A   1      36.414  29.861  30.274  1.00  0.00     0.014 A 
ATOM     40  C   UNL A   1      37.404  32.031  29.826  1.00  0.00     0.014 A 
ATOM     41  C   UNL A   1      37.691  29.314  30.359  1.00  0.00     0.010 A 
ATOM     42  C   UNL A   1      38.645  31.462  29.740  1.00  0.00     0.010 A 
ATOM     43  C   UNL A   1      38.801  30.123  30.075  1.00  0.00    -0.014 A 
BRANCH  43  44
ATOM     44  C   UNL A   1      40.145  29.565  29.997  1.00  0.00     0.031 A 
ATOM     45  C   UNL A   1      40.802  29.393  31.320  1.00  0.00     0.074 A 
ATOM     46  C   UNL A   1      40.630  29.025  28.857  1.00  0.00     0.049 A 
ATOM     47  N   UNL A   1      41.816  30.046  31.784  1.00  0.00    -0.248 NA
ATOM     48  C   UNL A   1      40.153  28.523  32.314  1.00  0.00     0.031 C 
ATOM     49  C   UNL A   1      39.927  28.848  27.577  1.00  0.00     0.029 A 
ATOM     50  N   UNL A   1      41.803  28.368  28.642  1.00  0.00    -0.354 N 
ATOM     51  C   UNL A   1      42.095  29.466  33.021  1.00  0.00     0.074 A 
ATOM     52  C   UNL A   1      40.914  28.733  33.390  1.00  0.00     0.031 C 
ATOM     53  C   UNL A   1      40.564  27.913  26.838  1.00  0.00     0.029 A 
ATOM     54  C   UNL A   1      41.802  27.562  27.504  1.00  0.00     0.049 A 
ATOM     55  H   UNL A   1      42.581  28.454  29.237  1.00  0.00     0.167 HD
ATOM     56  C   UNL A   1      43.374  29.390  33.485  1.00  0.00     0.034 A 
ATOM     57  C   UNL A   1      42.732  26.637  27.162  1.00  0.00     0.034 A 
ATOM     58  C   UNL A   1      44.248  30.243  32.717  1.00  0.00     0.049 A 
ATOM     59  C   UNL A   1      43.959  26.959  27.923  1.00  0.00     0.074 A 
ATOM     60  C   UNL A   1      44.303  31.590  32.423  1.00  0.00     0.029 A 
ATOM     61  N   UNL A   1      45.036  29.615  31.781  1.00  0.00    -0.354 N 
ATOM     62  N   UNL A   1      44.659  28.041  27.732  1.00  0.00    -0.248 NA
ATOM     63  C   UNL A   1      44.165  26.294  29.198  1.00  0.00     0.031 C 
ATOM     64  C   UNL A   1      44.737  31.652  31.066  1.00  0.00     0.029 A 
ATOM     65  C   UNL A   1      45.002  30.351  30.631  1.00  0.00     0.049 A 
ATOM     66  H   UNL A   1      45.537  28.779  31.917  1.00  0.00     0.167 HD
ATOM     67  C   UNL A   1      45.003  28.450  29.013  1.00  0.00     0.074 A 
ATOM     68  C   UNL A   1      44.789  27.275  29.856  1.00  0.00     0.031 C 
ATOM     69  C   UNL A   1      45.134  29.777  29.309  1.00  0.00     0.034 A 
BRANCH  56  70
ATOM     70  C   UNL A   1      43.944  28.261  34.326  1.00  0.00     0.023 A 
ATOM     71  C   UNL A   1      44.698  28.634  35.463  1.00  0.00     0.012 A 
ATOM     72  C   UNL A   1      44.037  26.909  33.920  1.00  0.00     0.148 A 
ATOM     73  C   UNL A   1      45.560  27.738  36.106  1.00  0.00     0.002 A 
ATOM     74  C   UNL A   1      44.837  26.003  34.608  1.00  0.00     0.091 A 
ATOM     75  F   UNL A   1      43.462  26.502  32.788  1.00  0.00    -0.205 F 
ATOM     76  C   UNL A   1      45.629  26.420  35.679  1.00  0.00     0.022 A 
BRANCH  74  77
ATOM     77  S   UNL A   1      44.932  24.273  34.125  1.00  0.00     0.127 S 
ATOM     78  O   UNL A   1      45.935  23.767  35.058  1.00  0.00    -0.237 OA
ATOM     79  O   UNL A   1      43.564  23.820  34.376  1.00  0.00    -0.237 OA
ATOM     80  O   UNL A   1      45.310  24.278  32.717  1.00  0.00    -0.744 OA
ENDBRANCH  74  77
ENDBRANCH  56  70
BRANCH  57  81
ATOM     81  C   UNL A   1      42.596  25.367  26.413  1.00  0.00     0.023 A 
ATOM     82  C   UNL A   1      43.306  25.193  25.207  1.00  0.00     0.012 A 
ATOM     83  C   UNL A   1      42.020  24.228  27.018  1.00  0.00     0.148 A 
ATOM     84  C   UNL A   1      43.475  23.920  24.647  1.00  0.00     0.002 A 
ATOM     85  C   UNL A   1      42.190  22.964  26.458  1.00  0.00     0.091 A 
ATOM     86  F   UNL A   1      41.385  24.373  28.189  1.00  0.00    -0.205 F 
ATOM     87  C   UNL A   1      42.930  22.806  25.278  1.00  0.00     0.022 A 
BRANCH  85  88
ATOM     88  S   UNL A   1      41.542  21.473  27.229  1.00  0.00     0.127 S 
ATOM     89  O   UNL A   1      41.779  20.466  26.194  1.00  0.00    -0.237 OA
ATOM     90  O   UNL A   1      42.387  21.342  28.412  1.00  0.00    -0.237 OA
ATOM     91  O   UNL A   1      40.133  21.735  27.497  1.00  0.00    -0.744 OA
ENDBRANCH  85  88
ENDBRANCH  57  81
BRANCH  69  92
ATOM     92  C   UNL A   1      45.196  30.754  28.162  1.00  0.00     0.023 A 
ATOM     93  C   UNL A   1      44.049  31.197  27.467  1.00  0.00     0.012 A 
ATOM     94  C   UNL A   1      46.432  31.359  27.885  1.00  0.00     0.148 A 
ATOM     95  C   UNL A   1      44.143  32.205  26.502  1.00  0.00     0.002 A 
ATOM     96  C   UNL A   1      46.512  32.392  26.961  1.00  0.00     0.091 A 
ATOM     97  F   UNL A   1      47.511  30.927  28.554  1.00  0.00    -0.205 F 
ATOM     98  C   UNL A   1      45.372  32.812  26.259  1.00  0.00     0.022 A 
BRANCH  96  99
ATOM     99  S   UNL A   1      48.043  33.290  26.707  1.00  0.00     0.127 S 
ATOM    100  O   UNL A   1      48.245  33.922  28.010  1.00  0.00    -0.237 OA
ATOM    101  O   UNL A   1      48.989  32.218  26.393  1.00  0.00    -0.237 OA
ATOM    102  O   UNL A   1      47.791  34.202  25.598  1.00  0.00    -0.744 OA
ENDBRANCH  96  99
ENDBRANCH  69  92
ENDBRANCH  43  44
ENDBRANCH  35  38
ENDBRANCH  33  34
ENDBRANCH  32  33
ENDBRANCH  31  32
ENDBRANCH   1  31
TORSDOF 20
ENDMDL
