MODEL 1
REMARK VINA RESULT:      -9.9      0.000      0.000
REMARK SMILES [NH3+]CCOCC(=O)N[C@]1(C(=O)NCCCCCCNC(=O)c2ccc(-c3c4nc(c(-c5cccc(S(=O)(=O)[O-])c5F)c5ccc([nH]5)c(-c5cccc(S(=O)(=O)[O-])c5F)c5nc(c(-c6cccc(S(=O)(=O)[O-])c6F)c6ccc3[nH]6)C=C5)C=C4)cc2)CCOC1
REMARK SMILES IDX 14 1 13 2 12 3 10 4 11 5 9 7 85 8 88 9 86 10 87 11 8 12 6 13
REMARK SMILES IDX 7 14 5 16 4 17 3 18 2 19 1 20 15 24 16 25 17 26 18 27 19 28
REMARK SMILES IDX 20 29 21 31 22 32 23 33 84 34 24 35 83 36 25 37 26 38 27 39
REMARK SMILES IDX 77 40 28 41 82 42 76 43 78 44 29 45 81 46 75 47 74 48 30 50
REMARK SMILES IDX 62 51 42 52 61 53 43 54 46 55 60 56 79 57 44 58 45 59 59 61
REMARK SMILES IDX 80 62 47 63 31 64 32 65 40 66 33 67 35 68 41 69 34 70 36 71
REMARK SMILES IDX 37 72 38 73 39 74 63 75 64 76 72 77 65 78 67 79 73 80 66 81
REMARK SMILES IDX 68 82 69 83 70 84 71 85 48 86 49 87 57 88 50 89 52 90 58 91
REMARK SMILES IDX 51 92 53 93 54 94 55 95 56 96
REMARK H PARENT 12 6 8 15 1 21 1 22 1 23 19 30 78 49 46 60
REMARK Flexibility Score: inf
ROOT
ATOM      1  C   UNL A   1      35.056  22.416  23.980  1.00  0.00     0.021 C 
ENDROOT
BRANCH   1   2
ATOM      2  C   UNL A   1      34.518  23.829  24.215  1.00  0.00     0.116 C 
BRANCH   2   3
ATOM      3  N   UNL A   1      34.068  24.406  22.968  1.00  0.00    -0.354 N 
ATOM      4  C   UNL A   1      33.454  25.562  22.648  1.00  0.00     0.248 C 
ATOM      5  O   UNL A   1      33.411  25.798  21.429  1.00  0.00    -0.272 OA
ATOM      6  H   UNL A   1      34.248  23.833  22.187  1.00  0.00     0.163 HD
BRANCH   4   7
ATOM      7  C   UNL A   1      32.988  26.637  23.664  1.00  0.00     0.144 C 
ATOM      8  C   UNL A   1      33.925  27.302  24.666  1.00  0.00     0.069 C 
ATOM      9  C   UNL A   1      32.534  27.811  22.765  1.00  0.00     0.198 C 
ATOM     10  C   UNL A   1      33.718  28.791  24.478  1.00  0.00     0.163 C 
ATOM     11  O   UNL A   1      33.257  28.984  23.151  1.00  0.00    -0.378 OA
BRANCH   7  12
ATOM     12  N   UNL A   1      31.853  26.021  24.400  1.00  0.00    -0.338 N 
ATOM     13  C   UNL A   1      30.509  26.206  24.207  1.00  0.00     0.246 C 
ATOM     14  O   UNL A   1      29.723  25.684  25.002  1.00  0.00    -0.272 OA
ATOM     15  H   UNL A   1      32.098  25.398  25.121  1.00  0.00     0.164 HD
BRANCH  13  16
ATOM     16  C   UNL A   1      29.978  27.042  23.020  1.00  0.00     0.260 C 
BRANCH  16  17
ATOM     17  O   UNL A   1      28.857  27.883  23.199  1.00  0.00    -0.366 OA
BRANCH  17  18
ATOM     18  C   UNL A   1      29.154  29.280  23.261  1.00  0.00     0.222 C 
BRANCH  18  19
ATOM     19  C   UNL A   1      29.324  29.947  21.887  1.00  0.00     0.287 C 
BRANCH  19  20
ATOM     20  N   UNL A   1      30.714  30.170  21.478  1.00  0.00    -0.356 N 
ATOM     21  H   UNL A   1      30.836  29.866  20.513  1.00  0.00     0.344 HD
ATOM     22  H   UNL A   1      31.336  29.635  22.084  1.00  0.00     0.344 HD
ATOM     23  H   UNL A   1      30.935  31.163  21.553  1.00  0.00     0.344 HD
ENDBRANCH  19  20
ENDBRANCH  18  19
ENDBRANCH  17  18
ENDBRANCH  16  17
ENDBRANCH  13  16
ENDBRANCH   7  12
ENDBRANCH   4   7
ENDBRANCH   2   3
ENDBRANCH   1   2
BRANCH   1  24
ATOM     24  C   UNL A   1      36.579  22.344  23.790  1.00  0.00     0.002 C 
BRANCH  24  25
ATOM     25  C   UNL A   1      37.389  22.178  25.080  1.00  0.00     0.002 C 
BRANCH  25  26
ATOM     26  C   UNL A   1      38.236  20.908  25.151  1.00  0.00     0.021 C 
BRANCH  26  27
ATOM     27  C   UNL A   1      39.308  20.918  26.233  1.00  0.00     0.116 C 
BRANCH  27  28
ATOM     28  N   UNL A   1      40.239  19.809  26.097  1.00  0.00    -0.352 N 
ATOM     29  C   UNL A   1      41.612  19.832  26.089  1.00  0.00     0.251 C 
ATOM     30  H   UNL A   1      39.829  18.919  25.999  1.00  0.00     0.163 HD
ATOM     31  O   UNL A   1      42.246  18.823  25.792  1.00  0.00    -0.269 OA
BRANCH  29  32
ATOM     32  C   UNL A   1      42.318  21.089  26.409  1.00  0.00     0.039 A 
ATOM     33  C   UNL A   1      42.628  21.971  25.373  1.00  0.00     0.014 A 
ATOM     34  C   UNL A   1      42.635  21.412  27.733  1.00  0.00     0.014 A 
ATOM     35  C   UNL A   1      43.193  23.212  25.671  1.00  0.00     0.010 A 
ATOM     36  C   UNL A   1      43.130  22.676  28.033  1.00  0.00     0.010 A 
ATOM     37  C   UNL A   1      43.406  23.593  27.007  1.00  0.00    -0.014 A 
BRANCH  37  38
ATOM     38  C   UNL A   1      43.867  24.962  27.353  1.00  0.00     0.031 A 
ATOM     39  C   UNL A   1      42.890  25.999  27.831  1.00  0.00     0.074 A 
ATOM     40  C   UNL A   1      45.155  25.296  27.138  1.00  0.00     0.049 A 
ATOM     41  N   UNL A   1      43.099  27.259  28.110  1.00  0.00    -0.248 NA
ATOM     42  C   UNL A   1      41.492  25.572  27.999  1.00  0.00     0.031 C 
ATOM     43  C   UNL A   1      46.184  24.398  26.607  1.00  0.00     0.029 A 
ATOM     44  N   UNL A   1      45.814  26.488  27.312  1.00  0.00    -0.354 N 
ATOM     45  C   UNL A   1      41.860  27.785  28.453  1.00  0.00     0.074 A 
ATOM     46  C   UNL A   1      40.897  26.712  28.321  1.00  0.00     0.031 C 
ATOM     47  C   UNL A   1      47.341  25.070  26.497  1.00  0.00     0.029 A 
ATOM     48  C   UNL A   1      47.129  26.453  26.910  1.00  0.00     0.049 A 
ATOM     49  H   UNL A   1      45.386  27.291  27.687  1.00  0.00     0.167 HD
ATOM     50  C   UNL A   1      41.555  29.038  28.864  1.00  0.00     0.034 A 
ATOM     51  C   UNL A   1      48.057  27.430  26.857  1.00  0.00     0.034 A 
ATOM     52  C   UNL A   1      42.520  30.094  29.019  1.00  0.00     0.049 A 
ATOM     53  C   UNL A   1      47.692  28.812  27.325  1.00  0.00     0.074 A 
ATOM     54  C   UNL A   1      42.323  31.371  29.515  1.00  0.00     0.029 A 
ATOM     55  N   UNL A   1      43.857  30.006  28.664  1.00  0.00    -0.354 N 
ATOM     56  N   UNL A   1      46.552  29.246  27.805  1.00  0.00    -0.248 NA
ATOM     57  C   UNL A   1      48.748  29.832  27.273  1.00  0.00     0.031 C 
ATOM     58  C   UNL A   1      43.533  32.068  29.423  1.00  0.00     0.029 A 
ATOM     59  C   UNL A   1      44.492  31.213  28.904  1.00  0.00     0.049 A 
ATOM     60  H   UNL A   1      44.290  29.203  28.294  1.00  0.00     0.167 HD
ATOM     61  C   UNL A   1      46.760  30.580  28.134  1.00  0.00     0.074 A 
ATOM     62  C   UNL A   1      48.145  30.874  27.827  1.00  0.00     0.031 C 
ATOM     63  C   UNL A   1      45.880  31.485  28.629  1.00  0.00     0.034 A 
BRANCH  50  64
ATOM     64  C   UNL A   1      40.118  29.332  29.214  1.00  0.00     0.023 A 
ATOM     65  C   UNL A   1      39.191  29.600  28.187  1.00  0.00     0.012 A 
ATOM     66  C   UNL A   1      39.674  29.279  30.550  1.00  0.00     0.148 A 
ATOM     67  C   UNL A   1      37.851  29.844  28.484  1.00  0.00     0.002 A 
ATOM     68  C   UNL A   1      38.327  29.478  30.835  1.00  0.00     0.091 A 
ATOM     69  F   UNL A   1      40.574  29.043  31.515  1.00  0.00    -0.205 F 
ATOM     70  C   UNL A   1      37.418  29.773  29.805  1.00  0.00     0.022 A 
BRANCH  68  71
ATOM     71  S   UNL A   1      37.655  29.330  32.493  1.00  0.00     0.127 S 
ATOM     72  O   UNL A   1      38.518  30.239  33.244  1.00  0.00    -0.237 OA
ATOM     73  O   UNL A   1      36.283  29.803  32.311  1.00  0.00    -0.237 OA
ATOM     74  O   UNL A   1      37.771  27.923  32.851  1.00  0.00    -0.744 OA
ENDBRANCH  68  71
ENDBRANCH  50  64
BRANCH  51  75
ATOM     75  C   UNL A   1      49.433  27.124  26.376  1.00  0.00     0.023 A 
ATOM     76  C   UNL A   1      49.683  27.042  24.992  1.00  0.00     0.012 A 
ATOM     77  C   UNL A   1      50.499  26.937  27.278  1.00  0.00     0.148 A 
ATOM     78  C   UNL A   1      50.962  26.748  24.517  1.00  0.00     0.002 A 
ATOM     79  C   UNL A   1      51.780  26.702  26.797  1.00  0.00     0.091 A 
ATOM     80  F   UNL A   1      50.238  27.007  28.591  1.00  0.00    -0.205 F 
ATOM     81  C   UNL A   1      52.012  26.588  25.417  1.00  0.00     0.022 A 
BRANCH  79  82
ATOM     82  S   UNL A   1      53.214  26.617  27.876  1.00  0.00     0.127 S 
ATOM     83  O   UNL A   1      53.638  28.014  27.919  1.00  0.00    -0.237 OA
ATOM     84  O   UNL A   1      52.627  26.112  29.117  1.00  0.00    -0.237 OA
ATOM     85  O   UNL A   1      54.139  25.696  27.231  1.00  0.00    -0.744 OA
ENDBRANCH  79  82
ENDBRANCH  51  75
BRANCH  63  86
ATOM     86  C   UNL A   1      46.387  32.880  28.891  1.00  0.00     0.023 A 
ATOM     87  C   UNL A   1      47.116  33.150  30.067  1.00  0.00     0.012 A 
ATOM     88  C   UNL A   1      46.204  33.905  27.942  1.00  0.00     0.148 A 
ATOM     89  C   UNL A   1      47.623  34.426  30.310  1.00  0.00     0.002 A 
ATOM     90  C   UNL A   1      46.757  35.160  28.166  1.00  0.00     0.091 A 
ATOM     91  F   UNL A   1      45.495  33.632  26.836  1.00  0.00    -0.205 F 
ATOM     92  C   UNL A   1      47.455  35.426  29.355  1.00  0.00     0.022 A 
BRANCH  90  93
ATOM     93  S   UNL A   1      46.674  36.484  26.955  1.00  0.00     0.127 S 
ATOM     94  O   UNL A   1      47.518  37.505  27.572  1.00  0.00    -0.237 OA
ATOM     95  O   UNL A   1      47.250  35.852  25.768  1.00  0.00    -0.237 OA
ATOM     96  O   UNL A   1      45.265  36.832  26.833  1.00  0.00    -0.744 OA
ENDBRANCH  90  93
ENDBRANCH  63  86
ENDBRANCH  37  38
ENDBRANCH  29  32
ENDBRANCH  27  28
ENDBRANCH  26  27
ENDBRANCH  25  26
ENDBRANCH  24  25
ENDBRANCH   1  24
TORSDOF 22
ENDMDL
MODEL 2
REMARK VINA RESULT:      -9.8      2.130      2.847
REMARK SMILES [NH3+]CCOCC(=O)N[C@]1(C(=O)NCCCCCCNC(=O)c2ccc(-c3c4nc(c(-c5cccc(S(=O)(=O)[O-])c5F)c5ccc([nH]5)c(-c5cccc(S(=O)(=O)[O-])c5F)c5nc(c(-c6cccc(S(=O)(=O)[O-])c6F)c6ccc3[nH]6)C=C5)C=C4)cc2)CCOC1
REMARK SMILES IDX 14 1 13 2 12 3 10 4 11 5 9 7 85 8 88 9 86 10 87 11 8 12 6 13
REMARK SMILES IDX 7 14 5 16 4 17 3 18 2 19 1 20 15 24 16 25 17 26 18 27 19 28
REMARK SMILES IDX 20 29 21 31 22 32 23 33 84 34 24 35 83 36 25 37 26 38 27 39
REMARK SMILES IDX 77 40 28 41 82 42 76 43 78 44 29 45 81 46 75 47 74 48 30 50
REMARK SMILES IDX 62 51 42 52 61 53 43 54 46 55 60 56 79 57 44 58 45 59 59 61
REMARK SMILES IDX 80 62 47 63 31 64 32 65 40 66 33 67 35 68 41 69 34 70 36 71
REMARK SMILES IDX 37 72 38 73 39 74 63 75 64 76 72 77 65 78 67 79 73 80 66 81
REMARK SMILES IDX 68 82 69 83 70 84 71 85 48 86 49 87 57 88 50 89 52 90 58 91
REMARK SMILES IDX 51 92 53 93 54 94 55 95 56 96
REMARK H PARENT 12 6 8 15 1 21 1 22 1 23 19 30 78 49 46 60
REMARK Flexibility Score: inf
ROOT
ATOM      1  C   UNL A   1      33.340  23.523  22.992  1.00  0.00     0.021 C 
ENDROOT
BRANCH   1   2
ATOM      2  C   UNL A   1      33.056  24.950  23.463  1.00  0.00     0.116 C 
BRANCH   2   3
ATOM      3  N   UNL A   1      32.300  25.667  22.461  1.00  0.00    -0.354 N 
ATOM      4  C   UNL A   1      31.281  26.548  22.520  1.00  0.00     0.248 C 
ATOM      5  O   UNL A   1      31.028  27.109  21.441  1.00  0.00    -0.272 OA
ATOM      6  H   UNL A   1      32.590  25.470  21.540  1.00  0.00     0.163 HD
BRANCH   4   7
ATOM      7  C   UNL A   1      30.571  27.007  23.820  1.00  0.00     0.144 C 
ATOM      8  C   UNL A   1      30.556  26.181  25.101  1.00  0.00     0.069 C 
ATOM      9  C   UNL A   1      31.347  28.282  24.225  1.00  0.00     0.198 C 
ATOM     10  C   UNL A   1      31.033  27.122  26.188  1.00  0.00     0.163 C 
ATOM     11  O   UNL A   1      31.830  28.114  25.561  1.00  0.00    -0.378 OA
BRANCH   7  12
ATOM     12  N   UNL A   1      29.170  27.305  23.421  1.00  0.00    -0.338 N 
ATOM     13  C   UNL A   1      28.596  28.521  23.163  1.00  0.00     0.246 C 
ATOM     14  O   UNL A   1      27.380  28.566  22.954  1.00  0.00    -0.272 OA
ATOM     15  H   UNL A   1      28.576  26.525  23.330  1.00  0.00     0.164 HD
BRANCH  13  16
ATOM     16  C   UNL A   1      29.442  29.815  23.125  1.00  0.00     0.260 C 
BRANCH  16  17
ATOM     17  O   UNL A   1      29.256  30.745  22.079  1.00  0.00    -0.366 OA
BRANCH  17  18
ATOM     18  C   UNL A   1      28.220  31.705  22.301  1.00  0.00     0.222 C 
BRANCH  18  19
ATOM     19  C   UNL A   1      28.026  32.698  21.144  1.00  0.00     0.287 C 
BRANCH  19  20
ATOM     20  N   UNL A   1      27.652  32.089  19.865  1.00  0.00    -0.356 N 
ATOM     21  H   UNL A   1      26.726  31.670  19.946  1.00  0.00     0.344 HD
ATOM     22  H   UNL A   1      28.331  31.368  19.621  1.00  0.00     0.344 HD
ATOM     23  H   UNL A   1      27.640  32.805  19.139  1.00  0.00     0.344 HD
ENDBRANCH  19  20
ENDBRANCH  18  19
ENDBRANCH  17  18
ENDBRANCH  16  17
ENDBRANCH  13  16
ENDBRANCH   7  12
ENDBRANCH   4   7
ENDBRANCH   2   3
ENDBRANCH   1   2
BRANCH   1  24
ATOM     24  C   UNL A   1      34.636  22.919  23.555  1.00  0.00     0.002 C 
BRANCH  24  25
ATOM     25  C   UNL A   1      34.458  21.616  24.342  1.00  0.00     0.002 C 
BRANCH  25  26
ATOM     26  C   UNL A   1      35.345  21.485  25.581  1.00  0.00     0.021 C 
BRANCH  26  27
ATOM     27  C   UNL A   1      36.787  21.930  25.379  1.00  0.00     0.116 C 
BRANCH  27  28
ATOM     28  N   UNL A   1      37.733  20.844  25.583  1.00  0.00    -0.352 N 
ATOM     29  C   UNL A   1      39.022  20.901  26.053  1.00  0.00     0.251 C 
ATOM     30  H   UNL A   1      37.404  19.945  25.354  1.00  0.00     0.163 HD
ATOM     31  O   UNL A   1      39.743  19.909  26.003  1.00  0.00    -0.269 OA
BRANCH  29  32
ATOM     32  C   UNL A   1      39.542  22.175  26.591  1.00  0.00     0.039 A 
ATOM     33  C   UNL A   1      40.551  22.138  27.553  1.00  0.00     0.014 A 
ATOM     34  C   UNL A   1      39.060  23.399  26.116  1.00  0.00     0.014 A 
ATOM     35  C   UNL A   1      41.132  23.331  27.988  1.00  0.00     0.010 A 
ATOM     36  C   UNL A   1      39.688  24.580  26.497  1.00  0.00     0.010 A 
ATOM     37  C   UNL A   1      40.736  24.559  27.430  1.00  0.00    -0.014 A 
BRANCH  37  38
ATOM     38  C   UNL A   1      41.441  25.821  27.770  1.00  0.00     0.031 A 
ATOM     39  C   UNL A   1      40.711  26.944  28.451  1.00  0.00     0.074 A 
ATOM     40  C   UNL A   1      42.719  25.988  27.374  1.00  0.00     0.049 A 
ATOM     41  N   UNL A   1      41.143  28.139  28.759  1.00  0.00    -0.248 NA
ATOM     42  C   UNL A   1      39.305  26.703  28.814  1.00  0.00     0.031 C 
ATOM     43  C   UNL A   1      43.513  24.999  26.641  1.00  0.00     0.029 A 
ATOM     44  N   UNL A   1      43.565  27.061  27.504  1.00  0.00    -0.354 N 
ATOM     45  C   UNL A   1      40.061  28.803  29.321  1.00  0.00     0.074 A 
ATOM     46  C   UNL A   1      38.941  27.887  29.286  1.00  0.00     0.031 C 
ATOM     47  C   UNL A   1      44.727  25.511  26.385  1.00  0.00     0.029 A 
ATOM     48  C   UNL A   1      44.786  26.875  26.898  1.00  0.00     0.049 A 
ATOM     49  H   UNL A   1      43.321  27.885  27.984  1.00  0.00     0.167 HD
ATOM     50  C   UNL A   1      40.009  30.052  29.840  1.00  0.00     0.034 A 
ATOM     51  C   UNL A   1      45.830  27.715  26.752  1.00  0.00     0.034 A 
ATOM     52  C   UNL A   1      41.132  30.950  29.897  1.00  0.00     0.049 A 
ATOM     53  C   UNL A   1      45.748  29.095  27.344  1.00  0.00     0.074 A 
ATOM     54  C   UNL A   1      41.203  32.201  30.484  1.00  0.00     0.029 A 
ATOM     55  N   UNL A   1      42.373  30.705  29.331  1.00  0.00    -0.354 N 
ATOM     56  N   UNL A   1      44.769  29.645  28.020  1.00  0.00    -0.248 NA
ATOM     57  C   UNL A   1      46.925  29.960  27.180  1.00  0.00     0.031 C 
ATOM     58  C   UNL A   1      42.476  32.728  30.240  1.00  0.00     0.029 A 
ATOM     59  C   UNL A   1      43.210  31.791  29.532  1.00  0.00     0.049 A 
ATOM     60  H   UNL A   1      42.624  29.880  28.856  1.00  0.00     0.167 HD
ATOM     61  C   UNL A   1      45.219  30.910  28.382  1.00  0.00     0.074 A 
ATOM     62  C   UNL A   1      46.571  31.031  27.876  1.00  0.00     0.031 C 
ATOM     63  C   UNL A   1      44.566  31.888  29.057  1.00  0.00     0.034 A 
BRANCH  50  64
ATOM     64  C   UNL A   1      38.700  30.515  30.427  1.00  0.00     0.023 A 
ATOM     65  C   UNL A   1      38.404  30.239  31.777  1.00  0.00     0.012 A 
ATOM     66  C   UNL A   1      37.794  31.277  29.663  1.00  0.00     0.148 A 
ATOM     67  C   UNL A   1      37.213  30.684  32.349  1.00  0.00     0.002 A 
ATOM     68  C   UNL A   1      36.630  31.757  30.253  1.00  0.00     0.091 A 
ATOM     69  F   UNL A   1      38.084  31.513  28.375  1.00  0.00    -0.205 F 
ATOM     70  C   UNL A   1      36.333  31.450  31.591  1.00  0.00     0.022 A 
BRANCH  68  71
ATOM     71  S   UNL A   1      35.469  32.818  29.387  1.00  0.00     0.127 S 
ATOM     72  O   UNL A   1      36.064  34.137  29.594  1.00  0.00    -0.237 OA
ATOM     73  O   UNL A   1      35.560  32.317  28.016  1.00  0.00    -0.237 OA
ATOM     74  O   UNL A   1      34.178  32.610  30.028  1.00  0.00    -0.744 OA
ENDBRANCH  68  71
ENDBRANCH  50  64
BRANCH  51  75
ATOM     75  C   UNL A   1      47.059  27.259  26.044  1.00  0.00     0.023 A 
ATOM     76  C   UNL A   1      47.185  27.476  24.659  1.00  0.00     0.012 A 
ATOM     77  C   UNL A   1      48.113  26.632  26.739  1.00  0.00     0.148 A 
ATOM     78  C   UNL A   1      48.323  27.050  23.972  1.00  0.00     0.002 A 
ATOM     79  C   UNL A   1      49.266  26.261  26.059  1.00  0.00     0.091 A 
ATOM     80  F   UNL A   1      47.969  26.422  28.055  1.00  0.00    -0.205 F 
ATOM     81  C   UNL A   1      49.366  26.452  24.672  1.00  0.00     0.022 A 
BRANCH  79  82
ATOM     82  S   UNL A   1      50.713  25.610  26.902  1.00  0.00     0.127 S 
ATOM     83  O   UNL A   1      51.104  26.739  27.741  1.00  0.00    -0.237 OA
ATOM     84  O   UNL A   1      50.152  24.468  27.624  1.00  0.00    -0.237 OA
ATOM     85  O   UNL A   1      51.653  25.250  25.849  1.00  0.00    -0.744 OA
ENDBRANCH  79  82
ENDBRANCH  51  75
BRANCH  63  86
ATOM     86  C   UNL A   1      45.308  33.176  29.309  1.00  0.00     0.023 A 
ATOM     87  C   UNL A   1      46.133  33.297  30.445  1.00  0.00     0.012 A 
ATOM     88  C   UNL A   1      45.244  34.238  28.385  1.00  0.00     0.148 A 
ATOM     89  C   UNL A   1      46.854  34.468  30.676  1.00  0.00     0.002 A 
ATOM     90  C   UNL A   1      46.006  35.381  28.595  1.00  0.00     0.091 A 
ATOM     91  F   UNL A   1      44.442  34.109  27.318  1.00  0.00    -0.205 F 
ATOM     92  C   UNL A   1      46.801  35.503  29.746  1.00  0.00     0.022 A 
BRANCH  90  93
ATOM     93  S   UNL A   1      46.076  36.728  27.409  1.00  0.00     0.127 S 
ATOM     94  O   UNL A   1      44.732  37.291  27.518  1.00  0.00    -0.237 OA
ATOM     95  O   UNL A   1      47.137  37.570  27.961  1.00  0.00    -0.237 OA
ATOM     96  O   UNL A   1      46.393  36.119  26.124  1.00  0.00    -0.744 OA
ENDBRANCH  90  93
ENDBRANCH  63  86
ENDBRANCH  37  38
ENDBRANCH  29  32
ENDBRANCH  27  28
ENDBRANCH  26  27
ENDBRANCH  25  26
ENDBRANCH  24  25
ENDBRANCH   1  24
TORSDOF 22
ENDMDL
MODEL 3
REMARK VINA RESULT:      -9.6      2.492      8.223
REMARK SMILES [NH3+]CCOCC(=O)N[C@]1(C(=O)NCCCCCCNC(=O)c2ccc(-c3c4nc(c(-c5cccc(S(=O)(=O)[O-])c5F)c5ccc([nH]5)c(-c5cccc(S(=O)(=O)[O-])c5F)c5nc(c(-c6cccc(S(=O)(=O)[O-])c6F)c6ccc3[nH]6)C=C5)C=C4)cc2)CCOC1
REMARK SMILES IDX 14 1 13 2 12 3 10 4 11 5 9 7 85 8 88 9 86 10 87 11 8 12 6 13
REMARK SMILES IDX 7 14 5 16 4 17 3 18 2 19 1 20 15 24 16 25 17 26 18 27 19 28
REMARK SMILES IDX 20 29 21 31 22 32 23 33 84 34 24 35 83 36 25 37 26 38 27 39
REMARK SMILES IDX 77 40 28 41 82 42 76 43 78 44 29 45 81 46 75 47 74 48 30 50
REMARK SMILES IDX 62 51 42 52 61 53 43 54 46 55 60 56 79 57 44 58 45 59 59 61
REMARK SMILES IDX 80 62 47 63 31 64 32 65 40 66 33 67 35 68 41 69 34 70 36 71
REMARK SMILES IDX 37 72 38 73 39 74 63 75 64 76 72 77 65 78 67 79 73 80 66 81
REMARK SMILES IDX 68 82 69 83 70 84 71 85 48 86 49 87 57 88 50 89 52 90 58 91
REMARK SMILES IDX 51 92 53 93 54 94 55 95 56 96
REMARK H PARENT 12 6 8 15 1 21 1 22 1 23 19 30 78 49 46 60
REMARK Flexibility Score: inf
ROOT
ATOM      1  C   UNL A   1      37.235  21.821  24.792  1.00  0.00     0.021 C 
ENDROOT
BRANCH   1   2
ATOM      2  C   UNL A   1      35.873  22.492  24.605  1.00  0.00     0.116 C 
BRANCH   2   3
ATOM      3  N   UNL A   1      35.282  22.789  25.890  1.00  0.00    -0.354 N 
ATOM      4  C   UNL A   1      34.082  22.523  26.444  1.00  0.00     0.248 C 
ATOM      5  O   UNL A   1      34.016  22.768  27.660  1.00  0.00    -0.272 OA
ATOM      6  H   UNL A   1      35.882  23.293  26.487  1.00  0.00     0.163 HD
BRANCH   4   7
ATOM      7  C   UNL A   1      32.909  21.800  25.731  1.00  0.00     0.144 C 
ATOM      8  C   UNL A   1      32.502  22.088  24.291  1.00  0.00     0.069 C 
ATOM      9  C   UNL A   1      33.369  20.324  25.685  1.00  0.00     0.198 C 
ATOM     10  C   UNL A   1      32.465  20.736  23.610  1.00  0.00     0.163 C 
ATOM     11  O   UNL A   1      33.345  19.883  24.324  1.00  0.00    -0.378 OA
BRANCH   7  12
ATOM     12  N   UNL A   1      31.730  21.994  26.615  1.00  0.00    -0.338 N 
ATOM     13  C   UNL A   1      30.890  23.073  26.694  1.00  0.00     0.246 C 
ATOM     14  O   UNL A   1      30.029  23.085  27.578  1.00  0.00    -0.272 OA
ATOM     15  H   UNL A   1      31.524  21.248  27.223  1.00  0.00     0.164 HD
BRANCH  13  16
ATOM     16  C   UNL A   1      31.006  24.253  25.702  1.00  0.00     0.260 C 
BRANCH  16  17
ATOM     17  O   UNL A   1      31.824  25.360  26.018  1.00  0.00    -0.366 OA
BRANCH  17  18
ATOM     18  C   UNL A   1      31.159  26.625  26.013  1.00  0.00     0.222 C 
BRANCH  18  19
ATOM     19  C   UNL A   1      31.862  27.708  26.847  1.00  0.00     0.287 C 
BRANCH  19  20
ATOM     20  N   UNL A   1      31.297  27.922  28.182  1.00  0.00    -0.356 N 
ATOM     21  H   UNL A   1      30.617  28.681  28.145  1.00  0.00     0.344 HD
ATOM     22  H   UNL A   1      32.044  28.167  28.831  1.00  0.00     0.344 HD
ATOM     23  H   UNL A   1      30.838  27.068  28.497  1.00  0.00     0.344 HD
ENDBRANCH  19  20
ENDBRANCH  18  19
ENDBRANCH  17  18
ENDBRANCH  16  17
ENDBRANCH  13  16
ENDBRANCH   7  12
ENDBRANCH   4   7
ENDBRANCH   2   3
ENDBRANCH   1   2
BRANCH   1  24
ATOM     24  C   UNL A   1      37.203  20.288  24.684  1.00  0.00     0.002 C 
BRANCH  24  25
ATOM     25  C   UNL A   1      38.497  19.580  25.099  1.00  0.00     0.002 C 
BRANCH  25  26
ATOM     26  C   UNL A   1      39.550  20.484  25.739  1.00  0.00     0.021 C 
BRANCH  26  27
ATOM     27  C   UNL A   1      40.486  19.779  26.712  1.00  0.00     0.116 C 
BRANCH  27  28
ATOM     28  N   UNL A   1      41.765  19.446  26.104  1.00  0.00    -0.352 N 
ATOM     29  C   UNL A   1      42.810  20.277  25.786  1.00  0.00     0.251 C 
ATOM     30  H   UNL A   1      41.900  18.493  25.893  1.00  0.00     0.163 HD
ATOM     31  O   UNL A   1      43.752  19.859  25.119  1.00  0.00    -0.269 OA
BRANCH  29  32
ATOM     32  C   UNL A   1      42.776  21.686  26.228  1.00  0.00     0.039 A 
ATOM     33  C   UNL A   1      42.980  21.975  27.577  1.00  0.00     0.014 A 
ATOM     34  C   UNL A   1      42.582  22.718  25.304  1.00  0.00     0.014 A 
ATOM     35  C   UNL A   1      43.064  23.305  27.992  1.00  0.00     0.010 A 
ATOM     36  C   UNL A   1      42.737  24.041  25.707  1.00  0.00     0.010 A 
ATOM     37  C   UNL A   1      42.988  24.348  27.053  1.00  0.00    -0.014 A 
BRANCH  37  38
ATOM     38  C   UNL A   1      43.221  25.760  27.450  1.00  0.00     0.031 A 
ATOM     39  C   UNL A   1      44.605  26.344  27.420  1.00  0.00     0.074 A 
ATOM     40  C   UNL A   1      42.193  26.485  27.934  1.00  0.00     0.049 A 
ATOM     41  N   UNL A   1      45.006  27.530  27.798  1.00  0.00    -0.248 NA
ATOM     42  C   UNL A   1      45.685  25.477  26.921  1.00  0.00     0.031 C 
ATOM     43  C   UNL A   1      40.816  26.006  28.082  1.00  0.00     0.029 A 
ATOM     44  N   UNL A   1      42.150  27.769  28.419  1.00  0.00    -0.354 N 
ATOM     45  C   UNL A   1      46.383  27.544  27.614  1.00  0.00     0.074 A 
ATOM     46  C   UNL A   1      46.754  26.236  27.117  1.00  0.00     0.031 C 
ATOM     47  C   UNL A   1      40.066  26.980  28.621  1.00  0.00     0.029 A 
ATOM     48  C   UNL A   1      40.913  28.136  28.895  1.00  0.00     0.049 A 
ATOM     49  H   UNL A   1      42.930  28.369  28.427  1.00  0.00     0.167 HD
ATOM     50  C   UNL A   1      47.255  28.559  27.818  1.00  0.00     0.034 A 
ATOM     51  C   UNL A   1      40.507  29.269  29.503  1.00  0.00     0.034 A 
ATOM     52  C   UNL A   1      46.878  29.865  28.287  1.00  0.00     0.049 A 
ATOM     53  C   UNL A   1      41.496  30.382  29.712  1.00  0.00     0.074 A 
ATOM     54  C   UNL A   1      47.675  30.987  28.440  1.00  0.00     0.029 A 
ATOM     55  N   UNL A   1      45.604  30.223  28.699  1.00  0.00    -0.354 N 
ATOM     56  N   UNL A   1      42.762  30.434  29.377  1.00  0.00    -0.248 NA
ATOM     57  C   UNL A   1      40.995  31.605  30.355  1.00  0.00     0.031 C 
ATOM     58  C   UNL A   1      46.891  32.011  28.980  1.00  0.00     0.029 A 
ATOM     59  C   UNL A   1      45.597  31.540  29.130  1.00  0.00     0.049 A 
ATOM     60  H   UNL A   1      44.819  29.629  28.687  1.00  0.00     0.167 HD
ATOM     61  C   UNL A   1      43.202  31.700  29.745  1.00  0.00     0.074 A 
ATOM     62  C   UNL A   1      42.059  32.393  30.301  1.00  0.00     0.031 C 
ATOM     63  C   UNL A   1      44.446  32.233  29.648  1.00  0.00     0.034 A 
BRANCH  50  64
ATOM     64  C   UNL A   1      48.707  28.311  27.498  1.00  0.00     0.023 A 
ATOM     65  C   UNL A   1      49.180  28.525  26.187  1.00  0.00     0.012 A 
ATOM     66  C   UNL A   1      49.615  27.929  28.506  1.00  0.00     0.148 A 
ATOM     67  C   UNL A   1      50.525  28.332  25.876  1.00  0.00     0.002 A 
ATOM     68  C   UNL A   1      50.963  27.784  28.198  1.00  0.00     0.091 A 
ATOM     69  F   UNL A   1      49.144  27.711  29.742  1.00  0.00    -0.205 F 
ATOM     70  C   UNL A   1      51.417  27.972  26.882  1.00  0.00     0.022 A 
BRANCH  68  71
ATOM     71  S   UNL A   1      52.205  27.399  29.436  1.00  0.00     0.127 S 
ATOM     72  O   UNL A   1      52.000  28.476  30.404  1.00  0.00    -0.237 OA
ATOM     73  O   UNL A   1      51.781  26.077  29.896  1.00  0.00    -0.237 OA
ATOM     74  O   UNL A   1      53.486  27.421  28.743  1.00  0.00    -0.744 OA
ENDBRANCH  68  71
ENDBRANCH  50  64
BRANCH  51  75
ATOM     75  C   UNL A   1      39.086  29.419  29.926  1.00  0.00     0.023 A 
ATOM     76  C   UNL A   1      38.702  29.028  31.223  1.00  0.00     0.012 A 
ATOM     77  C   UNL A   1      38.120  29.967  29.060  1.00  0.00     0.148 A 
ATOM     78  C   UNL A   1      37.376  29.150  31.640  1.00  0.00     0.002 A 
ATOM     79  C   UNL A   1      36.814  30.139  29.500  1.00  0.00     0.091 A 
ATOM     80  F   UNL A   1      38.503  30.321  27.826  1.00  0.00    -0.205 F 
ATOM     81  C   UNL A   1      36.434  29.714  30.783  1.00  0.00     0.022 A 
BRANCH  79  82
ATOM     82  S   UNL A   1      35.568  30.980  28.516  1.00  0.00     0.127 S 
ATOM     83  O   UNL A   1      36.385  31.879  27.706  1.00  0.00    -0.237 OA
ATOM     84  O   UNL A   1      34.963  29.868  27.783  1.00  0.00    -0.237 OA
ATOM     85  O   UNL A   1      34.678  31.622  29.472  1.00  0.00    -0.744 OA
ENDBRANCH  79  82
ENDBRANCH  51  75
BRANCH  63  86
ATOM     86  C   UNL A   1      44.638  33.647  30.136  1.00  0.00     0.023 A 
ATOM     87  C   UNL A   1      45.176  33.877  31.418  1.00  0.00     0.012 A 
ATOM     88  C   UNL A   1      44.352  34.743  29.300  1.00  0.00     0.148 A 
ATOM     89  C   UNL A   1      45.393  35.178  31.872  1.00  0.00     0.002 A 
ATOM     90  C   UNL A   1      44.620  36.034  29.739  1.00  0.00     0.091 A 
ATOM     91  F   UNL A   1      43.827  34.504  28.088  1.00  0.00    -0.205 F 
ATOM     92  C   UNL A   1      45.128  36.254  31.030  1.00  0.00     0.022 A 
BRANCH  90  93
ATOM     93  S   UNL A   1      44.399  37.478  28.693  1.00  0.00     0.127 S 
ATOM     94  O   UNL A   1      45.340  37.207  27.609  1.00  0.00    -0.237 OA
ATOM     95  O   UNL A   1      42.989  37.374  28.318  1.00  0.00    -0.237 OA
ATOM     96  O   UNL A   1      44.722  38.631  29.523  1.00  0.00    -0.744 OA
ENDBRANCH  90  93
ENDBRANCH  63  86
ENDBRANCH  37  38
ENDBRANCH  29  32
ENDBRANCH  27  28
ENDBRANCH  26  27
ENDBRANCH  25  26
ENDBRANCH  24  25
ENDBRANCH   1  24
TORSDOF 22
ENDMDL
