MODEL 1
REMARK VINA RESULT:     -12.9      0.000      0.000
REMARK SMILES Cc1ccc(-c2nn(-c3ccccc3)cc2[C@@H]2[NH2+][C@H](C(=O)NCCCCCCNC(=O)c3ccc(-c4c5nc(c(-c6cccc(S(=O)(=O)[O-])c6F)c6ccc([nH]6)c(-c6cccc(S(=O)(=O)[O-])c6F)c6nc(c(-c7cccc(S(=O)(=O)[O-])c7F)c7ccc4[nH]7)C=C6)C=C5)cc3)CS2)cc1
REMARK SMILES IDX 26 1 25 2 24 3 23 4 22 5 20 6 21 7 19 9 17 10 18 11 96 12
REMARK SMILES IDX 95 15 16 16 6 17 7 18 8 19 15 20 5 21 1 22 2 23 3 24 98 25
REMARK SMILES IDX 4 26 97 27 9 28 10 29 14 30 11 31 13 32 12 33 27 34 28 35
REMARK SMILES IDX 29 36 30 37 31 39 32 40 33 41 94 42 34 43 93 44 35 45 36 46
REMARK SMILES IDX 37 47 87 48 38 49 92 50 86 51 88 52 39 53 91 54 85 55 84 56
REMARK SMILES IDX 40 58 72 59 52 60 71 61 53 62 56 63 70 64 89 65 54 66 55 67
REMARK SMILES IDX 69 69 90 70 57 71 41 72 42 73 50 74 43 75 45 76 51 77 44 78
REMARK SMILES IDX 46 79 47 80 48 81 49 82 73 83 74 84 82 85 75 86 77 87 83 88
REMARK SMILES IDX 76 89 78 90 79 91 80 92 81 93 58 94 59 95 67 96 60 97 62 98
REMARK SMILES IDX 68 99 61 100 63 101 64 102 65 103 66 104
REMARK H PARENT 22 8 18 13 18 14 29 38 88 57 56 68
REMARK Flexibility Score: inf
ROOT
ATOM      1  C   UNL A   1      33.690  28.786  26.796  1.00  0.00     0.002 C 
ENDROOT
BRANCH   1   2
ATOM      2  C   UNL A   1      33.211  28.887  25.340  1.00  0.00     0.002 C 
BRANCH   2   3
ATOM      3  C   UNL A   1      33.807  28.120  24.127  1.00  0.00     0.021 C 
BRANCH   3   4
ATOM      4  C   UNL A   1      33.002  27.225  23.182  1.00  0.00     0.116 C 
BRANCH   4   5
ATOM      5  N   UNL A   1      33.624  26.000  22.692  1.00  0.00    -0.351 N 
ATOM      6  C   UNL A   1      34.208  24.949  23.349  1.00  0.00     0.279 C 
ATOM      7  O   UNL A   1      34.374  23.925  22.664  1.00  0.00    -0.268 OA
ATOM      8  H   UNL A   1      33.625  25.913  21.712  1.00  0.00     0.163 HD
BRANCH   6   9
ATOM      9  C   UNL A   1      34.728  24.903  24.818  1.00  0.00     0.283 C 
ATOM     10  C   UNL A   1      33.999  23.474  26.640  1.00  0.00     0.278 C 
ATOM     11  N   UNL A   1      33.727  24.705  25.891  1.00  0.00    -0.320 N 
ATOM     12  S   UNL A   1      35.796  23.293  26.643  1.00  0.00    -0.087 SA
ATOM     13  H   UNL A   1      33.760  25.499  26.529  1.00  0.00     0.348 HD
ATOM     14  H   UNL A   1      32.804  24.629  25.463  1.00  0.00     0.348 HD
ATOM     15  C   UNL A   1      35.932  23.963  24.967  1.00  0.00     0.151 C 
BRANCH  10  16
ATOM     16  C   UNL A   1      33.270  22.351  25.978  1.00  0.00     0.067 A 
ATOM     17  C   UNL A   1      32.030  22.399  25.237  1.00  0.00     0.103 A 
ATOM     18  N   UNL A   1      31.704  21.159  24.796  1.00  0.00    -0.167 NA
ATOM     19  N   UNL A   1      32.798  20.400  25.050  1.00  0.00    -0.240 N 
ATOM     20  C   UNL A   1      33.670  21.033  25.882  1.00  0.00     0.126 A 
BRANCH  17  21
ATOM     21  C   UNL A   1      31.195  23.589  24.931  1.00  0.00     0.003 A 
ATOM     22  C   UNL A   1      28.946  27.199  23.995  1.00  0.00     0.044 C 
ATOM     23  C   UNL A   1      29.697  25.942  24.334  1.00  0.00    -0.051 A 
ATOM     24  C   UNL A   1      30.095  25.082  23.316  1.00  0.00     0.004 A 
ATOM     25  C   UNL A   1      30.001  25.594  25.655  1.00  0.00     0.004 A 
ATOM     26  C   UNL A   1      30.833  23.931  23.615  1.00  0.00     0.011 A 
ATOM     27  C   UNL A   1      30.734  24.428  25.950  1.00  0.00     0.011 A 
ENDBRANCH  17  21
BRANCH  19  28
ATOM     28  C   UNL A   1      33.112  19.212  24.346  1.00  0.00     0.065 A 
ATOM     29  C   UNL A   1      34.208  18.432  24.764  1.00  0.00     0.028 A 
ATOM     30  C   UNL A   1      32.348  18.818  23.252  1.00  0.00     0.028 A 
ATOM     31  C   UNL A   1      34.598  17.315  24.024  1.00  0.00     0.002 A 
ATOM     32  C   UNL A   1      32.693  17.643  22.573  1.00  0.00     0.002 A 
ATOM     33  C   UNL A   1      33.831  16.914  22.935  1.00  0.00     0.000 A 
ENDBRANCH  19  28
ENDBRANCH  10  16
ENDBRANCH   6   9
ENDBRANCH   4   5
ENDBRANCH   3   4
ENDBRANCH   2   3
ENDBRANCH   1   2
BRANCH   1  34
ATOM     34  C   UNL A   1      35.168  29.016  27.116  1.00  0.00     0.021 C 
BRANCH  34  35
ATOM     35  C   UNL A   1      35.580  30.322  27.796  1.00  0.00     0.116 C 
BRANCH  35  36
ATOM     36  N   UNL A   1      34.576  31.398  27.698  1.00  0.00    -0.352 N 
ATOM     37  C   UNL A   1      34.462  32.561  28.466  1.00  0.00     0.251 C 
ATOM     38  H   UNL A   1      33.895  31.283  26.998  1.00  0.00     0.163 HD
ATOM     39  O   UNL A   1      33.518  33.311  28.355  1.00  0.00    -0.269 OA
BRANCH  37  40
ATOM     40  C   UNL A   1      35.603  32.885  29.354  1.00  0.00     0.039 A 
ATOM     41  C   UNL A   1      36.683  33.535  28.743  1.00  0.00     0.014 A 
ATOM     42  C   UNL A   1      35.763  32.128  30.508  1.00  0.00     0.014 A 
ATOM     43  C   UNL A   1      37.971  33.152  29.089  1.00  0.00     0.010 A 
ATOM     44  C   UNL A   1      37.037  31.690  30.800  1.00  0.00     0.010 A 
ATOM     45  C   UNL A   1      38.120  32.130  30.019  1.00  0.00    -0.014 A 
BRANCH  45  46
ATOM     46  C   UNL A   1      39.361  31.410  30.238  1.00  0.00     0.031 A 
ATOM     47  C   UNL A   1      39.486  30.046  29.701  1.00  0.00     0.074 A 
ATOM     48  C   UNL A   1      40.423  32.011  30.822  1.00  0.00     0.049 A 
ATOM     49  N   UNL A   1      40.451  29.251  30.007  1.00  0.00    -0.248 NA
ATOM     50  C   UNL A   1      38.480  29.441  28.834  1.00  0.00     0.031 C 
ATOM     51  C   UNL A   1      41.818  31.586  30.746  1.00  0.00     0.029 A 
ATOM     52  N   UNL A   1      40.423  32.991  31.819  1.00  0.00    -0.354 N 
ATOM     53  C   UNL A   1      40.367  28.177  29.159  1.00  0.00     0.074 A 
ATOM     54  C   UNL A   1      39.054  28.262  28.575  1.00  0.00     0.031 C 
ATOM     55  C   UNL A   1      42.472  32.054  31.818  1.00  0.00     0.029 A 
ATOM     56  C   UNL A   1      41.487  32.666  32.687  1.00  0.00     0.049 A 
ATOM     57  H   UNL A   1      39.805  33.753  31.900  1.00  0.00     0.167 HD
ATOM     58  C   UNL A   1      41.489  27.440  28.951  1.00  0.00     0.034 A 
ATOM     59  C   UNL A   1      41.341  32.417  34.022  1.00  0.00     0.034 A 
ATOM     60  C   UNL A   1      42.503  27.714  29.980  1.00  0.00     0.049 A 
ATOM     61  C   UNL A   1      41.832  31.038  34.447  1.00  0.00     0.074 A 
ATOM     62  C   UNL A   1      43.721  28.367  30.031  1.00  0.00     0.029 A 
ATOM     63  N   UNL A   1      42.162  27.449  31.296  1.00  0.00    -0.354 N 
ATOM     64  N   UNL A   1      42.443  30.189  33.666  1.00  0.00    -0.248 NA
ATOM     65  C   UNL A   1      41.573  30.471  35.773  1.00  0.00     0.031 C 
ATOM     66  C   UNL A   1      44.078  28.527  31.408  1.00  0.00     0.029 A 
ATOM     67  C   UNL A   1      43.095  27.943  32.187  1.00  0.00     0.049 A 
ATOM     68  H   UNL A   1      41.348  26.966  31.566  1.00  0.00     0.167 HD
ATOM     69  C   UNL A   1      42.472  28.955  34.271  1.00  0.00     0.074 A 
ATOM     70  C   UNL A   1      41.968  29.197  35.612  1.00  0.00     0.031 C 
ATOM     71  C   UNL A   1      42.821  27.807  33.612  1.00  0.00     0.034 A 
BRANCH  58  72
ATOM     72  C   UNL A   1      41.749  26.562  27.743  1.00  0.00     0.023 A 
ATOM     73  C   UNL A   1      41.988  27.219  26.516  1.00  0.00     0.012 A 
ATOM     74  C   UNL A   1      41.659  25.149  27.682  1.00  0.00     0.148 A 
ATOM     75  C   UNL A   1      42.103  26.527  25.305  1.00  0.00     0.002 A 
ATOM     76  C   UNL A   1      41.834  24.453  26.484  1.00  0.00     0.091 A 
ATOM     77  F   UNL A   1      41.306  24.445  28.758  1.00  0.00    -0.205 F 
ATOM     78  C   UNL A   1      42.038  25.142  25.289  1.00  0.00     0.022 A 
BRANCH  76  79
ATOM     79  S   UNL A   1      41.781  22.653  26.400  1.00  0.00     0.127 S 
ATOM     80  O   UNL A   1      40.343  22.394  26.360  1.00  0.00    -0.237 OA
ATOM     81  O   UNL A   1      42.484  22.376  25.147  1.00  0.00    -0.237 OA
ATOM     82  O   UNL A   1      42.464  22.165  27.592  1.00  0.00    -0.744 OA
ENDBRANCH  76  79
ENDBRANCH  58  72
BRANCH  59  83
ATOM     83  C   UNL A   1      40.201  33.156  34.634  1.00  0.00     0.023 A 
ATOM     84  C   UNL A   1      38.910  32.604  34.454  1.00  0.00     0.012 A 
ATOM     85  C   UNL A   1      40.401  34.099  35.655  1.00  0.00     0.148 A 
ATOM     86  C   UNL A   1      37.879  32.884  35.352  1.00  0.00     0.002 A 
ATOM     87  C   UNL A   1      39.367  34.378  36.544  1.00  0.00     0.091 A 
ATOM     88  F   UNL A   1      41.616  34.641  35.798  1.00  0.00    -0.205 F 
ATOM     89  C   UNL A   1      38.119  33.745  36.417  1.00  0.00     0.022 A 
BRANCH  87  90
ATOM     90  S   UNL A   1      39.618  35.440  37.971  1.00  0.00     0.127 S 
ATOM     91  O   UNL A   1      38.474  35.082  38.804  1.00  0.00    -0.237 OA
ATOM     92  O   UNL A   1      40.915  34.984  38.472  1.00  0.00    -0.237 OA
ATOM     93  O   UNL A   1      39.630  36.792  37.433  1.00  0.00    -0.744 OA
ENDBRANCH  87  90
ENDBRANCH  59  83
BRANCH  71  94
ATOM     94  C   UNL A   1      42.896  26.442  34.275  1.00  0.00     0.023 A 
ATOM     95  C   UNL A   1      41.768  25.898  34.925  1.00  0.00     0.012 A 
ATOM     96  C   UNL A   1      44.115  25.726  34.407  1.00  0.00     0.148 A 
ATOM     97  C   UNL A   1      41.835  24.688  35.628  1.00  0.00     0.002 A 
ATOM     98  C   UNL A   1      44.198  24.576  35.186  1.00  0.00     0.091 A 
ATOM     99  F   UNL A   1      45.199  26.131  33.736  1.00  0.00    -0.205 F 
ATOM    100  C   UNL A   1      43.053  24.038  35.776  1.00  0.00     0.022 A 
BRANCH  98 101
ATOM    101  S   UNL A   1      45.768  23.786  35.578  1.00  0.00     0.127 S 
ATOM    102  O   UNL A   1      46.193  23.300  34.264  1.00  0.00    -0.237 OA
ATOM    103  O   UNL A   1      46.548  24.909  36.094  1.00  0.00    -0.237 OA
ATOM    104  O   UNL A   1      45.462  22.736  36.538  1.00  0.00    -0.744 OA
ENDBRANCH  98 101
ENDBRANCH  71  94
ENDBRANCH  45  46
ENDBRANCH  37  40
ENDBRANCH  35  36
ENDBRANCH  34  35
ENDBRANCH   1  34
TORSDOF 19
ENDMDL
MODEL 2
REMARK VINA RESULT:     -11.6      4.651     10.549
REMARK SMILES Cc1ccc(-c2nn(-c3ccccc3)cc2[C@@H]2[NH2+][C@H](C(=O)NCCCCCCNC(=O)c3ccc(-c4c5nc(c(-c6cccc(S(=O)(=O)[O-])c6F)c6ccc([nH]6)c(-c6cccc(S(=O)(=O)[O-])c6F)c6nc(c(-c7cccc(S(=O)(=O)[O-])c7F)c7ccc4[nH]7)C=C6)C=C5)cc3)CS2)cc1
REMARK SMILES IDX 26 1 25 2 24 3 23 4 22 5 20 6 21 7 19 9 17 10 18 11 96 12
REMARK SMILES IDX 95 15 16 16 6 17 7 18 8 19 15 20 5 21 1 22 2 23 3 24 98 25
REMARK SMILES IDX 4 26 97 27 9 28 10 29 14 30 11 31 13 32 12 33 27 34 28 35
REMARK SMILES IDX 29 36 30 37 31 39 32 40 33 41 94 42 34 43 93 44 35 45 36 46
REMARK SMILES IDX 37 47 87 48 38 49 92 50 86 51 88 52 39 53 91 54 85 55 84 56
REMARK SMILES IDX 40 58 72 59 52 60 71 61 53 62 56 63 70 64 89 65 54 66 55 67
REMARK SMILES IDX 69 69 90 70 57 71 41 72 42 73 50 74 43 75 45 76 51 77 44 78
REMARK SMILES IDX 46 79 47 80 48 81 49 82 73 83 74 84 82 85 75 86 77 87 83 88
REMARK SMILES IDX 76 89 78 90 79 91 80 92 81 93 58 94 59 95 67 96 60 97 62 98
REMARK SMILES IDX 68 99 61 100 63 101 64 102 65 103 66 104
REMARK H PARENT 22 8 18 13 18 14 29 38 88 57 56 68
REMARK Flexibility Score: inf
ROOT
ATOM      1  C   UNL A   1      44.171  27.969  27.579  1.00  0.00     0.002 C 
ENDROOT
BRANCH   1   2
ATOM      2  C   UNL A   1      43.397  28.504  26.364  1.00  0.00     0.002 C 
BRANCH   2   3
ATOM      3  C   UNL A   1      42.902  27.663  25.155  1.00  0.00     0.021 C 
BRANCH   3   4
ATOM      4  C   UNL A   1      42.182  26.317  25.268  1.00  0.00     0.116 C 
BRANCH   4   5
ATOM      5  N   UNL A   1      42.784  25.155  24.625  1.00  0.00    -0.351 N 
ATOM      6  C   UNL A   1      43.270  23.980  25.137  1.00  0.00     0.279 C 
ATOM      7  O   UNL A   1      43.442  23.074  24.304  1.00  0.00    -0.268 OA
ATOM      8  H   UNL A   1      42.856  25.228  23.646  1.00  0.00     0.163 HD
BRANCH   6   9
ATOM      9  C   UNL A   1      43.674  23.668  26.610  1.00  0.00     0.283 C 
ATOM     10  C   UNL A   1      42.368  23.962  28.634  1.00  0.00     0.278 C 
ATOM     11  N   UNL A   1      43.237  24.621  27.654  1.00  0.00    -0.320 N 
ATOM     12  S   UNL A   1      42.968  22.262  28.751  1.00  0.00    -0.087 SA
ATOM     13  H   UNL A   1      44.058  24.992  28.132  1.00  0.00     0.348 HD
ATOM     14  H   UNL A   1      42.713  25.374  27.209  1.00  0.00     0.348 HD
ATOM     15  C   UNL A   1      43.368  22.212  26.987  1.00  0.00     0.151 C 
BRANCH  10  16
ATOM     16  C   UNL A   1      40.956  24.082  28.166  1.00  0.00     0.067 A 
ATOM     17  C   UNL A   1      40.116  25.259  28.138  1.00  0.00     0.103 A 
ATOM     18  N   UNL A   1      38.896  24.948  27.638  1.00  0.00    -0.167 NA
ATOM     19  N   UNL A   1      39.025  23.686  27.162  1.00  0.00    -0.240 N 
ATOM     20  C   UNL A   1      40.173  23.098  27.596  1.00  0.00     0.126 A 
BRANCH  17  21
ATOM     21  C   UNL A   1      40.473  26.644  28.544  1.00  0.00     0.003 A 
ATOM     22  C   UNL A   1      41.329  30.700  29.877  1.00  0.00     0.044 C 
ATOM     23  C   UNL A   1      41.052  29.305  29.391  1.00  0.00    -0.051 A 
ATOM     24  C   UNL A   1      41.524  28.216  30.116  1.00  0.00     0.004 A 
ATOM     25  C   UNL A   1      40.338  29.060  28.212  1.00  0.00     0.004 A 
ATOM     26  C   UNL A   1      41.234  26.912  29.697  1.00  0.00     0.011 A 
ATOM     27  C   UNL A   1      40.059  27.745  27.790  1.00  0.00     0.011 A 
ENDBRANCH  17  21
BRANCH  19  28
ATOM     28  C   UNL A   1      38.203  23.140  26.145  1.00  0.00     0.065 A 
ATOM     29  C   UNL A   1      37.228  23.954  25.537  1.00  0.00     0.028 A 
ATOM     30  C   UNL A   1      38.353  21.814  25.753  1.00  0.00     0.028 A 
ATOM     31  C   UNL A   1      36.340  23.411  24.609  1.00  0.00     0.002 A 
ATOM     32  C   UNL A   1      37.516  21.305  24.752  1.00  0.00     0.002 A 
ATOM     33  C   UNL A   1      36.493  22.088  24.207  1.00  0.00     0.000 A 
ENDBRANCH  19  28
ENDBRANCH  10  16
ENDBRANCH   6   9
ENDBRANCH   4   5
ENDBRANCH   3   4
ENDBRANCH   2   3
ENDBRANCH   1   2
BRANCH   1  34
ATOM     34  C   UNL A   1      44.675  28.951  28.637  1.00  0.00     0.021 C 
BRANCH  34  35
ATOM     35  C   UNL A   1      46.019  28.680  29.315  1.00  0.00     0.116 C 
BRANCH  35  36
ATOM     36  N   UNL A   1      47.119  28.382  28.378  1.00  0.00    -0.352 N 
ATOM     37  C   UNL A   1      47.999  27.296  28.380  1.00  0.00     0.251 C 
ATOM     38  H   UNL A   1      47.251  29.035  27.655  1.00  0.00     0.163 HD
ATOM     39  O   UNL A   1      48.936  27.230  27.614  1.00  0.00    -0.269 OA
BRANCH  37  40
ATOM     40  C   UNL A   1      47.674  26.178  29.297  1.00  0.00     0.039 A 
ATOM     41  C   UNL A   1      46.451  25.539  29.065  1.00  0.00     0.014 A 
ATOM     42  C   UNL A   1      48.280  26.168  30.548  1.00  0.00     0.014 A 
ATOM     43  C   UNL A   1      45.670  25.182  30.155  1.00  0.00     0.010 A 
ATOM     44  C   UNL A   1      47.476  25.886  31.631  1.00  0.00     0.010 A 
ATOM     45  C   UNL A   1      46.143  25.492  31.425  1.00  0.00    -0.014 A 
BRANCH  45  46
ATOM     46  C   UNL A   1      45.319  25.481  32.620  1.00  0.00     0.031 A 
ATOM     47  C   UNL A   1      44.681  26.735  33.047  1.00  0.00     0.074 A 
ATOM     48  C   UNL A   1      45.047  24.325  33.270  1.00  0.00     0.049 A 
ATOM     49  N   UNL A   1      44.105  26.885  34.187  1.00  0.00    -0.248 NA
ATOM     50  C   UNL A   1      44.717  27.954  32.244  1.00  0.00     0.031 C 
ATOM     51  C   UNL A   1      43.949  24.084  34.201  1.00  0.00     0.029 A 
ATOM     52  N   UNL A   1      45.865  23.200  33.414  1.00  0.00    -0.354 N 
ATOM     53  C   UNL A   1      43.438  28.081  34.144  1.00  0.00     0.074 A 
ATOM     54  C   UNL A   1      43.976  28.770  33.000  1.00  0.00     0.031 C 
ATOM     55  C   UNL A   1      44.287  23.077  35.018  1.00  0.00     0.029 A 
ATOM     56  C   UNL A   1      45.668  22.740  34.734  1.00  0.00     0.049 A 
ATOM     57  H   UNL A   1      46.459  22.808  32.734  1.00  0.00     0.167 HD
ATOM     58  C   UNL A   1      42.401  28.265  35.002  1.00  0.00     0.034 A 
ATOM     59  C   UNL A   1      46.663  22.616  35.662  1.00  0.00     0.034 A 
ATOM     60  C   UNL A   1      42.429  27.274  36.088  1.00  0.00     0.049 A 
ATOM     61  C   UNL A   1      46.428  23.433  36.926  1.00  0.00     0.074 A 
ATOM     62  C   UNL A   1      41.684  26.164  36.445  1.00  0.00     0.029 A 
ATOM     63  N   UNL A   1      43.547  27.256  36.905  1.00  0.00    -0.354 N 
ATOM     64  N   UNL A   1      45.344  24.111  37.188  1.00  0.00    -0.248 NA
ATOM     65  C   UNL A   1      47.457  23.631  37.952  1.00  0.00     0.031 C 
ATOM     66  C   UNL A   1      42.404  25.458  37.461  1.00  0.00     0.029 A 
ATOM     67  C   UNL A   1      43.565  26.157  37.742  1.00  0.00     0.049 A 
ATOM     68  H   UNL A   1      44.249  27.946  36.891  1.00  0.00     0.167 HD
ATOM     69  C   UNL A   1      45.581  24.958  38.244  1.00  0.00     0.074 A 
ATOM     70  C   UNL A   1      46.899  24.577  38.724  1.00  0.00     0.031 C 
ATOM     71  C   UNL A   1      44.729  25.968  38.600  1.00  0.00     0.034 A 
BRANCH  58  72
ATOM     72  C   UNL A   1      41.266  29.250  34.808  1.00  0.00     0.023 A 
ATOM     73  C   UNL A   1      41.234  30.367  35.672  1.00  0.00     0.012 A 
ATOM     74  C   UNL A   1      40.159  29.113  33.932  1.00  0.00     0.148 A 
ATOM     75  C   UNL A   1      40.167  31.272  35.689  1.00  0.00     0.002 A 
ATOM     76  C   UNL A   1      39.123  30.049  33.906  1.00  0.00     0.091 A 
ATOM     77  F   UNL A   1      40.028  28.027  33.171  1.00  0.00    -0.205 F 
ATOM     78  C   UNL A   1      39.115  31.121  34.798  1.00  0.00     0.022 A 
BRANCH  76  79
ATOM     79  S   UNL A   1      37.739  29.921  32.757  1.00  0.00     0.127 S 
ATOM     80  O   UNL A   1      37.153  28.636  33.134  1.00  0.00    -0.237 OA
ATOM     81  O   UNL A   1      36.929  31.086  33.110  1.00  0.00    -0.237 OA
ATOM     82  O   UNL A   1      38.311  29.970  31.417  1.00  0.00    -0.744 OA
ENDBRANCH  76  79
ENDBRANCH  58  72
BRANCH  59  83
ATOM     83  C   UNL A   1      47.992  22.318  35.057  1.00  0.00     0.023 A 
ATOM     84  C   UNL A   1      48.633  23.375  34.367  1.00  0.00     0.012 A 
ATOM     85  C   UNL A   1      48.755  21.215  35.471  1.00  0.00     0.148 A 
ATOM     86  C   UNL A   1      50.019  23.392  34.212  1.00  0.00     0.002 A 
ATOM     87  C   UNL A   1      50.138  21.237  35.308  1.00  0.00     0.091 A 
ATOM     88  F   UNL A   1      48.137  20.204  36.094  1.00  0.00    -0.205 F 
ATOM     89  C   UNL A   1      50.774  22.338  34.714  1.00  0.00     0.022 A 
BRANCH  87  90
ATOM     90  S   UNL A   1      51.181  19.935  35.976  1.00  0.00     0.127 S 
ATOM     91  O   UNL A   1      50.880  18.830  35.072  1.00  0.00    -0.237 OA
ATOM     92  O   UNL A   1      52.520  20.506  35.831  1.00  0.00    -0.237 OA
ATOM     93  O   UNL A   1      50.746  19.780  37.357  1.00  0.00    -0.744 OA
ENDBRANCH  87  90
ENDBRANCH  59  83
BRANCH  71  94
ATOM     94  C   UNL A   1      44.956  26.888  39.787  1.00  0.00     0.023 A 
ATOM     95  C   UNL A   1      44.409  26.577  41.049  1.00  0.00     0.012 A 
ATOM     96  C   UNL A   1      45.585  28.154  39.658  1.00  0.00     0.148 A 
ATOM     97  C   UNL A   1      44.520  27.454  42.137  1.00  0.00     0.002 A 
ATOM     98  C   UNL A   1      45.608  29.061  40.714  1.00  0.00     0.091 A 
ATOM     99  F   UNL A   1      46.211  28.473  38.520  1.00  0.00    -0.205 F 
ATOM    100  C   UNL A   1      45.101  28.703  41.964  1.00  0.00     0.022 A 
BRANCH  98 101
ATOM    101  S   UNL A   1      46.171  30.760  40.516  1.00  0.00     0.127 S 
ATOM    102  O   UNL A   1      45.593  31.404  41.697  1.00  0.00    -0.237 OA
ATOM    103  O   UNL A   1      47.623  30.602  40.558  1.00  0.00    -0.237 OA
ATOM    104  O   UNL A   1      45.622  31.221  39.249  1.00  0.00    -0.744 OA
ENDBRANCH  98 101
ENDBRANCH  71  94
ENDBRANCH  45  46
ENDBRANCH  37  40
ENDBRANCH  35  36
ENDBRANCH  34  35
ENDBRANCH   1  34
TORSDOF 19
ENDMDL
MODEL 3
REMARK VINA RESULT:     -11.4      5.982      8.725
REMARK SMILES Cc1ccc(-c2nn(-c3ccccc3)cc2[C@@H]2[NH2+][C@H](C(=O)NCCCCCCNC(=O)c3ccc(-c4c5nc(c(-c6cccc(S(=O)(=O)[O-])c6F)c6ccc([nH]6)c(-c6cccc(S(=O)(=O)[O-])c6F)c6nc(c(-c7cccc(S(=O)(=O)[O-])c7F)c7ccc4[nH]7)C=C6)C=C5)cc3)CS2)cc1
REMARK SMILES IDX 26 1 25 2 24 3 23 4 22 5 20 6 21 7 19 9 17 10 18 11 96 12
REMARK SMILES IDX 95 15 16 16 6 17 7 18 8 19 15 20 5 21 1 22 2 23 3 24 98 25
REMARK SMILES IDX 4 26 97 27 9 28 10 29 14 30 11 31 13 32 12 33 27 34 28 35
REMARK SMILES IDX 29 36 30 37 31 39 32 40 33 41 94 42 34 43 93 44 35 45 36 46
REMARK SMILES IDX 37 47 87 48 38 49 92 50 86 51 88 52 39 53 91 54 85 55 84 56
REMARK SMILES IDX 40 58 72 59 52 60 71 61 53 62 56 63 70 64 89 65 54 66 55 67
REMARK SMILES IDX 69 69 90 70 57 71 41 72 42 73 50 74 43 75 45 76 51 77 44 78
REMARK SMILES IDX 46 79 47 80 48 81 49 82 73 83 74 84 82 85 75 86 77 87 83 88
REMARK SMILES IDX 76 89 78 90 79 91 80 92 81 93 58 94 59 95 67 96 60 97 62 98
REMARK SMILES IDX 68 99 61 100 63 101 64 102 65 103 66 104
REMARK H PARENT 22 8 18 13 18 14 29 38 88 57 56 68
REMARK Flexibility Score: inf
ROOT
ATOM      1  C   UNL A   1      39.975  25.235  26.513  1.00  0.00     0.002 C 
ENDROOT
BRANCH   1   2
ATOM      2  C   UNL A   1      40.050  24.213  27.658  1.00  0.00     0.002 C 
BRANCH   2   3
ATOM      3  C   UNL A   1      40.395  22.704  27.514  1.00  0.00     0.021 C 
BRANCH   3   4
ATOM      4  C   UNL A   1      40.290  21.908  26.211  1.00  0.00     0.116 C 
BRANCH   4   5
ATOM      5  N   UNL A   1      39.114  21.069  26.007  1.00  0.00    -0.351 N 
ATOM      6  C   UNL A   1      37.976  21.261  25.269  1.00  0.00     0.279 C 
ATOM      7  O   UNL A   1      37.302  20.236  25.063  1.00  0.00    -0.268 OA
ATOM      8  H   UNL A   1      39.143  20.210  26.487  1.00  0.00     0.163 HD
BRANCH   6   9
ATOM      9  C   UNL A   1      37.407  22.599  24.708  1.00  0.00     0.283 C 
ATOM     10  C   UNL A   1      35.170  23.074  23.894  1.00  0.00     0.278 C 
ATOM     11  N   UNL A   1      36.484  22.519  23.554  1.00  0.00    -0.320 N 
ATOM     12  S   UNL A   1      35.496  24.410  25.066  1.00  0.00    -0.087 SA
ATOM     13  H   UNL A   1      36.878  23.045  22.774  1.00  0.00     0.348 HD
ATOM     14  H   UNL A   1      36.367  21.538  23.299  1.00  0.00     0.348 HD
ATOM     15  C   UNL A   1      36.864  23.500  25.825  1.00  0.00     0.151 C 
BRANCH  10  16
ATOM     16  C   UNL A   1      34.322  21.973  24.440  1.00  0.00     0.067 A 
ATOM     17  C   UNL A   1      32.916  22.005  24.775  1.00  0.00     0.103 A 
ATOM     18  N   UNL A   1      32.522  20.796  25.243  1.00  0.00    -0.167 NA
ATOM     19  N   UNL A   1      33.571  19.971  25.006  1.00  0.00    -0.240 N 
ATOM     20  C   UNL A   1      34.695  20.666  24.680  1.00  0.00     0.126 A 
BRANCH  17  21
ATOM     21  C   UNL A   1      31.968  23.141  24.626  1.00  0.00     0.003 A 
ATOM     22  C   UNL A   1      29.018  26.322  24.255  1.00  0.00     0.044 C 
ATOM     23  C   UNL A   1      30.056  25.241  24.363  1.00  0.00    -0.051 A 
ATOM     24  C   UNL A   1      30.656  24.983  25.591  1.00  0.00     0.004 A 
ATOM     25  C   UNL A   1      30.455  24.483  23.256  1.00  0.00     0.004 A 
ATOM     26  C   UNL A   1      31.592  23.949  25.714  1.00  0.00     0.011 A 
ATOM     27  C   UNL A   1      31.406  23.451  23.385  1.00  0.00     0.011 A 
ENDBRANCH  17  21
BRANCH  19  28
ATOM     28  C   UNL A   1      33.452  18.566  24.868  1.00  0.00     0.065 A 
ATOM     29  C   UNL A   1      32.606  17.857  25.743  1.00  0.00     0.028 A 
ATOM     30  C   UNL A   1      34.164  17.891  23.882  1.00  0.00     0.028 A 
ATOM     31  C   UNL A   1      32.553  16.465  25.693  1.00  0.00     0.002 A 
ATOM     32  C   UNL A   1      34.031  16.502  23.781  1.00  0.00     0.002 A 
ATOM     33  C   UNL A   1      33.257  15.788  24.702  1.00  0.00     0.000 A 
ENDBRANCH  19  28
ENDBRANCH  10  16
ENDBRANCH   6   9
ENDBRANCH   4   5
ENDBRANCH   3   4
ENDBRANCH   2   3
ENDBRANCH   1   2
BRANCH   1  34
ATOM     34  C   UNL A   1      41.080  26.282  26.370  1.00  0.00     0.021 C 
BRANCH  34  35
ATOM     35  C   UNL A   1      42.235  26.010  25.406  1.00  0.00     0.116 C 
BRANCH  35  36
ATOM     36  N   UNL A   1      42.879  24.696  25.589  1.00  0.00    -0.352 N 
ATOM     37  C   UNL A   1      43.796  24.299  26.567  1.00  0.00     0.251 C 
ATOM     38  H   UNL A   1      42.629  24.004  24.936  1.00  0.00     0.163 HD
ATOM     39  O   UNL A   1      44.337  23.215  26.535  1.00  0.00    -0.269 OA
BRANCH  37  40
ATOM     40  C   UNL A   1      44.002  25.230  27.701  1.00  0.00     0.039 A 
ATOM     41  C   UNL A   1      44.591  26.458  27.379  1.00  0.00     0.014 A 
ATOM     42  C   UNL A   1      44.092  24.687  28.977  1.00  0.00     0.014 A 
ATOM     43  C   UNL A   1      45.552  26.980  28.234  1.00  0.00     0.010 A 
ATOM     44  C   UNL A   1      45.100  25.161  29.790  1.00  0.00     0.010 A 
ATOM     45  C   UNL A   1      45.888  26.242  29.363  1.00  0.00    -0.014 A 
BRANCH  45  46
ATOM     46  C   UNL A   1      47.076  26.484  30.162  1.00  0.00     0.031 A 
ATOM     47  C   UNL A   1      48.372  26.003  29.660  1.00  0.00     0.074 A 
ATOM     48  C   UNL A   1      47.019  27.232  31.289  1.00  0.00     0.049 A 
ATOM     49  N   UNL A   1      49.443  25.982  30.372  1.00  0.00    -0.248 NA
ATOM     50  C   UNL A   1      48.540  25.427  28.330  1.00  0.00     0.031 C 
ATOM     51  C   UNL A   1      48.136  27.892  31.957  1.00  0.00     0.029 A 
ATOM     52  N   UNL A   1      45.968  27.335  32.207  1.00  0.00    -0.354 N 
ATOM     53  C   UNL A   1      50.480  25.696  29.523  1.00  0.00     0.074 A 
ATOM     54  C   UNL A   1      49.858  25.205  28.322  1.00  0.00     0.031 C 
ATOM     55  C   UNL A   1      47.828  28.063  33.250  1.00  0.00     0.029 A 
ATOM     56  C   UNL A   1      46.568  27.386  33.483  1.00  0.00     0.049 A 
ATOM     57  H   UNL A   1      45.006  27.366  32.004  1.00  0.00     0.167 HD
ATOM     58  C   UNL A   1      51.734  26.061  29.901  1.00  0.00     0.034 A 
ATOM     59  C   UNL A   1      46.320  26.492  34.485  1.00  0.00     0.034 A 
ATOM     60  C   UNL A   1      51.787  26.363  31.340  1.00  0.00     0.049 A 
ATOM     61  C   UNL A   1      47.563  25.763  34.980  1.00  0.00     0.074 A 
ATOM     62  C   UNL A   1      51.920  27.500  32.115  1.00  0.00     0.029 A 
ATOM     63  N   UNL A   1      51.450  25.345  32.216  1.00  0.00    -0.354 N 
ATOM     64  N   UNL A   1      48.783  26.017  34.591  1.00  0.00    -0.248 NA
ATOM     65  C   UNL A   1      47.507  24.609  35.882  1.00  0.00     0.031 C 
ATOM     66  C   UNL A   1      51.610  27.149  33.469  1.00  0.00     0.029 A 
ATOM     67  C   UNL A   1      51.323  25.796  33.516  1.00  0.00     0.049 A 
ATOM     68  H   UNL A   1      51.315  24.408  31.945  1.00  0.00     0.167 HD
ATOM     69  C   UNL A   1      49.610  24.996  34.993  1.00  0.00     0.074 A 
ATOM     70  C   UNL A   1      48.776  24.169  35.847  1.00  0.00     0.031 C 
ATOM     71  C   UNL A   1      50.891  24.845  34.533  1.00  0.00     0.034 A 
BRANCH  58  72
ATOM     72  C   UNL A   1      52.902  26.286  28.963  1.00  0.00     0.023 A 
ATOM     73  C   UNL A   1      54.174  25.872  29.415  1.00  0.00     0.012 A 
ATOM     74  C   UNL A   1      52.880  26.979  27.726  1.00  0.00     0.148 A 
ATOM     75  C   UNL A   1      55.349  26.148  28.708  1.00  0.00     0.002 A 
ATOM     76  C   UNL A   1      54.045  27.202  26.989  1.00  0.00     0.091 A 
ATOM     77  F   UNL A   1      51.751  27.525  27.275  1.00  0.00    -0.205 F 
ATOM     78  C   UNL A   1      55.285  26.803  27.487  1.00  0.00     0.022 A 
BRANCH  76  79
ATOM     79  S   UNL A   1      54.026  28.028  25.386  1.00  0.00     0.127 S 
ATOM     80  O   UNL A   1      53.202  27.121  24.589  1.00  0.00    -0.237 OA
ATOM     81  O   UNL A   1      53.393  29.309  25.700  1.00  0.00    -0.237 OA
ATOM     82  O   UNL A   1      55.417  28.134  24.961  1.00  0.00    -0.744 OA
ENDBRANCH  76  79
ENDBRANCH  58  72
BRANCH  59  83
ATOM     83  C   UNL A   1      44.945  25.920  34.431  1.00  0.00     0.023 A 
ATOM     84  C   UNL A   1      44.814  24.617  33.892  1.00  0.00     0.012 A 
ATOM     85  C   UNL A   1      43.903  26.439  35.217  1.00  0.00     0.148 A 
ATOM     86  C   UNL A   1      43.734  23.804  34.238  1.00  0.00     0.002 A 
ATOM     87  C   UNL A   1      42.826  25.623  35.554  1.00  0.00     0.091 A 
ATOM     88  F   UNL A   1      44.019  27.683  35.696  1.00  0.00    -0.205 F 
ATOM     89  C   UNL A   1      42.757  24.297  35.096  1.00  0.00     0.022 A 
BRANCH  87  90
ATOM     90  S   UNL A   1      41.555  26.174  36.697  1.00  0.00     0.127 S 
ATOM     91  O   UNL A   1      40.531  25.151  36.509  1.00  0.00    -0.237 OA
ATOM     92  O   UNL A   1      42.251  26.125  37.982  1.00  0.00    -0.237 OA
ATOM     93  O   UNL A   1      41.214  27.520  36.256  1.00  0.00    -0.744 OA
ENDBRANCH  87  90
ENDBRANCH  59  83
BRANCH  71  94
ATOM     94  C   UNL A   1      51.831  23.745  34.996  1.00  0.00     0.023 A 
ATOM     95  C   UNL A   1      52.844  24.018  35.938  1.00  0.00     0.012 A 
ATOM     96  C   UNL A   1      51.840  22.453  34.405  1.00  0.00     0.148 A 
ATOM     97  C   UNL A   1      53.786  23.050  36.310  1.00  0.00     0.002 A 
ATOM     98  C   UNL A   1      52.835  21.528  34.706  1.00  0.00     0.091 A 
ATOM     99  F   UNL A   1      50.853  22.094  33.579  1.00  0.00    -0.205 F 
ATOM    100  C   UNL A   1      53.794  21.813  35.679  1.00  0.00     0.022 A 
BRANCH  98 101
ATOM    101  S   UNL A   1      53.024  19.983  33.799  1.00  0.00     0.127 S 
ATOM    102  O   UNL A   1      51.821  19.253  34.203  1.00  0.00    -0.237 OA
ATOM    103  O   UNL A   1      53.018  20.447  32.414  1.00  0.00    -0.237 OA
ATOM    104  O   UNL A   1      54.271  19.394  34.263  1.00  0.00    -0.744 OA
ENDBRANCH  98 101
ENDBRANCH  71  94
ENDBRANCH  45  46
ENDBRANCH  37  40
ENDBRANCH  35  36
ENDBRANCH  34  35
ENDBRANCH   1  34
TORSDOF 19
ENDMDL
