MODEL 1
REMARK VINA RESULT:     -11.7      0.000      0.000
REMARK SMILES O=C(NCCCCCCNC(=O)[C@@H](Cc1c(F)cccc1Cl)c1ccc(Cl)cc1)c1ccc(-c2c3nc(c(-c4cccc(S(=O)(=O)[O-])c4F)c4ccc([nH]4)c(-c4cccc(S(=O)(=O)[O-])c4F)c4nc(c(-c5cccc(S(=O)(=O)[O-])c5F)c5ccc2[nH]5)C=C4)C=C3)cc1
REMARK SMILES IDX 6 1 5 2 4 3 3 4 1 5 2 6 30 8 31 9 92 10 32 11 91 12 33 13
REMARK SMILES IDX 34 14 35 15 85 16 36 17 90 18 84 19 86 20 37 21 89 22 83 23
REMARK SMILES IDX 82 24 38 26 70 27 50 28 69 29 51 30 54 31 68 32 87 33 52 34
REMARK SMILES IDX 53 35 67 37 88 38 55 39 39 40 40 41 48 42 41 43 43 44 49 45
REMARK SMILES IDX 42 46 44 47 45 48 46 49 47 50 71 51 72 52 80 53 73 54 75 55
REMARK SMILES IDX 81 56 74 57 76 58 77 59 78 60 79 61 56 62 57 63 65 64 58 65
REMARK SMILES IDX 60 66 66 67 59 68 61 69 62 70 63 71 64 72 7 73 8 74 9 75
REMARK SMILES IDX 10 76 11 77 12 79 13 80 14 81 15 82 16 83 21 84 17 85 18 86
REMARK SMILES IDX 20 87 22 88 19 89 23 90 24 91 29 92 25 93 28 94 26 95 27 96
REMARK H PARENT 3 7 86 25 54 36 10 78
REMARK Flexibility Score: inf
ROOT
ATOM      1  C   UNL A   1      34.469  23.612  26.267  1.00  0.00     0.002 C 
ENDROOT
BRANCH   1   2
ATOM      2  C   UNL A   1      35.330  22.349  26.353  1.00  0.00     0.021 C 
BRANCH   2   3
ATOM      3  C   UNL A   1      36.331  22.151  25.219  1.00  0.00     0.116 C 
BRANCH   3   4
ATOM      4  N   UNL A   1      37.243  21.051  25.469  1.00  0.00    -0.352 N 
ATOM      5  O   UNL A   1      39.216  20.020  25.772  1.00  0.00    -0.269 OA
ATOM      6  C   UNL A   1      38.568  21.068  25.813  1.00  0.00     0.251 C 
ATOM      7  H   UNL A   1      36.848  20.153  25.377  1.00  0.00     0.163 HD
BRANCH   6   8
ATOM      8  C   UNL A   1      39.221  22.331  26.215  1.00  0.00     0.039 A 
ATOM      9  C   UNL A   1      40.371  22.322  27.009  1.00  0.00     0.014 A 
ATOM     10  C   UNL A   1      38.699  23.544  25.757  1.00  0.00     0.014 A 
ATOM     11  C   UNL A   1      40.919  23.522  27.451  1.00  0.00     0.010 A 
ATOM     12  C   UNL A   1      39.305  24.748  26.129  1.00  0.00     0.010 A 
ATOM     13  C   UNL A   1      40.408  24.749  26.996  1.00  0.00    -0.014 A 
BRANCH  13  14
ATOM     14  C   UNL A   1      41.103  26.010  27.362  1.00  0.00     0.031 A 
ATOM     15  C   UNL A   1      42.527  26.269  26.957  1.00  0.00     0.074 A 
ATOM     16  C   UNL A   1      40.430  26.926  28.086  1.00  0.00     0.049 A 
ATOM     17  N   UNL A   1      43.265  27.327  27.184  1.00  0.00    -0.248 NA
ATOM     18  C   UNL A   1      43.219  25.209  26.207  1.00  0.00     0.031 C 
ATOM     19  C   UNL A   1      39.059  26.763  28.581  1.00  0.00     0.029 A 
ATOM     20  N   UNL A   1      40.800  28.167  28.539  1.00  0.00    -0.354 N 
ATOM     21  C   UNL A   1      44.513  27.049  26.642  1.00  0.00     0.074 A 
ATOM     22  C   UNL A   1      44.438  25.718  26.079  1.00  0.00     0.031 C 
ATOM     23  C   UNL A   1      38.698  27.867  29.250  1.00  0.00     0.029 A 
ATOM     24  C   UNL A   1      39.824  28.791  29.282  1.00  0.00     0.049 A 
ATOM     25  H   UNL A   1      41.677  28.570  28.351  1.00  0.00     0.167 HD
ATOM     26  C   UNL A   1      45.616  27.836  26.606  1.00  0.00     0.034 A 
ATOM     27  C   UNL A   1      39.839  29.966  29.939  1.00  0.00     0.034 A 
ATOM     28  C   UNL A   1      45.678  29.167  27.153  1.00  0.00     0.049 A 
ATOM     29  C   UNL A   1      41.074  30.818  29.876  1.00  0.00     0.074 A 
ATOM     30  C   UNL A   1      46.728  30.068  27.108  1.00  0.00     0.029 A 
ATOM     31  N   UNL A   1      44.657  29.783  27.863  1.00  0.00    -0.354 N 
ATOM     32  N   UNL A   1      42.197  30.594  29.238  1.00  0.00    -0.248 NA
ATOM     33  C   UNL A   1      41.034  32.097  30.598  1.00  0.00     0.031 C 
ATOM     34  C   UNL A   1      46.355  31.213  27.818  1.00  0.00     0.029 A 
ATOM     35  C   UNL A   1      45.059  31.044  28.274  1.00  0.00     0.049 A 
ATOM     36  H   UNL A   1      43.778  29.383  28.047  1.00  0.00     0.167 HD
ATOM     37  C   UNL A   1      42.986  31.716  29.456  1.00  0.00     0.074 A 
ATOM     38  C   UNL A   1      42.201  32.628  30.263  1.00  0.00     0.031 C 
ATOM     39  C   UNL A   1      44.253  31.961  29.039  1.00  0.00     0.034 A 
BRANCH  26  40
ATOM     40  C   UNL A   1      46.850  27.295  25.927  1.00  0.00     0.023 A 
ATOM     41  C   UNL A   1      47.019  27.474  24.539  1.00  0.00     0.012 A 
ATOM     42  C   UNL A   1      47.876  26.682  26.673  1.00  0.00     0.148 A 
ATOM     43  C   UNL A   1      48.174  27.022  23.899  1.00  0.00     0.002 A 
ATOM     44  C   UNL A   1      49.043  26.275  26.037  1.00  0.00     0.091 A 
ATOM     45  F   UNL A   1      47.691  26.506  27.989  1.00  0.00    -0.205 F 
ATOM     46  C   UNL A   1      49.189  26.434  24.649  1.00  0.00     0.022 A 
BRANCH  44  47
ATOM     47  S   UNL A   1      50.442  25.579  26.924  1.00  0.00     0.127 S 
ATOM     48  O   UNL A   1      50.818  26.690  27.798  1.00  0.00    -0.237 OA
ATOM     49  O   UNL A   1      49.833  24.440  27.612  1.00  0.00    -0.237 OA
ATOM     50  O   UNL A   1      51.425  25.222  25.909  1.00  0.00    -0.744 OA
ENDBRANCH  44  47
ENDBRANCH  26  40
BRANCH  27  51
ATOM     51  C   UNL A   1      38.631  30.412  30.687  1.00  0.00     0.023 A 
ATOM     52  C   UNL A   1      38.527  30.142  32.066  1.00  0.00     0.012 A 
ATOM     53  C   UNL A   1      37.602  31.130  30.048  1.00  0.00     0.148 A 
ATOM     54  C   UNL A   1      37.405  30.553  32.787  1.00  0.00     0.002 A 
ATOM     55  C   UNL A   1      36.518  31.590  30.784  1.00  0.00     0.091 A 
ATOM     56  F   UNL A   1      37.715  31.365  28.732  1.00  0.00    -0.205 F 
ATOM     57  C   UNL A   1      36.408  31.286  32.149  1.00  0.00     0.022 A 
BRANCH  55  58
ATOM     58  S   UNL A   1      35.261  32.659  30.076  1.00  0.00     0.127 S 
ATOM     59  O   UNL A   1      34.374  32.872  31.216  1.00  0.00    -0.237 OA
ATOM     60  O   UNL A   1      36.048  33.828  29.681  1.00  0.00    -0.237 OA
ATOM     61  O   UNL A   1      34.693  31.913  28.961  1.00  0.00    -0.744 OA
ENDBRANCH  55  58
ENDBRANCH  27  51
BRANCH  39  62
ATOM     62  C   UNL A   1      44.860  33.288  29.415  1.00  0.00     0.023 A 
ATOM     63  C   UNL A   1      45.613  33.409  30.599  1.00  0.00     0.012 A 
ATOM     64  C   UNL A   1      44.731  34.401  28.561  1.00  0.00     0.148 A 
ATOM     65  C   UNL A   1      46.196  34.627  30.948  1.00  0.00     0.002 A 
ATOM     66  C   UNL A   1      45.357  35.598  28.888  1.00  0.00     0.091 A 
ATOM     67  F   UNL A   1      43.993  34.272  27.448  1.00  0.00    -0.205 F 
ATOM     68  C   UNL A   1      46.077  35.716  30.088  1.00  0.00     0.022 A 
BRANCH  66  69
ATOM     69  S   UNL A   1      45.341  37.023  27.796  1.00  0.00     0.127 S 
ATOM     70  O   UNL A   1      46.104  38.000  28.572  1.00  0.00    -0.237 OA
ATOM     71  O   UNL A   1      46.031  36.513  26.611  1.00  0.00    -0.237 OA
ATOM     72  O   UNL A   1      43.938  37.353  27.584  1.00  0.00    -0.744 OA
ENDBRANCH  66  69
ENDBRANCH  39  62
ENDBRANCH  13  14
ENDBRANCH   6   8
ENDBRANCH   3   4
ENDBRANCH   2   3
ENDBRANCH   1   2
BRANCH   1  73
ATOM     73  C   UNL A   1      35.042  24.771  25.444  1.00  0.00     0.002 C 
BRANCH  73  74
ATOM     74  C   UNL A   1      34.012  25.697  24.806  1.00  0.00     0.021 C 
BRANCH  74  75
ATOM     75  C   UNL A   1      33.404  26.747  25.729  1.00  0.00     0.116 C 
BRANCH  75  76
ATOM     76  N   UNL A   1      32.198  26.268  26.360  1.00  0.00    -0.356 N 
ATOM     77  C   UNL A   1      31.010  25.881  25.828  1.00  0.00     0.227 C 
ATOM     78  H   UNL A   1      32.244  26.211  27.341  1.00  0.00     0.163 HD
ATOM     79  O   UNL A   1      30.144  25.514  26.634  1.00  0.00    -0.274 OA
BRANCH  77  80
ATOM     80  C   UNL A   1      30.696  25.877  24.321  1.00  0.00     0.113 C 
BRANCH  80  81
ATOM     81  C   UNL A   1      30.371  24.481  23.714  1.00  0.00     0.058 C 
BRANCH  81  82
ATOM     82  C   UNL A   1      31.356  23.341  23.797  1.00  0.00     0.008 A 
ATOM     83  C   UNL A   1      31.231  22.400  24.826  1.00  0.00     0.127 A 
ATOM     84  C   UNL A   1      32.430  23.174  22.908  1.00  0.00     0.047 A 
ATOM     85  F   UNL A   1      30.276  22.555  25.756  1.00  0.00    -0.207 F 
ATOM     86  C   UNL A   1      32.047  21.271  24.903  1.00  0.00     0.039 A 
ATOM     87  C   UNL A   1      33.217  22.015  22.944  1.00  0.00     0.021 A 
ATOM     88  Cl  UNL A   1      32.855  24.379  21.744  1.00  0.00    -0.084 Cl
ATOM     89  C   UNL A   1      33.011  21.052  23.929  1.00  0.00     0.005 A 
ENDBRANCH  81  82
ENDBRANCH  80  81
BRANCH  80  90
ATOM     90  C   UNL A   1      30.038  27.162  23.810  1.00  0.00    -0.035 A 
ATOM     91  C   UNL A   1      30.724  28.348  23.518  1.00  0.00     0.006 A 
ATOM     92  C   UNL A   1      28.645  27.156  23.588  1.00  0.00     0.006 A 
ATOM     93  C   UNL A   1      30.058  29.488  23.052  1.00  0.00     0.021 A 
ATOM     94  C   UNL A   1      27.973  28.293  23.125  1.00  0.00     0.021 A 
ATOM     95  C   UNL A   1      28.683  29.457  22.862  1.00  0.00     0.041 A 
ATOM     96  Cl  UNL A   1      27.864  30.858  22.294  1.00  0.00    -0.084 Cl
ENDBRANCH  80  90
ENDBRANCH  77  80
ENDBRANCH  75  76
ENDBRANCH  74  75
ENDBRANCH  73  74
ENDBRANCH   1  73
TORSDOF 19
ENDMDL
MODEL 2
REMARK VINA RESULT:     -11.7      2.353      8.312
REMARK SMILES O=C(NCCCCCCNC(=O)[C@@H](Cc1c(F)cccc1Cl)c1ccc(Cl)cc1)c1ccc(-c2c3nc(c(-c4cccc(S(=O)(=O)[O-])c4F)c4ccc([nH]4)c(-c4cccc(S(=O)(=O)[O-])c4F)c4nc(c(-c5cccc(S(=O)(=O)[O-])c5F)c5ccc2[nH]5)C=C4)C=C3)cc1
REMARK SMILES IDX 6 1 5 2 4 3 3 4 1 5 2 6 30 8 31 9 92 10 32 11 91 12 33 13
REMARK SMILES IDX 34 14 35 15 85 16 36 17 90 18 84 19 86 20 37 21 89 22 83 23
REMARK SMILES IDX 82 24 38 26 70 27 50 28 69 29 51 30 54 31 68 32 87 33 52 34
REMARK SMILES IDX 53 35 67 37 88 38 55 39 39 40 40 41 48 42 41 43 43 44 49 45
REMARK SMILES IDX 42 46 44 47 45 48 46 49 47 50 71 51 72 52 80 53 73 54 75 55
REMARK SMILES IDX 81 56 74 57 76 58 77 59 78 60 79 61 56 62 57 63 65 64 58 65
REMARK SMILES IDX 60 66 66 67 59 68 61 69 62 70 63 71 64 72 7 73 8 74 9 75
REMARK SMILES IDX 10 76 11 77 12 79 13 80 14 81 15 82 16 83 21 84 17 85 18 86
REMARK SMILES IDX 20 87 22 88 19 89 23 90 24 91 29 92 25 93 28 94 26 95 27 96
REMARK H PARENT 3 7 86 25 54 36 10 78
REMARK Flexibility Score: inf
ROOT
ATOM      1  C   UNL A   1      36.713  20.061  24.641  1.00  0.00     0.002 C 
ENDROOT
BRANCH   1   2
ATOM      2  C   UNL A   1      37.987  19.274  24.960  1.00  0.00     0.021 C 
BRANCH   2   3
ATOM      3  C   UNL A   1      39.075  20.048  25.699  1.00  0.00     0.116 C 
BRANCH   3   4
ATOM      4  N   UNL A   1      40.215  19.216  26.038  1.00  0.00    -0.352 N 
ATOM      5  O   UNL A   1      42.371  18.703  26.410  1.00  0.00    -0.269 OA
ATOM      6  C   UNL A   1      41.498  19.572  26.361  1.00  0.00     0.251 C 
ATOM      7  H   UNL A   1      40.039  18.247  26.038  1.00  0.00     0.163 HD
BRANCH   6   8
ATOM      8  C   UNL A   1      41.838  20.984  26.633  1.00  0.00     0.039 A 
ATOM      9  C   UNL A   1      42.238  21.391  27.908  1.00  0.00     0.014 A 
ATOM     10  C   UNL A   1      41.795  21.909  25.587  1.00  0.00     0.014 A 
ATOM     11  C   UNL A   1      42.467  22.739  28.166  1.00  0.00     0.010 A 
ATOM     12  C   UNL A   1      42.115  23.249  25.828  1.00  0.00     0.010 A 
ATOM     13  C   UNL A   1      42.433  23.680  27.124  1.00  0.00    -0.014 A 
BRANCH  13  14
ATOM     14  C   UNL A   1      42.828  25.085  27.397  1.00  0.00     0.031 A 
ATOM     15  C   UNL A   1      41.885  26.056  28.052  1.00  0.00     0.074 A 
ATOM     16  C   UNL A   1      44.062  25.486  27.030  1.00  0.00     0.049 A 
ATOM     17  N   UNL A   1      42.089  27.308  28.372  1.00  0.00    -0.248 NA
ATOM     18  C   UNL A   1      40.538  25.566  28.385  1.00  0.00     0.031 C 
ATOM     19  C   UNL A   1      45.047  24.648  26.340  1.00  0.00     0.029 A 
ATOM     20  N   UNL A   1      44.698  26.694  27.174  1.00  0.00    -0.354 N 
ATOM     21  C   UNL A   1      40.893  27.768  28.909  1.00  0.00     0.074 A 
ATOM     22  C   UNL A   1      39.962  26.661  28.865  1.00  0.00     0.031 C 
ATOM     23  C   UNL A   1      46.167  25.358  26.140  1.00  0.00     0.029 A 
ATOM     24  C   UNL A   1      45.963  26.714  26.633  1.00  0.00     0.049 A 
ATOM     25  H   UNL A   1      44.289  27.469  27.621  1.00  0.00     0.167 HD
ATOM     26  C   UNL A   1      40.602  28.996  29.404  1.00  0.00     0.034 A 
ATOM     27  C   UNL A   1      46.852  27.717  26.520  1.00  0.00     0.034 A 
ATOM     28  C   UNL A   1      41.540  30.088  29.460  1.00  0.00     0.049 A 
ATOM     29  C   UNL A   1      46.503  29.065  27.083  1.00  0.00     0.074 A 
ATOM     30  C   UNL A   1      41.360  31.348  30.003  1.00  0.00     0.029 A 
ATOM     31  N   UNL A   1      42.825  30.060  28.939  1.00  0.00    -0.354 N 
ATOM     32  N   UNL A   1      45.415  29.437  27.712  1.00  0.00    -0.248 NA
ATOM     33  C   UNL A   1      47.514  30.122  26.947  1.00  0.00     0.031 C 
ATOM     34  C   UNL A   1      42.523  32.092  29.781  1.00  0.00     0.029 A 
ATOM     35  C   UNL A   1      43.443  31.285  29.134  1.00  0.00     0.049 A 
ATOM     36  H   UNL A   1      43.237  29.284  28.496  1.00  0.00     0.167 HD
ATOM     37  C   UNL A   1      45.622  30.762  28.074  1.00  0.00     0.074 A 
ATOM     38  C   UNL A   1      46.950  31.118  27.616  1.00  0.00     0.031 C 
ATOM     39  C   UNL A   1      44.781  31.613  28.713  1.00  0.00     0.034 A 
BRANCH  26  40
ATOM     40  C   UNL A   1      39.217  29.227  29.954  1.00  0.00     0.023 A 
ATOM     41  C   UNL A   1      38.901  28.791  31.257  1.00  0.00     0.012 A 
ATOM     42  C   UNL A   1      38.255  29.943  29.215  1.00  0.00     0.148 A 
ATOM     43  C   UNL A   1      37.640  29.036  31.803  1.00  0.00     0.002 A 
ATOM     44  C   UNL A   1      37.016  30.223  29.782  1.00  0.00     0.091 A 
ATOM     45  F   UNL A   1      38.566  30.336  27.972  1.00  0.00    -0.205 F 
ATOM     46  C   UNL A   1      36.704  29.760  31.072  1.00  0.00     0.022 A 
BRANCH  44  47
ATOM     47  S   UNL A   1      35.770  31.216  28.954  1.00  0.00     0.127 S 
ATOM     48  O   UNL A   1      35.123  30.223  28.098  1.00  0.00    -0.237 OA
ATOM     49  O   UNL A   1      34.952  31.681  30.076  1.00  0.00    -0.237 OA
ATOM     50  O   UNL A   1      36.494  32.268  28.253  1.00  0.00    -0.744 OA
ENDBRANCH  44  47
ENDBRANCH  26  40
BRANCH  27  51
ATOM     51  C   UNL A   1      48.170  27.470  25.871  1.00  0.00     0.023 A 
ATOM     52  C   UNL A   1      49.266  27.059  26.654  1.00  0.00     0.012 A 
ATOM     53  C   UNL A   1      48.333  27.606  24.479  1.00  0.00     0.148 A 
ATOM     54  C   UNL A   1      50.508  26.819  26.066  1.00  0.00     0.002 A 
ATOM     55  C   UNL A   1      49.555  27.305  23.892  1.00  0.00     0.091 A 
ATOM     56  F   UNL A   1      47.280  28.010  23.753  1.00  0.00    -0.205 F 
ATOM     57  C   UNL A   1      50.650  26.931  24.685  1.00  0.00     0.022 A 
BRANCH  55  58
ATOM     58  S   UNL A   1      49.786  27.285  22.111  1.00  0.00     0.127 S 
ATOM     59  O   UNL A   1      48.763  26.333  21.688  1.00  0.00    -0.237 OA
ATOM     60  O   UNL A   1      49.517  28.679  21.757  1.00  0.00    -0.237 OA
ATOM     61  O   UNL A   1      51.166  26.869  21.900  1.00  0.00    -0.744 OA
ENDBRANCH  55  58
ENDBRANCH  27  51
BRANCH  39  62
ATOM     62  C   UNL A   1      45.286  33.005  28.993  1.00  0.00     0.023 A 
ATOM     63  C   UNL A   1      45.996  33.273  30.179  1.00  0.00     0.012 A 
ATOM     64  C   UNL A   1      45.104  34.034  28.048  1.00  0.00     0.148 A 
ATOM     65  C   UNL A   1      46.484  34.553  30.440  1.00  0.00     0.002 A 
ATOM     66  C   UNL A   1      45.637  35.294  28.290  1.00  0.00     0.091 A 
ATOM     67  F   UNL A   1      44.407  33.764  26.934  1.00  0.00    -0.205 F 
ATOM     68  C   UNL A   1      46.315  35.559  29.491  1.00  0.00     0.022 A 
BRANCH  66  69
ATOM     69  S   UNL A   1      45.553  36.622  27.085  1.00  0.00     0.127 S 
ATOM     70  O   UNL A   1      46.323  37.675  27.749  1.00  0.00    -0.237 OA
ATOM     71  O   UNL A   1      46.211  36.028  25.921  1.00  0.00    -0.237 OA
ATOM     72  O   UNL A   1      44.137  36.909  26.898  1.00  0.00    -0.744 OA
ENDBRANCH  66  69
ENDBRANCH  39  62
ENDBRANCH  13  14
ENDBRANCH   6   8
ENDBRANCH   3   4
ENDBRANCH   2   3
ENDBRANCH   1   2
BRANCH   1  73
ATOM     73  C   UNL A   1      36.681  21.520  25.106  1.00  0.00     0.002 C 
BRANCH  73  74
ATOM     74  C   UNL A   1      35.738  21.820  26.266  1.00  0.00     0.021 C 
BRANCH  74  75
ATOM     75  C   UNL A   1      35.005  23.155  26.197  1.00  0.00     0.116 C 
BRANCH  75  76
ATOM     76  N   UNL A   1      33.823  23.156  27.024  1.00  0.00    -0.356 N 
ATOM     77  C   UNL A   1      32.506  23.149  26.693  1.00  0.00     0.227 C 
ATOM     78  H   UNL A   1      34.000  23.164  27.992  1.00  0.00     0.163 HD
ATOM     79  O   UNL A   1      31.705  23.157  27.638  1.00  0.00    -0.274 OA
BRANCH  77  80
ATOM     80  C   UNL A   1      31.976  23.134  25.247  1.00  0.00     0.113 C 
BRANCH  80  81
ATOM     81  C   UNL A   1      32.050  24.496  24.498  1.00  0.00     0.058 C 
BRANCH  81  82
ATOM     82  C   UNL A   1      32.220  25.795  25.247  1.00  0.00     0.008 A 
ATOM     83  C   UNL A   1      33.476  26.411  25.277  1.00  0.00     0.127 A 
ATOM     84  C   UNL A   1      31.184  26.426  25.956  1.00  0.00     0.047 A 
ATOM     85  F   UNL A   1      34.524  25.813  24.691  1.00  0.00    -0.207 F 
ATOM     86  C   UNL A   1      33.678  27.658  25.869  1.00  0.00     0.039 A 
ATOM     87  C   UNL A   1      31.363  27.703  26.502  1.00  0.00     0.021 A 
ATOM     88  Cl  UNL A   1      29.651  25.667  26.212  1.00  0.00    -0.084 Cl
ATOM     89  C   UNL A   1      32.605  28.331  26.439  1.00  0.00     0.005 A 
ENDBRANCH  81  82
ENDBRANCH  80  81
BRANCH  80  90
ATOM     90  C   UNL A   1      32.153  21.795  24.526  1.00  0.00    -0.035 A 
ATOM     91  C   UNL A   1      32.150  21.632  23.135  1.00  0.00     0.006 A 
ATOM     92  C   UNL A   1      32.361  20.638  25.306  1.00  0.00     0.006 A 
ATOM     93  C   UNL A   1      32.318  20.376  22.540  1.00  0.00     0.021 A 
ATOM     94  C   UNL A   1      32.527  19.379  24.718  1.00  0.00     0.021 A 
ATOM     95  C   UNL A   1      32.502  19.253  23.335  1.00  0.00     0.041 A 
ATOM     96  Cl  UNL A   1      32.704  17.709  22.607  1.00  0.00    -0.084 Cl
ENDBRANCH  80  90
ENDBRANCH  77  80
ENDBRANCH  75  76
ENDBRANCH  74  75
ENDBRANCH  73  74
ENDBRANCH   1  73
TORSDOF 19
ENDMDL
MODEL 3
REMARK VINA RESULT:     -11.7      5.552     10.156
REMARK SMILES O=C(NCCCCCCNC(=O)[C@@H](Cc1c(F)cccc1Cl)c1ccc(Cl)cc1)c1ccc(-c2c3nc(c(-c4cccc(S(=O)(=O)[O-])c4F)c4ccc([nH]4)c(-c4cccc(S(=O)(=O)[O-])c4F)c4nc(c(-c5cccc(S(=O)(=O)[O-])c5F)c5ccc2[nH]5)C=C4)C=C3)cc1
REMARK SMILES IDX 6 1 5 2 4 3 3 4 1 5 2 6 30 8 31 9 92 10 32 11 91 12 33 13
REMARK SMILES IDX 34 14 35 15 85 16 36 17 90 18 84 19 86 20 37 21 89 22 83 23
REMARK SMILES IDX 82 24 38 26 70 27 50 28 69 29 51 30 54 31 68 32 87 33 52 34
REMARK SMILES IDX 53 35 67 37 88 38 55 39 39 40 40 41 48 42 41 43 43 44 49 45
REMARK SMILES IDX 42 46 44 47 45 48 46 49 47 50 71 51 72 52 80 53 73 54 75 55
REMARK SMILES IDX 81 56 74 57 76 58 77 59 78 60 79 61 56 62 57 63 65 64 58 65
REMARK SMILES IDX 60 66 66 67 59 68 61 69 62 70 63 71 64 72 7 73 8 74 9 75
REMARK SMILES IDX 10 76 11 77 12 79 13 80 14 81 15 82 16 83 21 84 17 85 18 86
REMARK SMILES IDX 20 87 22 88 19 89 23 90 24 91 29 92 25 93 28 94 26 95 27 96
REMARK H PARENT 3 7 86 25 54 36 10 78
REMARK Flexibility Score: inf
ROOT
ATOM      1  C   UNL A   1      31.541  30.705  25.914  1.00  0.00     0.002 C 
ENDROOT
BRANCH   1   2
ATOM      2  C   UNL A   1      31.420  31.948  26.799  1.00  0.00     0.021 C 
BRANCH   2   3
ATOM      3  C   UNL A   1      32.738  32.594  27.217  1.00  0.00     0.116 C 
BRANCH   3   4
ATOM      4  N   UNL A   1      32.568  33.964  27.664  1.00  0.00    -0.352 N 
ATOM      5  O   UNL A   1      32.733  35.733  29.039  1.00  0.00    -0.269 OA
ATOM      6  C   UNL A   1      33.173  34.636  28.692  1.00  0.00     0.251 C 
ATOM      7  H   UNL A   1      31.917  34.493  27.147  1.00  0.00     0.163 HD
BRANCH   6   8
ATOM      8  C   UNL A   1      34.334  34.045  29.392  1.00  0.00     0.039 A 
ATOM      9  C   UNL A   1      34.153  33.171  30.467  1.00  0.00     0.014 A 
ATOM     10  C   UNL A   1      35.623  34.338  28.939  1.00  0.00     0.014 A 
ATOM     11  C   UNL A   1      35.257  32.697  31.168  1.00  0.00     0.010 A 
ATOM     12  C   UNL A   1      36.732  33.787  29.590  1.00  0.00     0.010 A 
ATOM     13  C   UNL A   1      36.559  32.978  30.723  1.00  0.00    -0.014 A 
BRANCH  13  14
ATOM     14  C   UNL A   1      37.716  32.338  31.399  1.00  0.00     0.031 A 
ATOM     15  C   UNL A   1      38.230  32.835  32.722  1.00  0.00     0.074 A 
ATOM     16  C   UNL A   1      38.315  31.294  30.792  1.00  0.00     0.049 A 
ATOM     17  N   UNL A   1      39.217  32.370  33.445  1.00  0.00    -0.248 NA
ATOM     18  C   UNL A   1      37.559  34.006  33.308  1.00  0.00     0.031 C 
ATOM     19  C   UNL A   1      37.938  30.754  29.482  1.00  0.00     0.029 A 
ATOM     20  N   UNL A   1      39.368  30.505  31.183  1.00  0.00    -0.354 N 
ATOM     21  C   UNL A   1      39.311  33.208  34.550  1.00  0.00     0.074 A 
ATOM     22  C   UNL A   1      38.285  34.217  34.398  1.00  0.00     0.031 C 
ATOM     23  C   UNL A   1      38.731  29.714  29.188  1.00  0.00     0.029 A 
ATOM     24  C   UNL A   1      39.707  29.546  30.257  1.00  0.00     0.049 A 
ATOM     25  H   UNL A   1      39.834  30.615  32.043  1.00  0.00     0.167 HD
ATOM     26  C   UNL A   1      40.167  33.135  35.598  1.00  0.00     0.034 A 
ATOM     27  C   UNL A   1      40.709  28.648  30.252  1.00  0.00     0.034 A 
ATOM     28  C   UNL A   1      41.175  32.118  35.750  1.00  0.00     0.049 A 
ATOM     29  C   UNL A   1      41.638  28.587  31.430  1.00  0.00     0.074 A 
ATOM     30  C   UNL A   1      42.046  31.920  36.808  1.00  0.00     0.029 A 
ATOM     31  N   UNL A   1      41.464  31.138  34.811  1.00  0.00    -0.354 N 
ATOM     32  N   UNL A   1      41.620  29.302  32.529  1.00  0.00    -0.248 NA
ATOM     33  C   UNL A   1      42.705  27.579  31.382  1.00  0.00     0.031 C 
ATOM     34  C   UNL A   1      42.882  30.844  36.495  1.00  0.00     0.029 A 
ATOM     35  C   UNL A   1      42.508  30.344  35.258  1.00  0.00     0.049 A 
ATOM     36  H   UNL A   1      40.995  31.024  33.953  1.00  0.00     0.167 HD
ATOM     37  C   UNL A   1      42.653  28.810  33.316  1.00  0.00     0.074 A 
ATOM     38  C   UNL A   1      43.258  27.720  32.579  1.00  0.00     0.031 C 
ATOM     39  C   UNL A   1      43.073  29.234  34.534  1.00  0.00     0.034 A 
BRANCH  26  40
ATOM     40  C   UNL A   1      40.040  34.170  36.689  1.00  0.00     0.023 A 
ATOM     41  C   UNL A   1      40.359  35.516  36.414  1.00  0.00     0.012 A 
ATOM     42  C   UNL A   1      39.532  33.826  37.957  1.00  0.00     0.148 A 
ATOM     43  C   UNL A   1      40.204  36.497  37.394  1.00  0.00     0.002 A 
ATOM     44  C   UNL A   1      39.338  34.816  38.914  1.00  0.00     0.091 A 
ATOM     45  F   UNL A   1      39.251  32.540  38.205  1.00  0.00    -0.205 F 
ATOM     46  C   UNL A   1      39.684  36.150  38.638  1.00  0.00     0.022 A 
BRANCH  44  47
ATOM     47  S   UNL A   1      38.601  34.486  40.519  1.00  0.00     0.127 S 
ATOM     48  O   UNL A   1      38.342  35.839  41.007  1.00  0.00    -0.237 OA
ATOM     49  O   UNL A   1      37.402  33.729  40.155  1.00  0.00    -0.237 OA
ATOM     50  O   UNL A   1      39.593  33.729  41.270  1.00  0.00    -0.744 OA
ENDBRANCH  44  47
ENDBRANCH  26  40
BRANCH  27  51
ATOM     51  C   UNL A   1      40.861  27.714  29.100  1.00  0.00     0.023 A 
ATOM     52  C   UNL A   1      40.088  26.537  29.051  1.00  0.00     0.012 A 
ATOM     53  C   UNL A   1      41.740  28.004  28.040  1.00  0.00     0.148 A 
ATOM     54  C   UNL A   1      40.213  25.651  27.981  1.00  0.00     0.002 A 
ATOM     55  C   UNL A   1      41.814  27.149  26.948  1.00  0.00     0.091 A 
ATOM     56  F   UNL A   1      42.476  29.124  28.112  1.00  0.00    -0.205 F 
ATOM     57  C   UNL A   1      41.066  25.962  26.926  1.00  0.00     0.022 A 
BRANCH  55  58
ATOM     58  S   UNL A   1      42.777  27.541  25.484  1.00  0.00     0.127 S 
ATOM     59  O   UNL A   1      44.128  27.633  26.031  1.00  0.00    -0.237 OA
ATOM     60  O   UNL A   1      42.531  26.371  24.640  1.00  0.00    -0.237 OA
ATOM     61  O   UNL A   1      42.217  28.782  24.966  1.00  0.00    -0.744 OA
ENDBRANCH  55  58
ENDBRANCH  27  51
BRANCH  39  62
ATOM     62  C   UNL A   1      44.221  28.492  35.167  1.00  0.00     0.023 A 
ATOM     63  C   UNL A   1      45.547  28.814  34.818  1.00  0.00     0.012 A 
ATOM     64  C   UNL A   1      43.984  27.513  36.152  1.00  0.00     0.148 A 
ATOM     65  C   UNL A   1      46.619  28.147  35.410  1.00  0.00     0.002 A 
ATOM     66  C   UNL A   1      45.057  26.889  36.777  1.00  0.00     0.091 A 
ATOM     67  F   UNL A   1      42.714  27.207  36.457  1.00  0.00    -0.205 F 
ATOM     68  C   UNL A   1      46.374  27.194  36.397  1.00  0.00     0.022 A 
BRANCH  66  69
ATOM     69  S   UNL A   1      44.841  25.722  38.124  1.00  0.00     0.127 S 
ATOM     70  O   UNL A   1      43.834  26.397  38.943  1.00  0.00    -0.237 OA
ATOM     71  O   UNL A   1      44.360  24.529  37.427  1.00  0.00    -0.237 OA
ATOM     72  O   UNL A   1      46.151  25.574  38.743  1.00  0.00    -0.744 OA
ENDBRANCH  66  69
ENDBRANCH  39  62
ENDBRANCH  13  14
ENDBRANCH   6   8
ENDBRANCH   3   4
ENDBRANCH   2   3
ENDBRANCH   1   2
BRANCH   1  73
ATOM     73  C   UNL A   1      31.924  29.401  26.622  1.00  0.00     0.002 C 
BRANCH  73  74
ATOM     74  C   UNL A   1      33.202  28.734  26.125  1.00  0.00     0.021 C 
BRANCH  74  75
ATOM     75  C   UNL A   1      33.141  27.218  25.974  1.00  0.00     0.116 C 
BRANCH  75  76
ATOM     76  N   UNL A   1      31.893  26.683  26.463  1.00  0.00    -0.356 N 
ATOM     77  C   UNL A   1      30.814  26.193  25.799  1.00  0.00     0.227 C 
ATOM     78  H   UNL A   1      31.809  26.672  27.443  1.00  0.00     0.163 HD
ATOM     79  O   UNL A   1      29.872  25.802  26.501  1.00  0.00    -0.274 OA
BRANCH  77  80
ATOM     80  C   UNL A   1      30.709  26.104  24.266  1.00  0.00     0.113 C 
BRANCH  80  81
ATOM     81  C   UNL A   1      30.649  24.660  23.687  1.00  0.00     0.058 C 
BRANCH  81  82
ATOM     82  C   UNL A   1      31.841  23.738  23.757  1.00  0.00     0.008 A 
ATOM     83  C   UNL A   1      32.826  23.813  22.765  1.00  0.00     0.127 A 
ATOM     84  C   UNL A   1      32.019  22.769  24.758  1.00  0.00     0.047 A 
ATOM     85  F   UNL A   1      32.669  24.659  21.736  1.00  0.00    -0.207 F 
ATOM     86  C   UNL A   1      33.998  23.058  22.823  1.00  0.00     0.039 A 
ATOM     87  C   UNL A   1      33.217  22.049  24.856  1.00  0.00     0.021 A 
ATOM     88  Cl  UNL A   1      30.779  22.395  25.905  1.00  0.00    -0.084 Cl
ATOM     89  C   UNL A   1      34.217  22.209  23.900  1.00  0.00     0.005 A 
ENDBRANCH  81  82
ENDBRANCH  80  81
BRANCH  80  90
ATOM     90  C   UNL A   1      29.966  27.274  23.615  1.00  0.00    -0.035 A 
ATOM     91  C   UNL A   1      28.574  27.424  23.596  1.00  0.00     0.006 A 
ATOM     92  C   UNL A   1      30.729  28.296  23.011  1.00  0.00     0.006 A 
ATOM     93  C   UNL A   1      27.961  28.523  22.983  1.00  0.00     0.021 A 
ATOM     94  C   UNL A   1      30.122  29.396  22.395  1.00  0.00     0.021 A 
ATOM     95  C   UNL A   1      28.738  29.503  22.380  1.00  0.00     0.041 A 
ATOM     96  Cl  UNL A   1      27.985  30.851  21.623  1.00  0.00    -0.084 Cl
ENDBRANCH  80  90
ENDBRANCH  77  80
ENDBRANCH  75  76
ENDBRANCH  74  75
ENDBRANCH  73  74
ENDBRANCH   1  73
TORSDOF 19
ENDMDL
