MODEL 1
REMARK VINA RESULT:     -10.8      0.000      0.000
REMARK SMILES C[C@H](c1ccc(Br)s1)[NH+]1CCC(CC(=O)NCCCCCCNC(=O)c2ccc(-c3c4nc(c(-c5cccc(S(=O)(=O)[O-])c5F)c5ccc([nH]5)c(-c5cccc(S(=O)(=O)[O-])c5F)c5nc(c(-c6cccc(S(=O)(=O)[O-])c6F)c6ccc3[nH]6)C=C5)C=C4)cc2)CC1
REMARK SMILES IDX 19 1 18 2 17 3 16 4 14 5 15 6 13 8 12 9 9 10 10 11 90 12
REMARK SMILES IDX 11 14 89 15 2 16 1 17 3 18 4 19 8 20 5 21 6 22 7 23 20 24
REMARK SMILES IDX 21 25 22 26 23 27 24 28 25 30 26 31 27 32 88 33 28 34 87 35
REMARK SMILES IDX 29 36 30 37 31 38 81 39 32 40 86 41 80 42 82 43 33 44 85 45
REMARK SMILES IDX 79 46 78 47 34 49 66 50 46 51 65 52 47 53 50 54 64 55 83 56
REMARK SMILES IDX 48 57 49 58 63 60 84 61 51 62 35 63 36 64 44 65 37 66 39 67
REMARK SMILES IDX 45 68 38 69 40 70 41 71 42 72 43 73 67 74 68 75 76 76 69 77
REMARK SMILES IDX 71 78 77 79 70 80 72 81 73 82 74 83 75 84 52 85 53 86 61 87
REMARK SMILES IDX 54 88 56 89 62 90 55 91 57 92 58 93 59 94 60 95
REMARK H PARENT 16 7 9 13 23 29 82 48 50 59
REMARK Flexibility Score: inf
ROOT
ATOM      1  C   UNL A   1      35.888  21.103  24.961  1.00  0.00     0.002 C 
ENDROOT
BRANCH   1   2
ATOM      2  C   UNL A   1      35.658  21.738  26.332  1.00  0.00     0.021 C 
BRANCH   2   3
ATOM      3  C   UNL A   1      34.277  21.472  26.945  1.00  0.00     0.116 C 
BRANCH   3   4
ATOM      4  N   UNL A   1      33.511  20.541  26.127  1.00  0.00    -0.356 N 
ATOM      5  C   UNL A   1      32.329  20.698  25.463  1.00  0.00     0.220 C 
ATOM      6  O   UNL A   1      31.840  19.712  24.906  1.00  0.00    -0.275 OA
ATOM      7  H   UNL A   1      33.914  19.647  26.039  1.00  0.00     0.163 HD
BRANCH   5   8
ATOM      8  C   UNL A   1      31.631  22.050  25.399  1.00  0.00     0.104 C 
BRANCH   8   9
ATOM      9  C   UNL A   1      32.186  23.002  24.318  1.00  0.00     0.009 C 
ATOM     10  N   UNL A   1      32.002  25.823  23.463  1.00  0.00    -0.328 N 
ATOM     11  C   UNL A   1      31.439  24.765  22.611  1.00  0.00     0.263 C 
ATOM     12  C   UNL A   1      33.265  25.323  24.027  1.00  0.00     0.263 C 
ATOM     13  H   UNL A   1      31.383  26.046  24.243  1.00  0.00     0.348 HD
ATOM     14  C   UNL A   1      31.057  23.578  23.474  1.00  0.00     0.066 C 
ATOM     15  C   UNL A   1      33.005  24.132  24.964  1.00  0.00     0.066 C 
BRANCH  10  16
ATOM     16  C   UNL A   1      32.124  27.098  22.708  1.00  0.00     0.222 C 
ATOM     17  C   UNL A   1      33.557  27.382  22.220  1.00  0.00     0.082 C 
BRANCH  16  18
ATOM     18  C   UNL A   1      31.696  28.276  23.578  1.00  0.00     0.063 A 
ATOM     19  C   UNL A   1      30.597  29.110  23.431  1.00  0.00     0.023 A 
ATOM     20  S   UNL A   1      32.638  28.736  24.944  1.00  0.00    -0.127 S 
ATOM     21  C   UNL A   1      30.540  30.127  24.432  1.00  0.00     0.028 A 
ATOM     22  C   UNL A   1      31.600  30.028  25.296  1.00  0.00     0.070 A 
ATOM     23  Br  UNL A   1      31.882  31.207  26.724  1.00  0.00    -0.039 Br
ENDBRANCH  16  18
ENDBRANCH  10  16
ENDBRANCH   8   9
ENDBRANCH   5   8
ENDBRANCH   3   4
ENDBRANCH   2   3
ENDBRANCH   1   2
BRANCH   1  24
ATOM     24  C   UNL A   1      36.450  19.681  24.993  1.00  0.00     0.002 C 
BRANCH  24  25
ATOM     25  C   UNL A   1      37.957  19.555  24.741  1.00  0.00     0.021 C 
BRANCH  25  26
ATOM     26  C   UNL A   1      38.856  20.005  25.891  1.00  0.00     0.116 C 
BRANCH  26  27
ATOM     27  N   UNL A   1      40.030  19.157  26.030  1.00  0.00    -0.352 N 
ATOM     28  C   UNL A   1      41.348  19.506  26.186  1.00  0.00     0.251 C 
ATOM     29  H   UNL A   1      39.852  18.189  26.011  1.00  0.00     0.163 HD
ATOM     30  O   UNL A   1      42.224  18.654  26.067  1.00  0.00    -0.269 OA
BRANCH  28  31
ATOM     31  C   UNL A   1      41.715  20.906  26.488  1.00  0.00     0.039 A 
ATOM     32  C   UNL A   1      41.981  21.266  27.812  1.00  0.00     0.014 A 
ATOM     33  C   UNL A   1      41.769  21.868  25.474  1.00  0.00     0.014 A 
ATOM     34  C   UNL A   1      42.352  22.579  28.113  1.00  0.00     0.010 A 
ATOM     35  C   UNL A   1      42.201  23.159  25.767  1.00  0.00     0.010 A 
ATOM     36  C   UNL A   1      42.490  23.531  27.089  1.00  0.00    -0.014 A 
BRANCH  36  37
ATOM     37  C   UNL A   1      42.941  24.916  27.380  1.00  0.00     0.031 A 
ATOM     38  C   UNL A   1      41.992  25.911  27.995  1.00  0.00     0.074 A 
ATOM     39  C   UNL A   1      44.177  25.304  27.010  1.00  0.00     0.049 A 
ATOM     40  N   UNL A   1      42.190  27.174  28.271  1.00  0.00    -0.248 NA
ATOM     41  C   UNL A   1      40.638  25.431  28.317  1.00  0.00     0.031 C 
ATOM     42  C   UNL A   1      45.162  24.457  26.332  1.00  0.00     0.029 A 
ATOM     43  N   UNL A   1      44.808  26.519  27.124  1.00  0.00    -0.354 N 
ATOM     44  C   UNL A   1      40.979  27.649  28.763  1.00  0.00     0.074 A 
ATOM     45  C   UNL A   1      40.044  26.546  28.720  1.00  0.00     0.031 C 
ATOM     46  C   UNL A   1      46.268  25.178  26.088  1.00  0.00     0.029 A 
ATOM     47  C   UNL A   1      46.067  26.541  26.570  1.00  0.00     0.049 A 
ATOM     48  H   UNL A   1      44.398  27.299  27.560  1.00  0.00     0.167 HD
ATOM     49  C   UNL A   1      40.680  28.882  29.236  1.00  0.00     0.034 A 
ATOM     50  C   UNL A   1      46.957  27.546  26.457  1.00  0.00     0.034 A 
ATOM     51  C   UNL A   1      41.625  29.963  29.323  1.00  0.00     0.049 A 
ATOM     52  C   UNL A   1      46.618  28.892  27.038  1.00  0.00     0.074 A 
ATOM     53  C   UNL A   1      41.447  31.219  29.876  1.00  0.00     0.029 A 
ATOM     54  N   UNL A   1      42.925  29.919  28.843  1.00  0.00    -0.354 N 
ATOM     55  N   UNL A   1      45.525  29.272  27.655  1.00  0.00    -0.248 NA
ATOM     56  C   UNL A   1      47.647  29.937  26.944  1.00  0.00     0.031 C 
ATOM     57  C   UNL A   1      42.634  31.941  29.712  1.00  0.00     0.029 A 
ATOM     58  C   UNL A   1      43.558  31.127  29.078  1.00  0.00     0.049 A 
ATOM     59  H   UNL A   1      43.337  29.142  28.399  1.00  0.00     0.167 HD
ATOM     60  C   UNL A   1      45.748  30.586  28.053  1.00  0.00     0.074 A 
ATOM     61  C   UNL A   1      47.089  30.929  27.627  1.00  0.00     0.031 C 
ATOM     62  C   UNL A   1      44.913  31.436  28.698  1.00  0.00     0.034 A 
BRANCH  49  63
ATOM     63  C   UNL A   1      39.286  29.116  29.757  1.00  0.00     0.023 A 
ATOM     64  C   UNL A   1      38.972  28.749  31.082  1.00  0.00     0.012 A 
ATOM     65  C   UNL A   1      38.310  29.754  28.967  1.00  0.00     0.148 A 
ATOM     66  C   UNL A   1      37.700  28.985  31.602  1.00  0.00     0.002 A 
ATOM     67  C   UNL A   1      37.057  30.025  29.507  1.00  0.00     0.091 A 
ATOM     68  F   UNL A   1      38.621  30.078  27.704  1.00  0.00    -0.205 F 
ATOM     69  C   UNL A   1      36.748  29.631  30.820  1.00  0.00     0.022 A 
BRANCH  67  70
ATOM     70  S   UNL A   1      35.787  30.924  28.609  1.00  0.00     0.127 S 
ATOM     71  O   UNL A   1      34.867  31.289  29.684  1.00  0.00    -0.237 OA
ATOM     72  O   UNL A   1      36.542  32.045  28.046  1.00  0.00    -0.237 OA
ATOM     73  O   UNL A   1      35.259  29.993  27.622  1.00  0.00    -0.744 OA
ENDBRANCH  67  70
ENDBRANCH  49  63
BRANCH  50  74
ATOM     74  C   UNL A   1      48.285  27.298  25.827  1.00  0.00     0.023 A 
ATOM     75  C   UNL A   1      49.347  26.824  26.622  1.00  0.00     0.012 A 
ATOM     76  C   UNL A   1      48.494  27.496  24.450  1.00  0.00     0.148 A 
ATOM     77  C   UNL A   1      50.603  26.585  26.062  1.00  0.00     0.002 A 
ATOM     78  C   UNL A   1      49.731  27.203  23.888  1.00  0.00     0.091 A 
ATOM     79  F   UNL A   1      47.475  27.960  23.712  1.00  0.00    -0.205 F 
ATOM     80  C   UNL A   1      50.793  26.764  24.694  1.00  0.00     0.022 A 
BRANCH  78  81
ATOM     81  S   UNL A   1      50.022  27.277  22.116  1.00  0.00     0.127 S 
ATOM     82  O   UNL A   1      48.995  26.373  21.606  1.00  0.00    -0.237 OA
ATOM     83  O   UNL A   1      49.796  28.693  21.828  1.00  0.00    -0.237 OA
ATOM     84  O   UNL A   1      51.401  26.842  21.930  1.00  0.00    -0.744 OA
ENDBRANCH  78  81
ENDBRANCH  50  74
BRANCH  62  85
ATOM     85  C   UNL A   1      45.428  32.814  29.018  1.00  0.00     0.023 A 
ATOM     86  C   UNL A   1      46.114  33.040  30.228  1.00  0.00     0.012 A 
ATOM     87  C   UNL A   1      45.301  33.864  28.088  1.00  0.00     0.148 A 
ATOM     88  C   UNL A   1      46.640  34.298  30.520  1.00  0.00     0.002 A 
ATOM     89  C   UNL A   1      45.869  35.102  28.364  1.00  0.00     0.091 A 
ATOM     90  F   UNL A   1      44.628  33.635  26.951  1.00  0.00    -0.205 F 
ATOM     91  C   UNL A   1      46.529  35.324  29.584  1.00  0.00     0.022 A 
BRANCH  89  92
ATOM     92  S   UNL A   1      45.856  36.452  27.178  1.00  0.00     0.127 S 
ATOM     93  O   UNL A   1      44.428  36.739  27.069  1.00  0.00    -0.237 OA
ATOM     94  O   UNL A   1      46.634  37.481  27.869  1.00  0.00    -0.237 OA
ATOM     95  O   UNL A   1      46.486  35.930  25.973  1.00  0.00    -0.744 OA
ENDBRANCH  89  92
ENDBRANCH  62  85
ENDBRANCH  36  37
ENDBRANCH  28  31
ENDBRANCH  26  27
ENDBRANCH  25  26
ENDBRANCH  24  25
ENDBRANCH   1  24
TORSDOF 19
ENDMDL
MODEL 2
REMARK VINA RESULT:     -10.7      5.570      8.988
REMARK SMILES C[C@H](c1ccc(Br)s1)[NH+]1CCC(CC(=O)NCCCCCCNC(=O)c2ccc(-c3c4nc(c(-c5cccc(S(=O)(=O)[O-])c5F)c5ccc([nH]5)c(-c5cccc(S(=O)(=O)[O-])c5F)c5nc(c(-c6cccc(S(=O)(=O)[O-])c6F)c6ccc3[nH]6)C=C5)C=C4)cc2)CC1
REMARK SMILES IDX 19 1 18 2 17 3 16 4 14 5 15 6 13 8 12 9 9 10 10 11 90 12
REMARK SMILES IDX 11 14 89 15 2 16 1 17 3 18 4 19 8 20 5 21 6 22 7 23 20 24
REMARK SMILES IDX 21 25 22 26 23 27 24 28 25 30 26 31 27 32 88 33 28 34 87 35
REMARK SMILES IDX 29 36 30 37 31 38 81 39 32 40 86 41 80 42 82 43 33 44 85 45
REMARK SMILES IDX 79 46 78 47 34 49 66 50 46 51 65 52 47 53 50 54 64 55 83 56
REMARK SMILES IDX 48 57 49 58 63 60 84 61 51 62 35 63 36 64 44 65 37 66 39 67
REMARK SMILES IDX 45 68 38 69 40 70 41 71 42 72 43 73 67 74 68 75 76 76 69 77
REMARK SMILES IDX 71 78 77 79 70 80 72 81 73 82 74 83 75 84 52 85 53 86 61 87
REMARK SMILES IDX 54 88 56 89 62 90 55 91 57 92 58 93 59 94 60 95
REMARK H PARENT 16 7 9 13 23 29 82 48 50 59
REMARK Flexibility Score: inf
ROOT
ATOM      1  C   UNL A   1      33.668  28.986  24.189  1.00  0.00     0.002 C 
ENDROOT
BRANCH   1   2
ATOM      2  C   UNL A   1      34.435  28.676  22.905  1.00  0.00     0.021 C 
BRANCH   2   3
ATOM      3  C   UNL A   1      33.619  27.963  21.819  1.00  0.00     0.116 C 
BRANCH   3   4
ATOM      4  N   UNL A   1      32.190  28.157  22.026  1.00  0.00    -0.356 N 
ATOM      5  C   UNL A   1      31.177  27.254  22.171  1.00  0.00     0.220 C 
ATOM      6  O   UNL A   1      30.022  27.683  22.247  1.00  0.00    -0.275 OA
ATOM      7  H   UNL A   1      31.907  29.099  22.067  1.00  0.00     0.163 HD
BRANCH   5   8
ATOM      8  C   UNL A   1      31.454  25.759  22.248  1.00  0.00     0.104 C 
BRANCH   8   9
ATOM      9  C   UNL A   1      31.733  25.235  23.673  1.00  0.00     0.009 C 
ATOM     10  N   UNL A   1      32.527  22.756  25.068  1.00  0.00    -0.328 N 
ATOM     11  C   UNL A   1      31.171  23.292  25.250  1.00  0.00     0.263 C 
ATOM     12  C   UNL A   1      33.460  23.893  25.034  1.00  0.00     0.263 C 
ATOM     13  H   UNL A   1      32.618  22.256  24.183  1.00  0.00     0.348 HD
ATOM     14  C   UNL A   1      30.782  24.099  24.026  1.00  0.00     0.066 C 
ATOM     15  C   UNL A   1      33.194  24.774  23.802  1.00  0.00     0.066 C 
BRANCH  10  16
ATOM     16  C   UNL A   1      32.835  21.736  26.106  1.00  0.00     0.222 C 
ATOM     17  C   UNL A   1      33.739  22.268  27.233  1.00  0.00     0.082 C 
BRANCH  16  18
ATOM     18  C   UNL A   1      33.540  20.536  25.480  1.00  0.00     0.063 A 
ATOM     19  C   UNL A   1      34.888  20.374  25.192  1.00  0.00     0.023 A 
ATOM     20  S   UNL A   1      32.639  19.147  25.010  1.00  0.00    -0.127 S 
ATOM     21  C   UNL A   1      35.171  19.115  24.580  1.00  0.00     0.028 A 
ATOM     22  C   UNL A   1      34.028  18.376  24.421  1.00  0.00     0.070 A 
ATOM     23  Br  UNL A   1      33.997  16.680  23.626  1.00  0.00    -0.039 Br
ENDBRANCH  16  18
ENDBRANCH  10  16
ENDBRANCH   8   9
ENDBRANCH   5   8
ENDBRANCH   3   4
ENDBRANCH   2   3
ENDBRANCH   1   2
BRANCH   1  24
ATOM     24  C   UNL A   1      33.688  27.875  25.239  1.00  0.00     0.002 C 
BRANCH  24  25
ATOM     25  C   UNL A   1      34.437  28.198  26.537  1.00  0.00     0.021 C 
BRANCH  25  26
ATOM     26  C   UNL A   1      33.586  28.803  27.653  1.00  0.00     0.116 C 
BRANCH  26  27
ATOM     27  N   UNL A   1      33.582  30.257  27.610  1.00  0.00    -0.352 N 
ATOM     28  C   UNL A   1      34.490  31.151  28.121  1.00  0.00     0.251 C 
ATOM     29  H   UNL A   1      32.814  30.660  27.144  1.00  0.00     0.163 HD
ATOM     30  O   UNL A   1      34.208  32.344  28.178  1.00  0.00    -0.269 OA
BRANCH  28  31
ATOM     31  C   UNL A   1      35.803  30.677  28.610  1.00  0.00     0.039 A 
ATOM     32  C   UNL A   1      35.846  29.832  29.722  1.00  0.00     0.014 A 
ATOM     33  C   UNL A   1      36.989  31.088  27.993  1.00  0.00     0.014 A 
ATOM     34  C   UNL A   1      37.076  29.355  30.184  1.00  0.00     0.010 A 
ATOM     35  C   UNL A   1      38.208  30.561  28.414  1.00  0.00     0.010 A 
ATOM     36  C   UNL A   1      38.265  29.696  29.518  1.00  0.00    -0.014 A 
BRANCH  36  37
ATOM     37  C   UNL A   1      39.577  29.152  29.957  1.00  0.00     0.031 A 
ATOM     38  C   UNL A   1      40.338  29.815  31.074  1.00  0.00     0.074 A 
ATOM     39  C   UNL A   1      40.123  28.115  29.291  1.00  0.00     0.049 A 
ATOM     40  N   UNL A   1      41.517  29.517  31.556  1.00  0.00    -0.248 NA
ATOM     41  C   UNL A   1      39.706  30.980  31.714  1.00  0.00     0.031 C 
ATOM     42  C   UNL A   1      39.521  27.439  28.139  1.00  0.00     0.029 A 
ATOM     43  N   UNL A   1      41.320  27.468  29.467  1.00  0.00    -0.354 N 
ATOM     44  C   UNL A   1      41.784  30.475  32.528  1.00  0.00     0.074 A 
ATOM     45  C   UNL A   1      40.657  31.382  32.546  1.00  0.00     0.031 C 
ATOM     46  C   UNL A   1      40.352  26.475  27.712  1.00  0.00     0.029 A 
ATOM     47  C   UNL A   1      41.553  26.478  28.541  1.00  0.00     0.049 A 
ATOM     48  H   UNL A   1      41.951  27.690  30.188  1.00  0.00     0.167 HD
ATOM     49  C   UNL A   1      42.855  30.573  33.351  1.00  0.00     0.034 A 
ATOM     50  C   UNL A   1      42.617  25.669  28.372  1.00  0.00     0.034 A 
ATOM     51  C   UNL A   1      43.950  29.641  33.364  1.00  0.00     0.049 A 
ATOM     52  C   UNL A   1      43.770  25.766  29.335  1.00  0.00     0.074 A 
ATOM     53  C   UNL A   1      45.033  29.600  34.224  1.00  0.00     0.029 A 
ATOM     54  N   UNL A   1      44.105  28.590  32.475  1.00  0.00    -0.354 N 
ATOM     55  N   UNL A   1      43.925  26.572  30.357  1.00  0.00    -0.248 NA
ATOM     56  C   UNL A   1      44.878  24.818  29.145  1.00  0.00     0.031 C 
ATOM     57  C   UNL A   1      45.853  28.533  33.842  1.00  0.00     0.029 A 
ATOM     58  C   UNL A   1      45.270  27.897  32.758  1.00  0.00     0.049 A 
ATOM     59  H   UNL A   1      43.479  28.368  31.748  1.00  0.00     0.167 HD
ATOM     60  C   UNL A   1      45.126  26.206  30.954  1.00  0.00     0.074 A 
ATOM     61  C   UNL A   1      45.649  25.091  30.191  1.00  0.00     0.031 C 
ATOM     62  C   UNL A   1      45.749  26.754  32.026  1.00  0.00     0.034 A 
BRANCH  49  63
ATOM     63  C   UNL A   1      42.867  31.698  34.354  1.00  0.00     0.023 A 
ATOM     64  C   UNL A   1      43.491  32.917  34.019  1.00  0.00     0.012 A 
ATOM     65  C   UNL A   1      42.210  31.576  35.593  1.00  0.00     0.148 A 
ATOM     66  C   UNL A   1      43.488  33.987  34.914  1.00  0.00     0.002 A 
ATOM     67  C   UNL A   1      42.173  32.661  36.463  1.00  0.00     0.091 A 
ATOM     68  F   UNL A   1      41.639  30.403  35.902  1.00  0.00    -0.205 F 
ATOM     69  C   UNL A   1      42.821  33.862  36.129  1.00  0.00     0.022 A 
BRANCH  67  70
ATOM     70  S   UNL A   1      41.274  32.630  38.018  1.00  0.00     0.127 S 
ATOM     71  O   UNL A   1      41.264  34.045  38.381  1.00  0.00    -0.237 OA
ATOM     72  O   UNL A   1      39.973  32.096  37.611  1.00  0.00    -0.237 OA
ATOM     73  O   UNL A   1      42.035  31.760  38.904  1.00  0.00    -0.744 OA
ENDBRANCH  67  70
ENDBRANCH  49  63
BRANCH  50  74
ATOM     74  C   UNL A   1      42.610  24.645  27.289  1.00  0.00     0.023 A 
ATOM     75  C   UNL A   1      43.237  24.935  26.061  1.00  0.00     0.012 A 
ATOM     76  C   UNL A   1      42.018  23.382  27.475  1.00  0.00     0.148 A 
ATOM     77  C   UNL A   1      43.244  23.998  25.027  1.00  0.00     0.002 A 
ATOM     78  C   UNL A   1      42.077  22.433  26.461  1.00  0.00     0.091 A 
ATOM     79  F   UNL A   1      41.414  23.128  28.645  1.00  0.00    -0.205 F 
ATOM     80  C   UNL A   1      42.675  22.744  25.229  1.00  0.00     0.022 A 
BRANCH  78  81
ATOM     81  S   UNL A   1      41.489  20.750  26.686  1.00  0.00     0.127 S 
ATOM     82  O   UNL A   1      40.040  20.936  26.685  1.00  0.00    -0.237 OA
ATOM     83  O   UNL A   1      42.026  20.078  25.502  1.00  0.00    -0.237 OA
ATOM     84  O   UNL A   1      42.071  20.299  27.943  1.00  0.00    -0.744 OA
ENDBRANCH  78  81
ENDBRANCH  50  74
BRANCH  62  85
ATOM     85  C   UNL A   1      47.051  26.140  32.467  1.00  0.00     0.023 A 
ATOM     86  C   UNL A   1      48.266  26.642  31.961  1.00  0.00     0.012 A 
ATOM     87  C   UNL A   1      47.074  25.122  33.440  1.00  0.00     0.148 A 
ATOM     88  C   UNL A   1      49.484  26.118  32.393  1.00  0.00     0.002 A 
ATOM     89  C   UNL A   1      48.293  24.638  33.902  1.00  0.00     0.091 A 
ATOM     90  F   UNL A   1      45.907  24.644  33.895  1.00  0.00    -0.205 F 
ATOM     91  C   UNL A   1      49.498  25.127  33.372  1.00  0.00     0.022 A 
BRANCH  89  92
ATOM     92  S   UNL A   1      48.407  23.429  35.226  1.00  0.00     0.127 S 
ATOM     93  O   UNL A   1      47.479  23.978  36.212  1.00  0.00    -0.237 OA
ATOM     94  O   UNL A   1      47.946  22.204  34.571  1.00  0.00    -0.237 OA
ATOM     95  O   UNL A   1      49.807  23.406  35.627  1.00  0.00    -0.744 OA
ENDBRANCH  89  92
ENDBRANCH  62  85
ENDBRANCH  36  37
ENDBRANCH  28  31
ENDBRANCH  26  27
ENDBRANCH  25  26
ENDBRANCH  24  25
ENDBRANCH   1  24
TORSDOF 19
ENDMDL
MODEL 3
REMARK VINA RESULT:     -10.6      1.146      7.562
REMARK SMILES C[C@H](c1ccc(Br)s1)[NH+]1CCC(CC(=O)NCCCCCCNC(=O)c2ccc(-c3c4nc(c(-c5cccc(S(=O)(=O)[O-])c5F)c5ccc([nH]5)c(-c5cccc(S(=O)(=O)[O-])c5F)c5nc(c(-c6cccc(S(=O)(=O)[O-])c6F)c6ccc3[nH]6)C=C5)C=C4)cc2)CC1
REMARK SMILES IDX 19 1 18 2 17 3 16 4 14 5 15 6 13 8 12 9 9 10 10 11 90 12
REMARK SMILES IDX 11 14 89 15 2 16 1 17 3 18 4 19 8 20 5 21 6 22 7 23 20 24
REMARK SMILES IDX 21 25 22 26 23 27 24 28 25 30 26 31 27 32 88 33 28 34 87 35
REMARK SMILES IDX 29 36 30 37 31 38 81 39 32 40 86 41 80 42 82 43 33 44 85 45
REMARK SMILES IDX 79 46 78 47 34 49 66 50 46 51 65 52 47 53 50 54 64 55 83 56
REMARK SMILES IDX 48 57 49 58 63 60 84 61 51 62 35 63 36 64 44 65 37 66 39 67
REMARK SMILES IDX 45 68 38 69 40 70 41 71 42 72 43 73 67 74 68 75 76 76 69 77
REMARK SMILES IDX 71 78 77 79 70 80 72 81 73 82 74 83 75 84 52 85 53 86 61 87
REMARK SMILES IDX 54 88 56 89 62 90 55 91 57 92 58 93 59 94 60 95
REMARK H PARENT 16 7 9 13 23 29 82 48 50 59
REMARK Flexibility Score: inf
ROOT
ATOM      1  C   UNL A   1      36.095  21.531  24.677  1.00  0.00     0.002 C 
ENDROOT
BRANCH   1   2
ATOM      2  C   UNL A   1      35.854  22.392  25.916  1.00  0.00     0.021 C 
BRANCH   2   3
ATOM      3  C   UNL A   1      34.610  22.020  26.733  1.00  0.00     0.116 C 
BRANCH   3   4
ATOM      4  N   UNL A   1      33.755  21.100  25.995  1.00  0.00    -0.356 N 
ATOM      5  C   UNL A   1      32.506  21.265  25.471  1.00  0.00     0.220 C 
ATOM      6  O   UNL A   1      31.956  20.285  24.960  1.00  0.00    -0.275 OA
ATOM      7  H   UNL A   1      34.145  20.207  25.850  1.00  0.00     0.163 HD
BRANCH   5   8
ATOM      8  C   UNL A   1      31.806  22.616  25.503  1.00  0.00     0.104 C 
BRANCH   8   9
ATOM      9  C   UNL A   1      31.952  23.440  24.206  1.00  0.00     0.009 C 
ATOM     10  N   UNL A   1      32.199  26.243  23.310  1.00  0.00    -0.328 N 
ATOM     11  C   UNL A   1      30.980  25.483  22.998  1.00  0.00     0.263 C 
ATOM     12  C   UNL A   1      33.347  25.336  23.159  1.00  0.00     0.263 C 
ATOM     13  H   UNL A   1      32.196  26.579  24.273  1.00  0.00     0.348 HD
ATOM     14  C   UNL A   1      30.783  24.402  24.043  1.00  0.00     0.066 C 
ATOM     15  C   UNL A   1      33.284  24.207  24.201  1.00  0.00     0.066 C 
BRANCH  10  16
ATOM     16  C   UNL A   1      32.276  27.479  22.486  1.00  0.00     0.222 C 
ATOM     17  C   UNL A   1      33.699  28.056  22.384  1.00  0.00     0.082 C 
BRANCH  16  18
ATOM     18  C   UNL A   1      31.381  28.567  23.072  1.00  0.00     0.063 A 
ATOM     19  C   UNL A   1      31.528  29.266  24.261  1.00  0.00     0.023 A 
ATOM     20  S   UNL A   1      29.957  29.061  22.240  1.00  0.00    -0.127 S 
ATOM     21  C   UNL A   1      30.468  30.195  24.488  1.00  0.00     0.028 A 
ATOM     22  C   UNL A   1      29.555  30.160  23.466  1.00  0.00     0.070 A 
ATOM     23  Br  UNL A   1      28.009  31.218  23.425  1.00  0.00    -0.039 Br
ENDBRANCH  16  18
ENDBRANCH  10  16
ENDBRANCH   8   9
ENDBRANCH   5   8
ENDBRANCH   3   4
ENDBRANCH   2   3
ENDBRANCH   1   2
BRANCH   1  24
ATOM     24  C   UNL A   1      36.626  20.125  24.960  1.00  0.00     0.002 C 
BRANCH  24  25
ATOM     25  C   UNL A   1      38.130  19.925  24.741  1.00  0.00     0.021 C 
BRANCH  25  26
ATOM     26  C   UNL A   1      39.036  20.527  25.813  1.00  0.00     0.116 C 
BRANCH  26  27
ATOM     27  N   UNL A   1      40.119  19.628  26.181  1.00  0.00    -0.352 N 
ATOM     28  C   UNL A   1      41.414  19.916  26.535  1.00  0.00     0.251 C 
ATOM     29  H   UNL A   1      39.889  18.671  26.177  1.00  0.00     0.163 HD
ATOM     30  O   UNL A   1      42.245  19.014  26.599  1.00  0.00    -0.269 OA
BRANCH  28  31
ATOM     31  C   UNL A   1      41.812  21.309  26.828  1.00  0.00     0.039 A 
ATOM     32  C   UNL A   1      41.819  22.244  25.789  1.00  0.00     0.014 A 
ATOM     33  C   UNL A   1      42.203  21.687  28.116  1.00  0.00     0.014 A 
ATOM     34  C   UNL A   1      42.168  23.571  26.053  1.00  0.00     0.010 A 
ATOM     35  C   UNL A   1      42.489  23.023  28.390  1.00  0.00     0.010 A 
ATOM     36  C   UNL A   1      42.482  23.978  27.360  1.00  0.00    -0.014 A 
BRANCH  36  37
ATOM     37  C   UNL A   1      42.799  25.395  27.672  1.00  0.00     0.031 A 
ATOM     38  C   UNL A   1      44.206  25.909  27.529  1.00  0.00     0.074 A 
ATOM     39  C   UNL A   1      41.836  26.197  28.169  1.00  0.00     0.049 A 
ATOM     40  N   UNL A   1      44.681  27.096  27.804  1.00  0.00    -0.248 NA
ATOM     41  C   UNL A   1      45.217  24.958  27.037  1.00  0.00     0.031 C 
ATOM     42  C   UNL A   1      40.452  25.795  28.432  1.00  0.00     0.029 A 
ATOM     43  N   UNL A   1      41.881  27.509  28.570  1.00  0.00    -0.354 N 
ATOM     44  C   UNL A   1      46.048  27.026  27.555  1.00  0.00     0.074 A 
ATOM     45  C   UNL A   1      46.331  25.671  27.136  1.00  0.00     0.031 C 
ATOM     46  C   UNL A   1      39.782  26.836  28.951  1.00  0.00     0.029 A 
ATOM     47  C   UNL A   1      40.690  27.971  29.081  1.00  0.00     0.049 A 
ATOM     48  H   UNL A   1      42.688  28.067  28.499  1.00  0.00     0.167 HD
ATOM     49  C   UNL A   1      46.977  28.007  27.640  1.00  0.00     0.034 A 
ATOM     50  C   UNL A   1      40.367  29.171  29.602  1.00  0.00     0.034 A 
ATOM     51  C   UNL A   1      46.684  29.366  28.009  1.00  0.00     0.049 A 
ATOM     52  C   UNL A   1      41.406  30.259  29.634  1.00  0.00     0.074 A 
ATOM     53  C   UNL A   1      47.537  30.455  28.030  1.00  0.00     0.029 A 
ATOM     54  N   UNL A   1      45.443  29.822  28.426  1.00  0.00    -0.354 N 
ATOM     55  N   UNL A   1      42.654  30.219  29.233  1.00  0.00    -0.248 NA
ATOM     56  C   UNL A   1      40.985  31.568  30.154  1.00  0.00     0.031 C 
ATOM     57  C   UNL A   1      46.816  31.566  28.478  1.00  0.00     0.029 A 
ATOM     58  C   UNL A   1      45.509  31.175  28.715  1.00  0.00     0.049 A 
ATOM     59  H   UNL A   1      44.634  29.266  28.505  1.00  0.00     0.167 HD
ATOM     60  C   UNL A   1      43.156  31.502  29.418  1.00  0.00     0.074 A 
ATOM     61  C   UNL A   1      42.070  32.303  29.947  1.00  0.00     0.031 C 
ATOM     62  C   UNL A   1      44.406  31.972  29.186  1.00  0.00     0.034 A 
BRANCH  49  63
ATOM     63  C   UNL A   1      48.396  27.664  27.265  1.00  0.00     0.023 A 
ATOM     64  C   UNL A   1      49.275  27.182  28.255  1.00  0.00     0.012 A 
ATOM     65  C   UNL A   1      48.839  27.753  25.932  1.00  0.00     0.148 A 
ATOM     66  C   UNL A   1      50.583  26.823  27.931  1.00  0.00     0.002 A 
ATOM     67  C   UNL A   1      50.131  27.353  25.607  1.00  0.00     0.091 A 
ATOM     68  F   UNL A   1      47.995  28.233  25.007  1.00  0.00    -0.205 F 
ATOM     69  C   UNL A   1      51.007  26.899  26.607  1.00  0.00     0.022 A 
BRANCH  67  70
ATOM     70  S   UNL A   1      50.748  27.337  23.920  1.00  0.00     0.127 S 
ATOM     71  O   UNL A   1      49.649  26.686  23.210  1.00  0.00    -0.237 OA
ATOM     72  O   UNL A   1      50.898  28.764  23.633  1.00  0.00    -0.237 OA
ATOM     73  O   UNL A   1      51.998  26.592  23.958  1.00  0.00    -0.744 OA
ENDBRANCH  67  70
ENDBRANCH  49  63
BRANCH  50  74
ATOM     74  C   UNL A   1      38.975  29.429  30.069  1.00  0.00     0.023 A 
ATOM     75  C   UNL A   1      38.609  29.064  31.380  1.00  0.00     0.012 A 
ATOM     76  C   UNL A   1      38.026  30.059  29.242  1.00  0.00     0.148 A 
ATOM     77  C   UNL A   1      37.313  29.290  31.845  1.00  0.00     0.002 A 
ATOM     78  C   UNL A   1      36.754  30.332  29.731  1.00  0.00     0.091 A 
ATOM     79  F   UNL A   1      38.389  30.388  27.994  1.00  0.00    -0.205 F 
ATOM     80  C   UNL A   1      36.388  29.933  31.026  1.00  0.00     0.022 A 
BRANCH  78  81
ATOM     81  S   UNL A   1      35.547  31.276  28.791  1.00  0.00     0.127 S 
ATOM     82  O   UNL A   1      36.403  32.166  28.012  1.00  0.00    -0.237 OA
ATOM     83  O   UNL A   1      34.877  30.230  28.018  1.00  0.00    -0.237 OA
ATOM     84  O   UNL A   1      34.698  31.919  29.785  1.00  0.00    -0.744 OA
ENDBRANCH  78  81
ENDBRANCH  50  74
BRANCH  62  85
ATOM     85  C   UNL A   1      44.670  33.427  29.469  1.00  0.00     0.023 A 
ATOM     86  C   UNL A   1      45.162  33.815  30.730  1.00  0.00     0.012 A 
ATOM     87  C   UNL A   1      44.504  34.398  28.462  1.00  0.00     0.148 A 
ATOM     88  C   UNL A   1      45.458  35.152  30.995  1.00  0.00     0.002 A 
ATOM     89  C   UNL A   1      44.845  35.721  28.717  1.00  0.00     0.091 A 
ATOM     90  F   UNL A   1      44.016  34.012  27.274  1.00  0.00    -0.205 F 
ATOM     91  C   UNL A   1      45.312  36.102  29.986  1.00  0.00     0.022 A 
BRANCH  89  92
ATOM     92  S   UNL A   1      44.779  36.993  27.449  1.00  0.00     0.127 S 
ATOM     93  O   UNL A   1      45.801  36.534  26.512  1.00  0.00    -0.237 OA
ATOM     94  O   UNL A   1      43.404  36.872  26.960  1.00  0.00    -0.237 OA
ATOM     95  O   UNL A   1      45.067  38.249  28.128  1.00  0.00    -0.744 OA
ENDBRANCH  89  92
ENDBRANCH  62  85
ENDBRANCH  36  37
ENDBRANCH  28  31
ENDBRANCH  26  27
ENDBRANCH  25  26
ENDBRANCH  24  25
ENDBRANCH   1  24
TORSDOF 19
ENDMDL
