MODEL 1
REMARK VINA RESULT:     -10.4      0.000      0.000
REMARK SMILES Cc1cc(C)c(C#N)c(NC[C@H](CC(C)C)C(=O)NCCCCCCNC(=O)c2ccc(-c3c4nc(c(-c5cccc(S(=O)(=O)[O-])c5F)c5ccc([nH]5)c(-c5cccc(S(=O)(=O)[O-])c5F)c5nc(c(-c6cccc(S(=O)(=O)[O-])c6F)c6ccc3[nH]6)C=C5)C=C4)cc2)n1
REMARK SMILES IDX 22 1 21 2 20 3 19 4 17 5 18 6 12 8 11 9 10 10 9 12 1 13 2 14
REMARK SMILES IDX 3 15 92 16 4 17 5 18 6 19 7 20 8 21 13 22 14 23 15 24 16 25
REMARK SMILES IDX 23 26 24 27 25 28 26 29 27 30 28 32 29 33 30 34 91 35 31 36
REMARK SMILES IDX 90 37 32 38 33 39 34 40 84 41 35 42 89 43 83 44 85 45 36 46
REMARK SMILES IDX 88 47 82 48 81 49 37 51 69 52 49 53 68 54 50 55 53 56 67 57
REMARK SMILES IDX 86 58 51 59 52 60 66 62 87 63 54 64 38 65 39 66 47 67 40 68
REMARK SMILES IDX 42 69 48 70 41 71 43 72 44 73 45 74 46 75 70 76 71 77 79 78
REMARK SMILES IDX 72 79 74 80 80 81 73 82 75 83 76 84 77 85 78 86 55 87 56 88
REMARK SMILES IDX 64 89 57 90 59 91 65 92 58 93 60 94 61 95 62 96 63 97
REMARK H PARENT 19 7 10 11 26 31 85 50 53 61
REMARK Flexibility Score: inf
ROOT
ATOM      1  C   UNL A   1      34.649  24.018  23.431  1.00  0.00     0.002 C 
ENDROOT
BRANCH   1   2
ATOM      2  C   UNL A   1      34.357  25.113  24.450  1.00  0.00     0.021 C 
BRANCH   2   3
ATOM      3  C   UNL A   1      33.606  26.328  23.897  1.00  0.00     0.116 C 
BRANCH   3   4
ATOM      4  N   UNL A   1      32.973  27.092  24.948  1.00  0.00    -0.356 N 
ATOM      5  C   UNL A   1      31.673  27.355  25.221  1.00  0.00     0.224 C 
ATOM      6  O   UNL A   1      31.463  27.976  26.271  1.00  0.00    -0.275 OA
ATOM      7  H   UNL A   1      33.605  27.496  25.585  1.00  0.00     0.163 HD
BRANCH   5   8
ATOM      8  C   UNL A   1      30.484  26.955  24.335  1.00  0.00     0.098 C 
BRANCH   8   9
ATOM      9  C   UNL A   1      29.886  25.558  24.571  1.00  0.00     0.128 C 
BRANCH   9  10
ATOM     10  N   UNL A   1      30.270  24.494  23.670  1.00  0.00    -0.368 N 
ATOM     11  H   UNL A   1      29.964  24.592  22.739  1.00  0.00     0.162 HD
BRANCH  10  12
ATOM     12  C   UNL A   1      31.005  23.365  23.942  1.00  0.00     0.144 A 
ATOM     13  C   UNL A   1      32.002  20.668  21.607  1.00  0.00     0.067 C 
ATOM     14  C   UNL A   1      31.892  21.469  22.871  1.00  0.00     0.040 A 
ATOM     15  C   UNL A   1      32.512  21.035  24.031  1.00  0.00     0.028 A 
ATOM     16  N   UNL A   1      31.167  22.615  22.823  1.00  0.00    -0.235 NA
ATOM     17  C   UNL A   1      32.370  21.794  25.192  1.00  0.00    -0.028 A 
ATOM     18  C   UNL A   1      33.054  21.341  26.456  1.00  0.00     0.046 C 
ATOM     19  C   UNL A   1      31.589  22.972  25.152  1.00  0.00     0.097 A 
BRANCH  19  20
ATOM     20  C   UNL A   1      31.434  23.700  26.374  1.00  0.00     0.103 C 
ATOM     21  N   UNL A   1      31.372  24.325  27.354  1.00  0.00    -0.192 NA
ENDBRANCH  19  20
ENDBRANCH  10  12
ENDBRANCH   9  10
ENDBRANCH   8   9
BRANCH   8  22
ATOM     22  C   UNL A   1      30.328  27.620  22.946  1.00  0.00     0.018 C 
BRANCH  22  23
ATOM     23  C   UNL A   1      29.357  28.779  22.721  1.00  0.00    -0.017 C 
ATOM     24  C   UNL A   1      27.910  28.460  23.078  1.00  0.00     0.007 C 
ATOM     25  C   UNL A   1      29.793  30.030  23.495  1.00  0.00     0.007 C 
ENDBRANCH  22  23
ENDBRANCH   8  22
ENDBRANCH   5   8
ENDBRANCH   3   4
ENDBRANCH   2   3
ENDBRANCH   1   2
BRANCH   1  26
ATOM     26  C   UNL A   1      36.029  23.372  23.576  1.00  0.00     0.002 C 
BRANCH  26  27
ATOM     27  C   UNL A   1      36.047  22.022  24.301  1.00  0.00     0.021 C 
BRANCH  27  28
ATOM     28  C   UNL A   1      36.618  22.063  25.716  1.00  0.00     0.116 C 
BRANCH  28  29
ATOM     29  N   UNL A   1      37.552  20.972  25.950  1.00  0.00    -0.352 N 
ATOM     30  C   UNL A   1      38.908  21.000  26.138  1.00  0.00     0.251 C 
ATOM     31  H   UNL A   1      37.147  20.075  25.976  1.00  0.00     0.163 HD
ATOM     32  O   UNL A   1      39.560  19.965  26.025  1.00  0.00    -0.269 OA
BRANCH  30  33
ATOM     33  C   UNL A   1      39.582  22.268  26.483  1.00  0.00     0.039 A 
ATOM     34  C   UNL A   1      39.187  23.440  25.836  1.00  0.00     0.014 A 
ATOM     35  C   UNL A   1      40.625  22.293  27.414  1.00  0.00     0.014 A 
ATOM     36  C   UNL A   1      39.814  24.646  26.154  1.00  0.00     0.010 A 
ATOM     37  C   UNL A   1      41.184  23.508  27.794  1.00  0.00     0.010 A 
ATOM     38  C   UNL A   1      40.797  24.693  27.157  1.00  0.00    -0.014 A 
BRANCH  38  39
ATOM     39  C   UNL A   1      41.415  25.984  27.552  1.00  0.00     0.031 A 
ATOM     40  C   UNL A   1      42.831  26.308  27.167  1.00  0.00     0.074 A 
ATOM     41  C   UNL A   1      40.708  26.844  28.311  1.00  0.00     0.049 A 
ATOM     42  N   UNL A   1      43.520  27.395  27.401  1.00  0.00    -0.248 NA
ATOM     43  C   UNL A   1      43.582  25.267  26.446  1.00  0.00     0.031 C 
ATOM     44  C   UNL A   1      39.350  26.612  28.806  1.00  0.00     0.029 A 
ATOM     45  N   UNL A   1      41.036  28.081  28.803  1.00  0.00    -0.354 N 
ATOM     46  C   UNL A   1      44.791  27.158  26.889  1.00  0.00     0.074 A 
ATOM     47  C   UNL A   1      44.789  25.808  26.371  1.00  0.00     0.031 C 
ATOM     48  C   UNL A   1      38.946  27.688  29.498  1.00  0.00     0.029 A 
ATOM     49  C   UNL A   1      40.028  28.665  29.533  1.00  0.00     0.049 A 
ATOM     50  H   UNL A   1      41.908  28.510  28.649  1.00  0.00     0.167 HD
ATOM     51  C   UNL A   1      45.856  27.993  26.837  1.00  0.00     0.034 A 
ATOM     52  C   UNL A   1      39.980  29.856  30.160  1.00  0.00     0.034 A 
ATOM     53  C   UNL A   1      45.847  29.338  27.351  1.00  0.00     0.049 A 
ATOM     54  C   UNL A   1      41.173  30.766  30.086  1.00  0.00     0.074 A 
ATOM     55  C   UNL A   1      46.842  30.296  27.274  1.00  0.00     0.029 A 
ATOM     56  N   UNL A   1      44.801  29.906  28.064  1.00  0.00    -0.354 N 
ATOM     57  N   UNL A   1      42.313  30.588  29.462  1.00  0.00    -0.248 NA
ATOM     58  C   UNL A   1      41.059  32.059  30.774  1.00  0.00     0.031 C 
ATOM     59  C   UNL A   1      46.422  31.420  27.994  1.00  0.00     0.029 A 
ATOM     60  C   UNL A   1      45.139  31.189  28.463  1.00  0.00     0.049 A 
ATOM     61  H   UNL A   1      43.944  29.461  28.259  1.00  0.00     0.167 HD
ATOM     62  C   UNL A   1      43.038  31.760  29.649  1.00  0.00     0.074 A 
ATOM     63  C   UNL A   1      42.196  32.647  30.428  1.00  0.00     0.031 C 
ATOM     64  C   UNL A   1      44.286  32.072  29.219  1.00  0.00     0.034 A 
BRANCH  51  65
ATOM     65  C   UNL A   1      47.120  27.468  26.200  1.00  0.00     0.023 A 
ATOM     66  C   UNL A   1      47.395  27.736  24.842  1.00  0.00     0.012 A 
ATOM     67  C   UNL A   1      48.044  26.715  26.951  1.00  0.00     0.148 A 
ATOM     68  C   UNL A   1      48.532  27.211  24.227  1.00  0.00     0.002 A 
ATOM     69  C   UNL A   1      49.203  26.244  26.347  1.00  0.00     0.091 A 
ATOM     70  F   UNL A   1      47.763  26.452  28.235  1.00  0.00    -0.205 F 
ATOM     71  C   UNL A   1      49.439  26.473  24.981  1.00  0.00     0.022 A 
BRANCH  69  72
ATOM     72  S   UNL A   1      50.474  25.357  27.254  1.00  0.00     0.127 S 
ATOM     73  O   UNL A   1      51.444  25.070  26.197  1.00  0.00    -0.237 OA
ATOM     74  O   UNL A   1      50.912  26.358  28.226  1.00  0.00    -0.237 OA
ATOM     75  O   UNL A   1      49.816  24.195  27.833  1.00  0.00    -0.744 OA
ENDBRANCH  69  72
ENDBRANCH  51  65
BRANCH  52  76
ATOM     76  C   UNL A   1      38.729  30.284  30.845  1.00  0.00     0.023 A 
ATOM     77  C   UNL A   1      38.564  30.004  32.216  1.00  0.00     0.012 A 
ATOM     78  C   UNL A   1      37.725  30.996  30.162  1.00  0.00     0.148 A 
ATOM     79  C   UNL A   1      37.406  30.398  32.888  1.00  0.00     0.002 A 
ATOM     80  C   UNL A   1      36.599  31.434  30.850  1.00  0.00     0.091 A 
ATOM     81  F   UNL A   1      37.904  31.252  28.859  1.00  0.00    -0.205 F 
ATOM     82  C   UNL A   1      36.430  31.120  32.208  1.00  0.00     0.022 A 
BRANCH  80  83
ATOM     83  S   UNL A   1      35.347  32.475  30.093  1.00  0.00     0.127 S 
ATOM     84  O   UNL A   1      36.102  33.693  29.808  1.00  0.00    -0.237 OA
ATOM     85  O   UNL A   1      34.977  31.689  28.916  1.00  0.00    -0.237 OA
ATOM     86  O   UNL A   1      34.290  32.614  31.085  1.00  0.00    -0.744 OA
ENDBRANCH  80  83
ENDBRANCH  52  76
BRANCH  64  87
ATOM     87  C   UNL A   1      44.808  33.449  29.549  1.00  0.00     0.023 A 
ATOM     88  C   UNL A   1      45.533  33.672  30.737  1.00  0.00     0.012 A 
ATOM     89  C   UNL A   1      44.610  34.519  28.653  1.00  0.00     0.148 A 
ATOM     90  C   UNL A   1      46.004  34.947  31.053  1.00  0.00     0.002 A 
ATOM     91  C   UNL A   1      45.134  35.771  28.945  1.00  0.00     0.091 A 
ATOM     92  F   UNL A   1      43.905  34.295  27.534  1.00  0.00    -0.205 F 
ATOM     93  C   UNL A   1      45.815  35.992  30.153  1.00  0.00     0.022 A 
BRANCH  91  94
ATOM     94  S   UNL A   1      45.028  37.152  27.801  1.00  0.00     0.127 S 
ATOM     95  O   UNL A   1      45.603  38.239  28.592  1.00  0.00    -0.237 OA
ATOM     96  O   UNL A   1      45.866  36.696  26.691  1.00  0.00    -0.237 OA
ATOM     97  O   UNL A   1      43.617  37.298  27.474  1.00  0.00    -0.744 OA
ENDBRANCH  91  94
ENDBRANCH  64  87
ENDBRANCH  38  39
ENDBRANCH  30  33
ENDBRANCH  28  29
ENDBRANCH  27  28
ENDBRANCH  26  27
ENDBRANCH   1  26
TORSDOF 22
ENDMDL
MODEL 2
REMARK VINA RESULT:     -10.4      2.187      4.029
REMARK SMILES Cc1cc(C)c(C#N)c(NC[C@H](CC(C)C)C(=O)NCCCCCCNC(=O)c2ccc(-c3c4nc(c(-c5cccc(S(=O)(=O)[O-])c5F)c5ccc([nH]5)c(-c5cccc(S(=O)(=O)[O-])c5F)c5nc(c(-c6cccc(S(=O)(=O)[O-])c6F)c6ccc3[nH]6)C=C5)C=C4)cc2)n1
REMARK SMILES IDX 22 1 21 2 20 3 19 4 17 5 18 6 12 8 11 9 10 10 9 12 1 13 2 14
REMARK SMILES IDX 3 15 92 16 4 17 5 18 6 19 7 20 8 21 13 22 14 23 15 24 16 25
REMARK SMILES IDX 23 26 24 27 25 28 26 29 27 30 28 32 29 33 30 34 91 35 31 36
REMARK SMILES IDX 90 37 32 38 33 39 34 40 84 41 35 42 89 43 83 44 85 45 36 46
REMARK SMILES IDX 88 47 82 48 81 49 37 51 69 52 49 53 68 54 50 55 53 56 67 57
REMARK SMILES IDX 86 58 51 59 52 60 66 62 87 63 54 64 38 65 39 66 47 67 40 68
REMARK SMILES IDX 42 69 48 70 41 71 43 72 44 73 45 74 46 75 70 76 71 77 79 78
REMARK SMILES IDX 72 79 74 80 80 81 73 82 75 83 76 84 77 85 78 86 55 87 56 88
REMARK SMILES IDX 64 89 57 90 59 91 65 92 58 93 60 94 61 95 62 96 63 97
REMARK H PARENT 19 7 10 11 26 31 85 50 53 61
REMARK Flexibility Score: inf
ROOT
ATOM      1  C   UNL A   1      35.377  20.583  24.970  1.00  0.00     0.002 C 
ENDROOT
BRANCH   1   2
ATOM      2  C   UNL A   1      34.513  21.195  26.064  1.00  0.00     0.021 C 
BRANCH   2   3
ATOM      3  C   UNL A   1      33.007  20.967  25.904  1.00  0.00     0.116 C 
BRANCH   3   4
ATOM      4  N   UNL A   1      32.235  21.912  26.678  1.00  0.00    -0.356 N 
ATOM      5  C   UNL A   1      31.966  23.227  26.498  1.00  0.00     0.224 C 
ATOM      6  O   UNL A   1      31.181  23.728  27.313  1.00  0.00    -0.275 OA
ATOM      7  H   UNL A   1      31.829  21.529  27.489  1.00  0.00     0.163 HD
BRANCH   5   8
ATOM      8  C   UNL A   1      32.563  24.109  25.391  1.00  0.00     0.098 C 
BRANCH   8   9
ATOM      9  C   UNL A   1      33.603  25.154  25.827  1.00  0.00     0.128 C 
BRANCH   9  10
ATOM     10  N   UNL A   1      33.649  26.406  25.105  1.00  0.00    -0.368 N 
ATOM     11  H   UNL A   1      33.951  26.348  24.169  1.00  0.00     0.162 HD
BRANCH  10  12
ATOM     12  C   UNL A   1      33.330  27.665  25.553  1.00  0.00     0.144 A 
ATOM     13  C   UNL A   1      35.182  29.771  27.974  1.00  0.00     0.067 C 
ATOM     14  C   UNL A   1      34.142  29.353  26.976  1.00  0.00     0.040 A 
ATOM     15  C   UNL A   1      33.113  30.213  26.634  1.00  0.00     0.028 A 
ATOM     16  N   UNL A   1      34.257  28.112  26.437  1.00  0.00    -0.235 NA
ATOM     17  C   UNL A   1      32.152  29.783  25.719  1.00  0.00    -0.028 A 
ATOM     18  C   UNL A   1      31.037  30.716  25.327  1.00  0.00     0.046 C 
ATOM     19  C   UNL A   1      32.253  28.478  25.180  1.00  0.00     0.097 A 
BRANCH  19  20
ATOM     20  C   UNL A   1      31.226  28.059  24.277  1.00  0.00     0.103 C 
ATOM     21  N   UNL A   1      30.431  27.661  23.525  1.00  0.00    -0.192 NA
ENDBRANCH  19  20
ENDBRANCH  10  12
ENDBRANCH   9  10
ENDBRANCH   8   9
BRANCH   8  22
ATOM     22  C   UNL A   1      31.741  24.350  24.102  1.00  0.00     0.018 C 
BRANCH  22  23
ATOM     23  C   UNL A   1      32.293  23.984  22.724  1.00  0.00    -0.017 C 
ATOM     24  C   UNL A   1      32.626  25.184  21.846  1.00  0.00     0.007 C 
ATOM     25  C   UNL A   1      33.538  23.095  22.841  1.00  0.00     0.007 C 
ENDBRANCH  22  23
ENDBRANCH   8  22
ENDBRANCH   5   8
ENDBRANCH   3   4
ENDBRANCH   2   3
ENDBRANCH   1   2
BRANCH   1  26
ATOM     26  C   UNL A   1      36.664  21.357  24.673  1.00  0.00     0.002 C 
BRANCH  26  27
ATOM     27  C   UNL A   1      36.620  22.853  25.003  1.00  0.00     0.021 C 
BRANCH  27  28
ATOM     28  C   UNL A   1      37.591  23.295  26.095  1.00  0.00     0.116 C 
BRANCH  28  29
ATOM     29  N   UNL A   1      38.721  22.386  26.209  1.00  0.00    -0.352 N 
ATOM     30  C   UNL A   1      40.051  22.653  26.399  1.00  0.00     0.251 C 
ATOM     31  H   UNL A   1      38.495  21.430  26.138  1.00  0.00     0.163 HD
ATOM     32  O   UNL A   1      40.885  21.781  26.174  1.00  0.00    -0.269 OA
BRANCH  30  33
ATOM     33  C   UNL A   1      40.477  23.983  26.879  1.00  0.00     0.039 A 
ATOM     34  C   UNL A   1      40.401  25.072  26.008  1.00  0.00     0.014 A 
ATOM     35  C   UNL A   1      40.985  24.147  28.171  1.00  0.00     0.014 A 
ATOM     36  C   UNL A   1      40.798  26.334  26.450  1.00  0.00     0.010 A 
ATOM     37  C   UNL A   1      41.294  25.421  28.637  1.00  0.00     0.010 A 
ATOM     38  C   UNL A   1      41.220  26.524  27.777  1.00  0.00    -0.014 A 
BRANCH  38  39
ATOM     39  C   UNL A   1      41.574  27.877  28.274  1.00  0.00     0.031 A 
ATOM     40  C   UNL A   1      43.004  28.337  28.299  1.00  0.00     0.074 A 
ATOM     41  C   UNL A   1      40.600  28.673  28.757  1.00  0.00     0.049 A 
ATOM     42  N   UNL A   1      43.491  29.492  28.672  1.00  0.00    -0.248 NA
ATOM     43  C   UNL A   1      44.025  27.366  27.873  1.00  0.00     0.031 C 
ATOM     44  C   UNL A   1      39.183  28.312  28.850  1.00  0.00     0.029 A 
ATOM     45  N   UNL A   1      40.653  29.945  29.266  1.00  0.00    -0.354 N 
ATOM     46  C   UNL A   1      44.872  29.378  28.560  1.00  0.00     0.074 A 
ATOM     47  C   UNL A   1      45.147  28.026  28.125  1.00  0.00     0.031 C 
ATOM     48  C   UNL A   1      38.498  29.352  29.346  1.00  0.00     0.029 A 
ATOM     49  C   UNL A   1      39.427  30.435  29.648  1.00  0.00     0.049 A 
ATOM     50  H   UNL A   1      41.489  30.458  29.350  1.00  0.00     0.167 HD
ATOM     51  C   UNL A   1      45.823  30.317  28.779  1.00  0.00     0.034 A 
ATOM     52  C   UNL A   1      39.089  31.625  30.179  1.00  0.00     0.034 A 
ATOM     53  C   UNL A   1      45.541  31.661  29.206  1.00  0.00     0.049 A 
ATOM     54  C   UNL A   1      40.162  32.651  30.410  1.00  0.00     0.074 A 
ATOM     55  C   UNL A   1      46.421  32.715  29.375  1.00  0.00     0.029 A 
ATOM     56  N   UNL A   1      44.285  32.132  29.562  1.00  0.00    -0.354 N 
ATOM     57  N   UNL A   1      41.445  32.579  30.150  1.00  0.00    -0.248 NA
ATOM     58  C   UNL A   1      39.733  33.936  30.977  1.00  0.00     0.031 C 
ATOM     59  C   UNL A   1      45.708  33.802  29.892  1.00  0.00     0.029 A 
ATOM     60  C   UNL A   1      44.371  33.449  29.982  1.00  0.00     0.049 A 
ATOM     61  H   UNL A   1      43.453  31.605  29.521  1.00  0.00     0.167 HD
ATOM     62  C   UNL A   1      41.972  33.823  30.485  1.00  0.00     0.074 A 
ATOM     63  C   UNL A   1      40.861  34.632  30.946  1.00  0.00     0.031 C 
ATOM     64  C   UNL A   1      43.257  34.253  30.419  1.00  0.00     0.034 A 
BRANCH  51  65
ATOM     65  C   UNL A   1      47.261  29.912  28.557  1.00  0.00     0.023 A 
ATOM     66  C   UNL A   1      47.866  30.100  27.296  1.00  0.00     0.012 A 
ATOM     67  C   UNL A   1      48.021  29.355  29.605  1.00  0.00     0.148 A 
ATOM     68  C   UNL A   1      49.176  29.681  27.063  1.00  0.00     0.002 A 
ATOM     69  C   UNL A   1      49.343  28.993  29.382  1.00  0.00     0.091 A 
ATOM     70  F   UNL A   1      47.431  29.165  30.793  1.00  0.00    -0.205 F 
ATOM     71  C   UNL A   1      49.916  29.136  28.107  1.00  0.00     0.022 A 
BRANCH  69  72
ATOM     72  S   UNL A   1      50.406  28.362  30.684  1.00  0.00     0.127 S 
ATOM     73  O   UNL A   1      51.558  27.885  29.920  1.00  0.00    -0.237 OA
ATOM     74  O   UNL A   1      50.659  29.562  31.482  1.00  0.00    -0.237 OA
ATOM     75  O   UNL A   1      49.636  27.331  31.366  1.00  0.00    -0.744 OA
ENDBRANCH  69  72
ENDBRANCH  51  65
BRANCH  52  76
ATOM     76  C   UNL A   1      37.658  31.934  30.454  1.00  0.00     0.023 A 
ATOM     77  C   UNL A   1      37.091  31.537  31.681  1.00  0.00     0.012 A 
ATOM     78  C   UNL A   1      36.871  32.649  29.531  1.00  0.00     0.148 A 
ATOM     79  C   UNL A   1      35.756  31.819  31.971  1.00  0.00     0.002 A 
ATOM     80  C   UNL A   1      35.558  32.975  29.850  1.00  0.00     0.091 A 
ATOM     81  F   UNL A   1      37.432  33.018  28.371  1.00  0.00    -0.205 F 
ATOM     82  C   UNL A   1      34.993  32.545  31.061  1.00  0.00     0.022 A 
BRANCH  80  83
ATOM     83  S   UNL A   1      34.535  34.010  28.798  1.00  0.00     0.127 S 
ATOM     84  O   UNL A   1      35.303  35.252  28.763  1.00  0.00    -0.237 OA
ATOM     85  O   UNL A   1      34.530  33.252  27.547  1.00  0.00    -0.237 OA
ATOM     86  O   UNL A   1      33.240  34.095  29.459  1.00  0.00    -0.744 OA
ENDBRANCH  80  83
ENDBRANCH  52  76
BRANCH  64  87
ATOM     87  C   UNL A   1      43.530  35.681  30.822  1.00  0.00     0.023 A 
ATOM     88  C   UNL A   1      43.860  35.996  32.156  1.00  0.00     0.012 A 
ATOM     89  C   UNL A   1      43.496  36.712  29.860  1.00  0.00     0.148 A 
ATOM     90  C   UNL A   1      44.098  37.317  32.536  1.00  0.00     0.002 A 
ATOM     91  C   UNL A   1      43.795  38.015  30.233  1.00  0.00     0.091 A 
ATOM     92  F   UNL A   1      43.166  36.398  28.598  1.00  0.00    -0.205 F 
ATOM     93  C   UNL A   1      44.076  38.323  31.574  1.00  0.00     0.022 A 
BRANCH  91  94
ATOM     94  S   UNL A   1      43.891  39.360  29.047  1.00  0.00     0.127 S 
ATOM     95  O   UNL A   1      42.521  39.404  28.536  1.00  0.00    -0.237 OA
ATOM     96  O   UNL A   1      44.263  40.493  29.895  1.00  0.00    -0.237 OA
ATOM     97  O   UNL A   1      44.905  38.971  28.077  1.00  0.00    -0.744 OA
ENDBRANCH  91  94
ENDBRANCH  64  87
ENDBRANCH  38  39
ENDBRANCH  30  33
ENDBRANCH  28  29
ENDBRANCH  27  28
ENDBRANCH  26  27
ENDBRANCH   1  26
TORSDOF 22
ENDMDL
MODEL 3
REMARK VINA RESULT:     -10.3      2.069      8.216
REMARK SMILES Cc1cc(C)c(C#N)c(NC[C@H](CC(C)C)C(=O)NCCCCCCNC(=O)c2ccc(-c3c4nc(c(-c5cccc(S(=O)(=O)[O-])c5F)c5ccc([nH]5)c(-c5cccc(S(=O)(=O)[O-])c5F)c5nc(c(-c6cccc(S(=O)(=O)[O-])c6F)c6ccc3[nH]6)C=C5)C=C4)cc2)n1
REMARK SMILES IDX 22 1 21 2 20 3 19 4 17 5 18 6 12 8 11 9 10 10 9 12 1 13 2 14
REMARK SMILES IDX 3 15 92 16 4 17 5 18 6 19 7 20 8 21 13 22 14 23 15 24 16 25
REMARK SMILES IDX 23 26 24 27 25 28 26 29 27 30 28 32 29 33 30 34 91 35 31 36
REMARK SMILES IDX 90 37 32 38 33 39 34 40 84 41 35 42 89 43 83 44 85 45 36 46
REMARK SMILES IDX 88 47 82 48 81 49 37 51 69 52 49 53 68 54 50 55 53 56 67 57
REMARK SMILES IDX 86 58 51 59 52 60 66 62 87 63 54 64 38 65 39 66 47 67 40 68
REMARK SMILES IDX 42 69 48 70 41 71 43 72 44 73 45 74 46 75 70 76 71 77 79 78
REMARK SMILES IDX 72 79 74 80 80 81 73 82 75 83 76 84 77 85 78 86 55 87 56 88
REMARK SMILES IDX 64 89 57 90 59 91 65 92 58 93 60 94 61 95 62 96 63 97
REMARK H PARENT 19 7 10 11 26 31 85 50 53 61
REMARK Flexibility Score: inf
ROOT
ATOM      1  C   UNL A   1      36.807  21.960  25.321  1.00  0.00     0.002 C 
ENDROOT
BRANCH   1   2
ATOM      2  C   UNL A   1      35.696  22.358  26.284  1.00  0.00     0.021 C 
BRANCH   2   3
ATOM      3  C   UNL A   1      34.832  23.536  25.823  1.00  0.00     0.116 C 
BRANCH   3   4
ATOM      4  N   UNL A   1      33.705  23.751  26.702  1.00  0.00    -0.356 N 
ATOM      5  C   UNL A   1      32.390  23.450  26.581  1.00  0.00     0.224 C 
ATOM      6  O   UNL A   1      31.694  23.691  27.576  1.00  0.00    -0.275 OA
ATOM      7  H   UNL A   1      33.936  24.200  27.547  1.00  0.00     0.163 HD
BRANCH   5   8
ATOM      8  C   UNL A   1      31.730  22.859  25.327  1.00  0.00     0.098 C 
BRANCH   8   9
ATOM      9  C   UNL A   1      30.572  23.663  24.713  1.00  0.00     0.128 C 
BRANCH   9  10
ATOM     10  N   UNL A   1      30.364  25.016  25.178  1.00  0.00    -0.368 N 
ATOM     11  H   UNL A   1      30.017  25.104  26.095  1.00  0.00     0.162 HD
BRANCH  10  12
ATOM     12  C   UNL A   1      30.585  26.195  24.508  1.00  0.00     0.144 A 
ATOM     13  C   UNL A   1      33.818  27.877  23.841  1.00  0.00     0.067 C 
ATOM     14  C   UNL A   1      32.344  27.597  23.820  1.00  0.00     0.040 A 
ATOM     15  C   UNL A   1      31.478  28.454  23.162  1.00  0.00     0.028 A 
ATOM     16  N   UNL A   1      31.910  26.484  24.466  1.00  0.00    -0.235 NA
ATOM     17  C   UNL A   1      30.112  28.174  23.181  1.00  0.00    -0.028 A 
ATOM     18  C   UNL A   1      29.161  29.090  22.456  1.00  0.00     0.046 C 
ATOM     19  C   UNL A   1      29.654  27.033  23.881  1.00  0.00     0.097 A 
BRANCH  19  20
ATOM     20  C   UNL A   1      28.243  26.802  23.911  1.00  0.00     0.103 C 
ATOM     21  N   UNL A   1      27.089  26.668  23.984  1.00  0.00    -0.192 NA
ENDBRANCH  19  20
ENDBRANCH  10  12
ENDBRANCH   9  10
ENDBRANCH   8   9
BRANCH   8  22
ATOM     22  C   UNL A   1      31.796  21.330  25.096  1.00  0.00     0.018 C 
BRANCH  22  23
ATOM     23  C   UNL A   1      32.886  20.701  24.229  1.00  0.00    -0.017 C 
ATOM     24  C   UNL A   1      32.530  19.326  23.678  1.00  0.00     0.007 C 
ATOM     25  C   UNL A   1      33.267  21.619  23.060  1.00  0.00     0.007 C 
ENDBRANCH  22  23
ENDBRANCH   8  22
ENDBRANCH   5   8
ENDBRANCH   3   4
ENDBRANCH   2   3
ENDBRANCH   1   2
BRANCH   1  26
ATOM     26  C   UNL A   1      36.680  20.541  24.761  1.00  0.00     0.002 C 
BRANCH  26  27
ATOM     27  C   UNL A   1      37.930  19.666  24.903  1.00  0.00     0.021 C 
BRANCH  27  28
ATOM     28  C   UNL A   1      38.952  20.171  25.918  1.00  0.00     0.116 C 
BRANCH  28  29
ATOM     29  N   UNL A   1      40.066  19.246  26.064  1.00  0.00    -0.352 N 
ATOM     30  C   UNL A   1      41.412  19.492  26.126  1.00  0.00     0.251 C 
ATOM     31  H   UNL A   1      39.813  18.296  26.127  1.00  0.00     0.163 HD
ATOM     32  O   UNL A   1      42.207  18.572  25.952  1.00  0.00    -0.269 OA
BRANCH  30  33
ATOM     33  C   UNL A   1      41.904  20.855  26.407  1.00  0.00     0.039 A 
ATOM     34  C   UNL A   1      42.121  21.729  25.340  1.00  0.00     0.014 A 
ATOM     35  C   UNL A   1      42.184  21.258  27.716  1.00  0.00     0.014 A 
ATOM     36  C   UNL A   1      42.583  23.021  25.592  1.00  0.00     0.010 A 
ATOM     37  C   UNL A   1      42.557  22.573  27.971  1.00  0.00     0.010 A 
ATOM     38  C   UNL A   1      42.776  23.463  26.912  1.00  0.00    -0.014 A 
BRANCH  38  39
ATOM     39  C   UNL A   1      43.196  24.859  27.190  1.00  0.00     0.031 A 
ATOM     40  C   UNL A   1      42.256  25.827  27.852  1.00  0.00     0.074 A 
ATOM     41  C   UNL A   1      44.416  25.268  26.790  1.00  0.00     0.049 A 
ATOM     42  N   UNL A   1      42.464  27.071  28.196  1.00  0.00    -0.248 NA
ATOM     43  C   UNL A   1      40.897  25.343  28.145  1.00  0.00     0.031 C 
ATOM     44  C   UNL A   1      45.392  24.442  26.076  1.00  0.00     0.029 A 
ATOM     45  N   UNL A   1      45.040  26.482  26.921  1.00  0.00    -0.354 N 
ATOM     46  C   UNL A   1      41.257  27.530  28.712  1.00  0.00     0.074 A 
ATOM     47  C   UNL A   1      40.311  26.442  28.597  1.00  0.00     0.031 C 
ATOM     48  C   UNL A   1      46.505  25.160  25.868  1.00  0.00     0.029 A 
ATOM     49  C   UNL A   1      46.308  26.507  26.392  1.00  0.00     0.049 A 
ATOM     50  H   UNL A   1      44.622  27.260  27.354  1.00  0.00     0.167 HD
ATOM     51  C   UNL A   1      40.968  28.739  29.251  1.00  0.00     0.034 A 
ATOM     52  C   UNL A   1      47.213  27.502  26.336  1.00  0.00     0.034 A 
ATOM     53  C   UNL A   1      41.917  29.814  29.367  1.00  0.00     0.049 A 
ATOM     54  C   UNL A   1      46.869  28.833  26.943  1.00  0.00     0.074 A 
ATOM     55  C   UNL A   1      41.753  31.047  29.972  1.00  0.00     0.029 A 
ATOM     56  N   UNL A   1      43.201  29.797  28.840  1.00  0.00    -0.354 N 
ATOM     57  N   UNL A   1      45.777  29.200  27.568  1.00  0.00    -0.248 NA
ATOM     58  C   UNL A   1      47.900  29.878  26.866  1.00  0.00     0.031 C 
ATOM     59  C   UNL A   1      42.914  31.798  29.757  1.00  0.00     0.029 A 
ATOM     60  C   UNL A   1      43.828  31.010  29.076  1.00  0.00     0.049 A 
ATOM     61  H   UNL A   1      43.606  29.034  28.367  1.00  0.00     0.167 HD
ATOM     62  C   UNL A   1      46.002  30.505  27.995  1.00  0.00     0.074 A 
ATOM     63  C   UNL A   1      47.344  30.853  27.572  1.00  0.00     0.031 C 
ATOM     64  C   UNL A   1      45.172  31.339  28.671  1.00  0.00     0.034 A 
BRANCH  51  65
ATOM     65  C   UNL A   1      39.561  28.955  29.755  1.00  0.00     0.023 A 
ATOM     66  C   UNL A   1      39.216  28.595  31.076  1.00  0.00     0.012 A 
ATOM     67  C   UNL A   1      38.579  29.527  28.923  1.00  0.00     0.148 A 
ATOM     68  C   UNL A   1      37.908  28.739  31.537  1.00  0.00     0.002 A 
ATOM     69  C   UNL A   1      37.291  29.721  29.407  1.00  0.00     0.091 A 
ATOM     70  F   UNL A   1      38.913  29.849  27.665  1.00  0.00    -0.205 F 
ATOM     71  C   UNL A   1      36.949  29.309  30.706  1.00  0.00     0.022 A 
BRANCH  69  72
ATOM     72  S   UNL A   1      36.007  30.525  28.444  1.00  0.00     0.127 S 
ATOM     73  O   UNL A   1      35.566  29.437  27.572  1.00  0.00    -0.237 OA
ATOM     74  O   UNL A   1      35.043  30.907  29.476  1.00  0.00    -0.237 OA
ATOM     75  O   UNL A   1      36.651  31.645  27.772  1.00  0.00    -0.744 OA
ENDBRANCH  69  72
ENDBRANCH  51  65
BRANCH  52  76
ATOM     76  C   UNL A   1      48.559  27.250  25.748  1.00  0.00     0.023 A 
ATOM     77  C   UNL A   1      49.582  26.736  26.568  1.00  0.00     0.012 A 
ATOM     78  C   UNL A   1      48.818  27.478  24.383  1.00  0.00     0.148 A 
ATOM     79  C   UNL A   1      50.851  26.482  26.046  1.00  0.00     0.002 A 
ATOM     80  C   UNL A   1      50.067  27.171  23.858  1.00  0.00     0.091 A 
ATOM     81  F   UNL A   1      47.828  27.966  23.623  1.00  0.00    -0.205 F 
ATOM     82  C   UNL A   1      51.090  26.690  24.691  1.00  0.00     0.022 A 
BRANCH  80  83
ATOM     83  S   UNL A   1      50.434  27.288  22.104  1.00  0.00     0.127 S 
ATOM     84  O   UNL A   1      50.290  28.722  21.862  1.00  0.00    -0.237 OA
ATOM     85  O   UNL A   1      51.808  26.789  22.052  1.00  0.00    -0.237 OA
ATOM     86  O   UNL A   1      49.457  26.440  21.434  1.00  0.00    -0.744 OA
ENDBRANCH  80  83
ENDBRANCH  52  76
BRANCH  64  87
ATOM     87  C   UNL A   1      45.706  32.703  29.032  1.00  0.00     0.023 A 
ATOM     88  C   UNL A   1      46.411  32.898  30.237  1.00  0.00     0.012 A 
ATOM     89  C   UNL A   1      45.539  33.790  28.149  1.00  0.00     0.148 A 
ATOM     90  C   UNL A   1      46.893  34.161  30.581  1.00  0.00     0.002 A 
ATOM     91  C   UNL A   1      46.075  35.030  28.471  1.00  0.00     0.091 A 
ATOM     92  F   UNL A   1      44.852  33.593  27.014  1.00  0.00    -0.205 F 
ATOM     93  C   UNL A   1      46.735  35.222  29.695  1.00  0.00     0.022 A 
BRANCH  91  94
ATOM     94  S   UNL A   1      46.009  36.430  27.347  1.00  0.00     0.127 S 
ATOM     95  O   UNL A   1      46.742  37.449  28.098  1.00  0.00    -0.237 OA
ATOM     96  O   UNL A   1      46.713  35.914  26.172  1.00  0.00    -0.237 OA
ATOM     97  O   UNL A   1      44.597  36.710  27.133  1.00  0.00    -0.744 OA
ENDBRANCH  91  94
ENDBRANCH  64  87
ENDBRANCH  38  39
ENDBRANCH  30  33
ENDBRANCH  28  29
ENDBRANCH  27  28
ENDBRANCH  26  27
ENDBRANCH   1  26
TORSDOF 22
ENDMDL
