MODEL 1
REMARK VINA RESULT:     -10.7      0.000      0.000
REMARK SMILES CSCC[C@@H](NS(=O)(=O)c1ccc(F)c(C)c1)C(=O)NCCCCCCNC(=O)c1ccc(-c2c3nc(c(-c4cccc(S(=O)(=O)[O-])c4F)c4ccc([nH]4)c(-c4cccc(S(=O)(=O)[O-])c4F)c4nc(c(-c5cccc(S(=O)(=O)[O-])c5F)c5ccc2[nH]5)C=C4)C=C3)cc1
REMARK SMILES IDX 23 1 22 2 21 3 20 4 18 5 19 6 5 8 4 9 3 10 2 11 1 12 6 13
REMARK SMILES IDX 7 15 8 16 9 17 10 18 11 19 17 20 12 21 15 22 13 23 16 24
REMARK SMILES IDX 14 25 24 26 25 27 26 28 27 29 28 30 29 32 30 33 31 34 92 35
REMARK SMILES IDX 32 36 91 37 33 38 34 39 35 40 85 41 36 42 90 43 84 44 86 45
REMARK SMILES IDX 37 46 89 47 83 48 82 49 38 51 70 52 50 53 69 54 51 55 54 56
REMARK SMILES IDX 68 57 87 58 52 59 53 60 67 62 88 63 55 64 39 65 40 66 48 67
REMARK SMILES IDX 41 68 43 69 49 70 42 71 44 72 45 73 46 74 47 75 71 76 72 77
REMARK SMILES IDX 80 78 73 79 75 80 81 81 74 82 76 83 77 84 78 85 79 86 56 87
REMARK SMILES IDX 57 88 65 89 58 90 60 91 66 92 59 93 61 94 62 95 63 96 64 97
REMARK H PARENT 20 7 6 14 27 31 86 50 54 61
REMARK Flexibility Score: inf
ROOT
ATOM      1  C   UNL A   1      34.969  23.840  22.829  1.00  0.00     0.002 C 
ENDROOT
BRANCH   1   2
ATOM      2  C   UNL A   1      33.592  23.187  22.695  1.00  0.00     0.021 C 
BRANCH   2   3
ATOM      3  C   UNL A   1      32.478  24.200  22.481  1.00  0.00     0.116 C 
BRANCH   3   4
ATOM      4  N   UNL A   1      33.008  25.459  21.967  1.00  0.00    -0.355 N 
ATOM      5  C   UNL A   1      33.333  26.620  22.606  1.00  0.00     0.238 C 
ATOM      6  O   UNL A   1      33.905  27.503  21.964  1.00  0.00    -0.273 OA
ATOM      7  H   UNL A   1      33.156  25.472  20.994  1.00  0.00     0.163 HD
BRANCH   5   8
ATOM      8  C   UNL A   1      33.011  26.806  24.088  1.00  0.00     0.159 C 
BRANCH   8   9
ATOM      9  C   UNL A   1      33.687  28.097  24.586  1.00  0.00     0.041 C 
BRANCH   9  10
ATOM     10  C   UNL A   1      32.857  29.373  24.625  1.00  0.00     0.071 C 
BRANCH  10  11
ATOM     11  S   UNL A   1      32.581  30.039  26.293  1.00  0.00    -0.165 SA
ATOM     12  C   UNL A   1      34.012  29.348  27.151  1.00  0.00     0.085 C 
ENDBRANCH  10  11
ENDBRANCH   9  10
ENDBRANCH   8   9
BRANCH   8  13
ATOM     13  N   UNL A   1      31.537  26.750  24.244  1.00  0.00    -0.199 NA
ATOM     14  H   UNL A   1      31.173  26.254  23.430  1.00  0.00     0.142 HD
BRANCH  13  15
ATOM     15  S   UNL A   1      30.859  26.013  25.608  1.00  0.00     0.241 S 
ATOM     16  O   UNL A   1      31.259  26.811  26.759  1.00  0.00    -0.207 OA
ATOM     17  O   UNL A   1      29.471  25.825  25.289  1.00  0.00    -0.207 OA
BRANCH  15  18
ATOM     18  C   UNL A   1      31.559  24.385  25.812  1.00  0.00     0.082 A 
ATOM     19  C   UNL A   1      30.885  23.292  25.254  1.00  0.00     0.025 A 
ATOM     20  C   UNL A   1      32.733  24.171  26.536  1.00  0.00     0.028 A 
ATOM     21  C   UNL A   1      31.376  21.997  25.443  1.00  0.00     0.041 A 
ATOM     22  C   UNL A   1      33.165  22.866  26.826  1.00  0.00    -0.014 A 
ATOM     23  C   UNL A   1      32.498  21.794  26.237  1.00  0.00     0.126 A 
ATOM     24  C   UNL A   1      34.303  22.608  27.766  1.00  0.00     0.047 C 
ATOM     25  F   UNL A   1      32.928  20.541  26.447  1.00  0.00    -0.207 F 
ENDBRANCH  15  18
ENDBRANCH  13  15
ENDBRANCH   8  13
ENDBRANCH   5   8
ENDBRANCH   3   4
ENDBRANCH   2   3
ENDBRANCH   1   2
BRANCH   1  26
ATOM     26  C   UNL A   1      35.455  24.005  24.276  1.00  0.00     0.002 C 
BRANCH  26  27
ATOM     27  C   UNL A   1      36.440  22.950  24.776  1.00  0.00     0.021 C 
BRANCH  27  28
ATOM     28  C   UNL A   1      37.425  23.527  25.764  1.00  0.00     0.116 C 
BRANCH  28  29
ATOM     29  N   UNL A   1      38.419  22.530  26.148  1.00  0.00    -0.352 N 
ATOM     30  C   UNL A   1      39.713  22.764  26.549  1.00  0.00     0.251 C 
ATOM     31  H   UNL A   1      38.132  21.588  26.117  1.00  0.00     0.163 HD
ATOM     32  O   UNL A   1      40.583  21.914  26.422  1.00  0.00    -0.269 OA
BRANCH  30  33
ATOM     33  C   UNL A   1      39.999  24.084  27.114  1.00  0.00     0.039 A 
ATOM     34  C   UNL A   1      40.722  25.045  26.397  1.00  0.00     0.014 A 
ATOM     35  C   UNL A   1      39.479  24.344  28.379  1.00  0.00     0.014 A 
ATOM     36  C   UNL A   1      40.886  26.308  26.952  1.00  0.00     0.010 A 
ATOM     37  C   UNL A   1      39.496  25.618  28.847  1.00  0.00     0.010 A 
ATOM     38  C   UNL A   1      40.262  26.570  28.170  1.00  0.00    -0.014 A 
BRANCH  38  39
ATOM     39  C   UNL A   1      40.389  27.792  28.931  1.00  0.00     0.031 A 
ATOM     40  C   UNL A   1      39.406  28.861  28.758  1.00  0.00     0.074 A 
ATOM     41  C   UNL A   1      41.265  27.690  29.954  1.00  0.00     0.049 A 
ATOM     42  N   UNL A   1      39.591  30.074  29.132  1.00  0.00    -0.248 NA
ATOM     43  C   UNL A   1      38.112  28.662  28.103  1.00  0.00     0.031 C 
ATOM     44  C   UNL A   1      41.374  28.446  31.187  1.00  0.00     0.029 A 
ATOM     45  N   UNL A   1      42.358  26.828  30.000  1.00  0.00    -0.354 N 
ATOM     46  C   UNL A   1      38.352  30.677  29.157  1.00  0.00     0.074 A 
ATOM     47  C   UNL A   1      37.506  29.832  28.348  1.00  0.00     0.031 C 
ATOM     48  C   UNL A   1      42.590  28.221  31.725  1.00  0.00     0.029 A 
ATOM     49  C   UNL A   1      43.353  27.425  30.770  1.00  0.00     0.049 A 
ATOM     50  H   UNL A   1      42.416  25.948  29.564  1.00  0.00     0.167 HD
ATOM     51  C   UNL A   1      38.152  31.701  30.037  1.00  0.00     0.034 A 
ATOM     52  C   UNL A   1      44.485  27.843  30.124  1.00  0.00     0.034 A 
ATOM     53  C   UNL A   1      39.382  31.947  30.787  1.00  0.00     0.049 A 
ATOM     54  C   UNL A   1      44.530  29.350  30.097  1.00  0.00     0.074 A 
ATOM     55  C   UNL A   1      39.786  31.553  32.052  1.00  0.00     0.029 A 
ATOM     56  N   UNL A   1      40.528  32.339  30.108  1.00  0.00    -0.354 N 
ATOM     57  N   UNL A   1      43.477  30.119  30.000  1.00  0.00    -0.248 NA
ATOM     58  C   UNL A   1      45.766  30.092  30.306  1.00  0.00     0.031 C 
ATOM     59  C   UNL A   1      41.202  31.643  32.101  1.00  0.00     0.029 A 
ATOM     60  C   UNL A   1      41.650  32.093  30.869  1.00  0.00     0.049 A 
ATOM     61  H   UNL A   1      40.537  32.736  29.207  1.00  0.00     0.167 HD
ATOM     62  C   UNL A   1      43.858  31.416  30.243  1.00  0.00     0.074 A 
ATOM     63  C   UNL A   1      45.300  31.348  30.396  1.00  0.00     0.031 C 
ATOM     64  C   UNL A   1      42.973  32.449  30.377  1.00  0.00     0.034 A 
BRANCH  51  65
ATOM     65  C   UNL A   1      36.805  32.265  30.448  1.00  0.00     0.023 A 
ATOM     66  C   UNL A   1      36.304  32.192  31.764  1.00  0.00     0.012 A 
ATOM     67  C   UNL A   1      35.970  32.917  29.507  1.00  0.00     0.148 A 
ATOM     68  C   UNL A   1      35.097  32.800  32.146  1.00  0.00     0.002 A 
ATOM     69  C   UNL A   1      34.765  33.511  29.885  1.00  0.00     0.091 A 
ATOM     70  F   UNL A   1      36.322  32.977  28.216  1.00  0.00    -0.205 F 
ATOM     71  C   UNL A   1      34.327  33.468  31.207  1.00  0.00     0.022 A 
BRANCH  69  72
ATOM     72  S   UNL A   1      33.778  34.344  28.636  1.00  0.00     0.127 S 
ATOM     73  O   UNL A   1      33.471  33.269  27.698  1.00  0.00    -0.237 OA
ATOM     74  O   UNL A   1      32.665  34.889  29.403  1.00  0.00    -0.237 OA
ATOM     75  O   UNL A   1      34.695  35.357  28.108  1.00  0.00    -0.744 OA
ENDBRANCH  69  72
ENDBRANCH  51  65
BRANCH  52  76
ATOM     76  C   UNL A   1      44.859  26.919  28.996  1.00  0.00     0.023 A 
ATOM     77  C   UNL A   1      45.805  25.894  29.187  1.00  0.00     0.012 A 
ATOM     78  C   UNL A   1      44.660  27.412  27.684  1.00  0.00     0.148 A 
ATOM     79  C   UNL A   1      46.625  25.480  28.123  1.00  0.00     0.002 A 
ATOM     80  C   UNL A   1      45.518  27.039  26.650  1.00  0.00     0.091 A 
ATOM     81  F   UNL A   1      43.724  28.356  27.490  1.00  0.00    -0.205 F 
ATOM     82  C   UNL A   1      46.518  26.087  26.869  1.00  0.00     0.022 A 
BRANCH  80  83
ATOM     83  S   UNL A   1      45.482  27.980  25.117  1.00  0.00     0.127 S 
ATOM     84  O   UNL A   1      44.085  27.879  24.706  1.00  0.00    -0.237 OA
ATOM     85  O   UNL A   1      45.947  29.303  25.531  1.00  0.00    -0.237 OA
ATOM     86  O   UNL A   1      46.421  27.269  24.249  1.00  0.00    -0.744 OA
ENDBRANCH  80  83
ENDBRANCH  52  76
BRANCH  64  87
ATOM     87  C   UNL A   1      43.288  33.920  30.217  1.00  0.00     0.023 A 
ATOM     88  C   UNL A   1      43.350  34.734  31.381  1.00  0.00     0.012 A 
ATOM     89  C   UNL A   1      43.410  34.586  28.993  1.00  0.00     0.148 A 
ATOM     90  C   UNL A   1      43.506  36.120  31.328  1.00  0.00     0.002 A 
ATOM     91  C   UNL A   1      43.709  35.945  28.948  1.00  0.00     0.091 A 
ATOM     92  F   UNL A   1      43.179  33.947  27.840  1.00  0.00    -0.205 F 
ATOM     93  C   UNL A   1      43.719  36.728  30.105  1.00  0.00     0.022 A 
BRANCH  91  94
ATOM     94  S   UNL A   1      44.239  36.634  27.383  1.00  0.00     0.127 S 
ATOM     95  O   UNL A   1      43.002  36.629  26.607  1.00  0.00    -0.237 OA
ATOM     96  O   UNL A   1      44.768  37.944  27.748  1.00  0.00    -0.237 OA
ATOM     97  O   UNL A   1      45.248  35.683  26.917  1.00  0.00    -0.744 OA
ENDBRANCH  91  94
ENDBRANCH  64  87
ENDBRANCH  38  39
ENDBRANCH  30  33
ENDBRANCH  28  29
ENDBRANCH  27  28
ENDBRANCH  26  27
ENDBRANCH   1  26
TORSDOF 22
ENDMDL
MODEL 2
REMARK VINA RESULT:     -10.4      1.347      2.055
REMARK SMILES CSCC[C@@H](NS(=O)(=O)c1ccc(F)c(C)c1)C(=O)NCCCCCCNC(=O)c1ccc(-c2c3nc(c(-c4cccc(S(=O)(=O)[O-])c4F)c4ccc([nH]4)c(-c4cccc(S(=O)(=O)[O-])c4F)c4nc(c(-c5cccc(S(=O)(=O)[O-])c5F)c5ccc2[nH]5)C=C4)C=C3)cc1
REMARK SMILES IDX 23 1 22 2 21 3 20 4 18 5 19 6 5 8 4 9 3 10 2 11 1 12 6 13
REMARK SMILES IDX 7 15 8 16 9 17 10 18 11 19 17 20 12 21 15 22 13 23 16 24
REMARK SMILES IDX 14 25 24 26 25 27 26 28 27 29 28 30 29 32 30 33 31 34 92 35
REMARK SMILES IDX 32 36 91 37 33 38 34 39 35 40 85 41 36 42 90 43 84 44 86 45
REMARK SMILES IDX 37 46 89 47 83 48 82 49 38 51 70 52 50 53 69 54 51 55 54 56
REMARK SMILES IDX 68 57 87 58 52 59 53 60 67 62 88 63 55 64 39 65 40 66 48 67
REMARK SMILES IDX 41 68 43 69 49 70 42 71 44 72 45 73 46 74 47 75 71 76 72 77
REMARK SMILES IDX 80 78 73 79 75 80 81 81 74 82 76 83 77 84 78 85 79 86 56 87
REMARK SMILES IDX 57 88 65 89 58 90 60 91 66 92 59 93 61 94 62 95 63 96 64 97
REMARK H PARENT 20 7 6 14 27 31 86 50 54 61
REMARK Flexibility Score: inf
ROOT
ATOM      1  C   UNL A   1      34.530  25.371  24.982  1.00  0.00     0.002 C 
ENDROOT
BRANCH   1   2
ATOM      2  C   UNL A   1      33.916  26.646  25.566  1.00  0.00     0.021 C 
BRANCH   2   3
ATOM      3  C   UNL A   1      33.624  27.697  24.507  1.00  0.00     0.116 C 
BRANCH   3   4
ATOM      4  N   UNL A   1      33.119  28.925  25.114  1.00  0.00    -0.355 N 
ATOM      5  C   UNL A   1      31.856  29.439  25.174  1.00  0.00     0.238 C 
ATOM      6  O   UNL A   1      31.660  30.433  25.876  1.00  0.00    -0.273 OA
ATOM      7  H   UNL A   1      33.806  29.476  25.553  1.00  0.00     0.163 HD
BRANCH   5   8
ATOM      8  C   UNL A   1      30.713  28.780  24.403  1.00  0.00     0.159 C 
BRANCH   8   9
ATOM      9  C   UNL A   1      30.298  29.703  23.242  1.00  0.00     0.041 C 
BRANCH   9  10
ATOM     10  C   UNL A   1      29.237  30.762  23.510  1.00  0.00     0.071 C 
BRANCH  10  11
ATOM     11  S   UNL A   1      27.712  30.559  22.543  1.00  0.00    -0.165 SA
ATOM     12  C   UNL A   1      27.238  28.891  23.045  1.00  0.00     0.085 C 
ENDBRANCH  10  11
ENDBRANCH   9  10
ENDBRANCH   8   9
BRANCH   8  13
ATOM     13  N   UNL A   1      31.153  27.418  24.016  1.00  0.00    -0.199 NA
ATOM     14  H   UNL A   1      32.105  27.305  24.364  1.00  0.00     0.142 HD
BRANCH  13  15
ATOM     15  S   UNL A   1      30.278  26.066  24.540  1.00  0.00     0.241 S 
ATOM     16  O   UNL A   1      30.177  26.170  25.989  1.00  0.00    -0.207 OA
ATOM     17  O   UNL A   1      29.100  26.034  23.720  1.00  0.00    -0.207 OA
BRANCH  15  18
ATOM     18  C   UNL A   1      31.198  24.584  24.168  1.00  0.00     0.082 A 
ATOM     19  C   UNL A   1      31.739  24.437  22.885  1.00  0.00     0.025 A 
ATOM     20  C   UNL A   1      31.361  23.562  25.104  1.00  0.00     0.028 A 
ATOM     21  C   UNL A   1      32.417  23.263  22.543  1.00  0.00     0.041 A 
ATOM     22  C   UNL A   1      31.938  22.336  24.729  1.00  0.00    -0.014 A 
ATOM     23  C   UNL A   1      32.497  22.220  23.458  1.00  0.00     0.126 A 
ATOM     24  C   UNL A   1      31.943  21.158  25.653  1.00  0.00     0.047 C 
ATOM     25  F   UNL A   1      33.109  21.084  23.097  1.00  0.00    -0.207 F 
ENDBRANCH  15  18
ENDBRANCH  13  15
ENDBRANCH   8  13
ENDBRANCH   5   8
ENDBRANCH   3   4
ENDBRANCH   2   3
ENDBRANCH   1   2
BRANCH   1  26
ATOM     26  C   UNL A   1      34.859  24.292  26.023  1.00  0.00     0.002 C 
BRANCH  26  27
ATOM     27  C   UNL A   1      35.909  23.261  25.609  1.00  0.00     0.021 C 
BRANCH  27  28
ATOM     28  C   UNL A   1      37.310  23.810  25.729  1.00  0.00     0.116 C 
BRANCH  28  29
ATOM     29  N   UNL A   1      38.234  22.777  26.188  1.00  0.00    -0.352 N 
ATOM     30  C   UNL A   1      39.512  22.961  26.657  1.00  0.00     0.251 C 
ATOM     31  H   UNL A   1      37.906  21.849  26.157  1.00  0.00     0.163 HD
ATOM     32  O   UNL A   1      40.348  22.071  26.595  1.00  0.00    -0.269 OA
BRANCH  30  33
ATOM     33  C   UNL A   1      39.827  24.279  27.213  1.00  0.00     0.039 A 
ATOM     34  C   UNL A   1      40.531  25.236  26.473  1.00  0.00     0.014 A 
ATOM     35  C   UNL A   1      39.353  24.541  28.495  1.00  0.00     0.014 A 
ATOM     36  C   UNL A   1      40.723  26.497  27.023  1.00  0.00     0.010 A 
ATOM     37  C   UNL A   1      39.394  25.814  28.963  1.00  0.00     0.010 A 
ATOM     38  C   UNL A   1      40.143  26.762  28.261  1.00  0.00    -0.014 A 
BRANCH  38  39
ATOM     39  C   UNL A   1      40.305  27.982  29.018  1.00  0.00     0.031 A 
ATOM     40  C   UNL A   1      39.352  29.078  28.842  1.00  0.00     0.074 A 
ATOM     41  C   UNL A   1      41.177  27.858  30.043  1.00  0.00     0.049 A 
ATOM     42  N   UNL A   1      39.572  30.286  29.212  1.00  0.00    -0.248 NA
ATOM     43  C   UNL A   1      38.054  28.915  28.187  1.00  0.00     0.031 C 
ATOM     44  C   UNL A   1      41.306  28.614  31.273  1.00  0.00     0.029 A 
ATOM     45  N   UNL A   1      42.244  26.966  30.093  1.00  0.00    -0.354 N 
ATOM     46  C   UNL A   1      38.351  30.925  29.235  1.00  0.00     0.074 A 
ATOM     47  C   UNL A   1      37.482  30.102  28.428  1.00  0.00     0.031 C 
ATOM     48  C   UNL A   1      42.515  28.357  31.813  1.00  0.00     0.029 A 
ATOM     49  C   UNL A   1      43.256  27.536  30.861  1.00  0.00     0.049 A 
ATOM     50  H   UNL A   1      42.278  26.083  29.659  1.00  0.00     0.167 HD
ATOM     51  C   UNL A   1      38.180  31.957  30.112  1.00  0.00     0.034 A 
ATOM     52  C   UNL A   1      44.400  27.920  30.214  1.00  0.00     0.034 A 
ATOM     53  C   UNL A   1      39.415  32.170  30.861  1.00  0.00     0.049 A 
ATOM     54  C   UNL A   1      44.488  29.425  30.182  1.00  0.00     0.074 A 
ATOM     55  C   UNL A   1      39.807  31.769  32.127  1.00  0.00     0.029 A 
ATOM     56  N   UNL A   1      40.572  32.527  30.182  1.00  0.00    -0.354 N 
ATOM     57  N   UNL A   1      43.457  30.223  30.082  1.00  0.00    -0.248 NA
ATOM     58  C   UNL A   1      45.744  30.132  30.390  1.00  0.00     0.031 C 
ATOM     59  C   UNL A   1      41.225  31.818  32.177  1.00  0.00     0.029 A 
ATOM     60  C   UNL A   1      41.687  32.251  30.945  1.00  0.00     0.049 A 
ATOM     61  H   UNL A   1      40.594  32.921  29.280  1.00  0.00     0.167 HD
ATOM     62  C   UNL A   1      43.875  31.510  30.322  1.00  0.00     0.074 A 
ATOM     63  C   UNL A   1      45.315  31.400  30.476  1.00  0.00     0.031 C 
ATOM     64  C   UNL A   1      43.020  32.568  30.452  1.00  0.00     0.034 A 
BRANCH  51  65
ATOM     65  C   UNL A   1      36.849  32.560  30.519  1.00  0.00     0.023 A 
ATOM     66  C   UNL A   1      36.382  32.575  31.849  1.00  0.00     0.012 A 
ATOM     67  C   UNL A   1      35.996  33.161  29.560  1.00  0.00     0.148 A 
ATOM     68  C   UNL A   1      35.191  33.220  32.223  1.00  0.00     0.002 A 
ATOM     69  C   UNL A   1      34.807  33.791  29.930  1.00  0.00     0.091 A 
ATOM     70  F   UNL A   1      36.316  33.136  28.261  1.00  0.00    -0.205 F 
ATOM     71  C   UNL A   1      34.403  33.836  31.263  1.00  0.00     0.022 A 
BRANCH  69  72
ATOM     72  S   UNL A   1      33.797  34.555  28.657  1.00  0.00     0.127 S 
ATOM     73  O   UNL A   1      32.593  34.940  29.389  1.00  0.00    -0.237 OA
ATOM     74  O   UNL A   1      34.644  35.636  28.166  1.00  0.00    -0.237 OA
ATOM     75  O   UNL A   1      33.593  33.470  27.696  1.00  0.00    -0.744 OA
ENDBRANCH  69  72
ENDBRANCH  51  65
BRANCH  52  76
ATOM     76  C   UNL A   1      44.748  26.982  29.089  1.00  0.00     0.023 A 
ATOM     77  C   UNL A   1      45.691  25.952  29.274  1.00  0.00     0.012 A 
ATOM     78  C   UNL A   1      44.529  27.463  27.776  1.00  0.00     0.148 A 
ATOM     79  C   UNL A   1      46.489  25.523  28.200  1.00  0.00     0.002 A 
ATOM     80  C   UNL A   1      45.366  27.074  26.731  1.00  0.00     0.091 A 
ATOM     81  F   UNL A   1      43.595  28.411  27.589  1.00  0.00    -0.205 F 
ATOM     82  C   UNL A   1      46.364  26.118  26.942  1.00  0.00     0.022 A 
BRANCH  80  83
ATOM     83  S   UNL A   1      45.308  27.999  25.190  1.00  0.00     0.127 S 
ATOM     84  O   UNL A   1      45.722  29.338  25.598  1.00  0.00    -0.237 OA
ATOM     85  O   UNL A   1      46.234  27.264  24.329  1.00  0.00    -0.237 OA
ATOM     86  O   UNL A   1      43.909  27.898  24.774  1.00  0.00    -0.744 OA
ENDBRANCH  80  83
ENDBRANCH  52  76
BRANCH  64  87
ATOM     87  C   UNL A   1      43.377  34.028  30.288  1.00  0.00     0.023 A 
ATOM     88  C   UNL A   1      43.549  34.824  31.454  1.00  0.00     0.012 A 
ATOM     89  C   UNL A   1      43.438  34.707  29.066  1.00  0.00     0.148 A 
ATOM     90  C   UNL A   1      43.753  36.203  31.407  1.00  0.00     0.002 A 
ATOM     91  C   UNL A   1      43.783  36.056  29.016  1.00  0.00     0.091 A 
ATOM     92  F   UNL A   1      43.104  34.093  27.925  1.00  0.00    -0.205 F 
ATOM     93  C   UNL A   1      43.902  36.821  30.179  1.00  0.00     0.022 A 
BRANCH  91  94
ATOM     94  S   UNL A   1      44.227  36.748  27.427  1.00  0.00     0.127 S 
ATOM     95  O   UNL A   1      45.349  35.903  27.023  1.00  0.00    -0.237 OA
ATOM     96  O   UNL A   1      43.004  36.617  26.642  1.00  0.00    -0.237 OA
ATOM     97  O   UNL A   1      44.595  38.127  27.747  1.00  0.00    -0.744 OA
ENDBRANCH  91  94
ENDBRANCH  64  87
ENDBRANCH  38  39
ENDBRANCH  30  33
ENDBRANCH  28  29
ENDBRANCH  27  28
ENDBRANCH  26  27
ENDBRANCH   1  26
TORSDOF 22
ENDMDL
MODEL 3
REMARK VINA RESULT:      -9.9      2.366      3.337
REMARK SMILES CSCC[C@@H](NS(=O)(=O)c1ccc(F)c(C)c1)C(=O)NCCCCCCNC(=O)c1ccc(-c2c3nc(c(-c4cccc(S(=O)(=O)[O-])c4F)c4ccc([nH]4)c(-c4cccc(S(=O)(=O)[O-])c4F)c4nc(c(-c5cccc(S(=O)(=O)[O-])c5F)c5ccc2[nH]5)C=C4)C=C3)cc1
REMARK SMILES IDX 23 1 22 2 21 3 20 4 18 5 19 6 5 8 4 9 3 10 2 11 1 12 6 13
REMARK SMILES IDX 7 15 8 16 9 17 10 18 11 19 17 20 12 21 15 22 13 23 16 24
REMARK SMILES IDX 14 25 24 26 25 27 26 28 27 29 28 30 29 32 30 33 31 34 92 35
REMARK SMILES IDX 32 36 91 37 33 38 34 39 35 40 85 41 36 42 90 43 84 44 86 45
REMARK SMILES IDX 37 46 89 47 83 48 82 49 38 51 70 52 50 53 69 54 51 55 54 56
REMARK SMILES IDX 68 57 87 58 52 59 53 60 67 62 88 63 55 64 39 65 40 66 48 67
REMARK SMILES IDX 41 68 43 69 49 70 42 71 44 72 45 73 46 74 47 75 71 76 72 77
REMARK SMILES IDX 80 78 73 79 75 80 81 81 74 82 76 83 77 84 78 85 79 86 56 87
REMARK SMILES IDX 57 88 65 89 58 90 60 91 66 92 59 93 61 94 62 95 63 96 64 97
REMARK H PARENT 20 7 6 14 27 31 86 50 54 61
REMARK Flexibility Score: inf
ROOT
ATOM      1  C   UNL A   1      37.133  21.024  25.359  1.00  0.00     0.002 C 
ENDROOT
BRANCH   1   2
ATOM      2  C   UNL A   1      36.801  22.230  24.478  1.00  0.00     0.021 C 
BRANCH   2   3
ATOM      3  C   UNL A   1      36.463  23.473  25.286  1.00  0.00     0.116 C 
BRANCH   3   4
ATOM      4  N   UNL A   1      35.762  23.122  26.518  1.00  0.00    -0.355 N 
ATOM      5  C   UNL A   1      34.452  23.266  26.873  1.00  0.00     0.238 C 
ATOM      6  O   UNL A   1      34.070  22.753  27.927  1.00  0.00    -0.273 OA
ATOM      7  H   UNL A   1      36.330  22.712  27.209  1.00  0.00     0.163 HD
BRANCH   5   8
ATOM      8  C   UNL A   1      33.482  24.027  25.970  1.00  0.00     0.159 C 
BRANCH   8   9
ATOM      9  C   UNL A   1      33.961  25.486  25.842  1.00  0.00     0.041 C 
BRANCH   9  10
ATOM     10  C   UNL A   1      32.910  26.586  25.812  1.00  0.00     0.071 C 
BRANCH  10  11
ATOM     11  S   UNL A   1      33.008  27.678  24.363  1.00  0.00    -0.165 SA
ATOM     12  C   UNL A   1      33.543  26.495  23.109  1.00  0.00     0.085 C 
ENDBRANCH  10  11
ENDBRANCH   9  10
ENDBRANCH   8   9
BRANCH   8  13
ATOM     13  N   UNL A   1      33.363  23.276  24.697  1.00  0.00    -0.199 NA
ATOM     14  H   UNL A   1      34.097  22.567  24.702  1.00  0.00     0.142 HD
BRANCH  13  15
ATOM     15  S   UNL A   1      31.919  22.479  24.318  1.00  0.00     0.241 S 
ATOM     16  O   UNL A   1      31.090  22.522  25.515  1.00  0.00    -0.207 OA
ATOM     17  O   UNL A   1      31.468  23.070  23.089  1.00  0.00    -0.207 OA
BRANCH  15  18
ATOM     18  C   UNL A   1      32.262  20.766  23.962  1.00  0.00     0.082 A 
ATOM     19  C   UNL A   1      32.169  20.326  22.636  1.00  0.00     0.025 A 
ATOM     20  C   UNL A   1      32.586  19.853  24.967  1.00  0.00     0.028 A 
ATOM     21  C   UNL A   1      32.377  18.978  22.330  1.00  0.00     0.041 A 
ATOM     22  C   UNL A   1      32.680  18.480  24.681  1.00  0.00    -0.014 A 
ATOM     23  C   UNL A   1      32.614  18.067  23.353  1.00  0.00     0.126 A 
ATOM     24  C   UNL A   1      32.825  17.461  25.770  1.00  0.00     0.047 C 
ATOM     25  F   UNL A   1      32.763  16.770  23.047  1.00  0.00    -0.207 F 
ENDBRANCH  15  18
ENDBRANCH  13  15
ENDBRANCH   8  13
ENDBRANCH   5   8
ENDBRANCH   3   4
ENDBRANCH   2   3
ENDBRANCH   1   2
BRANCH   1  26
ATOM     26  C   UNL A   1      38.287  20.156  24.838  1.00  0.00     0.002 C 
BRANCH  26  27
ATOM     27  C   UNL A   1      39.375  19.809  25.853  1.00  0.00     0.021 C 
BRANCH  27  28
ATOM     28  C   UNL A   1      40.280  20.986  26.127  1.00  0.00     0.116 C 
BRANCH  28  29
ATOM     29  N   UNL A   1      41.663  20.669  25.781  1.00  0.00    -0.352 N 
ATOM     30  C   UNL A   1      42.739  21.523  25.812  1.00  0.00     0.251 C 
ATOM     31  H   UNL A   1      41.842  19.744  25.494  1.00  0.00     0.163 HD
ATOM     32  O   UNL A   1      43.724  21.332  25.113  1.00  0.00    -0.269 OA
BRANCH  30  33
ATOM     33  C   UNL A   1      42.638  22.679  26.706  1.00  0.00     0.039 A 
ATOM     34  C   UNL A   1      42.387  22.526  28.075  1.00  0.00     0.014 A 
ATOM     35  C   UNL A   1      42.846  23.928  26.129  1.00  0.00     0.014 A 
ATOM     36  C   UNL A   1      42.389  23.654  28.884  1.00  0.00     0.010 A 
ATOM     37  C   UNL A   1      43.012  25.006  26.938  1.00  0.00     0.010 A 
ATOM     38  C   UNL A   1      42.707  24.877  28.296  1.00  0.00    -0.014 A 
BRANCH  38  39
ATOM     39  C   UNL A   1      42.678  26.159  28.961  1.00  0.00     0.031 A 
ATOM     40  C   UNL A   1      41.509  27.026  28.816  1.00  0.00     0.074 A 
ATOM     41  C   UNL A   1      43.641  26.292  29.899  1.00  0.00     0.049 A 
ATOM     42  N   UNL A   1      41.506  28.279  29.091  1.00  0.00    -0.248 NA
ATOM     43  C   UNL A   1      40.221  26.557  28.303  1.00  0.00     0.031 C 
ATOM     44  C   UNL A   1      43.716  27.151  31.064  1.00  0.00     0.029 A 
ATOM     45  N   UNL A   1      44.870  25.636  29.895  1.00  0.00    -0.354 N 
ATOM     46  C   UNL A   1      40.186  28.662  29.197  1.00  0.00     0.074 A 
ATOM     47  C   UNL A   1      39.440  27.622  28.529  1.00  0.00     0.031 C 
ATOM     48  C   UNL A   1      44.994  27.182  31.496  1.00  0.00     0.029 A 
ATOM     49  C   UNL A   1      45.804  26.455  30.525  1.00  0.00     0.049 A 
ATOM     50  H   UNL A   1      45.047  24.747  29.513  1.00  0.00     0.167 HD
ATOM     51  C   UNL A   1      39.882  29.704  30.024  1.00  0.00     0.034 A 
ATOM     52  C   UNL A   1      46.785  27.007  29.746  1.00  0.00     0.034 A 
ATOM     53  C   UNL A   1      41.106  30.216  30.634  1.00  0.00     0.049 A 
ATOM     54  C   UNL A   1      46.559  28.493  29.618  1.00  0.00     0.074 A 
ATOM     55  C   UNL A   1      41.679  30.000  31.876  1.00  0.00     0.029 A 
ATOM     56  N   UNL A   1      42.103  30.742  29.823  1.00  0.00    -0.354 N 
ATOM     57  N   UNL A   1      45.381  29.059  29.574  1.00  0.00    -0.248 NA
ATOM     58  C   UNL A   1      47.656  29.450  29.659  1.00  0.00     0.031 C 
ATOM     59  C   UNL A   1      43.055  30.335  31.782  1.00  0.00     0.029 A 
ATOM     60  C   UNL A   1      43.311  30.754  30.487  1.00  0.00     0.049 A 
ATOM     61  H   UNL A   1      41.966  31.061  28.902  1.00  0.00     0.167 HD
ATOM     62  C   UNL A   1      45.544  30.418  29.695  1.00  0.00     0.074 A 
ATOM     63  C   UNL A   1      46.983  30.610  29.711  1.00  0.00     0.031 C 
ATOM     64  C   UNL A   1      44.504  31.291  29.847  1.00  0.00     0.034 A 
BRANCH  51  65
ATOM     65  C   UNL A   1      38.495  30.059  30.526  1.00  0.00     0.023 A 
ATOM     66  C   UNL A   1      37.938  29.522  31.704  1.00  0.00     0.012 A 
ATOM     67  C   UNL A   1      37.679  30.978  29.822  1.00  0.00     0.148 A 
ATOM     68  C   UNL A   1      36.691  29.932  32.203  1.00  0.00     0.002 A 
ATOM     69  C   UNL A   1      36.434  31.377  30.312  1.00  0.00     0.091 A 
ATOM     70  F   UNL A   1      38.087  31.491  28.654  1.00  0.00    -0.205 F 
ATOM     71  C   UNL A   1      35.937  30.867  31.510  1.00  0.00     0.022 A 
BRANCH  69  72
ATOM     72  S   UNL A   1      35.473  32.570  29.374  1.00  0.00     0.127 S 
ATOM     73  O   UNL A   1      35.307  31.907  28.083  1.00  0.00    -0.237 OA
ATOM     74  O   UNL A   1      34.274  32.742  30.186  1.00  0.00    -0.237 OA
ATOM     75  O   UNL A   1      36.345  33.745  29.336  1.00  0.00    -0.744 OA
ENDBRANCH  69  72
ENDBRANCH  51  65
BRANCH  52  76
ATOM     76  C   UNL A   1      47.221  26.073  28.649  1.00  0.00     0.023 A 
ATOM     77  C   UNL A   1      48.382  25.288  28.790  1.00  0.00     0.012 A 
ATOM     78  C   UNL A   1      46.776  26.383  27.343  1.00  0.00     0.148 A 
ATOM     79  C   UNL A   1      49.148  24.949  27.661  1.00  0.00     0.002 A 
ATOM     80  C   UNL A   1      47.572  26.095  26.236  1.00  0.00     0.091 A 
ATOM     81  F   UNL A   1      45.641  27.090  27.204  1.00  0.00    -0.205 F 
ATOM     82  C   UNL A   1      48.773  25.395  26.391  1.00  0.00     0.022 A 
BRANCH  80  83
ATOM     83  S   UNL A   1      47.162  26.852  24.656  1.00  0.00     0.127 S 
ATOM     84  O   UNL A   1      47.955  26.076  23.708  1.00  0.00    -0.237 OA
ATOM     85  O   UNL A   1      45.711  26.691  24.580  1.00  0.00    -0.237 OA
ATOM     86  O   UNL A   1      47.594  28.241  24.812  1.00  0.00    -0.744 OA
ENDBRANCH  80  83
ENDBRANCH  52  76
BRANCH  64  87
ATOM     87  C   UNL A   1      44.537  32.776  29.563  1.00  0.00     0.023 A 
ATOM     88  C   UNL A   1      44.753  33.673  30.645  1.00  0.00     0.012 A 
ATOM     89  C   UNL A   1      44.253  33.363  28.325  1.00  0.00     0.148 A 
ATOM     90  C   UNL A   1      44.675  35.060  30.507  1.00  0.00     0.002 A 
ATOM     91  C   UNL A   1      44.316  34.745  28.160  1.00  0.00     0.091 A 
ATOM     92  F   UNL A   1      43.851  32.617  27.290  1.00  0.00    -0.205 F 
ATOM     93  C   UNL A   1      44.486  35.602  29.249  1.00  0.00     0.022 A 
BRANCH  91  94
ATOM     94  S   UNL A   1      44.335  35.388  26.490  1.00  0.00     0.127 S 
ATOM     95  O   UNL A   1      45.665  35.002  26.023  1.00  0.00    -0.237 OA
ATOM     96  O   UNL A   1      43.207  34.718  25.852  1.00  0.00    -0.237 OA
ATOM     97  O   UNL A   1      44.156  36.828  26.678  1.00  0.00    -0.744 OA
ENDBRANCH  91  94
ENDBRANCH  64  87
ENDBRANCH  38  39
ENDBRANCH  30  33
ENDBRANCH  28  29
ENDBRANCH  27  28
ENDBRANCH  26  27
ENDBRANCH   1  26
TORSDOF 22
ENDMDL
