MODEL 1
REMARK VINA RESULT:     -11.2      0.000      0.000
REMARK SMILES CC[C@@H](C(=O)NCCCCCCNC(=O)c1ccc(-c2c3nc(c(-c4cccc(S(=O)(=O)[O-])c4F)c4ccc([nH]4)c(-c4cccc(S(=O)(=O)[O-])c4F)c4nc(c(-c5cccc(S(=O)(=O)[O-])c5F)c5ccc2[nH]5)C=C4)C=C3)cc1)[N@@H+]1CCc2ccc(N)cc2C1
REMARK SMILES IDX 10 1 9 2 8 3 7 4 6 5 4 6 5 7 3 9 2 10 1 11 79 12 80 13 89 14
REMARK SMILES IDX 81 16 88 17 82 18 87 19 83 20 85 21 84 22 86 23 11 26 12 27
REMARK SMILES IDX 13 28 14 29 15 31 16 32 17 33 78 34 18 35 77 36 19 37 20 38
REMARK SMILES IDX 21 39 71 40 22 41 76 42 70 43 72 44 23 45 75 46 69 47 68 48
REMARK SMILES IDX 24 50 56 51 36 52 55 53 37 54 40 55 54 56 73 57 38 58 39 59
REMARK SMILES IDX 53 61 74 62 41 63 25 64 26 65 34 66 27 67 29 68 35 69 28 70
REMARK SMILES IDX 30 71 31 72 32 73 33 74 57 75 58 76 66 77 59 78 61 79 67 80
REMARK SMILES IDX 60 81 62 82 63 83 64 84 65 85 42 86 43 87 51 88 44 89 46 90
REMARK SMILES IDX 52 91 45 92 47 93 48 94 49 95 50 96
REMARK H PARENT 6 8 79 15 86 24 86 25 13 30 72 49 40 60
REMARK Flexibility Score: inf
ROOT
ATOM      1  C   UNL A   1      34.957  24.242  25.676  1.00  0.00     0.002 C 
ENDROOT
BRANCH   1   2
ATOM      2  C   UNL A   1      34.762  24.344  24.163  1.00  0.00     0.002 C 
BRANCH   2   3
ATOM      3  C   UNL A   1      34.114  23.133  23.488  1.00  0.00     0.021 C 
BRANCH   3   4
ATOM      4  C   UNL A   1      33.796  23.276  21.996  1.00  0.00     0.116 C 
BRANCH   4   5
ATOM      5  N   UNL A   1      32.564  24.011  21.765  1.00  0.00    -0.351 N 
ATOM      6  C   UNL A   1      32.604  25.365  21.516  1.00  0.00     0.278 C 
ATOM      7  O   UNL A   1      32.962  25.750  20.400  1.00  0.00    -0.268 OA
ATOM      8  H   UNL A   1      31.699  23.540  21.787  1.00  0.00     0.163 HD
BRANCH   6   9
ATOM      9  C   UNL A   1      32.039  26.342  22.603  1.00  0.00     0.274 C 
BRANCH   9  10
ATOM     10  C   UNL A   1      30.651  25.995  23.208  1.00  0.00     0.072 C 
ATOM     11  C   UNL A   1      30.616  25.287  24.552  1.00  0.00     0.011 C 
ENDBRANCH   9  10
BRANCH   9  12
ATOM     12  N   UNL A   1      32.261  27.818  22.280  1.00  0.00    -0.321 N 
ATOM     13  C   UNL A   1      33.667  28.239  22.116  1.00  0.00     0.267 C 
ATOM     14  C   UNL A   1      31.613  28.797  23.178  1.00  0.00     0.300 C 
ATOM     15  H   UNL A   1      31.793  27.840  21.374  1.00  0.00     0.349 HD
ATOM     16  C   UNL A   1      34.431  28.595  23.420  1.00  0.00     0.097 C 
ATOM     17  C   UNL A   1      32.209  28.721  24.560  1.00  0.00     0.012 A 
ATOM     18  C   UNL A   1      33.587  28.478  24.668  1.00  0.00    -0.033 A 
ATOM     19  C   UNL A   1      31.397  28.720  25.698  1.00  0.00     0.035 A 
ATOM     20  C   UNL A   1      34.108  28.070  25.894  1.00  0.00     0.006 A 
ATOM     21  C   UNL A   1      31.920  28.334  26.930  1.00  0.00     0.032 A 
ATOM     22  C   UNL A   1      33.261  27.943  27.002  1.00  0.00     0.026 A 
BRANCH  21  23
ATOM     23  N   UNL A   1      31.060  28.118  28.004  1.00  0.00    -0.399 N 
ATOM     24  H   UNL A   1      31.184  28.619  28.843  1.00  0.00     0.156 HD
ATOM     25  H   UNL A   1      30.327  27.465  27.925  1.00  0.00     0.156 HD
ENDBRANCH  21  23
ENDBRANCH   9  12
ENDBRANCH   6   9
ENDBRANCH   4   5
ENDBRANCH   3   4
ENDBRANCH   2   3
ENDBRANCH   1   2
BRANCH   1  26
ATOM     26  C   UNL A   1      35.965  23.183  26.121  1.00  0.00     0.021 C 
BRANCH  26  27
ATOM     27  C   UNL A   1      37.272  23.177  25.337  1.00  0.00     0.116 C 
BRANCH  27  28
ATOM     28  N   UNL A   1      38.276  22.292  25.914  1.00  0.00    -0.352 N 
ATOM     29  C   UNL A   1      39.383  22.648  26.654  1.00  0.00     0.251 C 
ATOM     30  H   UNL A   1      38.148  21.329  25.758  1.00  0.00     0.163 HD
ATOM     31  O   UNL A   1      40.216  21.825  26.988  1.00  0.00    -0.269 OA
BRANCH  29  32
ATOM     32  C   UNL A   1      39.540  24.074  27.003  1.00  0.00     0.039 A 
ATOM     33  C   UNL A   1      39.257  24.491  28.304  1.00  0.00     0.014 A 
ATOM     34  C   UNL A   1      40.076  24.958  26.062  1.00  0.00     0.014 A 
ATOM     35  C   UNL A   1      39.576  25.794  28.685  1.00  0.00     0.010 A 
ATOM     36  C   UNL A   1      40.451  26.233  26.463  1.00  0.00     0.010 A 
ATOM     37  C   UNL A   1      40.208  26.663  27.778  1.00  0.00    -0.014 A 
BRANCH  37  38
ATOM     38  C   UNL A   1      40.646  28.019  28.190  1.00  0.00     0.031 A 
ATOM     39  C   UNL A   1      42.109  28.361  28.213  1.00  0.00     0.074 A 
ATOM     40  C   UNL A   1      39.733  28.902  28.641  1.00  0.00     0.049 A 
ATOM     41  N   UNL A   1      42.688  29.469  28.590  1.00  0.00    -0.248 NA
ATOM     42  C   UNL A   1      43.047  27.308  27.785  1.00  0.00     0.031 C 
ATOM     43  C   UNL A   1      38.295  28.646  28.763  1.00  0.00     0.029 A 
ATOM     44  N   UNL A   1      39.881  30.181  29.114  1.00  0.00    -0.354 N 
ATOM     45  C   UNL A   1      44.054  29.237  28.484  1.00  0.00     0.074 A 
ATOM     46  C   UNL A   1      44.220  27.873  28.037  1.00  0.00     0.031 C 
ATOM     47  C   UNL A   1      37.696  29.733  29.277  1.00  0.00     0.029 A 
ATOM     48  C   UNL A   1      38.705  30.754  29.540  1.00  0.00     0.049 A 
ATOM     49  H   UNL A   1      40.748  30.647  29.144  1.00  0.00     0.167 HD
ATOM     50  C   UNL A   1      45.077  30.095  28.706  1.00  0.00     0.034 A 
ATOM     51  C   UNL A   1      38.469  31.962  30.087  1.00  0.00     0.034 A 
ATOM     52  C   UNL A   1      44.902  31.467  29.095  1.00  0.00     0.049 A 
ATOM     53  C   UNL A   1      39.618  32.919  30.260  1.00  0.00     0.074 A 
ATOM     54  C   UNL A   1      45.864  32.451  29.233  1.00  0.00     0.029 A 
ATOM     55  N   UNL A   1      43.685  32.047  29.417  1.00  0.00    -0.354 N 
ATOM     56  N   UNL A   1      40.885  32.746  29.970  1.00  0.00    -0.248 NA
ATOM     57  C   UNL A   1      39.302  34.251  30.797  1.00  0.00     0.031 C 
ATOM     58  C   UNL A   1      45.230  33.623  29.659  1.00  0.00     0.029 A 
ATOM     59  C   UNL A   1      43.872  33.373  29.766  1.00  0.00     0.049 A 
ATOM     60  H   UNL A   1      42.817  31.585  29.400  1.00  0.00     0.167 HD
ATOM     61  C   UNL A   1      41.512  33.950  30.262  1.00  0.00     0.074 A 
ATOM     62  C   UNL A   1      40.480  34.856  30.724  1.00  0.00     0.031 C 
ATOM     63  C   UNL A   1      42.826  34.274  30.175  1.00  0.00     0.034 A 
BRANCH  50  64
ATOM     64  C   UNL A   1      46.477  29.593  28.473  1.00  0.00     0.023 A 
ATOM     65  C   UNL A   1      47.080  29.781  27.213  1.00  0.00     0.012 A 
ATOM     66  C   UNL A   1      47.219  29.001  29.514  1.00  0.00     0.148 A 
ATOM     67  C   UNL A   1      48.389  29.361  26.981  1.00  0.00     0.002 A 
ATOM     68  C   UNL A   1      48.537  28.623  29.288  1.00  0.00     0.091 A 
ATOM     69  F   UNL A   1      46.620  28.811  30.698  1.00  0.00    -0.205 F 
ATOM     70  C   UNL A   1      49.120  28.793  28.020  1.00  0.00     0.022 A 
BRANCH  68  71
ATOM     71  S   UNL A   1      49.590  27.951  30.579  1.00  0.00     0.127 S 
ATOM     72  O   UNL A   1      50.892  27.924  29.913  1.00  0.00    -0.237 OA
ATOM     73  O   UNL A   1      49.464  28.959  31.633  1.00  0.00    -0.237 OA
ATOM     74  O   UNL A   1      49.034  26.648  30.915  1.00  0.00    -0.744 OA
ENDBRANCH  68  71
ENDBRANCH  50  64
BRANCH  51  75
ATOM     75  C   UNL A   1      37.078  32.360  30.450  1.00  0.00     0.023 A 
ATOM     76  C   UNL A   1      36.622  32.159  31.767  1.00  0.00     0.012 A 
ATOM     77  C   UNL A   1      36.217  32.958  29.510  1.00  0.00     0.148 A 
ATOM     78  C   UNL A   1      35.323  32.515  32.133  1.00  0.00     0.002 A 
ATOM     79  C   UNL A   1      34.943  33.360  29.895  1.00  0.00     0.091 A 
ATOM     80  F   UNL A   1      36.663  33.127  28.257  1.00  0.00    -0.205 F 
ATOM     81  C   UNL A   1      34.487  33.124  31.201  1.00  0.00     0.022 A 
BRANCH  79  82
ATOM     82  S   UNL A   1      33.857  34.274  28.794  1.00  0.00     0.127 S 
ATOM     83  O   UNL A   1      34.746  35.317  28.292  1.00  0.00    -0.237 OA
ATOM     84  O   UNL A   1      33.487  33.252  27.813  1.00  0.00    -0.237 OA
ATOM     85  O   UNL A   1      32.750  34.725  29.629  1.00  0.00    -0.744 OA
ENDBRANCH  79  82
ENDBRANCH  51  75
BRANCH  63  86
ATOM     86  C   UNL A   1      43.228  35.671  30.570  1.00  0.00     0.023 A 
ATOM     87  C   UNL A   1      43.638  35.929  31.893  1.00  0.00     0.012 A 
ATOM     88  C   UNL A   1      43.278  36.704  29.615  1.00  0.00     0.148 A 
ATOM     89  C   UNL A   1      44.063  37.202  32.266  1.00  0.00     0.002 A 
ATOM     90  C   UNL A   1      43.748  37.958  29.983  1.00  0.00     0.091 A 
ATOM     91  F   UNL A   1      42.865  36.442  28.365  1.00  0.00    -0.205 F 
ATOM     92  C   UNL A   1      44.131  38.213  31.310  1.00  0.00     0.022 A 
BRANCH  90  93
ATOM     93  S   UNL A   1      43.962  39.291  28.797  1.00  0.00     0.127 S 
ATOM     94  O   UNL A   1      44.796  38.654  27.781  1.00  0.00    -0.237 OA
ATOM     95  O   UNL A   1      42.586  39.559  28.379  1.00  0.00    -0.237 OA
ATOM     96  O   UNL A   1      44.592  40.382  29.531  1.00  0.00    -0.744 OA
ENDBRANCH  90  93
ENDBRANCH  63  86
ENDBRANCH  37  38
ENDBRANCH  29  32
ENDBRANCH  27  28
ENDBRANCH  26  27
ENDBRANCH   1  26
TORSDOF 19
ENDMDL
MODEL 2
REMARK VINA RESULT:     -11.1      4.950      9.831
REMARK SMILES CC[C@@H](C(=O)NCCCCCCNC(=O)c1ccc(-c2c3nc(c(-c4cccc(S(=O)(=O)[O-])c4F)c4ccc([nH]4)c(-c4cccc(S(=O)(=O)[O-])c4F)c4nc(c(-c5cccc(S(=O)(=O)[O-])c5F)c5ccc2[nH]5)C=C4)C=C3)cc1)[N@@H+]1CCc2ccc(N)cc2C1
REMARK SMILES IDX 10 1 9 2 8 3 7 4 6 5 4 6 5 7 3 9 2 10 1 11 79 12 80 13 89 14
REMARK SMILES IDX 81 16 88 17 82 18 87 19 83 20 85 21 84 22 86 23 11 26 12 27
REMARK SMILES IDX 13 28 14 29 15 31 16 32 17 33 78 34 18 35 77 36 19 37 20 38
REMARK SMILES IDX 21 39 71 40 22 41 76 42 70 43 72 44 23 45 75 46 69 47 68 48
REMARK SMILES IDX 24 50 56 51 36 52 55 53 37 54 40 55 54 56 73 57 38 58 39 59
REMARK SMILES IDX 53 61 74 62 41 63 25 64 26 65 34 66 27 67 29 68 35 69 28 70
REMARK SMILES IDX 30 71 31 72 32 73 33 74 57 75 58 76 66 77 59 78 61 79 67 80
REMARK SMILES IDX 60 81 62 82 63 83 64 84 65 85 42 86 43 87 51 88 44 89 46 90
REMARK SMILES IDX 52 91 45 92 47 93 48 94 49 95 50 96
REMARK H PARENT 6 8 79 15 86 24 86 25 13 30 72 49 40 60
REMARK Flexibility Score: inf
ROOT
ATOM      1  C   UNL A   1      31.756  28.941  24.913  1.00  0.00     0.002 C 
ENDROOT
BRANCH   1   2
ATOM      2  C   UNL A   1      30.613  28.867  23.901  1.00  0.00     0.002 C 
BRANCH   2   3
ATOM      3  C   UNL A   1      30.417  27.516  23.208  1.00  0.00     0.021 C 
BRANCH   3   4
ATOM      4  C   UNL A   1      29.465  26.532  23.896  1.00  0.00     0.116 C 
BRANCH   4   5
ATOM      5  N   UNL A   1      29.983  25.175  23.895  1.00  0.00    -0.351 N 
ATOM      6  C   UNL A   1      30.895  24.785  24.852  1.00  0.00     0.278 C 
ATOM      7  O   UNL A   1      30.491  24.558  25.995  1.00  0.00    -0.268 OA
ATOM      8  H   UNL A   1      29.683  24.533  23.211  1.00  0.00     0.163 HD
BRANCH   6   9
ATOM      9  C   UNL A   1      32.368  24.491  24.404  1.00  0.00     0.274 C 
BRANCH   9  10
ATOM     10  C   UNL A   1      33.356  25.690  24.404  1.00  0.00     0.072 C 
ATOM     11  C   UNL A   1      34.171  25.942  25.661  1.00  0.00     0.011 C 
ENDBRANCH   9  10
BRANCH   9  12
ATOM     12  N   UNL A   1      32.471  23.559  23.199  1.00  0.00    -0.321 N 
ATOM     13  C   UNL A   1      31.927  22.199  23.385  1.00  0.00     0.267 C 
ATOM     14  C   UNL A   1      33.809  23.414  22.587  1.00  0.00     0.300 C 
ATOM     15  H   UNL A   1      31.871  24.080  22.560  1.00  0.00     0.349 HD
ATOM     16  C   UNL A   1      32.880  21.164  24.041  1.00  0.00     0.097 C 
ATOM     17  C   UNL A   1      34.758  22.739  23.543  1.00  0.00     0.012 A 
ATOM     18  C   UNL A   1      34.248  21.719  24.362  1.00  0.00    -0.033 A 
ATOM     19  C   UNL A   1      36.055  23.223  23.737  1.00  0.00     0.035 A 
ATOM     20  C   UNL A   1      34.984  21.312  25.473  1.00  0.00     0.006 A 
ATOM     21  C   UNL A   1      36.803  22.801  24.834  1.00  0.00     0.032 A 
ATOM     22  C   UNL A   1      36.229  21.897  25.734  1.00  0.00     0.026 A 
BRANCH  21  23
ATOM     23  N   UNL A   1      37.994  23.451  25.144  1.00  0.00    -0.399 N 
ATOM     24  H   UNL A   1      38.611  23.061  25.805  1.00  0.00     0.156 HD
ATOM     25  H   UNL A   1      38.221  24.302  24.702  1.00  0.00     0.156 HD
ENDBRANCH  21  23
ENDBRANCH   9  12
ENDBRANCH   6   9
ENDBRANCH   4   5
ENDBRANCH   3   4
ENDBRANCH   2   3
ENDBRANCH   1   2
BRANCH   1  26
ATOM     26  C   UNL A   1      31.583  30.006  25.996  1.00  0.00     0.021 C 
BRANCH  26  27
ATOM     27  C   UNL A   1      32.886  30.534  26.585  1.00  0.00     0.116 C 
BRANCH  27  28
ATOM     28  N   UNL A   1      32.806  31.936  26.973  1.00  0.00    -0.352 N 
ATOM     29  C   UNL A   1      33.701  32.646  27.745  1.00  0.00     0.251 C 
ATOM     30  H   UNL A   1      32.023  32.433  26.646  1.00  0.00     0.163 HD
ATOM     31  O   UNL A   1      33.469  33.787  28.100  1.00  0.00    -0.269 OA
BRANCH  29  32
ATOM     32  C   UNL A   1      34.943  31.959  28.154  1.00  0.00     0.039 A 
ATOM     33  C   UNL A   1      36.147  32.663  28.136  1.00  0.00     0.014 A 
ATOM     34  C   UNL A   1      34.874  30.657  28.660  1.00  0.00     0.014 A 
ATOM     35  C   UNL A   1      37.285  32.077  28.691  1.00  0.00     0.010 A 
ATOM     36  C   UNL A   1      35.993  30.105  29.269  1.00  0.00     0.010 A 
ATOM     37  C   UNL A   1      37.207  30.809  29.294  1.00  0.00    -0.014 A 
BRANCH  37  38
ATOM     38  C   UNL A   1      38.379  30.211  29.978  1.00  0.00     0.031 A 
ATOM     39  C   UNL A   1      38.782  30.696  31.342  1.00  0.00     0.074 A 
ATOM     40  C   UNL A   1      39.137  29.306  29.326  1.00  0.00     0.049 A 
ATOM     41  N   UNL A   1      39.800  30.336  32.075  1.00  0.00    -0.248 NA
ATOM     42  C   UNL A   1      37.948  31.750  31.948  1.00  0.00     0.031 C 
ATOM     43  C   UNL A   1      38.903  28.834  27.959  1.00  0.00     0.029 A 
ATOM     44  N   UNL A   1      40.276  28.646  29.713  1.00  0.00    -0.354 N 
ATOM     45  C   UNL A   1      39.755  31.140  33.208  1.00  0.00     0.074 A 
ATOM     46  C   UNL A   1      38.627  32.030  33.052  1.00  0.00     0.031 C 
ATOM     47  C   UNL A   1      39.869  27.963  27.623  1.00  0.00     0.029 A 
ATOM     48  C   UNL A   1      40.801  27.830  28.738  1.00  0.00     0.049 A 
ATOM     49  H   UNL A   1      40.680  28.747  30.605  1.00  0.00     0.167 HD
ATOM     50  C   UNL A   1      40.561  31.115  34.295  1.00  0.00     0.034 A 
ATOM     51  C   UNL A   1      41.910  27.065  28.742  1.00  0.00     0.034 A 
ATOM     52  C   UNL A   1      41.645  30.188  34.468  1.00  0.00     0.049 A 
ATOM     53  C   UNL A   1      42.749  27.008  29.991  1.00  0.00     0.074 A 
ATOM     54  C   UNL A   1      42.448  30.001  35.579  1.00  0.00     0.029 A 
ATOM     55  N   UNL A   1      42.084  29.298  33.501  1.00  0.00    -0.354 N 
ATOM     56  N   UNL A   1      42.576  27.636  31.128  1.00  0.00    -0.248 NA
ATOM     57  C   UNL A   1      43.911  26.107  29.972  1.00  0.00     0.031 C 
ATOM     58  C   UNL A   1      43.387  29.010  35.276  1.00  0.00     0.029 A 
ATOM     59  C   UNL A   1      43.156  28.567  33.984  1.00  0.00     0.049 A 
ATOM     60  H   UNL A   1      41.693  29.199  32.604  1.00  0.00     0.167 HD
ATOM     61  C   UNL A   1      43.588  27.188  31.968  1.00  0.00     0.074 A 
ATOM     62  C   UNL A   1      44.352  26.213  31.218  1.00  0.00     0.031 C 
ATOM     63  C   UNL A   1      43.873  27.564  33.240  1.00  0.00     0.034 A 
BRANCH  50  64
ATOM     64  C   UNL A   1      40.261  32.078  35.413  1.00  0.00     0.023 A 
ATOM     65  C   UNL A   1      40.984  33.285  35.500  1.00  0.00     0.012 A 
ATOM     66  C   UNL A   1      39.225  31.825  36.332  1.00  0.00     0.148 A 
ATOM     67  C   UNL A   1      40.702  34.212  36.501  1.00  0.00     0.002 A 
ATOM     68  C   UNL A   1      38.920  32.772  37.302  1.00  0.00     0.091 A 
ATOM     69  F   UNL A   1      38.564  30.661  36.246  1.00  0.00    -0.205 F 
ATOM     70  C   UNL A   1      39.664  33.962  37.394  1.00  0.00     0.022 A 
BRANCH  68  71
ATOM     71  S   UNL A   1      37.554  32.581  38.452  1.00  0.00     0.127 S 
ATOM     72  O   UNL A   1      37.663  31.166  38.806  1.00  0.00    -0.237 OA
ATOM     73  O   UNL A   1      37.922  33.507  39.523  1.00  0.00    -0.237 OA
ATOM     74  O   UNL A   1      36.353  32.948  37.716  1.00  0.00    -0.744 OA
ENDBRANCH  68  71
ENDBRANCH  50  64
BRANCH  51  75
ATOM     75  C   UNL A   1      42.255  26.241  27.547  1.00  0.00     0.023 A 
ATOM     76  C   UNL A   1      42.976  26.826  26.488  1.00  0.00     0.012 A 
ATOM     77  C   UNL A   1      41.898  24.882  27.465  1.00  0.00     0.148 A 
ATOM     78  C   UNL A   1      43.305  26.081  25.355  1.00  0.00     0.002 A 
ATOM     79  C   UNL A   1      42.277  24.131  26.358  1.00  0.00     0.091 A 
ATOM     80  F   UNL A   1      41.198  24.346  28.475  1.00  0.00    -0.205 F 
ATOM     81  C   UNL A   1      42.966  24.733  25.294  1.00  0.00     0.022 A 
BRANCH  79  82
ATOM     82  S   UNL A   1      41.999  22.359  26.264  1.00  0.00     0.127 S 
ATOM     83  O   UNL A   1      40.549  22.291  26.105  1.00  0.00    -0.237 OA
ATOM     84  O   UNL A   1      42.768  21.992  25.074  1.00  0.00    -0.237 OA
ATOM     85  O   UNL A   1      42.531  21.817  27.507  1.00  0.00    -0.744 OA
ENDBRANCH  79  82
ENDBRANCH  51  75
BRANCH  63  86
ATOM     86  C   UNL A   1      45.050  26.910  33.914  1.00  0.00     0.023 A 
ATOM     87  C   UNL A   1      46.332  27.477  33.779  1.00  0.00     0.012 A 
ATOM     88  C   UNL A   1      44.872  25.786  34.744  1.00  0.00     0.148 A 
ATOM     89  C   UNL A   1      47.426  26.916  34.437  1.00  0.00     0.002 A 
ATOM     90  C   UNL A   1      45.958  25.262  35.434  1.00  0.00     0.091 A 
ATOM     91  F   UNL A   1      43.646  25.251  34.843  1.00  0.00    -0.205 F 
ATOM     92  C   UNL A   1      47.237  25.819  35.273  1.00  0.00     0.022 A 
BRANCH  90  93
ATOM     93  S   UNL A   1      45.791  23.912  36.607  1.00  0.00     0.127 S 
ATOM     94  O   UNL A   1      45.290  22.837  35.754  1.00  0.00    -0.237 OA
ATOM     95  O   UNL A   1      47.166  23.732  37.072  1.00  0.00    -0.237 OA
ATOM     96  O   UNL A   1      44.866  24.383  37.630  1.00  0.00    -0.744 OA
ENDBRANCH  90  93
ENDBRANCH  63  86
ENDBRANCH  37  38
ENDBRANCH  29  32
ENDBRANCH  27  28
ENDBRANCH  26  27
ENDBRANCH   1  26
TORSDOF 19
ENDMDL
MODEL 3
REMARK VINA RESULT:     -11.1      3.196      8.384
REMARK SMILES CC[C@@H](C(=O)NCCCCCCNC(=O)c1ccc(-c2c3nc(c(-c4cccc(S(=O)(=O)[O-])c4F)c4ccc([nH]4)c(-c4cccc(S(=O)(=O)[O-])c4F)c4nc(c(-c5cccc(S(=O)(=O)[O-])c5F)c5ccc2[nH]5)C=C4)C=C3)cc1)[N@@H+]1CCc2ccc(N)cc2C1
REMARK SMILES IDX 10 1 9 2 8 3 7 4 6 5 4 6 5 7 3 9 2 10 1 11 79 12 80 13 89 14
REMARK SMILES IDX 81 16 88 17 82 18 87 19 83 20 85 21 84 22 86 23 11 26 12 27
REMARK SMILES IDX 13 28 14 29 15 31 16 32 17 33 78 34 18 35 77 36 19 37 20 38
REMARK SMILES IDX 21 39 71 40 22 41 76 42 70 43 72 44 23 45 75 46 69 47 68 48
REMARK SMILES IDX 24 50 56 51 36 52 55 53 37 54 40 55 54 56 73 57 38 58 39 59
REMARK SMILES IDX 53 61 74 62 41 63 25 64 26 65 34 66 27 67 29 68 35 69 28 70
REMARK SMILES IDX 30 71 31 72 32 73 33 74 57 75 58 76 66 77 59 78 61 79 67 80
REMARK SMILES IDX 60 81 62 82 63 83 64 84 65 85 42 86 43 87 51 88 44 89 46 90
REMARK SMILES IDX 52 91 45 92 47 93 48 94 49 95 50 96
REMARK H PARENT 6 8 79 15 86 24 86 25 13 30 72 49 40 60
REMARK Flexibility Score: inf
ROOT
ATOM      1  C   UNL A   1      36.157  20.253  24.974  1.00  0.00     0.002 C 
ENDROOT
BRANCH   1   2
ATOM      2  C   UNL A   1      36.211  21.582  25.726  1.00  0.00     0.002 C 
BRANCH   2   3
ATOM      3  C   UNL A   1      34.965  22.464  25.617  1.00  0.00     0.021 C 
BRANCH   3   4
ATOM      4  C   UNL A   1      33.722  21.810  25.007  1.00  0.00     0.116 C 
BRANCH   4   5
ATOM      5  N   UNL A   1      33.292  22.477  23.790  1.00  0.00    -0.351 N 
ATOM      6  C   UNL A   1      34.000  23.556  23.308  1.00  0.00     0.278 C 
ATOM      7  O   UNL A   1      35.073  23.350  22.735  1.00  0.00    -0.268 OA
ATOM      8  H   UNL A   1      32.493  22.158  23.309  1.00  0.00     0.163 HD
BRANCH   6   9
ATOM      9  C   UNL A   1      33.333  24.973  23.365  1.00  0.00     0.274 C 
BRANCH   9  10
ATOM     10  C   UNL A   1      33.544  25.900  22.136  1.00  0.00     0.072 C 
ATOM     11  C   UNL A   1      32.539  25.816  20.999  1.00  0.00     0.011 C 
ENDBRANCH   9  10
BRANCH   9  12
ATOM     12  N   UNL A   1      33.451  25.654  24.726  1.00  0.00    -0.321 N 
ATOM     13  C   UNL A   1      32.475  25.228  25.750  1.00  0.00     0.267 C 
ATOM     14  C   UNL A   1      33.467  27.133  24.727  1.00  0.00     0.300 C 
ATOM     15  H   UNL A   1      34.378  25.315  24.979  1.00  0.00     0.349 HD
ATOM     16  C   UNL A   1      31.094  25.935  25.715  1.00  0.00     0.097 C 
ATOM     17  C   UNL A   1      32.142  27.676  24.257  1.00  0.00     0.012 A 
ATOM     18  C   UNL A   1      30.979  26.988  24.637  1.00  0.00    -0.033 A 
ATOM     19  C   UNL A   1      32.078  28.724  23.334  1.00  0.00     0.035 A 
ATOM     20  C   UNL A   1      29.788  27.248  23.962  1.00  0.00     0.006 A 
ATOM     21  C   UNL A   1      30.883  29.001  22.673  1.00  0.00     0.032 A 
ATOM     22  C   UNL A   1      29.762  28.210  22.945  1.00  0.00     0.026 A 
BRANCH  21  23
ATOM     23  N   UNL A   1      30.881  29.888  21.599  1.00  0.00    -0.399 N 
ATOM     24  H   UNL A   1      30.128  29.893  20.965  1.00  0.00     0.156 HD
ATOM     25  H   UNL A   1      31.633  30.512  21.474  1.00  0.00     0.156 HD
ENDBRANCH  21  23
ENDBRANCH   9  12
ENDBRANCH   6   9
ENDBRANCH   4   5
ENDBRANCH   3   4
ENDBRANCH   2   3
ENDBRANCH   1   2
BRANCH   1  26
ATOM     26  C   UNL A   1      37.496  19.522  24.870  1.00  0.00     0.021 C 
BRANCH  26  27
ATOM     27  C   UNL A   1      38.617  20.122  25.711  1.00  0.00     0.116 C 
BRANCH  27  28
ATOM     28  N   UNL A   1      39.769  19.239  25.835  1.00  0.00    -0.352 N 
ATOM     29  C   UNL A   1      41.053  19.579  26.204  1.00  0.00     0.251 C 
ATOM     30  H   UNL A   1      39.611  18.289  25.633  1.00  0.00     0.163 HD
ATOM     31  O   UNL A   1      41.962  18.771  26.162  1.00  0.00    -0.269 OA
BRANCH  29  32
ATOM     32  C   UNL A   1      41.294  20.974  26.624  1.00  0.00     0.039 A 
ATOM     33  C   UNL A   1      41.957  21.217  27.826  1.00  0.00     0.014 A 
ATOM     34  C   UNL A   1      40.958  22.020  25.760  1.00  0.00     0.014 A 
ATOM     35  C   UNL A   1      42.346  22.521  28.137  1.00  0.00     0.010 A 
ATOM     36  C   UNL A   1      41.404  23.305  26.042  1.00  0.00     0.010 A 
ATOM     37  C   UNL A   1      42.104  23.567  27.230  1.00  0.00    -0.014 A 
BRANCH  37  38
ATOM     38  C   UNL A   1      42.597  24.941  27.494  1.00  0.00     0.031 A 
ATOM     39  C   UNL A   1      41.686  25.958  28.123  1.00  0.00     0.074 A 
ATOM     40  C   UNL A   1      43.826  25.297  27.071  1.00  0.00     0.049 A 
ATOM     41  N   UNL A   1      41.915  27.217  28.384  1.00  0.00    -0.248 NA
ATOM     42  C   UNL A   1      40.328  25.509  28.477  1.00  0.00     0.031 C 
ATOM     43  C   UNL A   1      44.761  24.425  26.356  1.00  0.00     0.029 A 
ATOM     44  N   UNL A   1      44.489  26.496  27.152  1.00  0.00    -0.354 N 
ATOM     45  C   UNL A   1      40.725  27.720  28.895  1.00  0.00     0.074 A 
ATOM     46  C   UNL A   1      39.765  26.640  28.878  1.00  0.00     0.031 C 
ATOM     47  C   UNL A   1      45.874  25.118  26.063  1.00  0.00     0.029 A 
ATOM     48  C   UNL A   1      45.726  26.486  26.549  1.00  0.00     0.049 A 
ATOM     49  H   UNL A   1      44.115  27.289  27.600  1.00  0.00     0.167 HD
ATOM     50  C   UNL A   1      40.466  28.962  29.367  1.00  0.00     0.034 A 
ATOM     51  C   UNL A   1      46.634  27.471  26.401  1.00  0.00     0.034 A 
ATOM     52  C   UNL A   1      41.443  30.014  29.433  1.00  0.00     0.049 A 
ATOM     53  C   UNL A   1      46.343  28.823  26.995  1.00  0.00     0.074 A 
ATOM     54  C   UNL A   1      41.316  31.270  29.999  1.00  0.00     0.029 A 
ATOM     55  N   UNL A   1      42.723  29.937  28.909  1.00  0.00    -0.354 N 
ATOM     56  N   UNL A   1      45.280  29.224  27.648  1.00  0.00    -0.248 NA
ATOM     57  C   UNL A   1      47.392  29.846  26.868  1.00  0.00     0.031 C 
ATOM     58  C   UNL A   1      42.516  31.960  29.799  1.00  0.00     0.029 A 
ATOM     59  C   UNL A   1      43.395  31.127  29.127  1.00  0.00     0.049 A 
ATOM     60  H   UNL A   1      43.100  29.152  28.450  1.00  0.00     0.167 HD
ATOM     61  C   UNL A   1      45.541  30.533  28.034  1.00  0.00     0.074 A 
ATOM     62  C   UNL A   1      46.875  30.848  27.566  1.00  0.00     0.031 C 
ATOM     63  C   UNL A   1      44.741  31.405  28.698  1.00  0.00     0.034 A 
BRANCH  50  64
ATOM     64  C   UNL A   1      39.088  29.234  29.907  1.00  0.00     0.023 A 
ATOM     65  C   UNL A   1      38.771  28.847  31.225  1.00  0.00     0.012 A 
ATOM     66  C   UNL A   1      38.131  29.929  29.142  1.00  0.00     0.148 A 
ATOM     67  C   UNL A   1      37.515  29.120  31.765  1.00  0.00     0.002 A 
ATOM     68  C   UNL A   1      36.896  30.235  29.700  1.00  0.00     0.091 A 
ATOM     69  F   UNL A   1      38.444  30.268  27.883  1.00  0.00    -0.205 F 
ATOM     70  C   UNL A   1      36.583  29.824  31.007  1.00  0.00     0.022 A 
BRANCH  68  71
ATOM     71  S   UNL A   1      35.652  31.202  28.836  1.00  0.00     0.127 S 
ATOM     72  O   UNL A   1      34.869  31.736  29.950  1.00  0.00    -0.237 OA
ATOM     73  O   UNL A   1      36.468  32.193  28.133  1.00  0.00    -0.237 OA
ATOM     74  O   UNL A   1      34.948  30.269  27.969  1.00  0.00    -0.744 OA
ENDBRANCH  68  71
ENDBRANCH  50  64
BRANCH  51  75
ATOM     75  C   UNL A   1      47.930  27.196  25.715  1.00  0.00     0.023 A 
ATOM     76  C   UNL A   1      49.007  26.673  26.457  1.00  0.00     0.012 A 
ATOM     77  C   UNL A   1      48.093  27.423  24.335  1.00  0.00     0.148 A 
ATOM     78  C   UNL A   1      50.234  26.414  25.844  1.00  0.00     0.002 A 
ATOM     79  C   UNL A   1      49.300  27.111  23.720  1.00  0.00     0.091 A 
ATOM     80  F   UNL A   1      47.062  27.935  23.649  1.00  0.00    -0.205 F 
ATOM     81  C   UNL A   1      50.377  26.622  24.475  1.00  0.00     0.022 A 
BRANCH  79  82
ATOM     82  S   UNL A   1      49.522  27.220  21.941  1.00  0.00     0.127 S 
ATOM     83  O   UNL A   1      48.535  26.260  21.456  1.00  0.00    -0.237 OA
ATOM     84  O   UNL A   1      49.198  28.624  21.679  1.00  0.00    -0.237 OA
ATOM     85  O   UNL A   1      50.918  26.878  21.703  1.00  0.00    -0.744 OA
ENDBRANCH  79  82
ENDBRANCH  51  75
BRANCH  63  86
ATOM     86  C   UNL A   1      45.289  32.779  28.977  1.00  0.00     0.023 A 
ATOM     87  C   UNL A   1      45.972  33.024  30.185  1.00  0.00     0.012 A 
ATOM     88  C   UNL A   1      45.200  33.801  28.012  1.00  0.00     0.148 A 
ATOM     89  C   UNL A   1      46.532  34.274  30.440  1.00  0.00     0.002 A 
ATOM     90  C   UNL A   1      45.802  35.029  28.254  1.00  0.00     0.091 A 
ATOM     91  F   UNL A   1      44.529  33.552  26.877  1.00  0.00    -0.205 F 
ATOM     92  C   UNL A   1      46.458  35.272  29.471  1.00  0.00     0.022 A 
BRANCH  90  93
ATOM     93  S   UNL A   1      45.841  36.339  27.025  1.00  0.00     0.127 S 
ATOM     94  O   UNL A   1      44.458  36.810  27.047  1.00  0.00    -0.237 OA
ATOM     95  O   UNL A   1      46.814  37.271  27.594  1.00  0.00    -0.237 OA
ATOM     96  O   UNL A   1      46.267  35.708  25.781  1.00  0.00    -0.744 OA
ENDBRANCH  90  93
ENDBRANCH  63  86
ENDBRANCH  37  38
ENDBRANCH  29  32
ENDBRANCH  27  28
ENDBRANCH  26  27
ENDBRANCH   1  26
TORSDOF 19
ENDMDL
