MODEL 1
REMARK VINA RESULT:     -13.1      0.000      0.000
REMARK SMILES Cc1ccccc1-c1c(Cl)ccc2c1C=C(C(=O)NCCCCCCNC(=O)c1ccc(-c3c4nc(c(-c5cccc(S(=O)(=O)[O-])c5F)c5ccc([nH]5)c(-c5cccc(S(=O)(=O)[O-])c5F)c5nc(c(-c6cccc(S(=O)(=O)[O-])c6F)c6ccc3[nH]6)C=C5)C=C4)cc1)[C@@H](C(F)(F)F)O2
REMARK SMILES IDX 23 1 22 2 21 3 20 4 19 5 17 6 18 7 16 9 8 10 9 11 14 12
REMARK SMILES IDX 10 13 11 14 13 15 15 16 12 17 97 18 92 19 7 20 1 21 2 22
REMARK SMILES IDX 3 23 4 24 6 25 5 26 93 27 94 28 95 29 96 30 24 31 25 32
REMARK SMILES IDX 26 33 27 34 28 36 29 37 30 38 91 39 31 40 90 41 32 42 33 43
REMARK SMILES IDX 34 44 84 45 35 46 89 47 83 48 85 49 36 50 88 51 82 52 81 53
REMARK SMILES IDX 37 55 69 56 49 57 68 58 50 59 53 60 67 61 86 62 51 63 52 64
REMARK SMILES IDX 66 66 87 67 54 68 38 69 39 70 47 71 40 72 42 73 48 74 41 75
REMARK SMILES IDX 43 76 44 77 45 78 46 79 70 80 71 81 79 82 72 83 74 84 80 85
REMARK SMILES IDX 73 86 75 87 76 88 77 89 78 90 55 91 56 92 64 93 57 94 59 95
REMARK SMILES IDX 65 96 58 97 60 98 61 99 62 100 63 101
REMARK H PARENT 19 8 26 35 85 54 53 65
REMARK Flexibility Score: inf
ROOT
ATOM      1  C   UNL A   1      40.010  21.685  26.711  1.00  0.00     0.002 C 
ENDROOT
BRANCH   1   2
ATOM      2  C   UNL A   1      40.075  23.138  27.210  1.00  0.00     0.002 C 
BRANCH   2   3
ATOM      3  C   UNL A   1      39.142  24.171  26.562  1.00  0.00     0.021 C 
BRANCH   3   4
ATOM      4  C   UNL A   1      37.749  23.684  26.170  1.00  0.00     0.116 C 
BRANCH   4   5
ATOM      5  N   UNL A   1      37.596  23.478  24.751  1.00  0.00    -0.352 N 
ATOM      6  C   UNL A   1      36.476  23.336  23.999  1.00  0.00     0.251 C 
ATOM      7  O   UNL A   1      36.614  23.205  22.783  1.00  0.00    -0.270 OA
ATOM      8  H   UNL A   1      38.441  23.433  24.247  1.00  0.00     0.163 HD
BRANCH   6   9
ATOM      9  C   UNL A   1      35.111  23.277  24.643  1.00  0.00     0.067 C 
ATOM     10  C   UNL A   1      33.133  26.361  23.937  1.00  0.00     0.012 A 
ATOM     11  C   UNL A   1      32.579  26.895  22.745  1.00  0.00     0.049 A 
ATOM     12  C   UNL A   1      33.668  25.047  23.869  1.00  0.00     0.027 A 
ATOM     13  Cl  UNL A   1      32.016  28.535  22.644  1.00  0.00    -0.084 Cl
ATOM     14  C   UNL A   1      32.461  26.129  21.580  1.00  0.00     0.025 A 
ATOM     15  C   UNL A   1      33.429  24.255  22.724  1.00  0.00     0.128 A 
ATOM     16  C   UNL A   1      34.550  24.475  24.921  1.00  0.00     0.026 C 
ATOM     17  C   UNL A   1      32.847  24.797  21.584  1.00  0.00     0.049 A 
ATOM     18  O   UNL A   1      33.738  22.919  22.638  1.00  0.00    -0.475 OA
ATOM     19  C   UNL A   1      34.241  22.307  23.852  1.00  0.00     0.314 C 
BRANCH  10  20
ATOM     20  C   UNL A   1      32.988  27.099  25.223  1.00  0.00    -0.013 A 
ATOM     21  C   UNL A   1      30.673  26.175  25.837  1.00  0.00     0.045 C 
ATOM     22  C   UNL A   1      31.886  27.018  26.096  1.00  0.00    -0.043 A 
ATOM     23  C   UNL A   1      31.872  27.789  27.278  1.00  0.00     0.004 A 
ATOM     24  C   UNL A   1      32.945  28.607  27.624  1.00  0.00     0.000 A 
ATOM     25  C   UNL A   1      34.057  27.949  25.599  1.00  0.00     0.009 A 
ATOM     26  C   UNL A   1      34.045  28.682  26.786  1.00  0.00     0.001 A 
ENDBRANCH  10  20
BRANCH  19  27
ATOM     27  C   UNL A   1      33.111  21.694  24.691  1.00  0.00     0.429 C 
ATOM     28  F   UNL A   1      32.592  20.595  24.089  1.00  0.00    -0.167 F 
ATOM     29  F   UNL A   1      33.562  21.296  25.907  1.00  0.00    -0.167 F 
ATOM     30  F   UNL A   1      32.086  22.550  24.908  1.00  0.00    -0.167 F 
ENDBRANCH  19  27
ENDBRANCH   6   9
ENDBRANCH   4   5
ENDBRANCH   3   4
ENDBRANCH   2   3
ENDBRANCH   1   2
BRANCH   1  31
ATOM     31  C   UNL A   1      41.324  20.996  26.338  1.00  0.00     0.021 C 
BRANCH  31  32
ATOM     32  C   UNL A   1      42.424  21.922  25.837  1.00  0.00     0.116 C 
BRANCH  32  33
ATOM     33  N   UNL A   1      43.517  21.256  25.148  1.00  0.00    -0.352 N 
ATOM     34  C   UNL A   1      44.806  21.707  24.919  1.00  0.00     0.251 C 
ATOM     35  H   UNL A   1      43.312  20.361  24.794  1.00  0.00     0.163 HD
ATOM     36  O   UNL A   1      45.546  21.034  24.202  1.00  0.00    -0.269 OA
BRANCH  34  37
ATOM     37  C   UNL A   1      45.319  22.908  25.633  1.00  0.00     0.039 A 
ATOM     38  C   UNL A   1      45.525  22.821  27.016  1.00  0.00     0.014 A 
ATOM     39  C   UNL A   1      45.385  24.150  25.005  1.00  0.00     0.014 A 
ATOM     40  C   UNL A   1      45.516  23.981  27.789  1.00  0.00     0.010 A 
ATOM     41  C   UNL A   1      45.280  25.293  25.768  1.00  0.00     0.010 A 
ATOM     42  C   UNL A   1      45.266  25.197  27.160  1.00  0.00    -0.014 A 
BRANCH  42  43
ATOM     43  C   UNL A   1      44.877  26.417  27.849  1.00  0.00     0.031 A 
ATOM     44  C   UNL A   1      43.507  26.936  27.757  1.00  0.00     0.074 A 
ATOM     45  C   UNL A   1      45.753  26.972  28.718  1.00  0.00     0.049 A 
ATOM     46  N   UNL A   1      43.187  28.147  28.057  1.00  0.00    -0.248 NA
ATOM     47  C   UNL A   1      42.386  26.119  27.319  1.00  0.00     0.031 C 
ATOM     48  C   UNL A   1      45.483  27.943  29.770  1.00  0.00     0.029 A 
ATOM     49  N   UNL A   1      47.147  26.913  28.664  1.00  0.00    -0.354 N 
ATOM     50  C   UNL A   1      41.815  28.195  28.132  1.00  0.00     0.074 A 
ATOM     51  C   UNL A   1      41.361  26.932  27.593  1.00  0.00     0.031 C 
ATOM     52  C   UNL A   1      46.622  28.593  30.056  1.00  0.00     0.029 A 
ATOM     53  C   UNL A   1      47.602  28.183  29.066  1.00  0.00     0.049 A 
ATOM     54  H   UNL A   1      47.698  26.142  28.398  1.00  0.00     0.167 HD
ATOM     55  C   UNL A   1      41.222  29.226  28.796  1.00  0.00     0.034 A 
ATOM     56  C   UNL A   1      48.319  29.015  28.252  1.00  0.00     0.034 A 
ATOM     57  C   UNL A   1      42.214  30.183  29.308  1.00  0.00     0.049 A 
ATOM     58  C   UNL A   1      47.675  30.387  28.064  1.00  0.00     0.074 A 
ATOM     59  C   UNL A   1      42.797  30.401  30.547  1.00  0.00     0.029 A 
ATOM     60  N   UNL A   1      42.962  30.918  28.404  1.00  0.00    -0.354 N 
ATOM     61  N   UNL A   1      46.559  30.774  28.618  1.00  0.00    -0.248 NA
ATOM     62  C   UNL A   1      48.193  31.381  27.125  1.00  0.00     0.031 C 
ATOM     63  C   UNL A   1      43.902  31.284  30.375  1.00  0.00     0.029 A 
ATOM     64  C   UNL A   1      43.982  31.614  29.035  1.00  0.00     0.049 A 
ATOM     65  H   UNL A   1      42.791  30.943  27.434  1.00  0.00     0.167 HD
ATOM     66  C   UNL A   1      46.113  31.921  28.004  1.00  0.00     0.074 A 
ATOM     67  C   UNL A   1      47.191  32.275  27.096  1.00  0.00     0.031 C 
ATOM     68  C   UNL A   1      44.861  32.442  28.221  1.00  0.00     0.034 A 
BRANCH  55  69
ATOM     69  C   UNL A   1      39.779  29.190  29.249  1.00  0.00     0.023 A 
ATOM     70  C   UNL A   1      38.778  29.298  28.259  1.00  0.00     0.012 A 
ATOM     71  C   UNL A   1      39.330  29.118  30.588  1.00  0.00     0.148 A 
ATOM     72  C   UNL A   1      37.424  29.445  28.574  1.00  0.00     0.002 A 
ATOM     73  C   UNL A   1      37.989  29.346  30.908  1.00  0.00     0.091 A 
ATOM     74  F   UNL A   1      40.191  28.766  31.553  1.00  0.00    -0.205 F 
ATOM     75  C   UNL A   1      37.033  29.512  29.901  1.00  0.00     0.022 A 
BRANCH  73  76
ATOM     76  S   UNL A   1      37.427  29.578  32.603  1.00  0.00     0.127 S 
ATOM     77  O   UNL A   1      36.106  30.184  32.411  1.00  0.00    -0.237 OA
ATOM     78  O   UNL A   1      37.397  28.213  33.120  1.00  0.00    -0.237 OA
ATOM     79  O   UNL A   1      38.397  30.474  33.222  1.00  0.00    -0.744 OA
ENDBRANCH  73  76
ENDBRANCH  55  69
BRANCH  56  80
ATOM     80  C   UNL A   1      49.080  28.281  27.187  1.00  0.00     0.023 A 
ATOM     81  C   UNL A   1      50.114  27.407  27.609  1.00  0.00     0.012 A 
ATOM     82  C   UNL A   1      48.547  28.115  25.898  1.00  0.00     0.148 A 
ATOM     83  C   UNL A   1      50.462  26.290  26.845  1.00  0.00     0.002 A 
ATOM     84  C   UNL A   1      48.927  27.019  25.128  1.00  0.00     0.091 A 
ATOM     85  F   UNL A   1      47.619  28.973  25.459  1.00  0.00    -0.205 F 
ATOM     86  C   UNL A   1      49.839  26.075  25.619  1.00  0.00     0.022 A 
BRANCH  84  87
ATOM     87  S   UNL A   1      48.149  26.738  23.533  1.00  0.00     0.127 S 
ATOM     88  O   UNL A   1      49.115  27.348  22.626  1.00  0.00    -0.237 OA
ATOM     89  O   UNL A   1      48.071  25.280  23.463  1.00  0.00    -0.237 OA
ATOM     90  O   UNL A   1      46.854  27.396  23.651  1.00  0.00    -0.744 OA
ENDBRANCH  84  87
ENDBRANCH  56  80
BRANCH  68  91
ATOM     91  C   UNL A   1      44.324  33.737  27.615  1.00  0.00     0.023 A 
ATOM     92  C   UNL A   1      43.816  33.788  26.303  1.00  0.00     0.012 A 
ATOM     93  C   UNL A   1      44.392  34.982  28.303  1.00  0.00     0.148 A 
ATOM     94  C   UNL A   1      43.270  34.957  25.759  1.00  0.00     0.002 A 
ATOM     95  C   UNL A   1      43.875  36.152  27.751  1.00  0.00     0.091 A 
ATOM     96  F   UNL A   1      45.007  35.062  29.486  1.00  0.00    -0.205 F 
ATOM     97  C   UNL A   1      43.281  36.135  26.490  1.00  0.00     0.022 A 
BRANCH  95  98
ATOM     98  S   UNL A   1      43.969  37.741  28.590  1.00  0.00     0.127 S 
ATOM     99  O   UNL A   1      43.430  37.407  29.909  1.00  0.00    -0.237 OA
ATOM    100  O   UNL A   1      45.408  38.007  28.570  1.00  0.00    -0.237 OA
ATOM    101  O   UNL A   1      43.166  38.669  27.806  1.00  0.00    -0.744 OA
ENDBRANCH  95  98
ENDBRANCH  68  91
ENDBRANCH  42  43
ENDBRANCH  34  37
ENDBRANCH  32  33
ENDBRANCH  31  32
ENDBRANCH   1  31
TORSDOF 18
ENDMDL
MODEL 2
REMARK VINA RESULT:     -13.0      3.327      4.876
REMARK SMILES Cc1ccccc1-c1c(Cl)ccc2c1C=C(C(=O)NCCCCCCNC(=O)c1ccc(-c3c4nc(c(-c5cccc(S(=O)(=O)[O-])c5F)c5ccc([nH]5)c(-c5cccc(S(=O)(=O)[O-])c5F)c5nc(c(-c6cccc(S(=O)(=O)[O-])c6F)c6ccc3[nH]6)C=C5)C=C4)cc1)[C@@H](C(F)(F)F)O2
REMARK SMILES IDX 23 1 22 2 21 3 20 4 19 5 17 6 18 7 16 9 8 10 9 11 14 12
REMARK SMILES IDX 10 13 11 14 13 15 15 16 12 17 97 18 92 19 7 20 1 21 2 22
REMARK SMILES IDX 3 23 4 24 6 25 5 26 93 27 94 28 95 29 96 30 24 31 25 32
REMARK SMILES IDX 26 33 27 34 28 36 29 37 30 38 91 39 31 40 90 41 32 42 33 43
REMARK SMILES IDX 34 44 84 45 35 46 89 47 83 48 85 49 36 50 88 51 82 52 81 53
REMARK SMILES IDX 37 55 69 56 49 57 68 58 50 59 53 60 67 61 86 62 51 63 52 64
REMARK SMILES IDX 66 66 87 67 54 68 38 69 39 70 47 71 40 72 42 73 48 74 41 75
REMARK SMILES IDX 43 76 44 77 45 78 46 79 70 80 71 81 79 82 72 83 74 84 80 85
REMARK SMILES IDX 73 86 75 87 76 88 77 89 78 90 55 91 56 92 64 93 57 94 59 95
REMARK SMILES IDX 65 96 58 97 60 98 61 99 62 100 63 101
REMARK H PARENT 19 8 26 35 85 54 53 65
REMARK Flexibility Score: inf
ROOT
ATOM      1  C   UNL A   1      40.307  20.550  25.870  1.00  0.00     0.002 C 
ENDROOT
BRANCH   1   2
ATOM      2  C   UNL A   1      38.959  19.820  25.748  1.00  0.00     0.002 C 
BRANCH   2   3
ATOM      3  C   UNL A   1      37.924  20.367  24.755  1.00  0.00     0.021 C 
BRANCH   3   4
ATOM      4  C   UNL A   1      37.132  21.595  25.198  1.00  0.00     0.116 C 
BRANCH   4   5
ATOM      5  N   UNL A   1      36.518  22.301  24.101  1.00  0.00    -0.352 N 
ATOM      6  C   UNL A   1      35.480  23.175  24.089  1.00  0.00     0.251 C 
ATOM      7  O   UNL A   1      35.163  23.677  23.012  1.00  0.00    -0.270 OA
ATOM      8  H   UNL A   1      36.915  22.120  23.218  1.00  0.00     0.163 HD
BRANCH   6   9
ATOM      9  C   UNL A   1      34.701  23.471  25.349  1.00  0.00     0.067 C 
ATOM     10  C   UNL A   1      32.077  26.057  24.758  1.00  0.00     0.012 A 
ATOM     11  C   UNL A   1      30.886  26.059  23.988  1.00  0.00     0.049 A 
ATOM     12  C   UNL A   1      32.747  24.814  24.911  1.00  0.00     0.027 A 
ATOM     13  Cl  UNL A   1      30.039  27.524  23.601  1.00  0.00    -0.084 Cl
ATOM     14  C   UNL A   1      30.329  24.875  23.490  1.00  0.00     0.025 A 
ATOM     15  C   UNL A   1      32.106  23.623  24.506  1.00  0.00     0.128 A 
ATOM     16  C   UNL A   1      34.143  24.701  25.410  1.00  0.00     0.026 C 
ATOM     17  C   UNL A   1      30.917  23.654  23.786  1.00  0.00     0.049 A 
ATOM     18  O   UNL A   1      32.584  22.364  24.781  1.00  0.00    -0.475 OA
ATOM     19  C   UNL A   1      33.760  22.304  25.626  1.00  0.00     0.314 C 
BRANCH  10  20
ATOM     20  C   UNL A   1      32.485  27.282  25.502  1.00  0.00    -0.013 A 
ATOM     21  C   UNL A   1      33.987  28.259  23.663  1.00  0.00     0.045 C 
ATOM     22  C   UNL A   1      33.341  28.289  25.016  1.00  0.00    -0.043 A 
ATOM     23  C   UNL A   1      33.659  29.392  25.838  1.00  0.00     0.004 A 
ATOM     24  C   UNL A   1      33.116  29.529  27.112  1.00  0.00     0.000 A 
ATOM     25  C   UNL A   1      31.960  27.445  26.807  1.00  0.00     0.009 A 
ATOM     26  C   UNL A   1      32.257  28.557  27.597  1.00  0.00     0.001 A 
ENDBRANCH  10  20
BRANCH  19  27
ATOM     27  C   UNL A   1      33.389  22.171  27.110  1.00  0.00     0.429 C 
ATOM     28  F   UNL A   1      32.177  22.722  27.365  1.00  0.00    -0.167 F 
ATOM     29  F   UNL A   1      33.313  20.870  27.483  1.00  0.00    -0.167 F 
ATOM     30  F   UNL A   1      34.279  22.771  27.935  1.00  0.00    -0.167 F 
ENDBRANCH  19  27
ENDBRANCH   6   9
ENDBRANCH   4   5
ENDBRANCH   3   4
ENDBRANCH   2   3
ENDBRANCH   1   2
BRANCH   1  31
ATOM     31  C   UNL A   1      40.768  20.974  27.267  1.00  0.00     0.021 C 
BRANCH  31  32
ATOM     32  C   UNL A   1      40.490  22.426  27.630  1.00  0.00     0.116 C 
BRANCH  32  33
ATOM     33  N   UNL A   1      39.449  23.066  26.842  1.00  0.00    -0.352 N 
ATOM     34  C   UNL A   1      38.872  24.313  27.009  1.00  0.00     0.251 C 
ATOM     35  H   UNL A   1      39.106  22.538  26.085  1.00  0.00     0.163 HD
ATOM     36  O   UNL A   1      37.911  24.616  26.302  1.00  0.00    -0.269 OA
BRANCH  34  37
ATOM     37  C   UNL A   1      39.485  25.306  27.932  1.00  0.00     0.039 A 
ATOM     38  C   UNL A   1      38.952  25.432  29.222  1.00  0.00     0.014 A 
ATOM     39  C   UNL A   1      40.411  26.242  27.477  1.00  0.00     0.014 A 
ATOM     40  C   UNL A   1      39.128  26.622  29.928  1.00  0.00     0.010 A 
ATOM     41  C   UNL A   1      40.512  27.455  28.125  1.00  0.00     0.010 A 
ATOM     42  C   UNL A   1      39.806  27.668  29.309  1.00  0.00    -0.014 A 
BRANCH  42  43
ATOM     43  C   UNL A   1      39.764  29.052  29.751  1.00  0.00     0.031 A 
ATOM     44  C   UNL A   1      38.778  29.993  29.206  1.00  0.00     0.074 A 
ATOM     45  C   UNL A   1      40.538  29.415  30.800  1.00  0.00     0.049 A 
ATOM     46  N   UNL A   1      38.893  31.273  29.300  1.00  0.00    -0.248 NA
ATOM     47  C   UNL A   1      37.577  29.556  28.511  1.00  0.00     0.031 C 
ATOM     48  C   UNL A   1      40.412  30.598  31.642  1.00  0.00     0.029 A 
ATOM     49  N   UNL A   1      41.761  28.861  31.178  1.00  0.00    -0.354 N 
ATOM     50  C   UNL A   1      37.679  31.814  28.950  1.00  0.00     0.074 A 
ATOM     51  C   UNL A   1      36.919  30.714  28.396  1.00  0.00     0.031 C 
ATOM     52  C   UNL A   1      41.602  30.847  32.211  1.00  0.00     0.029 A 
ATOM     53  C   UNL A   1      42.559  29.940  31.601  1.00  0.00     0.049 A 
ATOM     54  H   UNL A   1      42.014  27.910  31.153  1.00  0.00     0.167 HD
ATOM     55  C   UNL A   1      37.390  33.092  29.320  1.00  0.00     0.034 A 
ATOM     56  C   UNL A   1      43.725  30.299  30.984  1.00  0.00     0.034 A 
ATOM     57  C   UNL A   1      38.512  33.716  30.035  1.00  0.00     0.049 A 
ATOM     58  C   UNL A   1      43.739  31.748  30.503  1.00  0.00     0.074 A 
ATOM     59  C   UNL A   1      38.801  33.943  31.372  1.00  0.00     0.029 A 
ATOM     60  N   UNL A   1      39.690  33.958  29.349  1.00  0.00    -0.354 N 
ATOM     61  N   UNL A   1      42.763  32.600  30.660  1.00  0.00    -0.248 NA
ATOM     62  C   UNL A   1      44.824  32.302  29.694  1.00  0.00     0.031 C 
ATOM     63  C   UNL A   1      40.168  34.332  31.478  1.00  0.00     0.029 A 
ATOM     64  C   UNL A   1      40.706  34.356  30.205  1.00  0.00     0.049 A 
ATOM     65  H   UNL A   1      39.794  33.860  28.374  1.00  0.00     0.167 HD
ATOM     66  C   UNL A   1      42.972  33.695  29.853  1.00  0.00     0.074 A 
ATOM     67  C   UNL A   1      44.294  33.469  29.293  1.00  0.00     0.031 C 
ATOM     68  C   UNL A   1      42.013  34.653  29.637  1.00  0.00     0.034 A 
BRANCH  55  69
ATOM     69  C   UNL A   1      35.983  33.652  29.313  1.00  0.00     0.023 A 
ATOM     70  C   UNL A   1      35.350  33.817  28.062  1.00  0.00     0.012 A 
ATOM     71  C   UNL A   1      35.257  34.086  30.445  1.00  0.00     0.148 A 
ATOM     72  C   UNL A   1      34.126  34.477  27.923  1.00  0.00     0.002 A 
ATOM     73  C   UNL A   1      34.074  34.817  30.302  1.00  0.00     0.091 A 
ATOM     74  F   UNL A   1      35.676  33.739  31.670  1.00  0.00    -0.205 F 
ATOM     75  C   UNL A   1      33.508  35.016  29.039  1.00  0.00     0.022 A 
BRANCH  73  76
ATOM     76  S   UNL A   1      33.284  35.658  31.684  1.00  0.00     0.127 S 
ATOM     77  O   UNL A   1      32.239  36.438  31.015  1.00  0.00    -0.237 OA
ATOM     78  O   UNL A   1      32.787  34.548  32.492  1.00  0.00    -0.237 OA
ATOM     79  O   UNL A   1      34.325  36.476  32.296  1.00  0.00    -0.744 OA
ENDBRANCH  73  76
ENDBRANCH  55  69
BRANCH  56  80
ATOM     80  C   UNL A   1      44.380  29.159  30.261  1.00  0.00     0.023 A 
ATOM     81  C   UNL A   1      43.872  28.819  28.982  1.00  0.00     0.012 A 
ATOM     82  C   UNL A   1      45.672  28.727  30.605  1.00  0.00     0.148 A 
ATOM     83  C   UNL A   1      44.699  28.242  28.015  1.00  0.00     0.002 A 
ATOM     84  C   UNL A   1      46.477  28.119  29.646  1.00  0.00     0.091 A 
ATOM     85  F   UNL A   1      46.141  28.981  31.832  1.00  0.00    -0.205 F 
ATOM     86  C   UNL A   1      46.015  27.926  28.336  1.00  0.00     0.022 A 
BRANCH  84  87
ATOM     87  S   UNL A   1      48.173  27.686  30.050  1.00  0.00     0.127 S 
ATOM     88  O   UNL A   1      48.595  26.996  28.835  1.00  0.00    -0.237 OA
ATOM     89  O   UNL A   1      48.798  28.989  30.268  1.00  0.00    -0.237 OA
ATOM     90  O   UNL A   1      48.053  26.876  31.255  1.00  0.00    -0.744 OA
ENDBRANCH  84  87
ENDBRANCH  56  80
BRANCH  68  91
ATOM     91  C   UNL A   1      42.197  35.916  28.799  1.00  0.00     0.023 A 
ATOM     92  C   UNL A   1      41.867  35.954  27.431  1.00  0.00     0.012 A 
ATOM     93  C   UNL A   1      42.799  37.095  29.325  1.00  0.00     0.148 A 
ATOM     94  C   UNL A   1      41.979  37.123  26.668  1.00  0.00     0.002 A 
ATOM     95  C   UNL A   1      42.937  38.250  28.558  1.00  0.00     0.091 A 
ATOM     96  F   UNL A   1      43.295  37.099  30.565  1.00  0.00    -0.205 F 
ATOM     97  C   UNL A   1      42.496  38.278  27.236  1.00  0.00     0.022 A 
BRANCH  95  98
ATOM     98  S   UNL A   1      43.715  39.744  29.192  1.00  0.00     0.127 S 
ATOM     99  O   UNL A   1      45.115  39.329  29.284  1.00  0.00    -0.237 OA
ATOM    100  O   UNL A   1      43.434  40.706  28.126  1.00  0.00    -0.237 OA
ATOM    101  O   UNL A   1      43.067  40.037  30.463  1.00  0.00    -0.744 OA
ENDBRANCH  95  98
ENDBRANCH  68  91
ENDBRANCH  42  43
ENDBRANCH  34  37
ENDBRANCH  32  33
ENDBRANCH  31  32
ENDBRANCH   1  31
TORSDOF 18
ENDMDL
MODEL 3
REMARK VINA RESULT:     -12.9      4.871     10.483
REMARK SMILES Cc1ccccc1-c1c(Cl)ccc2c1C=C(C(=O)NCCCCCCNC(=O)c1ccc(-c3c4nc(c(-c5cccc(S(=O)(=O)[O-])c5F)c5ccc([nH]5)c(-c5cccc(S(=O)(=O)[O-])c5F)c5nc(c(-c6cccc(S(=O)(=O)[O-])c6F)c6ccc3[nH]6)C=C5)C=C4)cc1)[C@@H](C(F)(F)F)O2
REMARK SMILES IDX 23 1 22 2 21 3 20 4 19 5 17 6 18 7 16 9 8 10 9 11 14 12
REMARK SMILES IDX 10 13 11 14 13 15 15 16 12 17 97 18 92 19 7 20 1 21 2 22
REMARK SMILES IDX 3 23 4 24 6 25 5 26 93 27 94 28 95 29 96 30 24 31 25 32
REMARK SMILES IDX 26 33 27 34 28 36 29 37 30 38 91 39 31 40 90 41 32 42 33 43
REMARK SMILES IDX 34 44 84 45 35 46 89 47 83 48 85 49 36 50 88 51 82 52 81 53
REMARK SMILES IDX 37 55 69 56 49 57 68 58 50 59 53 60 67 61 86 62 51 63 52 64
REMARK SMILES IDX 66 66 87 67 54 68 38 69 39 70 47 71 40 72 42 73 48 74 41 75
REMARK SMILES IDX 43 76 44 77 45 78 46 79 70 80 71 81 79 82 72 83 74 84 80 85
REMARK SMILES IDX 73 86 75 87 76 88 77 89 78 90 55 91 56 92 64 93 57 94 59 95
REMARK SMILES IDX 65 96 58 97 60 98 61 99 62 100 63 101
REMARK H PARENT 19 8 26 35 85 54 53 65
REMARK Flexibility Score: inf
ROOT
ATOM      1  C   UNL A   1      34.313  32.268  27.841  1.00  0.00     0.002 C 
ENDROOT
BRANCH   1   2
ATOM      2  C   UNL A   1      35.627  31.473  27.763  1.00  0.00     0.002 C 
BRANCH   2   3
ATOM      3  C   UNL A   1      35.583  29.967  28.061  1.00  0.00     0.021 C 
BRANCH   3   4
ATOM      4  C   UNL A   1      34.714  29.112  27.142  1.00  0.00     0.116 C 
BRANCH   4   5
ATOM      5  N   UNL A   1      33.447  28.751  27.731  1.00  0.00    -0.352 N 
ATOM      6  C   UNL A   1      32.438  27.987  27.244  1.00  0.00     0.251 C 
ATOM      7  O   UNL A   1      31.461  27.797  27.967  1.00  0.00    -0.270 OA
ATOM      8  H   UNL A   1      33.291  29.119  28.630  1.00  0.00     0.163 HD
BRANCH   6   9
ATOM      9  C   UNL A   1      32.487  27.440  25.837  1.00  0.00     0.067 C 
ATOM     10  C   UNL A   1      33.206  23.779  25.815  1.00  0.00     0.012 A 
ATOM     11  C   UNL A   1      32.465  22.652  26.256  1.00  0.00     0.049 A 
ATOM     12  C   UNL A   1      32.532  25.030  25.801  1.00  0.00     0.027 A 
ATOM     13  Cl  UNL A   1      33.196  21.089  26.457  1.00  0.00    -0.084 Cl
ATOM     14  C   UNL A   1      31.102  22.740  26.562  1.00  0.00     0.025 A 
ATOM     15  C   UNL A   1      31.135  25.072  25.996  1.00  0.00     0.128 A 
ATOM     16  C   UNL A   1      33.241  26.331  25.672  1.00  0.00     0.026 C 
ATOM     17  C   UNL A   1      30.429  23.940  26.390  1.00  0.00     0.049 A 
ATOM     18  O   UNL A   1      30.369  26.198  25.815  1.00  0.00    -0.475 OA
ATOM     19  C   UNL A   1      31.065  27.359  25.296  1.00  0.00     0.314 C 
BRANCH  10  20
ATOM     20  C   UNL A   1      34.566  23.597  25.235  1.00  0.00    -0.013 A 
ATOM     21  C   UNL A   1      33.806  23.187  22.817  1.00  0.00     0.045 C 
ATOM     22  C   UNL A   1      34.852  23.338  23.882  1.00  0.00    -0.043 A 
ATOM     23  C   UNL A   1      36.192  23.169  23.470  1.00  0.00     0.004 A 
ATOM     24  C   UNL A   1      37.248  23.290  24.369  1.00  0.00     0.000 A 
ATOM     25  C   UNL A   1      35.662  23.702  26.126  1.00  0.00     0.009 A 
ATOM     26  C   UNL A   1      36.984  23.566  25.701  1.00  0.00     0.001 A 
ENDBRANCH  10  20
BRANCH  19  27
ATOM     27  C   UNL A   1      31.001  27.423  23.763  1.00  0.00     0.429 C 
ATOM     28  F   UNL A   1      30.997  26.181  23.219  1.00  0.00    -0.167 F 
ATOM     29  F   UNL A   1      29.867  28.037  23.343  1.00  0.00    -0.167 F 
ATOM     30  F   UNL A   1      32.042  28.094  23.216  1.00  0.00    -0.167 F 
ENDBRANCH  19  27
ENDBRANCH   6   9
ENDBRANCH   4   5
ENDBRANCH   3   4
ENDBRANCH   2   3
ENDBRANCH   1   2
BRANCH   1  31
ATOM     31  C   UNL A   1      33.995  32.999  29.147  1.00  0.00     0.021 C 
BRANCH  31  32
ATOM     32  C   UNL A   1      34.452  34.450  29.208  1.00  0.00     0.116 C 
BRANCH  32  33
ATOM     33  N   UNL A   1      34.977  34.872  30.496  1.00  0.00    -0.352 N 
ATOM     34  C   UNL A   1      35.924  34.255  31.297  1.00  0.00     0.251 C 
ATOM     35  H   UNL A   1      34.607  35.714  30.849  1.00  0.00     0.163 HD
ATOM     36  O   UNL A   1      36.139  34.718  32.417  1.00  0.00    -0.269 OA
BRANCH  34  37
ATOM     37  C   UNL A   1      36.750  33.141  30.758  1.00  0.00     0.039 A 
ATOM     38  C   UNL A   1      36.601  31.869  31.326  1.00  0.00     0.014 A 
ATOM     39  C   UNL A   1      37.799  33.380  29.873  1.00  0.00     0.014 A 
ATOM     40  C   UNL A   1      37.641  30.944  31.230  1.00  0.00     0.010 A 
ATOM     41  C   UNL A   1      38.869  32.510  29.851  1.00  0.00     0.010 A 
ATOM     42  C   UNL A   1      38.817  31.331  30.595  1.00  0.00    -0.014 A 
BRANCH  42  43
ATOM     43  C   UNL A   1      40.088  30.636  30.720  1.00  0.00     0.031 A 
ATOM     44  C   UNL A   1      40.360  29.411  29.958  1.00  0.00     0.074 A 
ATOM     45  C   UNL A   1      41.081  31.232  31.419  1.00  0.00     0.049 A 
ATOM     46  N   UNL A   1      41.302  28.585  30.259  1.00  0.00    -0.248 NA
ATOM     47  C   UNL A   1      39.586  29.026  28.789  1.00  0.00     0.031 C 
ATOM     48  C   UNL A   1      42.508  30.935  31.386  1.00  0.00     0.029 A 
ATOM     49  N   UNL A   1      40.946  32.114  32.492  1.00  0.00    -0.354 N 
ATOM     50  C   UNL A   1      41.448  27.733  29.190  1.00  0.00     0.074 A 
ATOM     51  C   UNL A   1      40.311  27.999  28.334  1.00  0.00     0.031 C 
ATOM     52  C   UNL A   1      43.062  31.367  32.529  1.00  0.00     0.029 A 
ATOM     53  C   UNL A   1      41.973  31.781  33.396  1.00  0.00     0.049 A 
ATOM     54  H   UNL A   1      40.271  32.822  32.596  1.00  0.00     0.167 HD
ATOM     55  C   UNL A   1      42.600  27.018  29.062  1.00  0.00     0.034 A 
ATOM     56  C   UNL A   1      41.738  31.328  34.665  1.00  0.00     0.034 A 
ATOM     57  C   UNL A   1      43.519  27.268  30.182  1.00  0.00     0.049 A 
ATOM     58  C   UNL A   1      42.380  29.974  34.956  1.00  0.00     0.074 A 
ATOM     59  C   UNL A   1      44.641  28.065  30.351  1.00  0.00     0.029 A 
ATOM     60  N   UNL A   1      43.154  26.855  31.452  1.00  0.00    -0.354 N 
ATOM     61  N   UNL A   1      43.102  29.288  34.112  1.00  0.00    -0.248 NA
ATOM     62  C   UNL A   1      42.141  29.237  36.196  1.00  0.00     0.031 C 
ATOM     63  C   UNL A   1      44.950  28.118  31.742  1.00  0.00     0.029 A 
ATOM     64  C   UNL A   1      44.025  27.342  32.415  1.00  0.00     0.049 A 
ATOM     65  H   UNL A   1      42.374  26.285  31.647  1.00  0.00     0.167 HD
ATOM     66  C   UNL A   1      43.257  28.003  34.577  1.00  0.00     0.074 A 
ATOM     67  C   UNL A   1      42.662  28.034  35.902  1.00  0.00     0.031 C 
ATOM     68  C   UNL A   1      43.781  26.993  33.808  1.00  0.00     0.034 A 
BRANCH  55  69
ATOM     69  C   UNL A   1      43.014  26.349  27.769  1.00  0.00     0.023 A 
ATOM     70  C   UNL A   1      43.408  27.181  26.698  1.00  0.00     0.012 A 
ATOM     71  C   UNL A   1      42.987  24.961  27.507  1.00  0.00     0.148 A 
ATOM     72  C   UNL A   1      43.648  26.686  25.413  1.00  0.00     0.002 A 
ATOM     73  C   UNL A   1      43.146  24.473  26.206  1.00  0.00     0.091 A 
ATOM     74  F   UNL A   1      42.869  24.099  28.526  1.00  0.00    -0.205 F 
ATOM     75  C   UNL A   1      43.474  25.336  25.156  1.00  0.00     0.022 A 
BRANCH  73  76
ATOM     76  S   UNL A   1      42.809  22.759  25.769  1.00  0.00     0.127 S 
ATOM     77  O   UNL A   1      43.172  22.725  24.349  1.00  0.00    -0.237 OA
ATOM     78  O   UNL A   1      43.717  22.022  26.644  1.00  0.00    -0.237 OA
ATOM     79  O   UNL A   1      41.385  22.561  26.014  1.00  0.00    -0.744 OA
ENDBRANCH  73  76
ENDBRANCH  55  69
BRANCH  56  80
ATOM     80  C   UNL A   1      40.415  31.776  35.211  1.00  0.00     0.023 A 
ATOM     81  C   UNL A   1      39.257  31.091  34.762  1.00  0.00     0.012 A 
ATOM     82  C   UNL A   1      40.334  32.518  36.401  1.00  0.00     0.148 A 
ATOM     83  C   UNL A   1      38.125  30.992  35.574  1.00  0.00     0.002 A 
ATOM     84  C   UNL A   1      39.187  32.443  37.187  1.00  0.00     0.091 A 
ATOM     85  F   UNL A   1      41.396  33.225  36.804  1.00  0.00    -0.205 F 
ATOM     86  C   UNL A   1      38.105  31.638  36.806  1.00  0.00     0.022 A 
BRANCH  84  87
ATOM     87  S   UNL A   1      39.136  33.289  38.772  1.00  0.00     0.127 S 
ATOM     88  O   UNL A   1      39.305  34.680  38.366  1.00  0.00    -0.237 OA
ATOM     89  O   UNL A   1      37.806  32.951  39.276  1.00  0.00    -0.237 OA
ATOM     90  O   UNL A   1      40.227  32.689  39.528  1.00  0.00    -0.744 OA
ENDBRANCH  84  87
ENDBRANCH  56  80
BRANCH  68  91
ATOM     91  C   UNL A   1      44.030  25.561  34.277  1.00  0.00     0.023 A 
ATOM     92  C   UNL A   1      42.972  24.670  34.537  1.00  0.00     0.012 A 
ATOM     93  C   UNL A   1      45.336  25.075  34.569  1.00  0.00     0.148 A 
ATOM     94  C   UNL A   1      43.191  23.339  34.913  1.00  0.00     0.002 A 
ATOM     95  C   UNL A   1      45.553  23.759  34.972  1.00  0.00     0.091 A 
ATOM     96  F   UNL A   1      46.387  25.897  34.512  1.00  0.00    -0.205 F 
ATOM     97  C   UNL A   1      44.483  22.877  35.111  1.00  0.00     0.022 A 
BRANCH  95  98
ATOM     98  S   UNL A   1      47.191  23.127  35.369  1.00  0.00     0.127 S 
ATOM     99  O   UNL A   1      46.978  21.682  35.274  1.00  0.00    -0.237 OA
ATOM    100  O   UNL A   1      48.002  23.694  34.291  1.00  0.00    -0.237 OA
ATOM    101  O   UNL A   1      47.512  23.624  36.699  1.00  0.00    -0.744 OA
ENDBRANCH  95  98
ENDBRANCH  68  91
ENDBRANCH  42  43
ENDBRANCH  34  37
ENDBRANCH  32  33
ENDBRANCH  31  32
ENDBRANCH   1  31
TORSDOF 18
ENDMDL
