MODEL 1
REMARK VINA RESULT:     -11.9      0.000      0.000
REMARK SMILES O=C(NCCCCCCNC(=O)c1ccc(-c2c3nc(c(-c4cccc(S(=O)(=O)[O-])c4F)c4ccc([nH]4)c(-c4cccc(S(=O)(=O)[O-])c4F)c4nc(c(-c5cccc(S(=O)(=O)[O-])c5F)c5ccc2[nH]5)C=C4)C=C3)cc1)C1=Cc2cc(Cl)ccc2O[C@@H]1C(F)(F)F
REMARK SMILES IDX 7 1 6 2 5 3 4 4 3 5 1 6 2 7 76 9 77 10 86 11 78 12 85 13
REMARK SMILES IDX 79 14 84 15 80 16 83 17 81 18 82 19 87 20 88 21 89 22 90 23
REMARK SMILES IDX 8 24 9 25 10 26 11 27 12 29 13 30 14 31 75 32 15 33 74 34
REMARK SMILES IDX 16 35 17 36 18 37 68 38 19 39 73 40 67 41 69 42 20 43 72 44
REMARK SMILES IDX 66 45 65 46 21 48 53 49 33 50 52 51 34 52 37 53 51 54 70 55
REMARK SMILES IDX 35 56 36 57 50 59 71 60 38 61 22 62 23 63 31 64 24 65 26 66
REMARK SMILES IDX 32 67 25 68 27 69 28 70 29 71 30 72 54 73 55 74 63 75 56 76
REMARK SMILES IDX 58 77 64 78 57 79 59 80 60 81 61 82 62 83 39 84 40 85 48 86
REMARK SMILES IDX 41 87 43 88 49 89 42 90 44 91 45 92 46 93 47 94
REMARK H PARENT 3 8 10 28 69 47 37 58
REMARK Flexibility Score: inf
ROOT
ATOM      1  C   UNL A   1      33.629  29.916  27.338  1.00  0.00     0.002 C 
ENDROOT
BRANCH   1   2
ATOM      2  C   UNL A   1      34.337  28.820  26.531  1.00  0.00     0.002 C 
BRANCH   2   3
ATOM      3  C   UNL A   1      33.601  27.490  26.386  1.00  0.00     0.021 C 
BRANCH   3   4
ATOM      4  C   UNL A   1      33.758  26.771  25.051  1.00  0.00     0.116 C 
BRANCH   4   5
ATOM      5  N   UNL A   1      33.755  27.622  23.875  1.00  0.00    -0.352 N 
ATOM      6  O   UNL A   1      32.960  29.103  22.388  1.00  0.00    -0.270 OA
ATOM      7  C   UNL A   1      32.726  28.330  23.318  1.00  0.00     0.251 C 
ATOM      8  H   UNL A   1      34.619  27.699  23.410  1.00  0.00     0.163 HD
BRANCH   7   9
ATOM      9  C   UNL A   1      31.328  28.276  23.849  1.00  0.00     0.067 C 
ATOM     10  C   UNL A   1      30.761  29.299  24.513  1.00  0.00     0.025 C 
ATOM     11  C   UNL A   1      30.435  27.361  23.037  1.00  0.00     0.314 C 
ATOM     12  C   UNL A   1      29.773  30.001  23.647  1.00  0.00     0.019 A 
ATOM     13  O   UNL A   1      29.627  28.117  22.094  1.00  0.00    -0.475 OA
ATOM     14  C   UNL A   1      29.504  31.350  23.908  1.00  0.00     0.032 A 
ATOM     15  C   UNL A   1      29.346  29.415  22.444  1.00  0.00     0.128 A 
ATOM     16  C   UNL A   1      28.906  32.128  22.918  1.00  0.00     0.041 A 
ATOM     17  C   UNL A   1      28.711  30.194  21.479  1.00  0.00     0.048 A 
ATOM     18  Cl  UNL A   1      28.773  33.827  23.149  1.00  0.00    -0.084 Cl
ATOM     19  C   UNL A   1      28.516  31.559  21.705  1.00  0.00     0.024 A 
BRANCH  11  20
ATOM     20  C   UNL A   1      29.569  26.444  23.912  1.00  0.00     0.429 C 
ATOM     21  F   UNL A   1      28.273  26.838  23.908  1.00  0.00    -0.167 F 
ATOM     22  F   UNL A   1      29.588  25.163  23.463  1.00  0.00    -0.167 F 
ATOM     23  F   UNL A   1      29.976  26.414  25.203  1.00  0.00    -0.167 F 
ENDBRANCH  11  20
ENDBRANCH   7   9
ENDBRANCH   4   5
ENDBRANCH   3   4
ENDBRANCH   2   3
ENDBRANCH   1   2
BRANCH   1  24
ATOM     24  C   UNL A   1      33.171  31.161  26.570  1.00  0.00     0.021 C 
BRANCH  24  25
ATOM     25  C   UNL A   1      31.955  31.895  27.126  1.00  0.00     0.116 C 
BRANCH  25  26
ATOM     26  N   UNL A   1      32.157  33.330  27.231  1.00  0.00    -0.352 N 
ATOM     27  C   UNL A   1      33.119  34.041  27.907  1.00  0.00     0.251 C 
ATOM     28  H   UNL A   1      31.502  33.879  26.742  1.00  0.00     0.163 HD
ATOM     29  O   UNL A   1      33.026  35.263  27.975  1.00  0.00    -0.269 OA
BRANCH  27  30
ATOM     30  C   UNL A   1      34.252  33.349  28.567  1.00  0.00     0.039 A 
ATOM     31  C   UNL A   1      35.513  33.408  27.965  1.00  0.00     0.014 A 
ATOM     32  C   UNL A   1      34.079  32.621  29.747  1.00  0.00     0.014 A 
ATOM     33  C   UNL A   1      36.607  32.786  28.574  1.00  0.00     0.010 A 
ATOM     34  C   UNL A   1      35.184  32.065  30.391  1.00  0.00     0.010 A 
ATOM     35  C   UNL A   1      36.459  32.132  29.808  1.00  0.00    -0.014 A 
BRANCH  35  36
ATOM     36  C   UNL A   1      37.624  31.520  30.500  1.00  0.00     0.031 A 
ATOM     37  C   UNL A   1      38.455  30.469  29.811  1.00  0.00     0.074 A 
ATOM     38  C   UNL A   1      37.893  31.857  31.777  1.00  0.00     0.049 A 
ATOM     39  N   UNL A   1      39.483  29.801  30.267  1.00  0.00    -0.248 NA
ATOM     40  C   UNL A   1      38.067  30.102  28.438  1.00  0.00     0.031 C 
ATOM     41  C   UNL A   1      37.124  32.810  32.581  1.00  0.00     0.029 A 
ATOM     42  N   UNL A   1      38.874  31.421  32.634  1.00  0.00    -0.354 N 
ATOM     43  C   UNL A   1      39.836  28.909  29.261  1.00  0.00     0.074 A 
ATOM     44  C   UNL A   1      38.898  29.103  28.178  1.00  0.00     0.031 C 
ATOM     45  C   UNL A   1      37.666  32.895  33.807  1.00  0.00     0.029 A 
ATOM     46  C   UNL A   1      38.800  31.979  33.890  1.00  0.00     0.049 A 
ATOM     47  H   UNL A   1      39.566  30.770  32.374  1.00  0.00     0.167 HD
ATOM     48  C   UNL A   1      40.861  28.024  29.231  1.00  0.00     0.034 A 
ATOM     49  C   UNL A   1      39.554  31.772  34.989  1.00  0.00     0.034 A 
ATOM     50  C   UNL A   1      41.822  27.867  30.291  1.00  0.00     0.049 A 
ATOM     51  C   UNL A   1      40.706  30.806  34.913  1.00  0.00     0.074 A 
ATOM     52  C   UNL A   1      42.956  27.075  30.311  1.00  0.00     0.029 A 
ATOM     53  N   UNL A   1      41.755  28.502  31.521  1.00  0.00    -0.354 N 
ATOM     54  N   UNL A   1      41.125  30.098  33.892  1.00  0.00    -0.248 NA
ATOM     55  C   UNL A   1      41.513  30.636  36.130  1.00  0.00     0.031 C 
ATOM     56  C   UNL A   1      43.555  27.202  31.568  1.00  0.00     0.029 A 
ATOM     57  C   UNL A   1      42.816  28.105  32.315  1.00  0.00     0.049 A 
ATOM     58  H   UNL A   1      41.056  29.142  31.789  1.00  0.00     0.167 HD
ATOM     59  C   UNL A   1      42.266  29.434  34.331  1.00  0.00     0.074 A 
ATOM     60  C   UNL A   1      42.483  29.840  35.703  1.00  0.00     0.031 C 
ATOM     61  C   UNL A   1      43.055  28.559  33.661  1.00  0.00     0.034 A 
BRANCH  48  62
ATOM     62  C   UNL A   1      41.029  27.175  27.997  1.00  0.00     0.023 A 
ATOM     63  C   UNL A   1      41.654  27.715  26.855  1.00  0.00     0.012 A 
ATOM     64  C   UNL A   1      40.642  25.821  27.998  1.00  0.00     0.148 A 
ATOM     65  C   UNL A   1      41.862  26.930  25.721  1.00  0.00     0.002 A 
ATOM     66  C   UNL A   1      40.895  25.032  26.882  1.00  0.00     0.091 A 
ATOM     67  F   UNL A   1      40.033  25.330  29.087  1.00  0.00    -0.205 F 
ATOM     68  C   UNL A   1      41.494  25.587  25.739  1.00  0.00     0.022 A 
BRANCH  66  69
ATOM     69  S   UNL A   1      40.538  23.272  26.835  1.00  0.00     0.127 S 
ATOM     70  O   UNL A   1      39.099  23.271  26.568  1.00  0.00    -0.237 OA
ATOM     71  O   UNL A   1      41.366  22.820  25.718  1.00  0.00    -0.237 OA
ATOM     72  O   UNL A   1      40.928  22.746  28.136  1.00  0.00    -0.744 OA
ENDBRANCH  66  69
ENDBRANCH  48  62
BRANCH  49  73
ATOM     73  C   UNL A   1      39.287  32.536  36.241  1.00  0.00     0.023 A 
ATOM     74  C   UNL A   1      39.907  33.788  36.430  1.00  0.00     0.012 A 
ATOM     75  C   UNL A   1      38.428  32.040  37.239  1.00  0.00     0.148 A 
ATOM     76  C   UNL A   1      39.712  34.509  37.608  1.00  0.00     0.002 A 
ATOM     77  C   UNL A   1      38.191  32.790  38.385  1.00  0.00     0.091 A 
ATOM     78  F   UNL A   1      37.856  30.843  37.047  1.00  0.00    -0.205 F 
ATOM     79  C   UNL A   1      38.847  34.015  38.581  1.00  0.00     0.022 A 
BRANCH  77  80
ATOM     80  S   UNL A   1      36.995  32.295  39.631  1.00  0.00     0.127 S 
ATOM     81  O   UNL A   1      37.175  33.328  40.646  1.00  0.00    -0.237 OA
ATOM     82  O   UNL A   1      35.736  32.370  38.889  1.00  0.00    -0.237 OA
ATOM     83  O   UNL A   1      37.377  30.945  40.025  1.00  0.00    -0.744 OA
ENDBRANCH  77  80
ENDBRANCH  49  73
BRANCH  61  84
ATOM     84  C   UNL A   1      44.262  28.011  34.378  1.00  0.00     0.023 A 
ATOM     85  C   UNL A   1      45.480  28.718  34.353  1.00  0.00     0.012 A 
ATOM     86  C   UNL A   1      44.164  26.829  35.139  1.00  0.00     0.148 A 
ATOM     87  C   UNL A   1      46.592  28.239  35.045  1.00  0.00     0.002 A 
ATOM     88  C   UNL A   1      45.260  26.386  35.869  1.00  0.00     0.091 A 
ATOM     89  F   UNL A   1      43.002  26.161  35.136  1.00  0.00    -0.205 F 
ATOM     90  C   UNL A   1      46.478  27.081  35.812  1.00  0.00     0.022 A 
BRANCH  88  91
ATOM     91  S   UNL A   1      45.177  24.965  36.964  1.00  0.00     0.127 S 
ATOM     92  O   UNL A   1      46.565  24.851  37.410  1.00  0.00    -0.237 OA
ATOM     93  O   UNL A   1      44.242  25.422  37.994  1.00  0.00    -0.237 OA
ATOM     94  O   UNL A   1      44.689  23.858  36.152  1.00  0.00    -0.744 OA
ENDBRANCH  88  91
ENDBRANCH  61  84
ENDBRANCH  35  36
ENDBRANCH  27  30
ENDBRANCH  25  26
ENDBRANCH  24  25
ENDBRANCH   1  24
TORSDOF 17
ENDMDL
MODEL 2
REMARK VINA RESULT:     -11.6      3.023      8.661
REMARK SMILES O=C(NCCCCCCNC(=O)c1ccc(-c2c3nc(c(-c4cccc(S(=O)(=O)[O-])c4F)c4ccc([nH]4)c(-c4cccc(S(=O)(=O)[O-])c4F)c4nc(c(-c5cccc(S(=O)(=O)[O-])c5F)c5ccc2[nH]5)C=C4)C=C3)cc1)C1=Cc2cc(Cl)ccc2O[C@@H]1C(F)(F)F
REMARK SMILES IDX 7 1 6 2 5 3 4 4 3 5 1 6 2 7 76 9 77 10 86 11 78 12 85 13
REMARK SMILES IDX 79 14 84 15 80 16 83 17 81 18 82 19 87 20 88 21 89 22 90 23
REMARK SMILES IDX 8 24 9 25 10 26 11 27 12 29 13 30 14 31 75 32 15 33 74 34
REMARK SMILES IDX 16 35 17 36 18 37 68 38 19 39 73 40 67 41 69 42 20 43 72 44
REMARK SMILES IDX 66 45 65 46 21 48 53 49 33 50 52 51 34 52 37 53 51 54 70 55
REMARK SMILES IDX 35 56 36 57 50 59 71 60 38 61 22 62 23 63 31 64 24 65 26 66
REMARK SMILES IDX 32 67 25 68 27 69 28 70 29 71 30 72 54 73 55 74 63 75 56 76
REMARK SMILES IDX 58 77 64 78 57 79 59 80 60 81 61 82 62 83 39 84 40 85 48 86
REMARK SMILES IDX 41 87 43 88 49 89 42 90 44 91 45 92 46 93 47 94
REMARK H PARENT 3 8 10 28 69 47 37 58
REMARK Flexibility Score: inf
ROOT
ATOM      1  C   UNL A   1      31.387  28.108  24.703  1.00  0.00     0.002 C 
ENDROOT
BRANCH   1   2
ATOM      2  C   UNL A   1      30.464  27.734  23.538  1.00  0.00     0.002 C 
BRANCH   2   3
ATOM      3  C   UNL A   1      31.090  26.944  22.390  1.00  0.00     0.021 C 
BRANCH   3   4
ATOM      4  C   UNL A   1      31.135  25.430  22.556  1.00  0.00     0.116 C 
BRANCH   4   5
ATOM      5  N   UNL A   1      32.258  24.761  21.924  1.00  0.00    -0.352 N 
ATOM      6  O   UNL A   1      33.972  23.328  21.723  1.00  0.00    -0.270 OA
ATOM      7  C   UNL A   1      33.167  23.893  22.463  1.00  0.00     0.251 C 
ATOM      8  H   UNL A   1      32.384  24.963  20.969  1.00  0.00     0.163 HD
BRANCH   7   9
ATOM      9  C   UNL A   1      33.171  23.526  23.914  1.00  0.00     0.067 C 
ATOM     10  C   UNL A   1      33.463  22.288  24.351  1.00  0.00     0.025 C 
ATOM     11  C   UNL A   1      33.504  24.702  24.808  1.00  0.00     0.314 C 
ATOM     12  C   UNL A   1      34.827  22.251  24.947  1.00  0.00     0.019 A 
ATOM     13  O   UNL A   1      34.903  24.682  25.204  1.00  0.00    -0.475 OA
ATOM     14  C   UNL A   1      35.520  21.035  24.942  1.00  0.00     0.032 A 
ATOM     15  C   UNL A   1      35.503  23.448  25.241  1.00  0.00     0.128 A 
ATOM     16  C   UNL A   1      36.903  21.038  25.123  1.00  0.00     0.041 A 
ATOM     17  C   UNL A   1      36.879  23.432  25.462  1.00  0.00     0.048 A 
ATOM     18  Cl  UNL A   1      37.783  19.578  24.900  1.00  0.00    -0.084 Cl
ATOM     19  C   UNL A   1      37.583  22.230  25.376  1.00  0.00     0.024 A 
BRANCH  11  20
ATOM     20  C   UNL A   1      32.575  24.806  26.026  1.00  0.00     0.429 C 
ATOM     21  F   UNL A   1      32.673  26.020  26.619  1.00  0.00    -0.167 F 
ATOM     22  F   UNL A   1      31.273  24.649  25.675  1.00  0.00    -0.167 F 
ATOM     23  F   UNL A   1      32.843  23.874  26.970  1.00  0.00    -0.167 F 
ENDBRANCH  11  20
ENDBRANCH   7   9
ENDBRANCH   4   5
ENDBRANCH   3   4
ENDBRANCH   2   3
ENDBRANCH   1   2
BRANCH   1  24
ATOM     24  C   UNL A   1      31.272  29.534  25.253  1.00  0.00     0.021 C 
BRANCH  24  25
ATOM     25  C   UNL A   1      32.513  30.103  25.935  1.00  0.00     0.116 C 
BRANCH  25  26
ATOM     26  N   UNL A   1      32.353  31.491  26.337  1.00  0.00    -0.352 N 
ATOM     27  C   UNL A   1      33.060  32.234  27.252  1.00  0.00     0.251 C 
ATOM     28  H   UNL A   1      31.625  31.974  25.884  1.00  0.00     0.163 HD
ATOM     29  O   UNL A   1      32.670  33.361  27.541  1.00  0.00    -0.269 OA
BRANCH  27  30
ATOM     30  C   UNL A   1      34.272  31.683  27.904  1.00  0.00     0.039 A 
ATOM     31  C   UNL A   1      35.343  32.545  28.161  1.00  0.00     0.014 A 
ATOM     32  C   UNL A   1      34.376  30.329  28.234  1.00  0.00     0.014 A 
ATOM     33  C   UNL A   1      36.491  32.062  28.796  1.00  0.00     0.010 A 
ATOM     34  C   UNL A   1      35.490  29.866  28.933  1.00  0.00     0.010 A 
ATOM     35  C   UNL A   1      36.565  30.723  29.214  1.00  0.00    -0.014 A 
BRANCH  35  36
ATOM     36  C   UNL A   1      37.752  30.210  29.947  1.00  0.00     0.031 A 
ATOM     37  C   UNL A   1      38.027  30.652  31.361  1.00  0.00     0.074 A 
ATOM     38  C   UNL A   1      38.626  29.401  29.316  1.00  0.00     0.049 A 
ATOM     39  N   UNL A   1      39.027  30.338  32.143  1.00  0.00    -0.248 NA
ATOM     40  C   UNL A   1      37.065  31.588  31.969  1.00  0.00     0.031 C 
ATOM     41  C   UNL A   1      38.513  28.954  27.925  1.00  0.00     0.029 A 
ATOM     42  N   UNL A   1      39.796  28.826  29.752  1.00  0.00    -0.354 N 
ATOM     43  C   UNL A   1      38.841  31.067  33.313  1.00  0.00     0.074 A 
ATOM     44  C   UNL A   1      37.644  31.858  33.130  1.00  0.00     0.031 C 
ATOM     45  C   UNL A   1      39.561  28.168  27.626  1.00  0.00     0.029 A 
ATOM     46  C   UNL A   1      40.439  28.082  28.789  1.00  0.00     0.049 A 
ATOM     47  H   UNL A   1      40.141  28.936  30.667  1.00  0.00     0.167 HD
ATOM     48  C   UNL A   1      39.585  31.063  34.444  1.00  0.00     0.034 A 
ATOM     49  C   UNL A   1      41.608  27.411  28.834  1.00  0.00     0.034 A 
ATOM     50  C   UNL A   1      40.748  30.239  34.641  1.00  0.00     0.049 A 
ATOM     51  C   UNL A   1      42.395  27.399  30.118  1.00  0.00     0.074 A 
ATOM     52  C   UNL A   1      41.506  30.084  35.788  1.00  0.00     0.029 A 
ATOM     53  N   UNL A   1      41.329  29.443  33.667  1.00  0.00    -0.354 N 
ATOM     54  N   UNL A   1      42.109  27.960  31.268  1.00  0.00    -0.248 NA
ATOM     55  C   UNL A   1      43.648  26.632  30.121  1.00  0.00     0.031 C 
ATOM     56  C   UNL A   1      42.568  29.223  35.496  1.00  0.00     0.029 A 
ATOM     57  C   UNL A   1      42.448  28.810  34.179  1.00  0.00     0.049 A 
ATOM     58  H   UNL A   1      40.994  29.343  32.746  1.00  0.00     0.167 HD
ATOM     59  C   UNL A   1      43.122  27.578  32.140  1.00  0.00     0.074 A 
ATOM     60  C   UNL A   1      44.018  26.722  31.391  1.00  0.00     0.031 C 
ATOM     61  C   UNL A   1      43.301  27.915  33.441  1.00  0.00     0.034 A 
BRANCH  48  62
ATOM     62  C   UNL A   1      39.148  31.949  35.583  1.00  0.00     0.023 A 
ATOM     63  C   UNL A   1      38.299  31.436  36.584  1.00  0.00     0.012 A 
ATOM     64  C   UNL A   1      39.645  33.261  35.704  1.00  0.00     0.148 A 
ATOM     65  C   UNL A   1      37.924  32.226  37.671  1.00  0.00     0.002 A 
ATOM     66  C   UNL A   1      39.305  34.026  36.814  1.00  0.00     0.091 A 
ATOM     67  F   UNL A   1      40.437  33.737  34.733  1.00  0.00    -0.205 F 
ATOM     68  C   UNL A   1      38.436  33.515  37.792  1.00  0.00     0.022 A 
BRANCH  66  69
ATOM     69  S   UNL A   1      39.978  35.666  37.106  1.00  0.00     0.127 S 
ATOM     70  O   UNL A   1      39.278  36.058  38.330  1.00  0.00    -0.237 OA
ATOM     71  O   UNL A   1      41.403  35.386  37.282  1.00  0.00    -0.237 OA
ATOM     72  O   UNL A   1      39.653  36.453  35.924  1.00  0.00    -0.744 OA
ENDBRANCH  66  69
ENDBRANCH  48  62
BRANCH  49  73
ATOM     73  C   UNL A   1      42.081  26.642  27.648  1.00  0.00     0.023 A 
ATOM     74  C   UNL A   1      42.751  27.319  26.609  1.00  0.00     0.012 A 
ATOM     75  C   UNL A   1      41.876  25.254  27.539  1.00  0.00     0.148 A 
ATOM     76  C   UNL A   1      43.170  26.637  25.467  1.00  0.00     0.002 A 
ATOM     77  C   UNL A   1      42.348  24.569  26.425  1.00  0.00     0.091 A 
ATOM     78  F   UNL A   1      41.227  24.628  28.530  1.00  0.00    -0.205 F 
ATOM     79  C   UNL A   1      42.976  25.262  25.378  1.00  0.00     0.022 A 
BRANCH  77  80
ATOM     80  S   UNL A   1      42.258  22.780  26.284  1.00  0.00     0.127 S 
ATOM     81  O   UNL A   1      42.834  22.555  24.962  1.00  0.00    -0.237 OA
ATOM     82  O   UNL A   1      43.094  22.346  27.404  1.00  0.00    -0.237 OA
ATOM     83  O   UNL A   1      40.847  22.446  26.426  1.00  0.00    -0.744 OA
ENDBRANCH  77  80
ENDBRANCH  49  73
BRANCH  61  84
ATOM     84  C   UNL A   1      44.482  27.323  34.164  1.00  0.00     0.023 A 
ATOM     85  C   UNL A   1      45.726  27.985  34.146  1.00  0.00     0.012 A 
ATOM     86  C   UNL A   1      44.337  26.145  34.924  1.00  0.00     0.148 A 
ATOM     87  C   UNL A   1      46.816  27.464  34.843  1.00  0.00     0.002 A 
ATOM     88  C   UNL A   1      45.412  25.661  35.659  1.00  0.00     0.091 A 
ATOM     89  F   UNL A   1      43.151  25.520  34.915  1.00  0.00    -0.205 F 
ATOM     90  C   UNL A   1      46.656  26.311  35.609  1.00  0.00     0.022 A 
BRANCH  88  91
ATOM     91  S   UNL A   1      45.271  24.244  36.753  1.00  0.00     0.127 S 
ATOM     92  O   UNL A   1      44.933  23.176  35.815  1.00  0.00    -0.237 OA
ATOM     93  O   UNL A   1      46.619  24.155  37.319  1.00  0.00    -0.237 OA
ATOM     94  O   UNL A   1      44.232  24.581  37.717  1.00  0.00    -0.744 OA
ENDBRANCH  88  91
ENDBRANCH  61  84
ENDBRANCH  35  36
ENDBRANCH  27  30
ENDBRANCH  25  26
ENDBRANCH  24  25
ENDBRANCH   1  24
TORSDOF 17
ENDMDL
MODEL 3
REMARK VINA RESULT:     -11.5      3.492      8.827
REMARK SMILES O=C(NCCCCCCNC(=O)c1ccc(-c2c3nc(c(-c4cccc(S(=O)(=O)[O-])c4F)c4ccc([nH]4)c(-c4cccc(S(=O)(=O)[O-])c4F)c4nc(c(-c5cccc(S(=O)(=O)[O-])c5F)c5ccc2[nH]5)C=C4)C=C3)cc1)C1=Cc2cc(Cl)ccc2O[C@@H]1C(F)(F)F
REMARK SMILES IDX 7 1 6 2 5 3 4 4 3 5 1 6 2 7 76 9 77 10 86 11 78 12 85 13
REMARK SMILES IDX 79 14 84 15 80 16 83 17 81 18 82 19 87 20 88 21 89 22 90 23
REMARK SMILES IDX 8 24 9 25 10 26 11 27 12 29 13 30 14 31 75 32 15 33 74 34
REMARK SMILES IDX 16 35 17 36 18 37 68 38 19 39 73 40 67 41 69 42 20 43 72 44
REMARK SMILES IDX 66 45 65 46 21 48 53 49 33 50 52 51 34 52 37 53 51 54 70 55
REMARK SMILES IDX 35 56 36 57 50 59 71 60 38 61 22 62 23 63 31 64 24 65 26 66
REMARK SMILES IDX 32 67 25 68 27 69 28 70 29 71 30 72 54 73 55 74 63 75 56 76
REMARK SMILES IDX 58 77 64 78 57 79 59 80 60 81 61 82 62 83 39 84 40 85 48 86
REMARK SMILES IDX 41 87 43 88 49 89 42 90 44 91 45 92 46 93 47 94
REMARK H PARENT 3 8 10 28 69 47 37 58
REMARK Flexibility Score: inf
ROOT
ATOM      1  C   UNL A   1      32.073  27.636  26.465  1.00  0.00     0.002 C 
ENDROOT
BRANCH   1   2
ATOM      2  C   UNL A   1      30.752  27.093  25.906  1.00  0.00     0.002 C 
BRANCH   2   3
ATOM      3  C   UNL A   1      30.310  25.718  26.403  1.00  0.00     0.021 C 
BRANCH   3   4
ATOM      4  C   UNL A   1      29.853  24.728  25.338  1.00  0.00     0.116 C 
BRANCH   4   5
ATOM      5  N   UNL A   1      30.569  23.466  25.304  1.00  0.00    -0.352 N 
ATOM      6  O   UNL A   1      32.322  22.082  25.096  1.00  0.00    -0.270 OA
ATOM      7  C   UNL A   1      31.858  23.210  24.928  1.00  0.00     0.251 C 
ATOM      8  H   UNL A   1      30.050  22.680  25.591  1.00  0.00     0.163 HD
BRANCH   7   9
ATOM      9  C   UNL A   1      32.771  24.270  24.397  1.00  0.00     0.067 C 
ATOM     10  C   UNL A   1      33.779  24.791  25.118  1.00  0.00     0.025 C 
ATOM     11  C   UNL A   1      32.922  24.205  22.892  1.00  0.00     0.314 C 
ATOM     12  C   UNL A   1      35.089  24.262  24.646  1.00  0.00     0.019 A 
ATOM     13  O   UNL A   1      34.146  23.517  22.515  1.00  0.00    -0.475 OA
ATOM     14  C   UNL A   1      36.153  24.218  25.555  1.00  0.00     0.032 A 
ATOM     15  C   UNL A   1      35.173  23.570  23.426  1.00  0.00     0.128 A 
ATOM     16  C   UNL A   1      37.246  23.396  25.285  1.00  0.00     0.041 A 
ATOM     17  C   UNL A   1      36.290  22.784  23.149  1.00  0.00     0.048 A 
ATOM     18  Cl  UNL A   1      38.448  23.170  26.493  1.00  0.00    -0.084 Cl
ATOM     19  C   UNL A   1      37.314  22.675  24.092  1.00  0.00     0.024 A 
BRANCH  11  20
ATOM     20  C   UNL A   1      32.820  25.583  22.222  1.00  0.00     0.429 C 
ATOM     21  F   UNL A   1      32.193  25.504  21.023  1.00  0.00    -0.167 F 
ATOM     22  F   UNL A   1      32.105  26.453  22.978  1.00  0.00    -0.167 F 
ATOM     23  F   UNL A   1      34.030  26.150  22.006  1.00  0.00    -0.167 F 
ENDBRANCH  11  20
ENDBRANCH   7   9
ENDBRANCH   4   5
ENDBRANCH   3   4
ENDBRANCH   2   3
ENDBRANCH   1   2
BRANCH   1  24
ATOM     24  C   UNL A   1      32.771  28.736  25.657  1.00  0.00     0.021 C 
BRANCH  24  25
ATOM     25  C   UNL A   1      34.078  29.275  26.230  1.00  0.00     0.116 C 
BRANCH  25  26
ATOM     26  N   UNL A   1      33.913  30.538  26.931  1.00  0.00    -0.352 N 
ATOM     27  C   UNL A   1      34.657  31.091  27.945  1.00  0.00     0.251 C 
ATOM     28  H   UNL A   1      33.148  31.081  26.632  1.00  0.00     0.163 HD
ATOM     29  O   UNL A   1      34.260  32.116  28.491  1.00  0.00    -0.269 OA
BRANCH  27  30
ATOM     30  C   UNL A   1      35.918  30.455  28.397  1.00  0.00     0.039 A 
ATOM     31  C   UNL A   1      37.070  30.636  27.626  1.00  0.00     0.014 A 
ATOM     32  C   UNL A   1      35.969  29.663  29.546  1.00  0.00     0.014 A 
ATOM     33  C   UNL A   1      38.281  30.070  28.036  1.00  0.00     0.010 A 
ATOM     34  C   UNL A   1      37.190  29.161  29.994  1.00  0.00     0.010 A 
ATOM     35  C   UNL A   1      38.359  29.350  29.240  1.00  0.00    -0.014 A 
BRANCH  35  36
ATOM     36  C   UNL A   1      39.651  28.795  29.723  1.00  0.00     0.031 A 
ATOM     37  C   UNL A   1      40.394  29.462  30.852  1.00  0.00     0.074 A 
ATOM     38  C   UNL A   1      40.195  27.732  29.097  1.00  0.00     0.049 A 
ATOM     39  N   UNL A   1      41.546  29.143  31.382  1.00  0.00    -0.248 NA
ATOM     40  C   UNL A   1      39.773  30.658  31.448  1.00  0.00     0.031 C 
ATOM     41  C   UNL A   1      39.612  27.037  27.947  1.00  0.00     0.029 A 
ATOM     42  N   UNL A   1      41.372  27.061  29.325  1.00  0.00    -0.354 N 
ATOM     43  C   UNL A   1      41.809  30.117  32.339  1.00  0.00     0.074 A 
ATOM     44  C   UNL A   1      40.707  31.053  32.301  1.00  0.00     0.031 C 
ATOM     45  C   UNL A   1      40.425  26.035  27.577  1.00  0.00     0.029 A 
ATOM     46  C   UNL A   1      41.603  26.033  28.439  1.00  0.00     0.049 A 
ATOM     47  H   UNL A   1      41.993  27.293  30.053  1.00  0.00     0.167 HD
ATOM     48  C   UNL A   1      42.860  30.212  33.188  1.00  0.00     0.034 A 
ATOM     49  C   UNL A   1      42.649  25.190  28.326  1.00  0.00     0.034 A 
ATOM     50  C   UNL A   1      43.931  29.253  33.256  1.00  0.00     0.049 A 
ATOM     51  C   UNL A   1      43.787  25.302  29.306  1.00  0.00     0.074 A 
ATOM     52  C   UNL A   1      44.983  29.205  34.152  1.00  0.00     0.029 A 
ATOM     53  N   UNL A   1      44.093  28.185  32.389  1.00  0.00    -0.354 N 
ATOM     54  N   UNL A   1      43.931  26.128  30.314  1.00  0.00    -0.248 NA
ATOM     55  C   UNL A   1      44.889  24.341  29.156  1.00  0.00     0.031 C 
ATOM     56  C   UNL A   1      45.805  28.128  33.803  1.00  0.00     0.029 A 
ATOM     57  C   UNL A   1      45.240  27.482  32.715  1.00  0.00     0.049 A 
ATOM     58  H   UNL A   1      43.483  27.959  31.650  1.00  0.00     0.167 HD
ATOM     59  C   UNL A   1      45.116  25.759  30.941  1.00  0.00     0.074 A 
ATOM     60  C   UNL A   1      45.640  24.623  30.213  1.00  0.00     0.031 C 
ATOM     61  C   UNL A   1      45.722  26.318  32.018  1.00  0.00     0.034 A 
BRANCH  48  62
ATOM     62  C   UNL A   1      42.894  31.375  34.145  1.00  0.00     0.023 A 
ATOM     63  C   UNL A   1      43.554  32.566  33.779  1.00  0.00     0.012 A 
ATOM     64  C   UNL A   1      42.204  31.317  35.372  1.00  0.00     0.148 A 
ATOM     65  C   UNL A   1      43.554  33.670  34.632  1.00  0.00     0.002 A 
ATOM     66  C   UNL A   1      42.169  32.437  36.196  1.00  0.00     0.091 A 
ATOM     67  F   UNL A   1      41.599  30.171  35.712  1.00  0.00    -0.205 F 
ATOM     68  C   UNL A   1      42.852  33.609  35.833  1.00  0.00     0.022 A 
BRANCH  66  69
ATOM     69  S   UNL A   1      41.224  32.489  37.723  1.00  0.00     0.127 S 
ATOM     70  O   UNL A   1      42.021  31.624  38.592  1.00  0.00    -0.237 OA
ATOM     71  O   UNL A   1      41.273  33.910  38.066  1.00  0.00    -0.237 OA
ATOM     72  O   UNL A   1      39.897  31.987  37.394  1.00  0.00    -0.744 OA
ENDBRANCH  66  69
ENDBRANCH  48  62
BRANCH  49  73
ATOM     73  C   UNL A   1      42.648  24.123  27.285  1.00  0.00     0.023 A 
ATOM     74  C   UNL A   1      43.229  24.385  26.028  1.00  0.00     0.012 A 
ATOM     75  C   UNL A   1      42.081  22.858  27.526  1.00  0.00     0.148 A 
ATOM     76  C   UNL A   1      43.207  23.423  25.018  1.00  0.00     0.002 A 
ATOM     77  C   UNL A   1      42.114  21.883  26.536  1.00  0.00     0.091 A 
ATOM     78  F   UNL A   1      41.522  22.630  28.723  1.00  0.00    -0.205 F 
ATOM     79  C   UNL A   1      42.659  22.170  25.274  1.00  0.00     0.022 A 
BRANCH  77  80
ATOM     80  S   UNL A   1      41.548  20.201  26.818  1.00  0.00     0.127 S 
ATOM     81  O   UNL A   1      40.125  20.403  27.073  1.00  0.00    -0.237 OA
ATOM     82  O   UNL A   1      41.861  19.558  25.542  1.00  0.00    -0.237 OA
ATOM     83  O   UNL A   1      42.331  19.708  27.944  1.00  0.00    -0.744 OA
ENDBRANCH  77  80
ENDBRANCH  49  73
BRANCH  61  84
ATOM     84  C   UNL A   1      46.997  25.686  32.513  1.00  0.00     0.023 A 
ATOM     85  C   UNL A   1      48.240  26.100  31.991  1.00  0.00     0.012 A 
ATOM     86  C   UNL A   1      46.966  24.733  33.550  1.00  0.00     0.148 A 
ATOM     87  C   UNL A   1      49.427  25.548  32.469  1.00  0.00     0.002 A 
ATOM     88  C   UNL A   1      48.155  24.228  34.058  1.00  0.00     0.091 A 
ATOM     89  F   UNL A   1      45.774  24.340  34.021  1.00  0.00    -0.205 F 
ATOM     90  C   UNL A   1      49.386  24.623  33.511  1.00  0.00     0.022 A 
BRANCH  88  91
ATOM     91  S   UNL A   1      48.205  23.111  35.464  1.00  0.00     0.127 S 
ATOM     92  O   UNL A   1      47.425  21.977  34.973  1.00  0.00    -0.237 OA
ATOM     93  O   UNL A   1      49.640  22.851  35.602  1.00  0.00    -0.237 OA
ATOM     94  O   UNL A   1      47.613  23.840  36.579  1.00  0.00    -0.744 OA
ENDBRANCH  88  91
ENDBRANCH  61  84
ENDBRANCH  35  36
ENDBRANCH  27  30
ENDBRANCH  25  26
ENDBRANCH  24  25
ENDBRANCH   1  24
TORSDOF 17
ENDMDL
