MODEL 1
REMARK VINA RESULT:     -10.7      0.000      0.000
REMARK SMILES CCC[NH2+][C@]1(C(=O)NCCCCCCNC(=O)c2ccc(-c3c4nc(c(-c5cccc(S(=O)(=O)[O-])c5F)c5ccc([nH]5)c(-c5cccc(S(=O)(=O)[O-])c5F)c5nc(c(-c6cccc(S(=O)(=O)[O-])c6F)c6ccc3[nH]6)C=C5)C=C4)cc2)CCC[C@H]([N@@H+]2CCOC(C)(C)C2)C1
REMARK SMILES IDX 11 1 10 2 9 3 8 4 6 5 7 6 5 8 81 9 93 10 82 11 84 12 83 13
REMARK SMILES IDX 4 14 3 17 2 18 1 19 85 20 86 21 92 22 87 24 89 25 88 26
REMARK SMILES IDX 90 27 91 28 12 29 13 30 14 31 15 32 16 33 17 35 18 36 19 37
REMARK SMILES IDX 80 38 20 39 79 40 21 41 22 42 23 43 73 44 24 45 78 46 72 47
REMARK SMILES IDX 74 48 25 49 77 50 71 51 70 52 26 54 58 55 38 56 57 57 39 58
REMARK SMILES IDX 42 59 56 60 75 61 40 62 41 63 55 65 76 66 43 67 27 68 28 69
REMARK SMILES IDX 36 70 29 71 31 72 37 73 30 74 32 75 33 76 34 77 35 78 59 79
REMARK SMILES IDX 60 80 68 81 61 82 63 83 69 84 62 85 64 86 65 87 66 88 67 89
REMARK SMILES IDX 44 90 45 91 53 92 46 93 48 94 54 95 47 96 49 97 50 98 51 99
REMARK SMILES IDX 52 100
REMARK H PARENT 8 7 4 15 4 16 85 23 15 34 74 53 42 64
REMARK Flexibility Score: inf
ROOT
ATOM      1  C   UNL A   1      34.864  29.622  27.305  1.00  0.00     0.002 C 
ENDROOT
BRANCH   1   2
ATOM      2  C   UNL A   1      33.707  29.146  26.418  1.00  0.00     0.021 C 
BRANCH   2   3
ATOM      3  C   UNL A   1      34.072  27.950  25.551  1.00  0.00     0.116 C 
BRANCH   3   4
ATOM      4  N   UNL A   1      33.145  27.862  24.452  1.00  0.00    -0.351 N 
ATOM      5  C   UNL A   1      32.650  26.825  23.747  1.00  0.00     0.281 C 
ATOM      6  O   UNL A   1      32.042  27.173  22.721  1.00  0.00    -0.268 OA
ATOM      7  H   UNL A   1      32.804  28.737  24.154  1.00  0.00     0.163 HD
BRANCH   5   8
ATOM      8  C   UNL A   1      32.608  25.313  24.238  1.00  0.00     0.181 C 
ATOM      9  C   UNL A   1      32.549  25.478  25.797  1.00  0.00     0.079 C 
ATOM     10  C   UNL A   1      31.403  24.431  23.831  1.00  0.00     0.144 C 
ATOM     11  C   UNL A   1      32.257  24.246  26.641  1.00  0.00     0.013 C 
ATOM     12  C   UNL A   1      31.183  23.102  24.619  1.00  0.00     0.191 C 
ATOM     13  C   UNL A   1      31.087  23.427  26.116  1.00  0.00     0.065 C 
BRANCH   8  14
ATOM     14  N   UNL A   1      33.926  24.741  23.841  1.00  0.00    -0.333 N 
ATOM     15  H   UNL A   1      33.759  23.837  23.399  1.00  0.00     0.347 HD
ATOM     16  H   UNL A   1      34.358  25.421  23.217  1.00  0.00     0.347 HD
BRANCH  14  17
ATOM     17  C   UNL A   1      34.868  24.539  24.948  1.00  0.00     0.261 C 
BRANCH  17  18
ATOM     18  C   UNL A   1      35.835  23.357  24.808  1.00  0.00     0.058 C 
ATOM     19  C   UNL A   1      36.251  22.993  23.394  1.00  0.00     0.010 C 
ENDBRANCH  17  18
ENDBRANCH  14  17
ENDBRANCH   8  14
BRANCH  12  20
ATOM     20  N   UNL A   1      32.031  21.931  24.220  1.00  0.00    -0.328 N 
ATOM     21  C   UNL A   1      31.592  21.399  22.902  1.00  0.00     0.291 C 
ATOM     22  C   UNL A   1      32.043  20.784  25.156  1.00  0.00     0.297 C 
ATOM     23  H   UNL A   1      32.975  22.319  24.206  1.00  0.00     0.348 HD
ATOM     24  C   UNL A   1      32.357  20.142  22.448  1.00  0.00     0.222 C 
ATOM     25  C   UNL A   1      32.854  19.540  24.688  1.00  0.00     0.112 C 
ATOM     26  O   UNL A   1      32.313  19.094  23.428  1.00  0.00    -0.364 OA
ATOM     27  C   UNL A   1      34.368  19.751  24.546  1.00  0.00     0.048 C 
ATOM     28  C   UNL A   1      32.637  18.408  25.708  1.00  0.00     0.048 C 
ENDBRANCH  12  20
ENDBRANCH   5   8
ENDBRANCH   3   4
ENDBRANCH   2   3
ENDBRANCH   1   2
BRANCH   1  29
ATOM     29  C   UNL A   1      34.557  30.875  28.132  1.00  0.00     0.002 C 
BRANCH  29  30
ATOM     30  C   UNL A   1      34.041  32.064  27.318  1.00  0.00     0.021 C 
BRANCH  30  31
ATOM     31  C   UNL A   1      32.653  32.541  27.729  1.00  0.00     0.116 C 
BRANCH  31  32
ATOM     32  N   UNL A   1      32.596  33.992  27.828  1.00  0.00    -0.352 N 
ATOM     33  C   UNL A   1      33.280  34.821  28.675  1.00  0.00     0.251 C 
ATOM     34  H   UNL A   1      31.984  34.438  27.199  1.00  0.00     0.163 HD
ATOM     35  O   UNL A   1      32.944  35.998  28.794  1.00  0.00    -0.269 OA
BRANCH  33  36
ATOM     36  C   UNL A   1      34.416  34.284  29.449  1.00  0.00     0.039 A 
ATOM     37  C   UNL A   1      34.160  33.551  30.607  1.00  0.00     0.014 A 
ATOM     38  C   UNL A   1      35.730  34.501  29.020  1.00  0.00     0.014 A 
ATOM     39  C   UNL A   1      35.225  32.995  31.316  1.00  0.00     0.010 A 
ATOM     40  C   UNL A   1      36.782  33.878  29.681  1.00  0.00     0.010 A 
ATOM     41  C   UNL A   1      36.541  33.129  30.842  1.00  0.00    -0.014 A 
BRANCH  41  42
ATOM     42  C   UNL A   1      37.674  32.480  31.546  1.00  0.00     0.031 A 
ATOM     43  C   UNL A   1      38.406  31.330  30.912  1.00  0.00     0.074 A 
ATOM     44  C   UNL A   1      37.994  32.883  32.791  1.00  0.00     0.049 A 
ATOM     45  N   UNL A   1      39.401  30.627  31.386  1.00  0.00    -0.248 NA
ATOM     46  C   UNL A   1      37.944  30.894  29.584  1.00  0.00     0.031 C 
ATOM     47  C   UNL A   1      37.299  33.929  33.544  1.00  0.00     0.029 A 
ATOM     48  N   UNL A   1      38.968  32.445  33.651  1.00  0.00    -0.354 N 
ATOM     49  C   UNL A   1      39.665  29.651  30.433  1.00  0.00     0.074 A 
ATOM     50  C   UNL A   1      38.697  29.826  29.373  1.00  0.00     0.031 C 
ATOM     51  C   UNL A   1      37.875  34.059  34.749  1.00  0.00     0.029 A 
ATOM     52  C   UNL A   1      38.955  33.083  34.869  1.00  0.00     0.049 A 
ATOM     53  H   UNL A   1      39.616  31.740  33.420  1.00  0.00     0.167 HD
ATOM     54  C   UNL A   1      40.643  28.714  30.425  1.00  0.00     0.034 A 
ATOM     55  C   UNL A   1      39.718  32.898  35.962  1.00  0.00     0.034 A 
ATOM     56  C   UNL A   1      41.616  28.562  31.473  1.00  0.00     0.049 A 
ATOM     57  C   UNL A   1      40.815  31.872  35.921  1.00  0.00     0.074 A 
ATOM     58  C   UNL A   1      42.698  27.701  31.525  1.00  0.00     0.029 A 
ATOM     59  N   UNL A   1      41.619  29.277  32.662  1.00  0.00    -0.354 N 
ATOM     60  N   UNL A   1      41.151  31.065  34.944  1.00  0.00    -0.248 NA
ATOM     61  C   UNL A   1      41.662  31.756  37.116  1.00  0.00     0.031 C 
ATOM     62  C   UNL A   1      43.331  27.868  32.761  1.00  0.00     0.029 A 
ATOM     63  C   UNL A   1      42.671  28.864  33.462  1.00  0.00     0.049 A 
ATOM     64  H   UNL A   1      40.967  29.975  32.902  1.00  0.00     0.167 HD
ATOM     65  C   UNL A   1      42.267  30.366  35.394  1.00  0.00     0.074 A 
ATOM     66  C   UNL A   1      42.562  30.865  36.722  1.00  0.00     0.031 C 
ATOM     67  C   UNL A   1      42.976  29.393  34.768  1.00  0.00     0.034 A 
BRANCH  54  68
ATOM     68  C   UNL A   1      40.728  27.806  29.225  1.00  0.00     0.023 A 
ATOM     69  C   UNL A   1      39.909  26.660  29.156  1.00  0.00     0.012 A 
ATOM     70  C   UNL A   1      41.587  28.105  28.149  1.00  0.00     0.148 A 
ATOM     71  C   UNL A   1      39.976  25.801  28.059  1.00  0.00     0.002 A 
ATOM     72  C   UNL A   1      41.610  27.272  27.035  1.00  0.00     0.091 A 
ATOM     73  F   UNL A   1      42.373  29.186  28.239  1.00  0.00    -0.205 F 
ATOM     74  C   UNL A   1      40.818  26.113  26.995  1.00  0.00     0.022 A 
BRANCH  72  75
ATOM     75  S   UNL A   1      42.600  27.629  25.580  1.00  0.00     0.127 S 
ATOM     76  O   UNL A   1      42.347  26.449  24.754  1.00  0.00    -0.237 OA
ATOM     77  O   UNL A   1      41.986  28.862  25.087  1.00  0.00    -0.237 OA
ATOM     78  O   UNL A   1      43.969  27.779  26.052  1.00  0.00    -0.744 OA
ENDBRANCH  72  75
ENDBRANCH  54  68
BRANCH  55  79
ATOM     79  C   UNL A   1      39.496  33.744  37.168  1.00  0.00     0.023 A 
ATOM     80  C   UNL A   1      39.945  35.079  37.176  1.00  0.00     0.012 A 
ATOM     81  C   UNL A   1      38.801  33.246  38.287  1.00  0.00     0.148 A 
ATOM     82  C   UNL A   1      39.731  35.893  38.288  1.00  0.00     0.002 A 
ATOM     83  C   UNL A   1      38.540  34.079  39.368  1.00  0.00     0.091 A 
ATOM     84  F   UNL A   1      38.388  31.971  38.260  1.00  0.00    -0.205 F 
ATOM     85  C   UNL A   1      39.020  35.398  39.378  1.00  0.00     0.022 A 
BRANCH  83  86
ATOM     86  S   UNL A   1      37.516  33.570  40.752  1.00  0.00     0.127 S 
ATOM     87  O   UNL A   1      36.327  33.063  40.073  1.00  0.00    -0.237 OA
ATOM     88  O   UNL A   1      38.352  32.547  41.381  1.00  0.00    -0.237 OA
ATOM     89  O   UNL A   1      37.318  34.765  41.560  1.00  0.00    -0.744 OA
ENDBRANCH  83  86
ENDBRANCH  55  79
BRANCH  67  90
ATOM     90  C   UNL A   1      44.164  28.820  35.496  1.00  0.00     0.023 A 
ATOM     91  C   UNL A   1      45.446  29.370  35.296  1.00  0.00     0.012 A 
ATOM     92  C   UNL A   1      43.996  27.780  36.431  1.00  0.00     0.148 A 
ATOM     93  C   UNL A   1      46.549  28.866  35.986  1.00  0.00     0.002 A 
ATOM     94  C   UNL A   1      45.090  27.320  37.154  1.00  0.00     0.091 A 
ATOM     95  F   UNL A   1      42.772  27.259  36.596  1.00  0.00    -0.205 F 
ATOM     96  C   UNL A   1      46.369  27.851  36.922  1.00  0.00     0.022 A 
BRANCH  94  97
ATOM     97  S   UNL A   1      44.939  26.086  38.450  1.00  0.00     0.127 S 
ATOM     98  O   UNL A   1      46.290  26.077  39.011  1.00  0.00    -0.237 OA
ATOM     99  O   UNL A   1      43.922  26.674  39.320  1.00  0.00    -0.237 OA
ATOM    100  O   UNL A   1      44.532  24.854  37.789  1.00  0.00    -0.744 OA
ENDBRANCH  94  97
ENDBRANCH  67  90
ENDBRANCH  41  42
ENDBRANCH  33  36
ENDBRANCH  31  32
ENDBRANCH  30  31
ENDBRANCH  29  30
ENDBRANCH   1  29
TORSDOF 20
ENDMDL
MODEL 2
REMARK VINA RESULT:     -10.5      6.196      9.904
REMARK SMILES CCC[NH2+][C@]1(C(=O)NCCCCCCNC(=O)c2ccc(-c3c4nc(c(-c5cccc(S(=O)(=O)[O-])c5F)c5ccc([nH]5)c(-c5cccc(S(=O)(=O)[O-])c5F)c5nc(c(-c6cccc(S(=O)(=O)[O-])c6F)c6ccc3[nH]6)C=C5)C=C4)cc2)CCC[C@H]([N@@H+]2CCOC(C)(C)C2)C1
REMARK SMILES IDX 11 1 10 2 9 3 8 4 6 5 7 6 5 8 81 9 93 10 82 11 84 12 83 13
REMARK SMILES IDX 4 14 3 17 2 18 1 19 85 20 86 21 92 22 87 24 89 25 88 26
REMARK SMILES IDX 90 27 91 28 12 29 13 30 14 31 15 32 16 33 17 35 18 36 19 37
REMARK SMILES IDX 80 38 20 39 79 40 21 41 22 42 23 43 73 44 24 45 78 46 72 47
REMARK SMILES IDX 74 48 25 49 77 50 71 51 70 52 26 54 58 55 38 56 57 57 39 58
REMARK SMILES IDX 42 59 56 60 75 61 40 62 41 63 55 65 76 66 43 67 27 68 28 69
REMARK SMILES IDX 36 70 29 71 31 72 37 73 30 74 32 75 33 76 34 77 35 78 59 79
REMARK SMILES IDX 60 80 68 81 61 82 63 83 69 84 62 85 64 86 65 87 66 88 67 89
REMARK SMILES IDX 44 90 45 91 53 92 46 93 48 94 54 95 47 96 49 97 50 98 51 99
REMARK SMILES IDX 52 100
REMARK H PARENT 8 7 4 15 4 16 85 23 15 34 74 53 42 64
REMARK Flexibility Score: inf
ROOT
ATOM      1  C   UNL A   1      37.293  21.913  24.915  1.00  0.00     0.002 C 
ENDROOT
BRANCH   1   2
ATOM      2  C   UNL A   1      36.614  23.149  25.517  1.00  0.00     0.021 C 
BRANCH   2   3
ATOM      3  C   UNL A   1      35.401  22.809  26.371  1.00  0.00     0.116 C 
BRANCH   3   4
ATOM      4  N   UNL A   1      34.449  22.080  25.572  1.00  0.00    -0.351 N 
ATOM      5  C   UNL A   1      33.193  22.352  25.164  1.00  0.00     0.281 C 
ATOM      6  O   UNL A   1      32.614  21.369  24.671  1.00  0.00    -0.268 OA
ATOM      7  H   UNL A   1      34.784  21.208  25.260  1.00  0.00     0.163 HD
BRANCH   5   8
ATOM      8  C   UNL A   1      32.544  23.800  25.079  1.00  0.00     0.181 C 
ATOM      9  C   UNL A   1      31.133  23.489  24.466  1.00  0.00     0.079 C 
ATOM     10  C   UNL A   1      32.303  24.586  26.390  1.00  0.00     0.144 C 
ATOM     11  C   UNL A   1      30.096  24.602  24.443  1.00  0.00     0.013 C 
ATOM     12  C   UNL A   1      31.334  25.808  26.331  1.00  0.00     0.191 C 
ATOM     13  C   UNL A   1      29.984  25.341  25.769  1.00  0.00     0.065 C 
BRANCH   8  14
ATOM     14  N   UNL A   1      33.373  24.539  24.085  1.00  0.00    -0.333 N 
ATOM     15  H   UNL A   1      32.962  25.463  23.953  1.00  0.00     0.347 HD
ATOM     16  H   UNL A   1      34.318  24.569  24.466  1.00  0.00     0.347 HD
BRANCH  14  17
ATOM     17  C   UNL A   1      33.478  23.895  22.771  1.00  0.00     0.261 C 
BRANCH  17  18
ATOM     18  C   UNL A   1      32.829  24.639  21.598  1.00  0.00     0.058 C 
ATOM     19  C   UNL A   1      33.050  26.140  21.550  1.00  0.00     0.010 C 
ENDBRANCH  17  18
ENDBRANCH  14  17
ENDBRANCH   8  14
BRANCH  12  20
ATOM     20  N   UNL A   1      31.897  27.092  25.797  1.00  0.00    -0.328 N 
ATOM     21  C   UNL A   1      31.626  28.209  26.741  1.00  0.00     0.291 C 
ATOM     22  C   UNL A   1      31.392  27.525  24.473  1.00  0.00     0.297 C 
ATOM     23  H   UNL A   1      32.890  26.886  25.688  1.00  0.00     0.348 HD
ATOM     24  C   UNL A   1      32.099  29.585  26.236  1.00  0.00     0.222 C 
ATOM     25  C   UNL A   1      31.916  28.903  23.971  1.00  0.00     0.112 C 
ATOM     26  O   UNL A   1      31.560  29.906  24.944  1.00  0.00    -0.364 OA
ATOM     27  C   UNL A   1      33.423  28.977  23.691  1.00  0.00     0.048 C 
ATOM     28  C   UNL A   1      31.182  29.251  22.663  1.00  0.00     0.048 C 
ENDBRANCH  12  20
ENDBRANCH   5   8
ENDBRANCH   3   4
ENDBRANCH   2   3
ENDBRANCH   1   2
BRANCH   1  29
ATOM     29  C   UNL A   1      38.690  21.620  25.473  1.00  0.00     0.002 C 
BRANCH  29  30
ATOM     30  C   UNL A   1      39.112  20.152  25.390  1.00  0.00     0.021 C 
BRANCH  30  31
ATOM     31  C   UNL A   1      39.896  19.663  26.603  1.00  0.00     0.116 C 
BRANCH  31  32
ATOM     32  N   UNL A   1      41.177  19.091  26.216  1.00  0.00    -0.352 N 
ATOM     33  C   UNL A   1      42.358  19.732  25.960  1.00  0.00     0.251 C 
ATOM     34  H   UNL A   1      41.196  18.111  26.127  1.00  0.00     0.163 HD
ATOM     35  O   UNL A   1      43.282  19.130  25.415  1.00  0.00    -0.269 OA
BRANCH  33  36
ATOM     36  C   UNL A   1      42.506  21.151  26.335  1.00  0.00     0.039 A 
ATOM     37  C   UNL A   1      42.710  21.479  27.675  1.00  0.00     0.014 A 
ATOM     38  C   UNL A   1      42.453  22.150  25.358  1.00  0.00     0.014 A 
ATOM     39  C   UNL A   1      42.906  22.813  28.032  1.00  0.00     0.010 A 
ATOM     40  C   UNL A   1      42.728  23.468  25.704  1.00  0.00     0.010 A 
ATOM     41  C   UNL A   1      42.945  23.814  27.046  1.00  0.00    -0.014 A 
BRANCH  41  42
ATOM     42  C   UNL A   1      43.225  25.226  27.404  1.00  0.00     0.031 A 
ATOM     43  C   UNL A   1      44.613  25.786  27.267  1.00  0.00     0.074 A 
ATOM     44  C   UNL A   1      42.239  25.982  27.924  1.00  0.00     0.049 A 
ATOM     45  N   UNL A   1      45.050  26.985  27.552  1.00  0.00    -0.248 NA
ATOM     46  C   UNL A   1      45.656  24.873  26.768  1.00  0.00     0.031 C 
ATOM     47  C   UNL A   1      40.874  25.523  28.188  1.00  0.00     0.029 A 
ATOM     48  N   UNL A   1      42.239  27.286  28.348  1.00  0.00    -0.354 N 
ATOM     49  C   UNL A   1      46.415  26.963  27.298  1.00  0.00     0.074 A 
ATOM     50  C   UNL A   1      46.744  25.619  26.876  1.00  0.00     0.031 C 
ATOM     51  C   UNL A   1      40.166  26.532  28.717  1.00  0.00     0.029 A 
ATOM     52  C   UNL A   1      41.034  27.697  28.865  1.00  0.00     0.049 A 
ATOM     53  H   UNL A   1      43.027  27.874  28.287  1.00  0.00     0.167 HD
ATOM     54  C   UNL A   1      47.310  27.977  27.378  1.00  0.00     0.034 A 
ATOM     55  C   UNL A   1      40.669  28.875  29.407  1.00  0.00     0.034 A 
ATOM     56  C   UNL A   1      46.970  29.317  27.777  1.00  0.00     0.049 A 
ATOM     57  C   UNL A   1      41.671  29.994  29.460  1.00  0.00     0.074 A 
ATOM     58  C   UNL A   1      47.783  30.436  27.813  1.00  0.00     0.029 A 
ATOM     59  N   UNL A   1      45.720  29.717  28.225  1.00  0.00    -0.354 N 
ATOM     60  N   UNL A   1      42.920  30.001  29.064  1.00  0.00    -0.248 NA
ATOM     61  C   UNL A   1      41.203  31.279  29.998  1.00  0.00     0.031 C 
ATOM     62  C   UNL A   1      47.033  31.504  28.318  1.00  0.00     0.029 A 
ATOM     63  C   UNL A   1      45.743  31.061  28.557  1.00  0.00     0.049 A 
ATOM     64  H   UNL A   1      44.932  29.131  28.297  1.00  0.00     0.167 HD
ATOM     65  C   UNL A   1      43.381  31.295  29.277  1.00  0.00     0.074 A 
ATOM     66  C   UNL A   1      42.266  32.050  29.814  1.00  0.00     0.031 C 
ATOM     67  C   UNL A   1      44.617  31.810  29.058  1.00  0.00     0.034 A 
BRANCH  54  68
ATOM     68  C   UNL A   1      48.736  27.680  26.990  1.00  0.00     0.023 A 
ATOM     69  C   UNL A   1      49.647  27.228  27.967  1.00  0.00     0.012 A 
ATOM     70  C   UNL A   1      49.166  27.810  25.655  1.00  0.00     0.148 A 
ATOM     71  C   UNL A   1      50.973  26.954  27.633  1.00  0.00     0.002 A 
ATOM     72  C   UNL A   1      50.476  27.485  25.319  1.00  0.00     0.091 A 
ATOM     73  F   UNL A   1      48.294  28.260  24.743  1.00  0.00    -0.205 F 
ATOM     74  C   UNL A   1      51.384  27.072  26.308  1.00  0.00     0.022 A 
BRANCH  72  75
ATOM     75  S   UNL A   1      51.082  27.527  23.629  1.00  0.00     0.127 S 
ATOM     76  O   UNL A   1      50.053  26.761  22.928  1.00  0.00    -0.237 OA
ATOM     77  O   UNL A   1      51.078  28.961  23.338  1.00  0.00    -0.237 OA
ATOM     78  O   UNL A   1      52.404  26.917  23.661  1.00  0.00    -0.744 OA
ENDBRANCH  72  75
ENDBRANCH  54  68
BRANCH  55  79
ATOM     79  C   UNL A   1      39.274  29.062  29.893  1.00  0.00     0.023 A 
ATOM     80  C   UNL A   1      38.919  28.618  31.182  1.00  0.00     0.012 A 
ATOM     81  C   UNL A   1      38.311  29.721  29.104  1.00  0.00     0.148 A 
ATOM     82  C   UNL A   1      37.623  28.800  31.664  1.00  0.00     0.002 A 
ATOM     83  C   UNL A   1      37.039  29.951  29.611  1.00  0.00     0.091 A 
ATOM     84  F   UNL A   1      38.670  30.129  27.878  1.00  0.00    -0.205 F 
ATOM     85  C   UNL A   1      36.686  29.476  30.885  1.00  0.00     0.022 A 
BRANCH  83  86
ATOM     86  S   UNL A   1      35.815  30.930  28.736  1.00  0.00     0.127 S 
ATOM     87  O   UNL A   1      35.182  29.926  27.885  1.00  0.00    -0.237 OA
ATOM     88  O   UNL A   1      34.982  31.420  29.836  1.00  0.00    -0.237 OA
ATOM     89  O   UNL A   1      36.561  31.968  28.039  1.00  0.00    -0.744 OA
ENDBRANCH  83  86
ENDBRANCH  55  79
BRANCH  67  90
ATOM     90  C   UNL A   1      44.828  33.269  29.367  1.00  0.00     0.023 A 
ATOM     91  C   UNL A   1      45.446  33.652  30.574  1.00  0.00     0.012 A 
ATOM     92  C   UNL A   1      44.473  34.258  28.429  1.00  0.00     0.148 A 
ATOM     93  C   UNL A   1      45.671  34.999  30.859  1.00  0.00     0.002 A 
ATOM     94  C   UNL A   1      44.750  35.593  28.695  1.00  0.00     0.091 A 
ATOM     95  F   UNL A   1      43.871  33.876  27.293  1.00  0.00    -0.205 F 
ATOM     96  C   UNL A   1      45.335  35.967  29.916  1.00  0.00     0.022 A 
BRANCH  94  97
ATOM     97  S   UNL A   1      44.444  36.899  27.501  1.00  0.00     0.127 S 
ATOM     98  O   UNL A   1      44.263  38.061  28.371  1.00  0.00    -0.237 OA
ATOM     99  O   UNL A   1      45.684  36.906  26.726  1.00  0.00    -0.237 OA
ATOM    100  O   UNL A   1      43.263  36.492  26.752  1.00  0.00    -0.744 OA
ENDBRANCH  94  97
ENDBRANCH  67  90
ENDBRANCH  41  42
ENDBRANCH  33  36
ENDBRANCH  31  32
ENDBRANCH  30  31
ENDBRANCH  29  30
ENDBRANCH   1  29
TORSDOF 20
ENDMDL
MODEL 3
REMARK VINA RESULT:     -10.5      1.598      2.374
REMARK SMILES CCC[NH2+][C@]1(C(=O)NCCCCCCNC(=O)c2ccc(-c3c4nc(c(-c5cccc(S(=O)(=O)[O-])c5F)c5ccc([nH]5)c(-c5cccc(S(=O)(=O)[O-])c5F)c5nc(c(-c6cccc(S(=O)(=O)[O-])c6F)c6ccc3[nH]6)C=C5)C=C4)cc2)CCC[C@H]([N@@H+]2CCOC(C)(C)C2)C1
REMARK SMILES IDX 11 1 10 2 9 3 8 4 6 5 7 6 5 8 81 9 93 10 82 11 84 12 83 13
REMARK SMILES IDX 4 14 3 17 2 18 1 19 85 20 86 21 92 22 87 24 89 25 88 26
REMARK SMILES IDX 90 27 91 28 12 29 13 30 14 31 15 32 16 33 17 35 18 36 19 37
REMARK SMILES IDX 80 38 20 39 79 40 21 41 22 42 23 43 73 44 24 45 78 46 72 47
REMARK SMILES IDX 74 48 25 49 77 50 71 51 70 52 26 54 58 55 38 56 57 57 39 58
REMARK SMILES IDX 42 59 56 60 75 61 40 62 41 63 55 65 76 66 43 67 27 68 28 69
REMARK SMILES IDX 36 70 29 71 31 72 37 73 30 74 32 75 33 76 34 77 35 78 59 79
REMARK SMILES IDX 60 80 68 81 61 82 63 83 69 84 62 85 64 86 65 87 66 88 67 89
REMARK SMILES IDX 44 90 45 91 53 92 46 93 48 94 54 95 47 96 49 97 50 98 51 99
REMARK SMILES IDX 52 100
REMARK H PARENT 8 7 4 15 4 16 85 23 15 34 74 53 42 64
REMARK Flexibility Score: inf
ROOT
ATOM      1  C   UNL A   1      34.202  30.073  26.983  1.00  0.00     0.002 C 
ENDROOT
BRANCH   1   2
ATOM      2  C   UNL A   1      32.792  29.530  27.244  1.00  0.00     0.021 C 
BRANCH   2   3
ATOM      3  C   UNL A   1      32.639  28.063  26.870  1.00  0.00     0.116 C 
BRANCH   3   4
ATOM      4  N   UNL A   1      31.527  27.918  25.965  1.00  0.00    -0.351 N 
ATOM      5  C   UNL A   1      31.312  27.133  24.890  1.00  0.00     0.281 C 
ATOM      6  O   UNL A   1      30.310  27.462  24.234  1.00  0.00    -0.268 OA
ATOM      7  H   UNL A   1      30.771  28.513  26.174  1.00  0.00     0.163 HD
BRANCH   5   8
ATOM      8  C   UNL A   1      32.081  25.780  24.568  1.00  0.00     0.181 C 
ATOM      9  C   UNL A   1      31.123  25.101  23.526  1.00  0.00     0.079 C 
ATOM     10  C   UNL A   1      33.481  25.856  23.913  1.00  0.00     0.144 C 
ATOM     11  C   UNL A   1      31.624  23.872  22.782  1.00  0.00     0.013 C 
ATOM     12  C   UNL A   1      34.044  24.554  23.261  1.00  0.00     0.191 C 
ATOM     13  C   UNL A   1      33.031  24.042  22.227  1.00  0.00     0.065 C 
BRANCH   8  14
ATOM     14  N   UNL A   1      32.062  25.011  25.845  1.00  0.00    -0.333 N 
ATOM     15  H   UNL A   1      32.689  24.213  25.744  1.00  0.00     0.347 HD
ATOM     16  H   UNL A   1      32.350  25.660  26.576  1.00  0.00     0.347 HD
BRANCH  14  17
ATOM     17  C   UNL A   1      30.742  24.505  26.239  1.00  0.00     0.261 C 
BRANCH  17  18
ATOM     18  C   UNL A   1      30.707  23.089  26.827  1.00  0.00     0.058 C 
ATOM     19  C   UNL A   1      29.344  22.570  27.249  1.00  0.00     0.010 C 
ENDBRANCH  17  18
ENDBRANCH  14  17
ENDBRANCH   8  14
BRANCH  12  20
ATOM     20  N   UNL A   1      34.656  23.545  24.187  1.00  0.00    -0.328 N 
ATOM     21  C   UNL A   1      36.093  23.345  23.858  1.00  0.00     0.291 C 
ATOM     22  C   UNL A   1      34.033  22.201  24.192  1.00  0.00     0.297 C 
ATOM     23  H   UNL A   1      34.504  23.951  25.111  1.00  0.00     0.348 HD
ATOM     24  C   UNL A   1      36.785  22.263  24.709  1.00  0.00     0.222 C 
ATOM     25  C   UNL A   1      34.732  21.137  25.088  1.00  0.00     0.112 C 
ATOM     26  O   UNL A   1      36.100  21.003  24.651  1.00  0.00    -0.364 OA
ATOM     27  C   UNL A   1      34.705  21.421  26.596  1.00  0.00     0.048 C 
ATOM     28  C   UNL A   1      34.041  19.781  24.858  1.00  0.00     0.048 C 
ENDBRANCH  12  20
ENDBRANCH   5   8
ENDBRANCH   3   4
ENDBRANCH   2   3
ENDBRANCH   1   2
BRANCH   1  29
ATOM     29  C   UNL A   1      34.627  31.212  27.916  1.00  0.00     0.002 C 
BRANCH  29  30
ATOM     30  C   UNL A   1      33.512  32.203  28.258  1.00  0.00     0.021 C 
BRANCH  30  31
ATOM     31  C   UNL A   1      33.405  33.375  27.289  1.00  0.00     0.116 C 
BRANCH  31  32
ATOM     32  N   UNL A   1      32.938  34.580  27.959  1.00  0.00    -0.352 N 
ATOM     33  C   UNL A   1      33.273  35.056  29.197  1.00  0.00     0.251 C 
ATOM     34  H   UNL A   1      32.294  35.126  27.452  1.00  0.00     0.163 HD
ATOM     35  O   UNL A   1      32.613  35.957  29.712  1.00  0.00    -0.269 OA
BRANCH  33  36
ATOM     36  C   UNL A   1      34.426  34.472  29.908  1.00  0.00     0.039 A 
ATOM     37  C   UNL A   1      34.202  33.746  31.078  1.00  0.00     0.014 A 
ATOM     38  C   UNL A   1      35.722  34.636  29.409  1.00  0.00     0.014 A 
ATOM     39  C   UNL A   1      35.280  33.145  31.728  1.00  0.00     0.010 A 
ATOM     40  C   UNL A   1      36.782  33.968  30.011  1.00  0.00     0.010 A 
ATOM     41  C   UNL A   1      36.574  33.227  31.184  1.00  0.00    -0.014 A 
BRANCH  41  42
ATOM     42  C   UNL A   1      37.715  32.530  31.825  1.00  0.00     0.031 A 
ATOM     43  C   UNL A   1      38.401  31.389  31.126  1.00  0.00     0.074 A 
ATOM     44  C   UNL A   1      38.086  32.881  33.072  1.00  0.00     0.049 A 
ATOM     45  N   UNL A   1      39.397  30.649  31.541  1.00  0.00    -0.248 NA
ATOM     46  C   UNL A   1      37.886  31.011  29.800  1.00  0.00     0.031 C 
ATOM     47  C   UNL A   1      37.439  33.913  33.885  1.00  0.00     0.029 A 
ATOM     48  N   UNL A   1      39.078  32.392  33.882  1.00  0.00    -0.354 N 
ATOM     49  C   UNL A   1      39.607  29.704  30.545  1.00  0.00     0.074 A 
ATOM     50  C   UNL A   1      38.608  29.936  29.525  1.00  0.00     0.031 C 
ATOM     51  C   UNL A   1      38.057  33.987  35.073  1.00  0.00     0.029 A 
ATOM     52  C   UNL A   1      39.119  32.986  35.121  1.00  0.00     0.049 A 
ATOM     53  H   UNL A   1      39.702  31.684  33.604  1.00  0.00     0.167 HD
ATOM     54  C   UNL A   1      40.565  28.748  30.470  1.00  0.00     0.034 A 
ATOM     55  C   UNL A   1      39.914  32.747  36.181  1.00  0.00     0.034 A 
ATOM     56  C   UNL A   1      41.569  28.539  31.478  1.00  0.00     0.049 A 
ATOM     57  C   UNL A   1      40.987  31.700  36.066  1.00  0.00     0.074 A 
ATOM     58  C   UNL A   1      42.632  27.654  31.463  1.00  0.00     0.029 A 
ATOM     59  N   UNL A   1      41.626  29.210  32.691  1.00  0.00    -0.354 N 
ATOM     60  N   UNL A   1      41.273  30.923  35.050  1.00  0.00    -0.248 NA
ATOM     61  C   UNL A   1      41.871  31.525  37.226  1.00  0.00     0.031 C 
ATOM     62  C   UNL A   1      43.310  27.765  32.681  1.00  0.00     0.029 A 
ATOM     63  C   UNL A   1      42.695  28.747  33.440  1.00  0.00     0.049 A 
ATOM     64  H   UNL A   1      40.998  29.912  32.978  1.00  0.00     0.167 HD
ATOM     65  C   UNL A   1      42.388  30.186  35.436  1.00  0.00     0.074 A 
ATOM     66  C   UNL A   1      42.738  30.631  36.770  1.00  0.00     0.031 C 
ATOM     67  C   UNL A   1      43.055  29.222  34.752  1.00  0.00     0.034 A 
BRANCH  54  68
ATOM     68  C   UNL A   1      40.590  27.883  29.237  1.00  0.00     0.023 A 
ATOM     69  C   UNL A   1      39.681  26.812  29.114  1.00  0.00     0.012 A 
ATOM     70  C   UNL A   1      41.484  28.150  28.181  1.00  0.00     0.148 A 
ATOM     71  C   UNL A   1      39.690  25.993  27.986  1.00  0.00     0.002 A 
ATOM     72  C   UNL A   1      41.453  27.361  27.036  1.00  0.00     0.091 A 
ATOM     73  F   UNL A   1      42.356  29.159  28.321  1.00  0.00    -0.205 F 
ATOM     74  C   UNL A   1      40.569  26.275  26.943  1.00  0.00     0.022 A 
BRANCH  72  75
ATOM     75  S   UNL A   1      42.488  27.691  25.605  1.00  0.00     0.127 S 
ATOM     76  O   UNL A   1      41.946  28.964  25.136  1.00  0.00    -0.237 OA
ATOM     77  O   UNL A   1      43.820  27.779  26.204  1.00  0.00    -0.237 OA
ATOM     78  O   UNL A   1      42.300  26.561  24.705  1.00  0.00    -0.744 OA
ENDBRANCH  72  75
ENDBRANCH  54  68
BRANCH  55  79
ATOM     79  C   UNL A   1      39.751  33.552  37.423  1.00  0.00     0.023 A 
ATOM     80  C   UNL A   1      38.717  33.239  38.326  1.00  0.00     0.012 A 
ATOM     81  C   UNL A   1      40.644  34.596  37.735  1.00  0.00     0.148 A 
ATOM     82  C   UNL A   1      38.558  33.970  39.504  1.00  0.00     0.002 A 
ATOM     83  C   UNL A   1      40.516  35.282  38.936  1.00  0.00     0.091 A 
ATOM     84  F   UNL A   1      41.617  34.880  36.857  1.00  0.00    -0.205 F 
ATOM     85  C   UNL A   1      39.462  34.982  39.815  1.00  0.00     0.022 A 
BRANCH  83  86
ATOM     86  S   UNL A   1      41.713  36.504  39.481  1.00  0.00     0.127 S 
ATOM     87  O   UNL A   1      41.765  37.403  38.331  1.00  0.00    -0.237 OA
ATOM     88  O   UNL A   1      41.058  37.055  40.668  1.00  0.00    -0.237 OA
ATOM     89  O   UNL A   1      42.936  35.765  39.758  1.00  0.00    -0.744 OA
ENDBRANCH  83  86
ENDBRANCH  55  79
BRANCH  67  90
ATOM     90  C   UNL A   1      44.254  28.600  35.419  1.00  0.00     0.023 A 
ATOM     91  C   UNL A   1      45.546  29.093  35.148  1.00  0.00     0.012 A 
ATOM     92  C   UNL A   1      44.092  27.569  36.365  1.00  0.00     0.148 A 
ATOM     93  C   UNL A   1      46.661  28.543  35.780  1.00  0.00     0.002 A 
ATOM     94  C   UNL A   1      45.201  27.064  37.031  1.00  0.00     0.091 A 
ATOM     95  F   UNL A   1      42.857  27.102  36.597  1.00  0.00    -0.205 F 
ATOM     96  C   UNL A   1      46.488  27.538  36.729  1.00  0.00     0.022 A 
BRANCH  94  97
ATOM     97  S   UNL A   1      45.067  25.840  38.339  1.00  0.00     0.127 S 
ATOM     98  O   UNL A   1      46.442  25.780  38.833  1.00  0.00    -0.237 OA
ATOM     99  O   UNL A   1      44.116  26.469  39.255  1.00  0.00    -0.237 OA
ATOM    100  O   UNL A   1      44.581  24.623  37.703  1.00  0.00    -0.744 OA
ENDBRANCH  94  97
ENDBRANCH  67  90
ENDBRANCH  41  42
ENDBRANCH  33  36
ENDBRANCH  31  32
ENDBRANCH  30  31
ENDBRANCH  29  30
ENDBRANCH   1  29
TORSDOF 20
ENDMDL
