MODEL 1
REMARK VINA RESULT:     -10.5      0.000      0.000
REMARK SMILES C[C@]12c3ccccc3[C@](C)(c3ccccc31)[C@@H]1C(=O)N(c3ccc(C(=O)NCCCCCCNC(=O)c4ccc(-c5c6nc(c(-c7cccc(S(=O)(=O)[O-])c7F)c7ccc([nH]7)c(-c7cccc(S(=O)(=O)[O-])c7F)c7nc(c(-c8cccc(S(=O)(=O)[O-])c8F)c8ccc5[nH]8)C=C7)C=C6)cc4)cc3)C(=O)[C@H]12
REMARK SMILES IDX 31 1 30 2 29 3 28 4 27 5 25 6 26 7 24 9 21 10 22 11 101 12
REMARK SMILES IDX 23 13 100 14 20 15 1 16 2 17 16 18 3 19 104 20 15 21 11 22
REMARK SMILES IDX 8 23 4 24 17 25 102 26 14 27 12 28 9 29 7 30 5 31 18 32
REMARK SMILES IDX 103 33 13 34 10 35 6 36 19 37 32 38 33 39 34 40 35 41 36 43
REMARK SMILES IDX 37 44 38 45 99 46 39 47 98 48 40 49 41 50 42 51 92 52 43 53
REMARK SMILES IDX 97 54 91 55 93 56 44 57 96 58 90 59 89 60 45 62 77 63 57 64
REMARK SMILES IDX 76 65 58 66 61 67 75 68 94 69 59 70 60 71 74 73 95 74 62 75
REMARK SMILES IDX 46 76 47 77 55 78 48 79 50 80 56 81 49 82 51 83 52 84 53 85
REMARK SMILES IDX 54 86 78 87 79 88 87 89 80 90 82 91 88 92 81 93 83 94 84 95
REMARK SMILES IDX 85 96 86 97 63 98 64 99 72 100 65 101 67 102 73 103 66 104
REMARK SMILES IDX 68 105 69 106 70 107 71 108
REMARK H PARENT 27 8 34 42 93 61 61 72
REMARK Flexibility Score: inf
ROOT
ATOM      1  C   UNL A   1      42.805  34.561  33.162  1.00  0.00     0.002 C 
ENDROOT
BRANCH   1   2
ATOM      2  C   UNL A   1      41.341  34.613  32.722  1.00  0.00     0.002 C 
BRANCH   2   3
ATOM      3  C   UNL A   1      40.292  34.507  33.832  1.00  0.00     0.021 C 
BRANCH   3   4
ATOM      4  C   UNL A   1      40.827  34.376  35.255  1.00  0.00     0.116 C 
BRANCH   4   5
ATOM      5  N   UNL A   1      40.007  33.535  36.110  1.00  0.00    -0.352 N 
ATOM      6  C   UNL A   1      39.967  32.167  36.240  1.00  0.00     0.251 C 
ATOM      7  O   UNL A   1      39.142  31.659  36.997  1.00  0.00    -0.269 OA
ATOM      8  H   UNL A   1      39.379  34.024  36.689  1.00  0.00     0.163 HD
BRANCH   6   9
ATOM      9  C   UNL A   1      40.848  31.288  35.433  1.00  0.00     0.039 A 
ATOM     10  C   UNL A   1      42.543  29.438  34.163  1.00  0.00     0.052 A 
ATOM     11  C   UNL A   1      43.025  30.250  35.197  1.00  0.00     0.027 A 
ATOM     12  C   UNL A   1      41.235  29.641  33.700  1.00  0.00     0.027 A 
ATOM     13  C   UNL A   1      42.189  31.183  35.815  1.00  0.00     0.016 A 
ATOM     14  C   UNL A   1      40.393  30.564  34.328  1.00  0.00     0.016 A 
BRANCH  10  15
ATOM     15  N   UNL A   1      43.329  28.389  33.640  1.00  0.00    -0.250 N 
ATOM     16  C   UNL A   1      46.643  27.640  30.650  1.00  0.00     0.022 C 
ATOM     17  C   UNL A   1      46.038  26.651  31.644  1.00  0.00     0.030 C 
ATOM     18  C   UNL A   1      47.033  26.095  32.699  1.00  0.00    -0.033 A 
ATOM     19  C   UNL A   1      45.417  25.369  31.000  1.00  0.00    -0.033 A 
ATOM     20  C   UNL A   1      44.751  27.197  32.308  1.00  0.00     0.108 C 
ATOM     21  C   UNL A   1      48.388  26.400  32.794  1.00  0.00     0.005 A 
ATOM     22  C   UNL A   1      46.463  25.123  33.594  1.00  0.00    -0.033 A 
ATOM     23  C   UNL A   1      44.747  24.524  31.953  1.00  0.00    -0.033 A 
ATOM     24  C   UNL A   1      45.403  25.059  29.643  1.00  0.00     0.005 A 
ATOM     25  C   UNL A   1      44.516  26.445  33.618  1.00  0.00     0.108 C 
ATOM     26  C   UNL A   1      44.386  28.581  32.738  1.00  0.00     0.238 C 
ATOM     27  C   UNL A   1      49.171  25.746  33.750  1.00  0.00     0.000 A 
ATOM     28  C   UNL A   1      47.259  24.469  34.531  1.00  0.00     0.005 A 
ATOM     29  C   UNL A   1      44.920  24.963  33.430  1.00  0.00     0.030 C 
ATOM     30  C   UNL A   1      44.067  23.395  31.509  1.00  0.00     0.005 A 
ATOM     31  C   UNL A   1      44.716  23.921  29.222  1.00  0.00     0.000 A 
ATOM     32  C   UNL A   1      43.214  27.048  34.028  1.00  0.00     0.238 C 
ATOM     33  O   UNL A   1      44.861  29.613  32.297  1.00  0.00    -0.274 OA
ATOM     34  C   UNL A   1      48.615  24.784  34.602  1.00  0.00     0.000 A 
ATOM     35  C   UNL A   1      44.260  24.057  34.467  1.00  0.00     0.022 C 
ATOM     36  C   UNL A   1      44.051  23.103  30.143  1.00  0.00     0.000 A 
ATOM     37  O   UNL A   1      42.326  26.493  34.652  1.00  0.00    -0.274 OA
ENDBRANCH  10  15
ENDBRANCH   6   9
ENDBRANCH   4   5
ENDBRANCH   3   4
ENDBRANCH   2   3
ENDBRANCH   1   2
BRANCH   1  38
ATOM     38  C   UNL A   1      43.582  35.872  33.058  1.00  0.00     0.021 C 
BRANCH  38  39
ATOM     39  C   UNL A   1      45.070  35.779  33.371  1.00  0.00     0.116 C 
BRANCH  39  40
ATOM     40  N   UNL A   1      45.899  36.551  32.458  1.00  0.00    -0.352 N 
ATOM     41  C   UNL A   1      46.375  36.205  31.213  1.00  0.00     0.251 C 
ATOM     42  H   UNL A   1      46.154  37.448  32.774  1.00  0.00     0.163 HD
ATOM     43  O   UNL A   1      47.173  36.936  30.635  1.00  0.00    -0.269 OA
BRANCH  41  44
ATOM     44  C   UNL A   1      45.951  34.925  30.604  1.00  0.00     0.039 A 
ATOM     45  C   UNL A   1      45.230  34.917  29.409  1.00  0.00     0.014 A 
ATOM     46  C   UNL A   1      46.223  33.726  31.268  1.00  0.00     0.014 A 
ATOM     47  C   UNL A   1      44.610  33.745  28.990  1.00  0.00     0.010 A 
ATOM     48  C   UNL A   1      45.681  32.531  30.785  1.00  0.00     0.010 A 
ATOM     49  C   UNL A   1      44.820  32.538  29.678  1.00  0.00    -0.014 A 
BRANCH  49  50
ATOM     50  C   UNL A   1      44.122  31.306  29.223  1.00  0.00     0.031 A 
ATOM     51  C   UNL A   1      44.838  30.269  28.396  1.00  0.00     0.074 A 
ATOM     52  C   UNL A   1      42.842  31.100  29.594  1.00  0.00     0.049 A 
ATOM     53  N   UNL A   1      44.380  29.136  27.928  1.00  0.00    -0.248 NA
ATOM     54  C   UNL A   1      46.246  30.529  28.047  1.00  0.00     0.031 C 
ATOM     55  C   UNL A   1      42.035  32.030  30.386  1.00  0.00     0.029 A 
ATOM     56  N   UNL A   1      41.999  30.042  29.365  1.00  0.00    -0.354 N 
ATOM     57  C   UNL A   1      45.421  28.571  27.199  1.00  0.00     0.074 A 
ATOM     58  C   UNL A   1      46.537  29.485  27.281  1.00  0.00     0.031 C 
ATOM     59  C   UNL A   1      40.830  31.489  30.609  1.00  0.00     0.029 A 
ATOM     60  C   UNL A   1      40.754  30.202  29.926  1.00  0.00     0.049 A 
ATOM     61  H   UNL A   1      42.260  29.246  28.848  1.00  0.00     0.167 HD
ATOM     62  C   UNL A   1      45.449  27.390  26.539  1.00  0.00     0.034 A 
ATOM     63  C   UNL A   1      39.662  29.416  29.884  1.00  0.00     0.034 A 
ATOM     64  C   UNL A   1      44.356  26.457  26.497  1.00  0.00     0.049 A 
ATOM     65  C   UNL A   1      39.717  28.117  29.136  1.00  0.00     0.074 A 
ATOM     66  C   UNL A   1      44.316  25.214  25.891  1.00  0.00     0.029 A 
ATOM     67  N   UNL A   1      43.115  26.661  27.077  1.00  0.00    -0.354 N 
ATOM     68  N   UNL A   1      40.734  27.574  28.514  1.00  0.00    -0.248 NA
ATOM     69  C   UNL A   1      38.485  27.317  29.095  1.00  0.00     0.031 C 
ATOM     70  C   UNL A   1      43.044  24.672  26.089  1.00  0.00     0.029 A 
ATOM     71  C   UNL A   1      42.300  25.569  26.838  1.00  0.00     0.049 A 
ATOM     72  H   UNL A   1      42.853  27.463  27.584  1.00  0.00     0.167 HD
ATOM     73  C   UNL A   1      40.272  26.361  28.021  1.00  0.00     0.074 A 
ATOM     74  C   UNL A   1      38.888  26.241  28.429  1.00  0.00     0.031 C 
ATOM     75  C   UNL A   1      40.937  25.440  27.284  1.00  0.00     0.034 A 
BRANCH  62  76
ATOM     76  C   UNL A   1      46.719  26.995  25.834  1.00  0.00     0.023 A 
ATOM     77  C   UNL A   1      47.570  26.042  26.426  1.00  0.00     0.012 A 
ATOM     78  C   UNL A   1      47.000  27.469  24.537  1.00  0.00     0.148 A 
ATOM     79  C   UNL A   1      48.688  25.569  25.740  1.00  0.00     0.002 A 
ATOM     80  C   UNL A   1      48.099  26.970  23.848  1.00  0.00     0.091 A 
ATOM     81  F   UNL A   1      46.177  28.379  23.999  1.00  0.00    -0.205 F 
ATOM     82  C   UNL A   1      48.945  26.023  24.449  1.00  0.00     0.022 A 
BRANCH  80  83
ATOM     83  S   UNL A   1      48.492  27.448  22.161  1.00  0.00     0.127 S 
ATOM     84  O   UNL A   1      49.692  28.261  22.359  1.00  0.00    -0.237 OA
ATOM     85  O   UNL A   1      48.730  26.154  21.524  1.00  0.00    -0.237 OA
ATOM     86  O   UNL A   1      47.331  28.174  21.665  1.00  0.00    -0.744 OA
ENDBRANCH  80  83
ENDBRANCH  62  76
BRANCH  63  87
ATOM     87  C   UNL A   1      38.437  29.843  30.610  1.00  0.00     0.023 A 
ATOM     88  C   UNL A   1      38.234  29.411  31.934  1.00  0.00     0.012 A 
ATOM     89  C   UNL A   1      37.525  30.744  30.026  1.00  0.00     0.148 A 
ATOM     90  C   UNL A   1      37.139  29.870  32.667  1.00  0.00     0.002 A 
ATOM     91  C   UNL A   1      36.461  31.228  30.775  1.00  0.00     0.091 A 
ATOM     92  F   UNL A   1      37.747  31.140  28.765  1.00  0.00    -0.205 F 
ATOM     93  C   UNL A   1      36.261  30.787  32.092  1.00  0.00     0.022 A 
BRANCH  91  94
ATOM     94  S   UNL A   1      35.336  32.485  30.160  1.00  0.00     0.127 S 
ATOM     95  O   UNL A   1      36.260  33.552  29.782  1.00  0.00    -0.237 OA
ATOM     96  O   UNL A   1      34.703  31.792  29.037  1.00  0.00    -0.237 OA
ATOM     97  O   UNL A   1      34.441  32.797  31.265  1.00  0.00    -0.744 OA
ENDBRANCH  91  94
ENDBRANCH  63  87
BRANCH  75  98
ATOM     98  C   UNL A   1      40.203  24.194  26.874  1.00  0.00     0.023 A 
ATOM     99  C   UNL A   1      38.956  24.307  26.231  1.00  0.00     0.012 A 
ATOM    100  C   UNL A   1      40.812  22.931  27.001  1.00  0.00     0.148 A 
ATOM    101  C   UNL A   1      38.322  23.175  25.721  1.00  0.00     0.002 A 
ATOM    102  C   UNL A   1      40.192  21.812  26.461  1.00  0.00     0.091 A 
ATOM    103  F   UNL A   1      41.998  22.855  27.622  1.00  0.00    -0.205 F 
ATOM    104  C   UNL A   1      38.944  21.932  25.824  1.00  0.00     0.022 A 
BRANCH 102 105
ATOM    105  S   UNL A   1      40.944  20.182  26.480  1.00  0.00     0.127 S 
ATOM    106  O   UNL A   1      41.025  19.909  27.915  1.00  0.00    -0.237 OA
ATOM    107  O   UNL A   1      39.956  19.378  25.761  1.00  0.00    -0.237 OA
ATOM    108  O   UNL A   1      42.228  20.319  25.806  1.00  0.00    -0.744 OA
ENDBRANCH 102 105
ENDBRANCH  75  98
ENDBRANCH  49  50
ENDBRANCH  41  44
ENDBRANCH  39  40
ENDBRANCH  38  39
ENDBRANCH   1  38
TORSDOF 17
ENDMDL
MODEL 2
REMARK VINA RESULT:     -10.3      1.566      7.149
REMARK SMILES C[C@]12c3ccccc3[C@](C)(c3ccccc31)[C@@H]1C(=O)N(c3ccc(C(=O)NCCCCCCNC(=O)c4ccc(-c5c6nc(c(-c7cccc(S(=O)(=O)[O-])c7F)c7ccc([nH]7)c(-c7cccc(S(=O)(=O)[O-])c7F)c7nc(c(-c8cccc(S(=O)(=O)[O-])c8F)c8ccc5[nH]8)C=C7)C=C6)cc4)cc3)C(=O)[C@H]12
REMARK SMILES IDX 31 1 30 2 29 3 28 4 27 5 25 6 26 7 24 9 21 10 22 11 101 12
REMARK SMILES IDX 23 13 100 14 20 15 1 16 2 17 16 18 3 19 104 20 15 21 11 22
REMARK SMILES IDX 8 23 4 24 17 25 102 26 14 27 12 28 9 29 7 30 5 31 18 32
REMARK SMILES IDX 103 33 13 34 10 35 6 36 19 37 32 38 33 39 34 40 35 41 36 43
REMARK SMILES IDX 37 44 38 45 99 46 39 47 98 48 40 49 41 50 42 51 92 52 43 53
REMARK SMILES IDX 97 54 91 55 93 56 44 57 96 58 90 59 89 60 45 62 77 63 57 64
REMARK SMILES IDX 76 65 58 66 61 67 75 68 94 69 59 70 60 71 74 73 95 74 62 75
REMARK SMILES IDX 46 76 47 77 55 78 48 79 50 80 56 81 49 82 51 83 52 84 53 85
REMARK SMILES IDX 54 86 78 87 79 88 87 89 80 90 82 91 88 92 81 93 83 94 84 95
REMARK SMILES IDX 85 96 86 97 63 98 64 99 72 100 65 101 67 102 73 103 66 104
REMARK SMILES IDX 68 105 69 106 70 107 71 108
REMARK H PARENT 27 8 34 42 93 61 61 72
REMARK Flexibility Score: inf
ROOT
ATOM      1  C   UNL A   1      42.853  34.823  33.244  1.00  0.00     0.002 C 
ENDROOT
BRANCH   1   2
ATOM      2  C   UNL A   1      41.410  34.604  32.785  1.00  0.00     0.002 C 
BRANCH   2   3
ATOM      3  C   UNL A   1      40.342  34.594  33.882  1.00  0.00     0.021 C 
BRANCH   3   4
ATOM      4  C   UNL A   1      40.849  34.483  35.317  1.00  0.00     0.116 C 
BRANCH   4   5
ATOM      5  N   UNL A   1      40.024  33.638  36.162  1.00  0.00    -0.352 N 
ATOM      6  C   UNL A   1      40.013  32.273  36.320  1.00  0.00     0.251 C 
ATOM      7  O   UNL A   1      39.177  31.759  37.060  1.00  0.00    -0.269 OA
ATOM      8  H   UNL A   1      39.365  34.122  36.711  1.00  0.00     0.163 HD
BRANCH   6   9
ATOM      9  C   UNL A   1      40.942  31.401  35.559  1.00  0.00     0.039 A 
ATOM     10  C   UNL A   1      42.651  29.528  34.344  1.00  0.00     0.052 A 
ATOM     11  C   UNL A   1      42.993  30.110  35.570  1.00  0.00     0.027 A 
ATOM     12  C   UNL A   1      41.499  29.976  33.682  1.00  0.00     0.027 A 
ATOM     13  C   UNL A   1      42.153  31.056  36.166  1.00  0.00     0.016 A 
ATOM     14  C   UNL A   1      40.651  30.911  34.284  1.00  0.00     0.016 A 
BRANCH  10  15
ATOM     15  N   UNL A   1      43.410  28.463  33.812  1.00  0.00    -0.250 N 
ATOM     16  C   UNL A   1      46.497  27.605  30.616  1.00  0.00     0.022 C 
ATOM     17  C   UNL A   1      45.983  26.659  31.699  1.00  0.00     0.030 C 
ATOM     18  C   UNL A   1      47.062  26.164  32.700  1.00  0.00    -0.033 A 
ATOM     19  C   UNL A   1      45.333  25.341  31.165  1.00  0.00    -0.033 A 
ATOM     20  C   UNL A   1      44.743  27.223  32.433  1.00  0.00     0.108 C 
ATOM     21  C   UNL A   1      48.416  26.486  32.676  1.00  0.00     0.005 A 
ATOM     22  C   UNL A   1      46.575  25.230  33.680  1.00  0.00    -0.033 A 
ATOM     23  C   UNL A   1      44.748  24.536  32.205  1.00  0.00    -0.033 A 
ATOM     24  C   UNL A   1      45.220  24.966  29.829  1.00  0.00     0.005 A 
ATOM     25  C   UNL A   1      44.618  26.532  33.791  1.00  0.00     0.108 C 
ATOM     26  C   UNL A   1      44.392  28.622  32.824  1.00  0.00     0.238 C 
ATOM     27  C   UNL A   1      49.279  25.886  33.600  1.00  0.00     0.000 A 
ATOM     28  C   UNL A   1      47.448  24.630  34.584  1.00  0.00     0.005 A 
ATOM     29  C   UNL A   1      45.026  25.047  33.642  1.00  0.00     0.030 C 
ATOM     30  C   UNL A   1      44.051  23.380  31.868  1.00  0.00     0.005 A 
ATOM     31  C   UNL A   1      44.519  23.803  29.515  1.00  0.00     0.000 A 
ATOM     32  C   UNL A   1      43.342  27.141  34.271  1.00  0.00     0.238 C 
ATOM     33  O   UNL A   1      44.819  29.637  32.300  1.00  0.00    -0.274 OA
ATOM     34  C   UNL A   1      48.802  24.960  34.536  1.00  0.00     0.000 A 
ATOM     35  C   UNL A   1      44.460  24.185  34.768  1.00  0.00     0.022 C 
ATOM     36  C   UNL A   1      43.936  23.023  30.522  1.00  0.00     0.000 A 
ATOM     37  O   UNL A   1      42.512  26.608  34.986  1.00  0.00    -0.274 OA
ENDBRANCH  10  15
ENDBRANCH   6   9
ENDBRANCH   4   5
ENDBRANCH   3   4
ENDBRANCH   2   3
ENDBRANCH   1   2
BRANCH   1  38
ATOM     38  C   UNL A   1      43.488  36.154  32.842  1.00  0.00     0.021 C 
BRANCH  38  39
ATOM     39  C   UNL A   1      45.009  36.196  32.895  1.00  0.00     0.116 C 
BRANCH  39  40
ATOM     40  N   UNL A   1      45.599  37.003  31.837  1.00  0.00    -0.352 N 
ATOM     41  C   UNL A   1      45.955  36.635  30.560  1.00  0.00     0.251 C 
ATOM     42  H   UNL A   1      45.765  37.946  32.068  1.00  0.00     0.163 HD
ATOM     43  O   UNL A   1      46.563  37.421  29.840  1.00  0.00    -0.269 OA
BRANCH  41  44
ATOM     44  C   UNL A   1      45.638  35.271  30.082  1.00  0.00     0.039 A 
ATOM     45  C   UNL A   1      44.879  35.086  28.926  1.00  0.00     0.014 A 
ATOM     46  C   UNL A   1      46.052  34.168  30.835  1.00  0.00     0.014 A 
ATOM     47  C   UNL A   1      44.364  33.827  28.638  1.00  0.00     0.010 A 
ATOM     48  C   UNL A   1      45.615  32.888  30.482  1.00  0.00     0.010 A 
ATOM     49  C   UNL A   1      44.718  32.712  29.417  1.00  0.00    -0.014 A 
BRANCH  49  50
ATOM     50  C   UNL A   1      44.130  31.383  29.102  1.00  0.00     0.031 A 
ATOM     51  C   UNL A   1      42.726  31.035  29.526  1.00  0.00     0.074 A 
ATOM     52  C   UNL A   1      44.853  30.496  28.390  1.00  0.00     0.049 A 
ATOM     53  N   UNL A   1      42.060  29.927  29.323  1.00  0.00    -0.248 NA
ATOM     54  C   UNL A   1      41.968  32.054  30.274  1.00  0.00     0.031 C 
ATOM     55  C   UNL A   1      46.227  30.708  27.927  1.00  0.00     0.029 A 
ATOM     56  N   UNL A   1      44.536  29.246  27.923  1.00  0.00    -0.354 N 
ATOM     57  C   UNL A   1      40.830  30.097  29.947  1.00  0.00     0.074 A 
ATOM     58  C   UNL A   1      40.837  31.414  30.542  1.00  0.00     0.031 C 
ATOM     59  C   UNL A   1      46.620  29.646  27.212  1.00  0.00     0.029 A 
ATOM     60  C   UNL A   1      45.554  28.650  27.216  1.00  0.00     0.049 A 
ATOM     61  H   UNL A   1      43.664  28.817  28.078  1.00  0.00     0.167 HD
ATOM     62  C   UNL A   1      39.782  29.241  30.002  1.00  0.00     0.034 A 
ATOM     63  C   UNL A   1      45.636  27.432  26.649  1.00  0.00     0.034 A 
ATOM     64  C   UNL A   1      39.755  27.950  29.370  1.00  0.00     0.049 A 
ATOM     65  C   UNL A   1      44.466  26.499  26.734  1.00  0.00     0.074 A 
ATOM     66  C   UNL A   1      38.716  27.037  29.334  1.00  0.00     0.029 A 
ATOM     67  N   UNL A   1      40.808  27.387  28.666  1.00  0.00    -0.354 N 
ATOM     68  N   UNL A   1      43.289  26.710  27.270  1.00  0.00    -0.248 NA
ATOM     69  C   UNL A   1      44.624  25.170  26.127  1.00  0.00     0.031 C 
ATOM     70  C   UNL A   1      39.146  25.913  28.625  1.00  0.00     0.029 A 
ATOM     71  C   UNL A   1      40.445  26.136  28.199  1.00  0.00     0.049 A 
ATOM     72  H   UNL A   1      41.683  27.814  28.521  1.00  0.00     0.167 HD
ATOM     73  C   UNL A   1      42.560  25.548  27.052  1.00  0.00     0.074 A 
ATOM     74  C   UNL A   1      43.422  24.642  26.320  1.00  0.00     0.031 C 
ATOM     75  C   UNL A   1      41.294  25.260  27.437  1.00  0.00     0.034 A 
BRANCH  62  76
ATOM     76  C   UNL A   1      38.542  29.675  30.734  1.00  0.00     0.023 A 
ATOM     77  C   UNL A   1      38.354  29.277  32.072  1.00  0.00     0.012 A 
ATOM     78  C   UNL A   1      37.633  30.576  30.142  1.00  0.00     0.148 A 
ATOM     79  C   UNL A   1      37.277  29.765  32.810  1.00  0.00     0.002 A 
ATOM     80  C   UNL A   1      36.579  31.080  30.894  1.00  0.00     0.091 A 
ATOM     81  F   UNL A   1      37.831  30.934  28.866  1.00  0.00    -0.205 F 
ATOM     82  C   UNL A   1      36.398  30.673  32.227  1.00  0.00     0.022 A 
BRANCH  80  83
ATOM     83  S   UNL A   1      35.420  32.295  30.256  1.00  0.00     0.127 S 
ATOM     84  O   UNL A   1      34.873  31.596  29.093  1.00  0.00    -0.237 OA
ATOM     85  O   UNL A   1      34.487  32.444  31.372  1.00  0.00    -0.237 OA
ATOM     86  O   UNL A   1      36.205  33.482  29.948  1.00  0.00    -0.744 OA
ENDBRANCH  80  83
ENDBRANCH  62  76
BRANCH  63  87
ATOM     87  C   UNL A   1      46.878  27.056  25.922  1.00  0.00     0.023 A 
ATOM     88  C   UNL A   1      47.001  27.375  24.557  1.00  0.00     0.012 A 
ATOM     89  C   UNL A   1      47.965  26.471  26.600  1.00  0.00     0.148 A 
ATOM     90  C   UNL A   1      48.191  27.114  23.876  1.00  0.00     0.002 A 
ATOM     91  C   UNL A   1      49.159  26.252  25.926  1.00  0.00     0.091 A 
ATOM     92  F   UNL A   1      47.819  26.182  27.900  1.00  0.00    -0.205 F 
ATOM     93  C   UNL A   1      49.272  26.565  24.562  1.00  0.00     0.022 A 
BRANCH  91  94
ATOM     94  S   UNL A   1      50.637  25.644  26.745  1.00  0.00     0.127 S 
ATOM     95  O   UNL A   1      50.138  24.438  27.401  1.00  0.00    -0.237 OA
ATOM     96  O   UNL A   1      51.528  25.405  25.610  1.00  0.00    -0.237 OA
ATOM     97  O   UNL A   1      51.064  26.709  27.640  1.00  0.00    -0.744 OA
ENDBRANCH  91  94
ENDBRANCH  63  87
BRANCH  75  98
ATOM     98  C   UNL A   1      40.729  23.917  27.068  1.00  0.00     0.023 A 
ATOM     99  C   UNL A   1      41.326  22.750  27.582  1.00  0.00     0.012 A 
ATOM    100  C   UNL A   1      39.532  23.823  26.333  1.00  0.00     0.148 A 
ATOM    101  C   UNL A   1      40.739  21.505  27.365  1.00  0.00     0.002 A 
ATOM    102  C   UNL A   1      38.934  22.583  26.149  1.00  0.00     0.091 A 
ATOM    103  F   UNL A   1      38.988  24.951  25.852  1.00  0.00    -0.205 F 
ATOM    104  C   UNL A   1      39.539  21.422  26.662  1.00  0.00     0.022 A 
BRANCH 102 105
ATOM    105  S   UNL A   1      37.355  22.380  25.319  1.00  0.00     0.127 S 
ATOM    106  O   UNL A   1      37.272  20.926  25.189  1.00  0.00    -0.237 OA
ATOM    107  O   UNL A   1      36.422  22.961  26.284  1.00  0.00    -0.237 OA
ATOM    108  O   UNL A   1      37.462  23.106  24.060  1.00  0.00    -0.744 OA
ENDBRANCH 102 105
ENDBRANCH  75  98
ENDBRANCH  49  50
ENDBRANCH  41  44
ENDBRANCH  39  40
ENDBRANCH  38  39
ENDBRANCH   1  38
TORSDOF 17
ENDMDL
MODEL 3
REMARK VINA RESULT:      -9.9      3.058      9.381
REMARK SMILES C[C@]12c3ccccc3[C@](C)(c3ccccc31)[C@@H]1C(=O)N(c3ccc(C(=O)NCCCCCCNC(=O)c4ccc(-c5c6nc(c(-c7cccc(S(=O)(=O)[O-])c7F)c7ccc([nH]7)c(-c7cccc(S(=O)(=O)[O-])c7F)c7nc(c(-c8cccc(S(=O)(=O)[O-])c8F)c8ccc5[nH]8)C=C7)C=C6)cc4)cc3)C(=O)[C@H]12
REMARK SMILES IDX 31 1 30 2 29 3 28 4 27 5 25 6 26 7 24 9 21 10 22 11 101 12
REMARK SMILES IDX 23 13 100 14 20 15 1 16 2 17 16 18 3 19 104 20 15 21 11 22
REMARK SMILES IDX 8 23 4 24 17 25 102 26 14 27 12 28 9 29 7 30 5 31 18 32
REMARK SMILES IDX 103 33 13 34 10 35 6 36 19 37 32 38 33 39 34 40 35 41 36 43
REMARK SMILES IDX 37 44 38 45 99 46 39 47 98 48 40 49 41 50 42 51 92 52 43 53
REMARK SMILES IDX 97 54 91 55 93 56 44 57 96 58 90 59 89 60 45 62 77 63 57 64
REMARK SMILES IDX 76 65 58 66 61 67 75 68 94 69 59 70 60 71 74 73 95 74 62 75
REMARK SMILES IDX 46 76 47 77 55 78 48 79 50 80 56 81 49 82 51 83 52 84 53 85
REMARK SMILES IDX 54 86 78 87 79 88 87 89 80 90 82 91 88 92 81 93 83 94 84 95
REMARK SMILES IDX 85 96 86 97 63 98 64 99 72 100 65 101 67 102 73 103 66 104
REMARK SMILES IDX 68 105 69 106 70 107 71 108
REMARK H PARENT 27 8 34 42 93 61 61 72
REMARK Flexibility Score: inf
ROOT
ATOM      1  C   UNL A   1      36.976  33.365  30.411  1.00  0.00     0.002 C 
ENDROOT
BRANCH   1   2
ATOM      2  C   UNL A   1      38.224  33.279  29.531  1.00  0.00     0.002 C 
BRANCH   2   3
ATOM      3  C   UNL A   1      39.464  34.022  30.035  1.00  0.00     0.021 C 
BRANCH   3   4
ATOM      4  C   UNL A   1      40.790  33.275  29.923  1.00  0.00     0.116 C 
BRANCH   4   5
ATOM      5  N   UNL A   1      41.935  34.053  30.364  1.00  0.00    -0.352 N 
ATOM      6  C   UNL A   1      43.281  33.838  30.187  1.00  0.00     0.251 C 
ATOM      7  O   UNL A   1      44.087  34.610  30.703  1.00  0.00    -0.269 OA
ATOM      8  H   UNL A   1      41.710  34.866  30.871  1.00  0.00     0.163 HD
BRANCH   6   9
ATOM      9  C   UNL A   1      43.783  32.652  29.448  1.00  0.00     0.039 A 
ATOM     10  C   UNL A   1      45.025  30.487  28.154  1.00  0.00     0.052 A 
ATOM     11  C   UNL A   1      45.272  31.800  27.737  1.00  0.00     0.027 A 
ATOM     12  C   UNL A   1      44.066  30.266  29.152  1.00  0.00     0.027 A 
ATOM     13  C   UNL A   1      44.641  32.876  28.367  1.00  0.00     0.016 A 
ATOM     14  C   UNL A   1      43.444  31.342  29.793  1.00  0.00     0.016 A 
BRANCH  10  15
ATOM     15  N   UNL A   1      45.772  29.409  27.632  1.00  0.00    -0.250 N 
ATOM     16  C   UNL A   1      47.386  27.829  23.711  1.00  0.00     0.022 C 
ATOM     17  C   UNL A   1      47.657  27.298  25.117  1.00  0.00     0.030 C 
ATOM     18  C   UNL A   1      49.144  27.358  25.562  1.00  0.00    -0.033 A 
ATOM     19  C   UNL A   1      47.257  25.804  25.343  1.00  0.00    -0.033 A 
ATOM     20  C   UNL A   1      46.720  27.929  26.175  1.00  0.00     0.108 C 
ATOM     21  C   UNL A   1      50.213  27.822  24.801  1.00  0.00     0.005 A 
ATOM     22  C   UNL A   1      49.393  26.803  26.866  1.00  0.00    -0.033 A 
ATOM     23  C   UNL A   1      47.409  25.377  26.709  1.00  0.00    -0.033 A 
ATOM     24  C   UNL A   1      46.722  24.946  24.386  1.00  0.00     0.005 A 
ATOM     25  C   UNL A   1      47.368  27.785  27.553  1.00  0.00     0.108 C 
ATOM     26  C   UNL A   1      46.172  29.314  26.292  1.00  0.00     0.238 C 
ATOM     27  C   UNL A   1      51.511  27.728  25.315  1.00  0.00     0.000 A 
ATOM     28  C   UNL A   1      50.692  26.703  27.359  1.00  0.00     0.005 A 
ATOM     29  C   UNL A   1      48.089  26.419  27.633  1.00  0.00     0.030 C 
ATOM     30  C   UNL A   1      47.002  24.098  27.077  1.00  0.00     0.005 A 
ATOM     31  C   UNL A   1      46.323  23.668  24.778  1.00  0.00     0.000 A 
ATOM     32  C   UNL A   1      46.283  28.358  28.404  1.00  0.00     0.238 C 
ATOM     33  O   UNL A   1      46.034  30.106  25.375  1.00  0.00    -0.274 OA
ATOM     34  C   UNL A   1      51.748  27.166  26.575  1.00  0.00     0.000 A 
ATOM     35  C   UNL A   1      48.308  25.974  29.077  1.00  0.00     0.022 C 
ATOM     36  C   UNL A   1      46.456  23.252  26.109  1.00  0.00     0.000 A 
ATOM     37  O   UNL A   1      46.011  28.027  29.546  1.00  0.00    -0.274 OA
ENDBRANCH  10  15
ENDBRANCH   6   9
ENDBRANCH   4   5
ENDBRANCH   3   4
ENDBRANCH   2   3
ENDBRANCH   1   2
BRANCH   1  38
ATOM     38  C   UNL A   1      35.694  33.816  29.711  1.00  0.00     0.021 C 
BRANCH  38  39
ATOM     39  C   UNL A   1      35.627  33.531  28.217  1.00  0.00     0.116 C 
BRANCH  39  40
ATOM     40  N   UNL A   1      34.504  32.685  27.843  1.00  0.00    -0.352 N 
ATOM     41  C   UNL A   1      34.446  31.314  27.736  1.00  0.00     0.251 C 
ATOM     42  H   UNL A   1      33.666  33.161  27.638  1.00  0.00     0.163 HD
ATOM     43  O   UNL A   1      33.443  30.774  27.279  1.00  0.00    -0.269 OA
BRANCH  41  44
ATOM     44  C   UNL A   1      35.619  30.504  28.134  1.00  0.00     0.039 A 
ATOM     45  C   UNL A   1      35.643  29.855  29.369  1.00  0.00     0.014 A 
ATOM     46  C   UNL A   1      36.731  30.447  27.289  1.00  0.00     0.014 A 
ATOM     47  C   UNL A   1      36.839  29.329  29.844  1.00  0.00     0.010 A 
ATOM     48  C   UNL A   1      37.903  29.825  27.731  1.00  0.00     0.010 A 
ATOM     49  C   UNL A   1      37.987  29.315  29.035  1.00  0.00    -0.014 A 
BRANCH  49  50
ATOM     50  C   UNL A   1      39.260  28.770  29.580  1.00  0.00     0.031 A 
ATOM     51  C   UNL A   1      39.865  29.328  30.843  1.00  0.00     0.074 A 
ATOM     52  C   UNL A   1      39.853  27.734  28.954  1.00  0.00     0.049 A 
ATOM     53  N   UNL A   1      40.962  28.961  31.457  1.00  0.00    -0.248 NA
ATOM     54  C   UNL A   1      39.158  30.438  31.505  1.00  0.00     0.031 C 
ATOM     55  C   UNL A   1      39.372  27.109  27.720  1.00  0.00     0.029 A 
ATOM     56  N   UNL A   1      40.979  27.018  29.270  1.00  0.00    -0.354 N 
ATOM     57  C   UNL A   1      41.097  29.814  32.545  1.00  0.00     0.074 A 
ATOM     58  C   UNL A   1      39.975  30.724  32.511  1.00  0.00     0.031 C 
ATOM     59  C   UNL A   1      40.173  26.082  27.404  1.00  0.00     0.029 A 
ATOM     60  C   UNL A   1      41.259  26.012  28.375  1.00  0.00     0.049 A 
ATOM     61  H   UNL A   1      41.534  27.206  30.061  1.00  0.00     0.167 HD
ATOM     62  C   UNL A   1      42.059  29.825  33.498  1.00  0.00     0.034 A 
ATOM     63  C   UNL A   1      42.282  25.139  28.324  1.00  0.00     0.034 A 
ATOM     64  C   UNL A   1      43.150  28.891  33.561  1.00  0.00     0.049 A 
ATOM     65  C   UNL A   1      43.340  25.180  29.385  1.00  0.00     0.074 A 
ATOM     66  C   UNL A   1      44.143  28.800  34.520  1.00  0.00     0.029 A 
ATOM     67  N   UNL A   1      43.394  27.891  32.634  1.00  0.00    -0.354 N 
ATOM     68  N   UNL A   1      43.409  25.951  30.442  1.00  0.00    -0.248 NA
ATOM     69  C   UNL A   1      44.452  24.227  29.260  1.00  0.00     0.031 C 
ATOM     70  C   UNL A   1      45.000  27.757  34.163  1.00  0.00     0.029 A 
ATOM     71  C   UNL A   1      44.526  27.183  32.995  1.00  0.00     0.049 A 
ATOM     72  H   UNL A   1      42.844  27.711  31.838  1.00  0.00     0.167 HD
ATOM     73  C   UNL A   1      44.560  25.567  31.117  1.00  0.00     0.074 A 
ATOM     74  C   UNL A   1      45.151  24.484  30.359  1.00  0.00     0.031 C 
ATOM     75  C   UNL A   1      45.083  26.079  32.257  1.00  0.00     0.034 A 
BRANCH  62  76
ATOM     76  C   UNL A   1      41.968  30.853  34.594  1.00  0.00     0.023 A 
ATOM     77  C   UNL A   1      41.434  30.484  35.843  1.00  0.00     0.012 A 
ATOM     78  C   UNL A   1      42.526  32.136  34.426  1.00  0.00     0.148 A 
ATOM     79  C   UNL A   1      41.451  31.381  36.911  1.00  0.00     0.002 A 
ATOM     80  C   UNL A   1      42.565  33.013  35.503  1.00  0.00     0.091 A 
ATOM     81  F   UNL A   1      43.022  32.464  33.225  1.00  0.00    -0.205 F 
ATOM     82  C   UNL A   1      42.026  32.638  36.745  1.00  0.00     0.022 A 
BRANCH  80  83
ATOM     83  S   UNL A   1      43.330  34.636  35.412  1.00  0.00     0.127 S 
ATOM     84  O   UNL A   1      43.865  34.784  36.766  1.00  0.00    -0.237 OA
ATOM     85  O   UNL A   1      44.340  34.441  34.375  1.00  0.00    -0.237 OA
ATOM     86  O   UNL A   1      42.265  35.567  35.067  1.00  0.00    -0.744 OA
ENDBRANCH  80  83
ENDBRANCH  62  76
BRANCH  63  87
ATOM     87  C   UNL A   1      42.318  24.132  27.230  1.00  0.00     0.023 A 
ATOM     88  C   UNL A   1      42.946  24.457  26.014  1.00  0.00     0.012 A 
ATOM     89  C   UNL A   1      41.814  22.831  27.427  1.00  0.00     0.148 A 
ATOM     90  C   UNL A   1      43.071  23.500  25.006  1.00  0.00     0.002 A 
ATOM     91  C   UNL A   1      41.979  21.873  26.435  1.00  0.00     0.091 A 
ATOM     92  F   UNL A   1      41.224  22.551  28.596  1.00  0.00    -0.205 F 
ATOM     93  C   UNL A   1      42.599  22.206  25.221  1.00  0.00     0.022 A 
BRANCH  91  94
ATOM     94  S   UNL A   1      41.496  20.157  26.657  1.00  0.00     0.127 S 
ATOM     95  O   UNL A   1      40.050  20.275  26.825  1.00  0.00    -0.237 OA
ATOM     96  O   UNL A   1      41.923  19.563  25.389  1.00  0.00    -0.237 OA
ATOM     97  O   UNL A   1      42.224  19.686  27.826  1.00  0.00    -0.744 OA
ENDBRANCH  91  94
ENDBRANCH  63  87
BRANCH  75  98
ATOM     98  C   UNL A   1      46.352  25.477  32.789  1.00  0.00     0.023 A 
ATOM     99  C   UNL A   1      47.590  26.040  32.428  1.00  0.00     0.012 A 
ATOM    100  C   UNL A   1      46.307  24.447  33.750  1.00  0.00     0.148 A 
ATOM    101  C   UNL A   1      48.770  25.585  33.015  1.00  0.00     0.002 A 
ATOM    102  C   UNL A   1      47.481  24.022  34.355  1.00  0.00     0.091 A 
ATOM    103  F   UNL A   1      45.113  23.927  34.070  1.00  0.00    -0.205 F 
ATOM    104  C   UNL A   1      48.715  24.586  33.986  1.00  0.00     0.022 A 
BRANCH 102 105
ATOM    105  S   UNL A   1      47.507  22.793  35.665  1.00  0.00     0.127 S 
ATOM    106  O   UNL A   1      48.928  22.757  36.010  1.00  0.00    -0.237 OA
ATOM    107  O   UNL A   1      46.649  23.405  36.679  1.00  0.00    -0.237 OA
ATOM    108  O   UNL A   1      46.984  21.566  35.081  1.00  0.00    -0.744 OA
ENDBRANCH 102 105
ENDBRANCH  75  98
ENDBRANCH  49  50
ENDBRANCH  41  44
ENDBRANCH  39  40
ENDBRANCH  38  39
ENDBRANCH   1  38
TORSDOF 17
ENDMDL
