MODEL 1
REMARK VINA RESULT:     -12.9      0.000      0.000
REMARK SMILES O=C(NCCCCCCNC(=O)c1ccccc1C(=O)Nc1ccc(N2C(=O)[C@H]3[C@@H]4CC[C@@H](C4)[C@@H]3C2=O)cc1)c1ccc(-c2c3nc(c(-c4cccc(S(=O)(=O)[O-])c4F)c4ccc([nH]4)c(-c4cccc(S(=O)(=O)[O-])c4F)c4nc(c(-c5cccc(S(=O)(=O)[O-])c5F)c5ccc2[nH]5)C=C4)C=C3)cc1
REMARK SMILES IDX 6 1 5 2 4 3 3 4 1 5 2 6 40 8 41 9 102 10 42 11 101 12 43 13
REMARK SMILES IDX 44 14 45 15 95 16 46 17 100 18 94 19 96 20 47 21 99 22 93 23
REMARK SMILES IDX 92 24 48 26 80 27 60 28 79 29 61 30 64 31 78 32 97 33 62 34
REMARK SMILES IDX 63 35 77 37 98 38 65 39 49 40 50 41 58 42 51 43 53 44 59 45
REMARK SMILES IDX 52 46 54 47 55 48 56 49 57 50 81 51 82 52 90 53 83 54 85 55
REMARK SMILES IDX 91 56 84 57 86 58 87 59 88 60 89 61 66 62 67 63 75 64 68 65
REMARK SMILES IDX 70 66 76 67 69 68 71 69 72 70 73 71 74 72 7 73 8 74 9 75
REMARK SMILES IDX 10 76 11 77 12 79 13 80 14 81 18 82 15 83 17 84 16 85 19 86
REMARK SMILES IDX 20 87 21 88 22 90 23 91 39 92 24 93 38 94 25 95 26 96 27 97
REMARK SMILES IDX 36 98 28 99 29 100 35 101 37 102 30 103 33 104 31 105 34 106
REMARK SMILES IDX 32 107
REMARK H PARENT 3 7 96 25 64 36 10 78 21 89
REMARK Flexibility Score: inf
ROOT
ATOM      1  C   UNL A   1      33.991  26.601  24.811  1.00  0.00     0.002 C 
ENDROOT
BRANCH   1   2
ATOM      2  C   UNL A   1      33.555  27.615  25.857  1.00  0.00     0.021 C 
BRANCH   2   3
ATOM      3  C   UNL A   1      34.644  28.566  26.305  1.00  0.00     0.116 C 
BRANCH   3   4
ATOM      4  N   UNL A   1      34.127  29.834  26.796  1.00  0.00    -0.352 N 
ATOM      5  O   UNL A   1      34.058  31.619  28.185  1.00  0.00    -0.269 OA
ATOM      6  C   UNL A   1      34.666  30.638  27.774  1.00  0.00     0.251 C 
ATOM      7  H   UNL A   1      33.295  30.155  26.379  1.00  0.00     0.163 HD
BRANCH   6   8
ATOM      8  C   UNL A   1      35.978  30.259  28.339  1.00  0.00     0.039 A 
ATOM      9  C   UNL A   1      37.144  30.525  27.617  1.00  0.00     0.014 A 
ATOM     10  C   UNL A   1      36.032  29.553  29.543  1.00  0.00     0.014 A 
ATOM     11  C   UNL A   1      38.337  29.937  28.005  1.00  0.00     0.010 A 
ATOM     12  C   UNL A   1      37.260  29.068  29.995  1.00  0.00     0.010 A 
ATOM     13  C   UNL A   1      38.417  29.230  29.215  1.00  0.00    -0.014 A 
BRANCH  13  14
ATOM     14  C   UNL A   1      39.744  28.770  29.691  1.00  0.00     0.031 A 
ATOM     15  C   UNL A   1      40.474  29.472  30.800  1.00  0.00     0.074 A 
ATOM     16  C   UNL A   1      40.297  27.706  29.077  1.00  0.00     0.049 A 
ATOM     17  N   UNL A   1      41.653  29.206  31.300  1.00  0.00    -0.248 NA
ATOM     18  C   UNL A   1      39.806  30.626  31.421  1.00  0.00     0.031 C 
ATOM     19  C   UNL A   1      39.696  26.977  27.957  1.00  0.00     0.029 A 
ATOM     20  N   UNL A   1      41.488  27.061  29.289  1.00  0.00    -0.354 N 
ATOM     21  C   UNL A   1      41.893  30.184  32.257  1.00  0.00     0.074 A 
ATOM     22  C   UNL A   1      40.734  31.051  32.269  1.00  0.00     0.031 C 
ATOM     23  C   UNL A   1      40.510  25.981  27.589  1.00  0.00     0.029 A 
ATOM     24  C   UNL A   1      41.724  26.049  28.390  1.00  0.00     0.049 A 
ATOM     25  H   UNL A   1      42.112  27.299  30.013  1.00  0.00     0.167 HD
ATOM     26  C   UNL A   1      42.979  30.338  33.054  1.00  0.00     0.034 A 
ATOM     27  C   UNL A   1      42.814  25.287  28.193  1.00  0.00     0.034 A 
ATOM     28  C   UNL A   1      44.118  29.455  33.039  1.00  0.00     0.049 A 
ATOM     29  C   UNL A   1      43.998  25.476  29.089  1.00  0.00     0.074 A 
ATOM     30  C   UNL A   1      45.234  29.479  33.858  1.00  0.00     0.029 A 
ATOM     31  N   UNL A   1      44.302  28.409  32.147  1.00  0.00    -0.354 N 
ATOM     32  N   UNL A   1      44.153  26.323  30.078  1.00  0.00    -0.248 NA
ATOM     33  C   UNL A   1      45.146  24.589  28.866  1.00  0.00     0.031 C 
ATOM     34  C   UNL A   1      46.112  28.479  33.429  1.00  0.00     0.029 A 
ATOM     35  C   UNL A   1      45.523  27.796  32.377  1.00  0.00     0.049 A 
ATOM     36  H   UNL A   1      43.658  28.142  31.452  1.00  0.00     0.167 HD
ATOM     37  C   UNL A   1      45.405  26.056  30.612  1.00  0.00     0.074 A 
ATOM     38  C   UNL A   1      45.956  24.952  29.850  1.00  0.00     0.031 C 
ATOM     39  C   UNL A   1      46.044  26.676  31.634  1.00  0.00     0.034 A 
BRANCH  26  40
ATOM     40  C   UNL A   1      42.991  31.504  34.011  1.00  0.00     0.023 A 
ATOM     41  C   UNL A   1      43.571  32.729  33.626  1.00  0.00     0.012 A 
ATOM     42  C   UNL A   1      42.379  31.401  35.277  1.00  0.00     0.148 A 
ATOM     43  C   UNL A   1      43.584  33.817  34.500  1.00  0.00     0.002 A 
ATOM     44  C   UNL A   1      42.353  32.503  36.124  1.00  0.00     0.091 A 
ATOM     45  F   UNL A   1      41.846  30.224  35.636  1.00  0.00    -0.205 F 
ATOM     46  C   UNL A   1      42.967  33.707  35.743  1.00  0.00     0.022 A 
BRANCH  44  47
ATOM     47  S   UNL A   1      41.511  32.486  37.710  1.00  0.00     0.127 S 
ATOM     48  O   UNL A   1      42.308  31.514  38.457  1.00  0.00    -0.237 OA
ATOM     49  O   UNL A   1      41.664  33.871  38.156  1.00  0.00    -0.237 OA
ATOM     50  O   UNL A   1      40.138  32.087  37.432  1.00  0.00    -0.744 OA
ENDBRANCH  44  47
ENDBRANCH  26  40
BRANCH  27  51
ATOM     51  C   UNL A   1      42.810  24.284  27.094  1.00  0.00     0.023 A 
ATOM     52  C   UNL A   1      43.544  24.530  25.919  1.00  0.00     0.012 A 
ATOM     53  C   UNL A   1      42.141  23.053  27.246  1.00  0.00     0.148 A 
ATOM     54  C   UNL A   1      43.590  23.575  24.902  1.00  0.00     0.002 A 
ATOM     55  C   UNL A   1      42.242  22.084  26.259  1.00  0.00     0.091 A 
ATOM     56  F   UNL A   1      41.447  22.844  28.374  1.00  0.00    -0.205 F 
ATOM     57  C   UNL A   1      42.951  22.349  25.078  1.00  0.00     0.022 A 
BRANCH  55  58
ATOM     58  S   UNL A   1      41.579  20.427  26.463  1.00  0.00     0.127 S 
ATOM     59  O   UNL A   1      42.155  19.733  25.314  1.00  0.00    -0.237 OA
ATOM     60  O   UNL A   1      42.136  20.040  27.760  1.00  0.00    -0.237 OA
ATOM     61  O   UNL A   1      40.131  20.575  26.450  1.00  0.00    -0.744 OA
ENDBRANCH  55  58
ENDBRANCH  27  51
BRANCH  39  62
ATOM     62  C   UNL A   1      47.401  26.151  32.021  1.00  0.00     0.023 A 
ATOM     63  C   UNL A   1      48.559  26.653  31.396  1.00  0.00     0.012 A 
ATOM     64  C   UNL A   1      47.529  25.204  33.056  1.00  0.00     0.148 A 
ATOM     65  C   UNL A   1      49.822  26.197  31.772  1.00  0.00     0.002 A 
ATOM     66  C   UNL A   1      48.792  24.795  33.464  1.00  0.00     0.091 A 
ATOM     67  F   UNL A   1      46.413  24.724  33.623  1.00  0.00    -0.205 F 
ATOM     68  C   UNL A   1      49.939  25.279  32.815  1.00  0.00     0.022 A 
BRANCH  66  69
ATOM     69  S   UNL A   1      49.044  23.694  34.860  1.00  0.00     0.127 S 
ATOM     70  O   UNL A   1      48.812  24.591  35.992  1.00  0.00    -0.237 OA
ATOM     71  O   UNL A   1      48.002  22.689  34.652  1.00  0.00    -0.237 OA
ATOM     72  O   UNL A   1      50.405  23.191  34.738  1.00  0.00    -0.744 OA
ENDBRANCH  66  69
ENDBRANCH  39  62
ENDBRANCH  13  14
ENDBRANCH   6   8
ENDBRANCH   3   4
ENDBRANCH   2   3
ENDBRANCH   1   2
BRANCH   1  73
ATOM     73  C   UNL A   1      34.444  25.236  25.341  1.00  0.00     0.002 C 
BRANCH  73  74
ATOM     74  C   UNL A   1      35.011  24.273  24.288  1.00  0.00     0.021 C 
BRANCH  74  75
ATOM     75  C   UNL A   1      36.254  23.517  24.744  1.00  0.00     0.116 C 
BRANCH  75  76
ATOM     76  N   UNL A   1      36.148  22.101  24.450  1.00  0.00    -0.352 N 
ATOM     77  C   UNL A   1      35.222  21.187  24.861  1.00  0.00     0.252 C 
ATOM     78  H   UNL A   1      36.852  21.744  23.863  1.00  0.00     0.163 HD
ATOM     79  O   UNL A   1      35.409  19.990  24.642  1.00  0.00    -0.269 OA
BRANCH  77  80
ATOM     80  C   UNL A   1      34.056  21.572  25.676  1.00  0.00     0.052 A 
ATOM     81  C   UNL A   1      34.377  21.656  27.053  1.00  0.00     0.014 A 
ATOM     82  C   UNL A   1      32.752  21.858  25.243  1.00  0.00     0.052 A 
ATOM     83  C   UNL A   1      33.457  22.117  27.990  1.00  0.00     0.001 A 
ATOM     84  C   UNL A   1      31.850  22.362  26.214  1.00  0.00     0.014 A 
ATOM     85  C   UNL A   1      32.199  22.500  27.562  1.00  0.00     0.001 A 
BRANCH  82  86
ATOM     86  C   UNL A   1      32.183  21.825  23.858  1.00  0.00     0.256 C 
ATOM     87  O   UNL A   1      32.221  20.741  23.265  1.00  0.00    -0.269 OA
ATOM     88  N   UNL A   1      31.537  22.845  23.199  1.00  0.00    -0.322 N 
ATOM     89  H   UNL A   1      31.120  22.568  22.352  1.00  0.00     0.170 HD
BRANCH  88  90
ATOM     90  C   UNL A   1      31.358  24.194  23.499  1.00  0.00     0.041 A 
ATOM     91  C   UNL A   1      31.694  25.111  22.497  1.00  0.00     0.028 A 
ATOM     92  C   UNL A   1      30.799  24.641  24.686  1.00  0.00     0.028 A 
ATOM     93  C   UNL A   1      31.201  26.411  22.546  1.00  0.00     0.029 A 
ATOM     94  C   UNL A   1      30.438  25.984  24.800  1.00  0.00     0.029 A 
ATOM     95  C   UNL A   1      30.543  26.841  23.692  1.00  0.00     0.052 A 
BRANCH  95  96
ATOM     96  N   UNL A   1      29.847  28.058  23.707  1.00  0.00    -0.250 N 
ATOM     97  C   UNL A   1      28.499  28.156  23.344  1.00  0.00     0.237 C 
ATOM     98  C   UNL A   1      30.491  29.313  23.732  1.00  0.00     0.237 C 
ATOM     99  O   UNL A   1      27.608  27.335  23.390  1.00  0.00    -0.274 OA
ATOM    100  C   UNL A   1      28.450  29.486  22.688  1.00  0.00     0.095 C 
ATOM    101  C   UNL A   1      29.349  30.281  23.621  1.00  0.00     0.095 C 
ATOM    102  O   UNL A   1      31.663  29.601  23.899  1.00  0.00    -0.274 OA
ATOM    103  C   UNL A   1      27.342  30.478  22.355  1.00  0.00     0.002 C 
ATOM    104  C   UNL A   1      29.113  31.690  23.085  1.00  0.00     0.002 C 
ATOM    105  C   UNL A   1      27.837  31.150  21.055  1.00  0.00     0.005 C 
ATOM    106  C   UNL A   1      27.576  31.675  23.303  1.00  0.00     0.009 C 
ATOM    107  C   UNL A   1      29.156  31.823  21.535  1.00  0.00     0.005 C 
ENDBRANCH  95  96
ENDBRANCH  88  90
ENDBRANCH  82  86
ENDBRANCH  77  80
ENDBRANCH  75  76
ENDBRANCH  74  75
ENDBRANCH  73  74
ENDBRANCH   1  73
TORSDOF 19
ENDMDL
MODEL 2
REMARK VINA RESULT:     -12.7      2.592      7.791
REMARK SMILES O=C(NCCCCCCNC(=O)c1ccccc1C(=O)Nc1ccc(N2C(=O)[C@H]3[C@@H]4CC[C@@H](C4)[C@@H]3C2=O)cc1)c1ccc(-c2c3nc(c(-c4cccc(S(=O)(=O)[O-])c4F)c4ccc([nH]4)c(-c4cccc(S(=O)(=O)[O-])c4F)c4nc(c(-c5cccc(S(=O)(=O)[O-])c5F)c5ccc2[nH]5)C=C4)C=C3)cc1
REMARK SMILES IDX 6 1 5 2 4 3 3 4 1 5 2 6 40 8 41 9 102 10 42 11 101 12 43 13
REMARK SMILES IDX 44 14 45 15 95 16 46 17 100 18 94 19 96 20 47 21 99 22 93 23
REMARK SMILES IDX 92 24 48 26 80 27 60 28 79 29 61 30 64 31 78 32 97 33 62 34
REMARK SMILES IDX 63 35 77 37 98 38 65 39 49 40 50 41 58 42 51 43 53 44 59 45
REMARK SMILES IDX 52 46 54 47 55 48 56 49 57 50 81 51 82 52 90 53 83 54 85 55
REMARK SMILES IDX 91 56 84 57 86 58 87 59 88 60 89 61 66 62 67 63 75 64 68 65
REMARK SMILES IDX 70 66 76 67 69 68 71 69 72 70 73 71 74 72 7 73 8 74 9 75
REMARK SMILES IDX 10 76 11 77 12 79 13 80 14 81 18 82 15 83 17 84 16 85 19 86
REMARK SMILES IDX 20 87 21 88 22 90 23 91 39 92 24 93 38 94 25 95 26 96 27 97
REMARK SMILES IDX 36 98 28 99 29 100 35 101 37 102 30 103 33 104 31 105 34 106
REMARK SMILES IDX 32 107
REMARK H PARENT 3 7 96 25 64 36 10 78 21 89
REMARK Flexibility Score: inf
ROOT
ATOM      1  C   UNL A   1      31.608  29.949  25.358  1.00  0.00     0.002 C 
ENDROOT
BRANCH   1   2
ATOM      2  C   UNL A   1      31.340  31.119  26.291  1.00  0.00     0.021 C 
BRANCH   2   3
ATOM      3  C   UNL A   1      32.577  31.702  26.941  1.00  0.00     0.116 C 
BRANCH   3   4
ATOM      4  N   UNL A   1      32.428  33.106  27.293  1.00  0.00    -0.352 N 
ATOM      5  O   UNL A   1      32.926  34.996  28.432  1.00  0.00    -0.269 OA
ATOM      6  C   UNL A   1      33.239  33.856  28.114  1.00  0.00     0.251 C 
ATOM      7  H   UNL A   1      31.658  33.574  26.898  1.00  0.00     0.163 HD
BRANCH   6   8
ATOM      8  C   UNL A   1      34.474  33.230  28.630  1.00  0.00     0.039 A 
ATOM      9  C   UNL A   1      34.389  32.063  29.394  1.00  0.00     0.014 A 
ATOM     10  C   UNL A   1      35.703  33.862  28.432  1.00  0.00     0.014 A 
ATOM     11  C   UNL A   1      35.498  31.627  30.102  1.00  0.00     0.010 A 
ATOM     12  C   UNL A   1      36.844  33.345  29.048  1.00  0.00     0.010 A 
ATOM     13  C   UNL A   1      36.745  32.242  29.912  1.00  0.00    -0.014 A 
BRANCH  13  14
ATOM     14  C   UNL A   1      37.945  31.641  30.542  1.00  0.00     0.031 A 
ATOM     15  C   UNL A   1      38.778  30.611  29.835  1.00  0.00     0.074 A 
ATOM     16  C   UNL A   1      38.258  32.029  31.794  1.00  0.00     0.049 A 
ATOM     17  N   UNL A   1      39.834  29.973  30.270  1.00  0.00    -0.248 NA
ATOM     18  C   UNL A   1      38.373  30.239  28.470  1.00  0.00     0.031 C 
ATOM     19  C   UNL A   1      37.490  32.989  32.592  1.00  0.00     0.029 A 
ATOM     20  N   UNL A   1      39.286  31.658  32.621  1.00  0.00    -0.354 N 
ATOM     21  C   UNL A   1      40.192  29.089  29.260  1.00  0.00     0.074 A 
ATOM     22  C   UNL A   1      39.238  29.274  28.186  1.00  0.00     0.031 C 
ATOM     23  C   UNL A   1      38.077  33.142  33.785  1.00  0.00     0.029 A 
ATOM     24  C   UNL A   1      39.213  32.235  33.867  1.00  0.00     0.049 A 
ATOM     25  H   UNL A   1      40.005  31.042  32.351  1.00  0.00     0.167 HD
ATOM     26  C   UNL A   1      41.222  28.209  29.232  1.00  0.00     0.034 A 
ATOM     27  C   UNL A   1      39.946  32.025  34.975  1.00  0.00     0.034 A 
ATOM     28  C   UNL A   1      42.171  28.050  30.306  1.00  0.00     0.049 A 
ATOM     29  C   UNL A   1      41.081  31.051  34.916  1.00  0.00     0.074 A 
ATOM     30  C   UNL A   1      43.295  27.243  30.345  1.00  0.00     0.029 A 
ATOM     31  N   UNL A   1      42.094  28.687  31.536  1.00  0.00    -0.354 N 
ATOM     32  N   UNL A   1      41.484  30.319  33.906  1.00  0.00    -0.248 NA
ATOM     33  C   UNL A   1      41.881  30.892  36.136  1.00  0.00     0.031 C 
ATOM     34  C   UNL A   1      43.869  27.356  31.616  1.00  0.00     0.029 A 
ATOM     35  C   UNL A   1      43.135  28.272  32.351  1.00  0.00     0.049 A 
ATOM     36  H   UNL A   1      41.402  29.338  31.791  1.00  0.00     0.167 HD
ATOM     37  C   UNL A   1      42.599  29.631  34.358  1.00  0.00     0.074 A 
ATOM     38  C   UNL A   1      42.821  30.051  35.727  1.00  0.00     0.031 C 
ATOM     39  C   UNL A   1      43.365  28.725  33.701  1.00  0.00     0.034 A 
BRANCH  26  40
ATOM     40  C   UNL A   1      41.382  27.349  28.003  1.00  0.00     0.023 A 
ATOM     41  C   UNL A   1      41.974  27.881  26.840  1.00  0.00     0.012 A 
ATOM     42  C   UNL A   1      40.991  25.995  28.018  1.00  0.00     0.148 A 
ATOM     43  C   UNL A   1      42.134  27.094  25.698  1.00  0.00     0.002 A 
ATOM     44  C   UNL A   1      41.196  25.204  26.893  1.00  0.00     0.091 A 
ATOM     45  F   UNL A   1      40.414  25.508  29.126  1.00  0.00    -0.205 F 
ATOM     46  C   UNL A   1      41.754  25.755  25.728  1.00  0.00     0.022 A 
BRANCH  44  47
ATOM     47  S   UNL A   1      40.818  23.448  26.861  1.00  0.00     0.127 S 
ATOM     48  O   UNL A   1      41.334  23.012  28.158  1.00  0.00    -0.237 OA
ATOM     49  O   UNL A   1      39.359  23.450  26.755  1.00  0.00    -0.237 OA
ATOM     50  O   UNL A   1      41.509  22.909  25.700  1.00  0.00    -0.744 OA
ENDBRANCH  44  47
ENDBRANCH  26  40
BRANCH  27  51
ATOM     51  C   UNL A   1      39.607  32.765  36.221  1.00  0.00     0.023 A 
ATOM     52  C   UNL A   1      40.147  34.044  36.445  1.00  0.00     0.012 A 
ATOM     53  C   UNL A   1      38.689  32.230  37.148  1.00  0.00     0.148 A 
ATOM     54  C   UNL A   1      39.798  34.769  37.585  1.00  0.00     0.002 A 
ATOM     55  C   UNL A   1      38.298  32.982  38.246  1.00  0.00     0.091 A 
ATOM     56  F   UNL A   1      38.190  31.009  36.912  1.00  0.00    -0.205 F 
ATOM     57  C   UNL A   1      38.864  34.245  38.477  1.00  0.00     0.022 A 
BRANCH  55  58
ATOM     58  S   UNL A   1      36.996  32.451  39.363  1.00  0.00     0.127 S 
ATOM     59  O   UNL A   1      37.151  33.392  40.469  1.00  0.00    -0.237 OA
ATOM     60  O   UNL A   1      35.799  32.653  38.545  1.00  0.00    -0.237 OA
ATOM     61  O   UNL A   1      37.284  31.058  39.675  1.00  0.00    -0.744 OA
ENDBRANCH  55  58
ENDBRANCH  27  51
BRANCH  39  62
ATOM     62  C   UNL A   1      44.544  28.150  34.440  1.00  0.00     0.023 A 
ATOM     63  C   UNL A   1      45.768  28.848  34.471  1.00  0.00     0.012 A 
ATOM     64  C   UNL A   1      44.414  26.948  35.163  1.00  0.00     0.148 A 
ATOM     65  C   UNL A   1      46.855  28.339  35.182  1.00  0.00     0.002 A 
ATOM     66  C   UNL A   1      45.482  26.477  35.914  1.00  0.00     0.091 A 
ATOM     67  F   UNL A   1      43.247  26.291  35.104  1.00  0.00    -0.205 F 
ATOM     68  C   UNL A   1      46.707  27.163  35.914  1.00  0.00     0.022 A 
BRANCH  66  69
ATOM     69  S   UNL A   1      45.356  25.027  36.965  1.00  0.00     0.127 S 
ATOM     70  O   UNL A   1      44.821  24.032  36.036  1.00  0.00    -0.237 OA
ATOM     71  O   UNL A   1      46.748  24.809  37.359  1.00  0.00    -0.237 OA
ATOM     72  O   UNL A   1      44.466  25.395  38.058  1.00  0.00    -0.744 OA
ENDBRANCH  66  69
ENDBRANCH  39  62
ENDBRANCH  13  14
ENDBRANCH   6   8
ENDBRANCH   3   4
ENDBRANCH   2   3
ENDBRANCH   1   2
BRANCH   1  73
ATOM     73  C   UNL A   1      32.730  28.993  25.777  1.00  0.00     0.002 C 
BRANCH  73  74
ATOM     74  C   UNL A   1      32.272  27.617  26.284  1.00  0.00     0.021 C 
BRANCH  74  75
ATOM     75  C   UNL A   1      33.143  26.460  25.807  1.00  0.00     0.116 C 
BRANCH  75  76
ATOM     76  N   UNL A   1      32.849  25.243  26.539  1.00  0.00    -0.352 N 
ATOM     77  C   UNL A   1      33.271  23.965  26.319  1.00  0.00     0.252 C 
ATOM     78  H   UNL A   1      32.252  25.357  27.313  1.00  0.00     0.163 HD
ATOM     79  O   UNL A   1      32.764  23.038  26.953  1.00  0.00    -0.269 OA
BRANCH  77  80
ATOM     80  C   UNL A   1      34.232  23.633  25.252  1.00  0.00     0.052 A 
ATOM     81  C   UNL A   1      35.545  24.059  25.572  1.00  0.00     0.014 A 
ATOM     82  C   UNL A   1      33.987  22.968  24.041  1.00  0.00     0.052 A 
ATOM     83  C   UNL A   1      36.631  23.745  24.761  1.00  0.00     0.001 A 
ATOM     84  C   UNL A   1      35.118  22.630  23.256  1.00  0.00     0.014 A 
ATOM     85  C   UNL A   1      36.419  23.001  23.614  1.00  0.00     0.001 A 
BRANCH  82  86
ATOM     86  C   UNL A   1      32.698  22.443  23.490  1.00  0.00     0.256 C 
ATOM     87  O   UNL A   1      32.633  21.225  23.285  1.00  0.00    -0.269 OA
ATOM     88  N   UNL A   1      31.538  23.149  23.269  1.00  0.00    -0.322 N 
ATOM     89  H   UNL A   1      30.768  22.583  23.033  1.00  0.00     0.170 HD
BRANCH  88  90
ATOM     90  C   UNL A   1      31.243  24.510  23.314  1.00  0.00     0.041 A 
ATOM     91  C   UNL A   1      31.920  25.331  22.405  1.00  0.00     0.028 A 
ATOM     92  C   UNL A   1      30.272  25.050  24.143  1.00  0.00     0.028 A 
ATOM     93  C   UNL A   1      31.429  26.598  22.108  1.00  0.00     0.029 A 
ATOM     94  C   UNL A   1      29.879  26.375  23.950  1.00  0.00     0.029 A 
ATOM     95  C   UNL A   1      30.382  27.111  22.864  1.00  0.00     0.052 A 
BRANCH  95  96
ATOM     96  N   UNL A   1      29.716  28.280  22.470  1.00  0.00    -0.250 N 
ATOM     97  C   UNL A   1      30.398  29.441  22.091  1.00  0.00     0.237 C 
ATOM     98  C   UNL A   1      28.354  28.522  22.753  1.00  0.00     0.237 C 
ATOM     99  O   UNL A   1      31.503  29.587  21.613  1.00  0.00    -0.274 OA
ATOM    100  C   UNL A   1      29.503  30.508  22.602  1.00  0.00     0.095 C 
ATOM    101  C   UNL A   1      28.148  29.920  22.245  1.00  0.00     0.095 C 
ATOM    102  O   UNL A   1      27.494  27.787  23.202  1.00  0.00    -0.274 OA
ATOM    103  C   UNL A   1      29.321  31.991  22.303  1.00  0.00     0.002 C 
ATOM    104  C   UNL A   1      27.247  31.111  22.556  1.00  0.00     0.002 C 
ATOM    105  C   UNL A   1      28.878  32.583  23.659  1.00  0.00     0.005 C 
ATOM    106  C   UNL A   1      27.957  32.091  21.583  1.00  0.00     0.009 C 
ATOM    107  C   UNL A   1      27.540  31.825  23.907  1.00  0.00     0.005 C 
ENDBRANCH  95  96
ENDBRANCH  88  90
ENDBRANCH  82  86
ENDBRANCH  77  80
ENDBRANCH  75  76
ENDBRANCH  74  75
ENDBRANCH  73  74
ENDBRANCH   1  73
TORSDOF 19
ENDMDL
MODEL 3
REMARK VINA RESULT:     -12.7      4.327      9.902
REMARK SMILES O=C(NCCCCCCNC(=O)c1ccccc1C(=O)Nc1ccc(N2C(=O)[C@H]3[C@@H]4CC[C@@H](C4)[C@@H]3C2=O)cc1)c1ccc(-c2c3nc(c(-c4cccc(S(=O)(=O)[O-])c4F)c4ccc([nH]4)c(-c4cccc(S(=O)(=O)[O-])c4F)c4nc(c(-c5cccc(S(=O)(=O)[O-])c5F)c5ccc2[nH]5)C=C4)C=C3)cc1
REMARK SMILES IDX 6 1 5 2 4 3 3 4 1 5 2 6 40 8 41 9 102 10 42 11 101 12 43 13
REMARK SMILES IDX 44 14 45 15 95 16 46 17 100 18 94 19 96 20 47 21 99 22 93 23
REMARK SMILES IDX 92 24 48 26 80 27 60 28 79 29 61 30 64 31 78 32 97 33 62 34
REMARK SMILES IDX 63 35 77 37 98 38 65 39 49 40 50 41 58 42 51 43 53 44 59 45
REMARK SMILES IDX 52 46 54 47 55 48 56 49 57 50 81 51 82 52 90 53 83 54 85 55
REMARK SMILES IDX 91 56 84 57 86 58 87 59 88 60 89 61 66 62 67 63 75 64 68 65
REMARK SMILES IDX 70 66 76 67 69 68 71 69 72 70 73 71 74 72 7 73 8 74 9 75
REMARK SMILES IDX 10 76 11 77 12 79 13 80 14 81 18 82 15 83 17 84 16 85 19 86
REMARK SMILES IDX 20 87 21 88 22 90 23 91 39 92 24 93 38 94 25 95 26 96 27 97
REMARK SMILES IDX 36 98 28 99 29 100 35 101 37 102 30 103 33 104 31 105 34 106
REMARK SMILES IDX 32 107
REMARK H PARENT 3 7 96 25 64 36 10 78 21 89
REMARK Flexibility Score: inf
ROOT
ATOM      1  C   UNL A   1      34.593  24.228  25.717  1.00  0.00     0.002 C 
ENDROOT
BRANCH   1   2
ATOM      2  C   UNL A   1      35.985  23.951  26.261  1.00  0.00     0.021 C 
BRANCH   2   3
ATOM      3  C   UNL A   1      37.039  23.711  25.201  1.00  0.00     0.116 C 
BRANCH   3   4
ATOM      4  N   UNL A   1      37.989  22.671  25.567  1.00  0.00    -0.352 N 
ATOM      5  O   UNL A   1      39.946  21.878  26.378  1.00  0.00    -0.269 OA
ATOM      6  C   UNL A   1      39.174  22.820  26.250  1.00  0.00     0.251 C 
ATOM      7  H   UNL A   1      37.757  21.755  25.294  1.00  0.00     0.163 HD
BRANCH   6   8
ATOM      8  C   UNL A   1      39.503  24.157  26.786  1.00  0.00     0.039 A 
ATOM      9  C   UNL A   1      40.142  25.091  25.967  1.00  0.00     0.014 A 
ATOM     10  C   UNL A   1      39.261  24.439  28.132  1.00  0.00     0.014 A 
ATOM     11  C   UNL A   1      40.693  26.231  26.530  1.00  0.00     0.010 A 
ATOM     12  C   UNL A   1      39.711  25.648  28.668  1.00  0.00     0.010 A 
ATOM     13  C   UNL A   1      40.456  26.539  27.879  1.00  0.00    -0.014 A 
BRANCH  13  14
ATOM     14  C   UNL A   1      40.904  27.851  28.405  1.00  0.00     0.031 A 
ATOM     15  C   UNL A   1      42.359  28.179  28.578  1.00  0.00     0.074 A 
ATOM     16  C   UNL A   1      39.958  28.745  28.753  1.00  0.00     0.049 A 
ATOM     17  N   UNL A   1      42.901  29.269  29.055  1.00  0.00    -0.248 NA
ATOM     18  C   UNL A   1      43.333  27.152  28.176  1.00  0.00     0.031 C 
ATOM     19  C   UNL A   1      38.513  28.513  28.670  1.00  0.00     0.029 A 
ATOM     20  N   UNL A   1      40.059  30.014  29.259  1.00  0.00    -0.354 N 
ATOM     21  C   UNL A   1      44.272  29.047  29.061  1.00  0.00     0.074 A 
ATOM     22  C   UNL A   1      44.481  27.713  28.536  1.00  0.00     0.031 C 
ATOM     23  C   UNL A   1      37.864  29.603  29.095  1.00  0.00     0.029 A 
ATOM     24  C   UNL A   1      38.842  30.579  29.556  1.00  0.00     0.049 A 
ATOM     25  H   UNL A   1      40.919  30.476  29.395  1.00  0.00     0.167 HD
ATOM     26  C   UNL A   1      45.263  29.880  29.463  1.00  0.00     0.034 A 
ATOM     27  C   UNL A   1      38.537  31.733  30.175  1.00  0.00     0.034 A 
ATOM     28  C   UNL A   1      45.037  31.210  29.969  1.00  0.00     0.049 A 
ATOM     29  C   UNL A   1      39.651  32.637  30.605  1.00  0.00     0.074 A 
ATOM     30  C   UNL A   1      45.975  32.162  30.330  1.00  0.00     0.029 A 
ATOM     31  N   UNL A   1      43.790  31.768  30.210  1.00  0.00    -0.354 N 
ATOM     32  N   UNL A   1      40.944  32.463  30.481  1.00  0.00    -0.248 NA
ATOM     33  C   UNL A   1      39.268  33.906  31.234  1.00  0.00     0.031 C 
ATOM     34  C   UNL A   1      45.295  33.275  30.835  1.00  0.00     0.029 A 
ATOM     35  C   UNL A   1      43.933  33.041  30.740  1.00  0.00     0.049 A 
ATOM     36  H   UNL A   1      42.930  31.325  30.032  1.00  0.00     0.167 HD
ATOM     37  C   UNL A   1      41.531  33.611  30.992  1.00  0.00     0.074 A 
ATOM     38  C   UNL A   1      40.449  34.482  31.407  1.00  0.00     0.031 C 
ATOM     39  C   UNL A   1      42.847  33.911  31.117  1.00  0.00     0.034 A 
BRANCH  26  40
ATOM     40  C   UNL A   1      46.683  29.381  29.372  1.00  0.00     0.023 A 
ATOM     41  C   UNL A   1      47.249  28.661  30.443  1.00  0.00     0.012 A 
ATOM     42  C   UNL A   1      47.443  29.582  28.202  1.00  0.00     0.148 A 
ATOM     43  C   UNL A   1      48.561  28.189  30.371  1.00  0.00     0.002 A 
ATOM     44  C   UNL A   1      48.732  29.068  28.117  1.00  0.00     0.091 A 
ATOM     45  F   UNL A   1      46.897  30.283  27.198  1.00  0.00    -0.205 F 
ATOM     46  C   UNL A   1      49.298  28.384  29.205  1.00  0.00     0.022 A 
BRANCH  44  47
ATOM     47  S   UNL A   1      49.729  29.194  26.629  1.00  0.00     0.127 S 
ATOM     48  O   UNL A   1      49.839  30.644  26.470  1.00  0.00    -0.237 OA
ATOM     49  O   UNL A   1      50.969  28.530  27.031  1.00  0.00    -0.237 OA
ATOM     50  O   UNL A   1      48.984  28.505  25.586  1.00  0.00    -0.744 OA
ENDBRANCH  44  47
ENDBRANCH  26  40
BRANCH  27  51
ATOM     51  C   UNL A   1      37.109  32.075  30.413  1.00  0.00     0.023 A 
ATOM     52  C   UNL A   1      36.525  31.809  31.665  1.00  0.00     0.012 A 
ATOM     53  C   UNL A   1      36.352  32.732  29.423  1.00  0.00     0.148 A 
ATOM     54  C   UNL A   1      35.201  32.171  31.918  1.00  0.00     0.002 A 
ATOM     55  C   UNL A   1      35.057  33.145  29.702  1.00  0.00     0.091 A 
ATOM     56  F   UNL A   1      36.931  32.972  28.237  1.00  0.00    -0.205 F 
ATOM     57  C   UNL A   1      34.473  32.850  30.943  1.00  0.00     0.022 A 
BRANCH  55  58
ATOM     58  S   UNL A   1      34.100  34.153  28.564  1.00  0.00     0.127 S 
ATOM     59  O   UNL A   1      35.010  35.269  28.319  1.00  0.00    -0.237 OA
ATOM     60  O   UNL A   1      33.924  33.240  27.433  1.00  0.00    -0.237 OA
ATOM     61  O   UNL A   1      32.869  34.485  29.267  1.00  0.00    -0.744 OA
ENDBRANCH  55  58
ENDBRANCH  27  51
BRANCH  39  62
ATOM     62  C   UNL A   1      43.197  35.259  31.690  1.00  0.00     0.023 A 
ATOM     63  C   UNL A   1      43.281  35.434  33.086  1.00  0.00     0.012 A 
ATOM     64  C   UNL A   1      43.511  36.335  30.837  1.00  0.00     0.148 A 
ATOM     65  C   UNL A   1      43.638  36.670  33.624  1.00  0.00     0.002 A 
ATOM     66  C   UNL A   1      43.919  37.547  31.379  1.00  0.00     0.091 A 
ATOM     67  F   UNL A   1      43.405  36.153  29.514  1.00  0.00    -0.205 F 
ATOM     68  C   UNL A   1      43.970  37.720  32.772  1.00  0.00     0.022 A 
BRANCH  66  69
ATOM     69  S   UNL A   1      44.460  38.924  30.362  1.00  0.00     0.127 S 
ATOM     70  O   UNL A   1      43.196  39.387  29.790  1.00  0.00    -0.237 OA
ATOM     71  O   UNL A   1      45.051  39.825  31.351  1.00  0.00    -0.237 OA
ATOM     72  O   UNL A   1      45.408  38.371  29.403  1.00  0.00    -0.744 OA
ENDBRANCH  66  69
ENDBRANCH  39  62
ENDBRANCH  13  14
ENDBRANCH   6   8
ENDBRANCH   3   4
ENDBRANCH   2   3
ENDBRANCH   1   2
BRANCH   1  73
ATOM     73  C   UNL A   1      34.271  25.691  25.398  1.00  0.00     0.002 C 
BRANCH  73  74
ATOM     74  C   UNL A   1      33.114  26.305  26.200  1.00  0.00     0.021 C 
BRANCH  74  75
ATOM     75  C   UNL A   1      33.375  27.730  26.675  1.00  0.00     0.116 C 
BRANCH  75  76
ATOM     76  N   UNL A   1      32.259  28.602  26.365  1.00  0.00    -0.352 N 
ATOM     77  C   UNL A   1      31.706  28.924  25.160  1.00  0.00     0.252 C 
ATOM     78  H   UNL A   1      31.835  29.028  27.145  1.00  0.00     0.163 HD
ATOM     79  O   UNL A   1      30.871  29.826  25.095  1.00  0.00    -0.269 OA
BRANCH  77  80
ATOM     80  C   UNL A   1      32.168  28.311  23.902  1.00  0.00     0.052 A 
ATOM     81  C   UNL A   1      33.348  28.924  23.416  1.00  0.00     0.014 A 
ATOM     82  C   UNL A   1      31.596  27.240  23.199  1.00  0.00     0.052 A 
ATOM     83  C   UNL A   1      34.024  28.429  22.306  1.00  0.00     0.001 A 
ATOM     84  C   UNL A   1      32.327  26.734  22.095  1.00  0.00     0.014 A 
ATOM     85  C   UNL A   1      33.527  27.310  21.662  1.00  0.00     0.001 A 
BRANCH  82  86
ATOM     86  C   UNL A   1      30.360  26.453  23.508  1.00  0.00     0.256 C 
ATOM     87  O   UNL A   1      29.288  27.070  23.497  1.00  0.00    -0.269 OA
ATOM     88  N   UNL A   1      30.267  25.096  23.716  1.00  0.00    -0.322 N 
ATOM     89  H   UNL A   1      29.341  24.765  23.767  1.00  0.00     0.170 HD
BRANCH  88  90
ATOM     90  C   UNL A   1      31.229  24.101  23.869  1.00  0.00     0.041 A 
ATOM     91  C   UNL A   1      31.094  23.260  24.979  1.00  0.00     0.028 A 
ATOM     92  C   UNL A   1      32.235  23.868  22.944  1.00  0.00     0.028 A 
ATOM     93  C   UNL A   1      31.747  22.032  25.009  1.00  0.00     0.029 A 
ATOM     94  C   UNL A   1      33.001  22.707  23.056  1.00  0.00     0.029 A 
ATOM     95  C   UNL A   1      32.684  21.741  24.025  1.00  0.00     0.052 A 
BRANCH  95  96
ATOM     96  N   UNL A   1      33.205  20.447  23.889  1.00  0.00    -0.250 N 
ATOM     97  C   UNL A   1      32.567  19.456  23.135  1.00  0.00     0.237 C 
ATOM     98  C   UNL A   1      34.188  19.918  24.754  1.00  0.00     0.237 C 
ATOM     99  O   UNL A   1      31.820  19.546  22.185  1.00  0.00    -0.274 OA
ATOM    100  C   UNL A   1      32.875  18.229  23.911  1.00  0.00     0.095 C 
ATOM    101  C   UNL A   1      34.323  18.499  24.282  1.00  0.00     0.095 C 
ATOM    102  O   UNL A   1      34.859  20.456  25.616  1.00  0.00    -0.274 OA
ATOM    103  C   UNL A   1      32.874  16.736  23.604  1.00  0.00     0.002 C 
ATOM    104  C   UNL A   1      34.707  17.146  24.874  1.00  0.00     0.002 C 
ATOM    105  C   UNL A   1      32.488  16.089  24.952  1.00  0.00     0.005 C 
ATOM    106  C   UNL A   1      34.363  16.326  23.601  1.00  0.00     0.009 C 
ATOM    107  C   UNL A   1      33.668  16.541  25.863  1.00  0.00     0.005 C 
ENDBRANCH  95  96
ENDBRANCH  88  90
ENDBRANCH  82  86
ENDBRANCH  77  80
ENDBRANCH  75  76
ENDBRANCH  74  75
ENDBRANCH  73  74
ENDBRANCH   1  73
TORSDOF 19
ENDMDL
