MODEL 1
REMARK VINA RESULT:     -12.0      0.000      0.000
REMARK SMILES Cc1ccc(S(=O)(=O)Nc2cc3c(cc2C(=O)NCCCCCCNC(=O)c2ccc(-c4c5nc(c(-c6cccc(S(=O)(=O)[O-])c6F)c6ccc([nH]6)c(-c6cccc(S(=O)(=O)[O-])c6F)c6nc(c(-c7cccc(S(=O)(=O)[O-])c7F)c7ccc4[nH]7)C=C6)C=C5)cc2)OCCO3)s1
REMARK SMILES IDX 21 1 20 2 19 3 18 4 16 5 17 6 15 8 10 9 11 10 12 11 14 12
REMARK SMILES IDX 13 13 94 14 91 15 93 16 92 17 9 18 6 20 7 21 8 22 5 23 1 24
REMARK SMILES IDX 2 25 3 26 95 27 4 28 22 29 23 30 24 31 25 32 26 33 27 35
REMARK SMILES IDX 28 36 29 37 90 38 30 39 89 40 31 41 32 42 33 43 83 44 34 45
REMARK SMILES IDX 88 46 82 47 84 48 35 49 87 50 81 51 80 52 36 54 68 55 48 56
REMARK SMILES IDX 67 57 49 58 52 59 66 60 85 61 50 62 51 63 65 65 86 66 53 67
REMARK SMILES IDX 37 68 38 69 46 70 39 71 41 72 47 73 40 74 42 75 43 76 44 77
REMARK SMILES IDX 45 78 69 79 70 80 78 81 71 82 73 83 79 84 72 85 74 86 75 87
REMARK SMILES IDX 76 88 77 89 54 90 55 91 63 92 56 93 58 94 64 95 57 96 59 97
REMARK SMILES IDX 60 98 61 99 62 100
REMARK H PARENT 18 7 9 19 25 34 84 53 52 64
REMARK Flexibility Score: inf
ROOT
ATOM      1  C   UNL A   1      32.699  29.847  26.446  1.00  0.00     0.002 C 
ENDROOT
BRANCH   1   2
ATOM      2  C   UNL A   1      32.681  28.489  27.148  1.00  0.00     0.021 C 
BRANCH   2   3
ATOM      3  C   UNL A   1      31.327  27.923  27.560  1.00  0.00     0.116 C 
BRANCH   3   4
ATOM      4  N   UNL A   1      31.031  26.603  27.030  1.00  0.00    -0.352 N 
ATOM      5  C   UNL A   1      30.833  26.181  25.736  1.00  0.00     0.253 C 
ATOM      6  O   UNL A   1      30.731  24.975  25.521  1.00  0.00    -0.269 OA
ATOM      7  H   UNL A   1      30.959  25.895  27.709  1.00  0.00     0.163 HD
BRANCH   5   8
ATOM      8  C   UNL A   1      30.715  27.151  24.613  1.00  0.00     0.067 A 
ATOM      9  C   UNL A   1      31.731  27.254  23.640  1.00  0.00     0.066 A 
ATOM     10  C   UNL A   1      31.579  28.135  22.560  1.00  0.00     0.078 A 
ATOM     11  C   UNL A   1      30.418  28.901  22.443  1.00  0.00     0.163 A 
ATOM     12  C   UNL A   1      29.600  27.993  24.530  1.00  0.00     0.066 A 
ATOM     13  C   UNL A   1      29.426  28.815  23.421  1.00  0.00     0.162 A 
ATOM     14  O   UNL A   1      30.308  29.702  21.336  1.00  0.00    -0.486 OA
ATOM     15  O   UNL A   1      28.241  29.498  23.352  1.00  0.00    -0.486 OA
ATOM     16  C   UNL A   1      29.213  30.624  21.445  1.00  0.00     0.271 C 
ATOM     17  C   UNL A   1      27.981  29.943  22.016  1.00  0.00     0.271 C 
BRANCH   9  18
ATOM     18  N   UNL A   1      32.919  26.458  23.731  1.00  0.00    -0.278 N 
ATOM     19  H   UNL A   1      33.631  26.688  24.372  1.00  0.00     0.180 HD
BRANCH  18  20
ATOM     20  S   UNL A   1      33.073  25.120  22.716  1.00  0.00     0.271 S 
ATOM     21  O   UNL A   1      33.948  25.499  21.630  1.00  0.00    -0.200 OA
ATOM     22  O   UNL A   1      31.730  24.642  22.439  1.00  0.00    -0.200 OA
BRANCH  20  23
ATOM     23  C   UNL A   1      33.836  23.784  23.612  1.00  0.00     0.140 A 
ATOM     24  C   UNL A   1      36.769  21.413  24.697  1.00  0.00     0.056 C 
ATOM     25  C   UNL A   1      35.510  22.170  24.442  1.00  0.00     0.003 A 
ATOM     26  C   UNL A   1      34.247  21.900  24.924  1.00  0.00     0.016 A 
ATOM     27  S   UNL A   1      35.521  23.565  23.449  1.00  0.00    -0.127 S 
ATOM     28  C   UNL A   1      33.284  22.830  24.447  1.00  0.00     0.034 A 
ENDBRANCH  20  23
ENDBRANCH  18  20
ENDBRANCH   9  18
ENDBRANCH   5   8
ENDBRANCH   3   4
ENDBRANCH   2   3
ENDBRANCH   1   2
BRANCH   1  29
ATOM     29  C   UNL A   1      31.438  30.701  26.571  1.00  0.00     0.002 C 
BRANCH  29  30
ATOM     30  C   UNL A   1      31.629  32.217  26.510  1.00  0.00     0.021 C 
BRANCH  30  31
ATOM     31  C   UNL A   1      32.671  32.809  27.453  1.00  0.00     0.116 C 
BRANCH  31  32
ATOM     32  N   UNL A   1      32.417  34.199  27.792  1.00  0.00    -0.352 N 
ATOM     33  C   UNL A   1      33.057  35.002  28.706  1.00  0.00     0.251 C 
ATOM     34  H   UNL A   1      31.682  34.626  27.297  1.00  0.00     0.163 HD
ATOM     35  O   UNL A   1      32.633  36.134  28.926  1.00  0.00    -0.269 OA
BRANCH  33  36
ATOM     36  C   UNL A   1      34.236  34.499  29.448  1.00  0.00     0.039 A 
ATOM     37  C   UNL A   1      34.040  33.938  30.714  1.00  0.00     0.014 A 
ATOM     38  C   UNL A   1      35.524  34.579  28.911  1.00  0.00     0.014 A 
ATOM     39  C   UNL A   1      35.123  33.394  31.411  1.00  0.00     0.010 A 
ATOM     40  C   UNL A   1      36.594  33.986  29.581  1.00  0.00     0.010 A 
ATOM     41  C   UNL A   1      36.405  33.385  30.836  1.00  0.00    -0.014 A 
BRANCH  41  42
ATOM     42  C   UNL A   1      37.550  32.726  31.517  1.00  0.00     0.031 A 
ATOM     43  C   UNL A   1      38.255  31.564  30.872  1.00  0.00     0.074 A 
ATOM     44  C   UNL A   1      37.895  33.115  32.760  1.00  0.00     0.049 A 
ATOM     45  N   UNL A   1      39.232  30.832  31.342  1.00  0.00    -0.248 NA
ATOM     46  C   UNL A   1      37.788  31.156  29.538  1.00  0.00     0.031 C 
ATOM     47  C   UNL A   1      37.237  34.174  33.527  1.00  0.00     0.029 A 
ATOM     48  N   UNL A   1      38.865  32.644  33.609  1.00  0.00    -0.354 N 
ATOM     49  C   UNL A   1      39.474  29.858  30.381  1.00  0.00     0.074 A 
ATOM     50  C   UNL A   1      38.524  30.078  29.311  1.00  0.00     0.031 C 
ATOM     51  C   UNL A   1      37.817  34.269  34.734  1.00  0.00     0.029 A 
ATOM     52  C   UNL A   1      38.875  33.267  34.836  1.00  0.00     0.049 A 
ATOM     53  H   UNL A   1      39.495  31.928  33.365  1.00  0.00     0.167 HD
ATOM     54  C   UNL A   1      40.420  28.888  30.374  1.00  0.00     0.034 A 
ATOM     55  C   UNL A   1      39.646  33.057  35.921  1.00  0.00     0.034 A 
ATOM     56  C   UNL A   1      41.400  28.705  31.411  1.00  0.00     0.049 A 
ATOM     57  C   UNL A   1      40.727  32.013  35.863  1.00  0.00     0.074 A 
ATOM     58  C   UNL A   1      42.458  27.814  31.446  1.00  0.00     0.029 A 
ATOM     59  N   UNL A   1      41.444  29.425  32.594  1.00  0.00    -0.354 N 
ATOM     60  N   UNL A   1      41.049  31.214  34.875  1.00  0.00    -0.248 NA
ATOM     61  C   UNL A   1      41.575  31.865  37.055  1.00  0.00     0.031 C 
ATOM     62  C   UNL A   1      43.139  27.992  32.656  1.00  0.00     0.029 A 
ATOM     63  C   UNL A   1      42.508  28.996  33.369  1.00  0.00     0.049 A 
ATOM     64  H   UNL A   1      40.813  30.136  32.846  1.00  0.00     0.167 HD
ATOM     65  C   UNL A   1      42.152  30.492  35.312  1.00  0.00     0.074 A 
ATOM     66  C   UNL A   1      42.459  30.963  36.647  1.00  0.00     0.031 C 
ATOM     67  C   UNL A   1      42.838  29.513  34.674  1.00  0.00     0.034 A 
BRANCH  54  68
ATOM     68  C   UNL A   1      40.488  27.988  29.170  1.00  0.00     0.023 A 
ATOM     69  C   UNL A   1      39.582  26.913  29.063  1.00  0.00     0.012 A 
ATOM     70  C   UNL A   1      41.395  28.237  28.121  1.00  0.00     0.148 A 
ATOM     71  C   UNL A   1      39.594  26.083  27.943  1.00  0.00     0.002 A 
ATOM     72  C   UNL A   1      41.376  27.425  26.991  1.00  0.00     0.091 A 
ATOM     73  F   UNL A   1      42.265  29.247  28.252  1.00  0.00    -0.205 F 
ATOM     74  C   UNL A   1      40.483  26.345  26.904  1.00  0.00     0.022 A 
BRANCH  72  75
ATOM     75  S   UNL A   1      42.437  27.726  25.572  1.00  0.00     0.127 S 
ATOM     76  O   UNL A   1      41.903  28.990  25.068  1.00  0.00    -0.237 OA
ATOM     77  O   UNL A   1      43.761  27.827  26.187  1.00  0.00    -0.237 OA
ATOM     78  O   UNL A   1      42.265  26.575  24.697  1.00  0.00    -0.744 OA
ENDBRANCH  72  75
ENDBRANCH  54  68
BRANCH  55  79
ATOM     79  C   UNL A   1      39.472  33.913  37.128  1.00  0.00     0.023 A 
ATOM     80  C   UNL A   1      39.912  35.251  37.090  1.00  0.00     0.012 A 
ATOM     81  C   UNL A   1      38.838  33.430  38.289  1.00  0.00     0.148 A 
ATOM     82  C   UNL A   1      39.746  36.085  38.196  1.00  0.00     0.002 A 
ATOM     83  C   UNL A   1      38.629  34.282  39.368  1.00  0.00     0.091 A 
ATOM     84  F   UNL A   1      38.443  32.150  38.314  1.00  0.00    -0.205 F 
ATOM     85  C   UNL A   1      39.094  35.605  39.330  1.00  0.00     0.022 A 
BRANCH  83  86
ATOM     86  S   UNL A   1      37.680  33.777  40.807  1.00  0.00     0.127 S 
ATOM     87  O   UNL A   1      36.508  33.160  40.194  1.00  0.00    -0.237 OA
ATOM     88  O   UNL A   1      38.593  32.844  41.469  1.00  0.00    -0.237 OA
ATOM     89  O   UNL A   1      37.439  35.003  41.558  1.00  0.00    -0.744 OA
ENDBRANCH  83  86
ENDBRANCH  55  79
BRANCH  67  90
ATOM     90  C   UNL A   1      44.001  28.887  35.396  1.00  0.00     0.023 A 
ATOM     91  C   UNL A   1      45.286  29.445  35.251  1.00  0.00     0.012 A 
ATOM     92  C   UNL A   1      43.811  27.803  36.274  1.00  0.00     0.148 A 
ATOM     93  C   UNL A   1      46.371  28.917  35.951  1.00  0.00     0.002 A 
ATOM     94  C   UNL A   1      44.890  27.308  36.999  1.00  0.00     0.091 A 
ATOM     95  F   UNL A   1      42.585  27.270  36.381  1.00  0.00    -0.205 F 
ATOM     96  C   UNL A   1      46.171  27.858  36.833  1.00  0.00     0.022 A 
BRANCH  94  97
ATOM     97  S   UNL A   1      44.700  26.002  38.220  1.00  0.00     0.127 S 
ATOM     98  O   UNL A   1      44.092  24.936  37.426  1.00  0.00    -0.237 OA
ATOM     99  O   UNL A   1      46.083  25.746  38.626  1.00  0.00    -0.237 OA
ATOM    100  O   UNL A   1      43.861  26.564  39.271  1.00  0.00    -0.744 OA
ENDBRANCH  94  97
ENDBRANCH  67  90
ENDBRANCH  41  42
ENDBRANCH  33  36
ENDBRANCH  31  32
ENDBRANCH  30  31
ENDBRANCH  29  30
ENDBRANCH   1  29
TORSDOF 19
ENDMDL
MODEL 2
REMARK VINA RESULT:     -11.9      6.273     11.169
REMARK SMILES Cc1ccc(S(=O)(=O)Nc2cc3c(cc2C(=O)NCCCCCCNC(=O)c2ccc(-c4c5nc(c(-c6cccc(S(=O)(=O)[O-])c6F)c6ccc([nH]6)c(-c6cccc(S(=O)(=O)[O-])c6F)c6nc(c(-c7cccc(S(=O)(=O)[O-])c7F)c7ccc4[nH]7)C=C6)C=C5)cc2)OCCO3)s1
REMARK SMILES IDX 21 1 20 2 19 3 18 4 16 5 17 6 15 8 10 9 11 10 12 11 14 12
REMARK SMILES IDX 13 13 94 14 91 15 93 16 92 17 9 18 6 20 7 21 8 22 5 23 1 24
REMARK SMILES IDX 2 25 3 26 95 27 4 28 22 29 23 30 24 31 25 32 26 33 27 35
REMARK SMILES IDX 28 36 29 37 90 38 30 39 89 40 31 41 32 42 33 43 83 44 34 45
REMARK SMILES IDX 88 46 82 47 84 48 35 49 87 50 81 51 80 52 36 54 68 55 48 56
REMARK SMILES IDX 67 57 49 58 52 59 66 60 85 61 50 62 51 63 65 65 86 66 53 67
REMARK SMILES IDX 37 68 38 69 46 70 39 71 41 72 47 73 40 74 42 75 43 76 44 77
REMARK SMILES IDX 45 78 69 79 70 80 78 81 71 82 73 83 79 84 72 85 74 86 75 87
REMARK SMILES IDX 76 88 77 89 54 90 55 91 63 92 56 93 58 94 64 95 57 96 59 97
REMARK SMILES IDX 60 98 61 99 62 100
REMARK H PARENT 18 7 9 19 25 34 84 53 52 64
REMARK Flexibility Score: inf
ROOT
ATOM      1  C   UNL A   1      36.095  21.658  24.736  1.00  0.00     0.002 C 
ENDROOT
BRANCH   1   2
ATOM      2  C   UNL A   1      35.596  22.060  26.123  1.00  0.00     0.021 C 
BRANCH   2   3
ATOM      3  C   UNL A   1      34.694  23.285  26.222  1.00  0.00     0.116 C 
BRANCH   3   4
ATOM      4  N   UNL A   1      33.455  23.073  26.950  1.00  0.00    -0.352 N 
ATOM      5  C   UNL A   1      32.170  23.477  26.670  1.00  0.00     0.253 C 
ATOM      6  O   UNL A   1      31.255  23.054  27.373  1.00  0.00    -0.269 OA
ATOM      7  H   UNL A   1      33.550  22.554  27.781  1.00  0.00     0.163 HD
BRANCH   5   8
ATOM      8  C   UNL A   1      31.880  24.428  25.562  1.00  0.00     0.067 A 
ATOM      9  C   UNL A   1      31.333  23.969  24.344  1.00  0.00     0.066 A 
ATOM     10  C   UNL A   1      31.017  24.886  23.331  1.00  0.00     0.078 A 
ATOM     11  C   UNL A   1      31.234  26.249  23.532  1.00  0.00     0.163 A 
ATOM     12  C   UNL A   1      32.177  25.787  25.710  1.00  0.00     0.066 A 
ATOM     13  C   UNL A   1      31.799  26.697  24.727  1.00  0.00     0.162 A 
ATOM     14  O   UNL A   1      30.853  27.096  22.523  1.00  0.00    -0.486 OA
ATOM     15  O   UNL A   1      31.999  28.020  25.015  1.00  0.00    -0.486 OA
ATOM     16  C   UNL A   1      31.351  28.428  22.722  1.00  0.00     0.271 C 
ATOM     17  C   UNL A   1      31.200  28.857  24.172  1.00  0.00     0.271 C 
BRANCH   9  18
ATOM     18  N   UNL A   1      31.081  22.575  24.131  1.00  0.00    -0.278 N 
ATOM     19  H   UNL A   1      30.267  22.150  24.486  1.00  0.00     0.180 HD
BRANCH  18  20
ATOM     20  S   UNL A   1      32.212  21.677  23.258  1.00  0.00     0.271 S 
ATOM     21  O   UNL A   1      33.428  22.456  23.195  1.00  0.00    -0.200 OA
ATOM     22  O   UNL A   1      31.559  21.244  22.037  1.00  0.00    -0.200 OA
BRANCH  20  23
ATOM     23  C   UNL A   1      32.561  20.163  24.128  1.00  0.00     0.140 A 
ATOM     24  C   UNL A   1      33.022  16.286  24.528  1.00  0.00     0.056 C 
ATOM     25  C   UNL A   1      32.896  17.769  24.629  1.00  0.00     0.003 A 
ATOM     26  C   UNL A   1      32.972  18.551  25.762  1.00  0.00     0.016 A 
ATOM     27  S   UNL A   1      32.630  18.715  23.227  1.00  0.00    -0.127 S 
ATOM     28  C   UNL A   1      32.781  19.928  25.473  1.00  0.00     0.034 A 
ENDBRANCH  20  23
ENDBRANCH  18  20
ENDBRANCH   9  18
ENDBRANCH   5   8
ENDBRANCH   3   4
ENDBRANCH   2   3
ENDBRANCH   1   2
BRANCH   1  29
ATOM     29  C   UNL A   1      37.599  21.434  24.585  1.00  0.00     0.002 C 
BRANCH  29  30
ATOM     30  C   UNL A   1      38.110  20.017  24.845  1.00  0.00     0.021 C 
BRANCH  30  31
ATOM     31  C   UNL A   1      38.842  19.790  26.164  1.00  0.00     0.116 C 
BRANCH  31  32
ATOM     32  N   UNL A   1      40.077  19.038  26.016  1.00  0.00    -0.352 N 
ATOM     33  C   UNL A   1      41.377  19.477  26.091  1.00  0.00     0.251 C 
ATOM     34  H   UNL A   1      39.965  18.077  25.836  1.00  0.00     0.163 HD
ATOM     35  O   UNL A   1      42.298  18.705  25.838  1.00  0.00    -0.269 OA
BRANCH  33  36
ATOM     36  C   UNL A   1      41.672  20.885  26.444  1.00  0.00     0.039 A 
ATOM     37  C   UNL A   1      42.280  21.153  27.675  1.00  0.00     0.014 A 
ATOM     38  C   UNL A   1      41.354  21.936  25.579  1.00  0.00     0.014 A 
ATOM     39  C   UNL A   1      42.632  22.465  28.008  1.00  0.00     0.010 A 
ATOM     40  C   UNL A   1      41.755  23.235  25.887  1.00  0.00     0.010 A 
ATOM     41  C   UNL A   1      42.401  23.513  27.103  1.00  0.00    -0.014 A 
BRANCH  41  42
ATOM     42  C   UNL A   1      42.855  24.898  27.396  1.00  0.00     0.031 A 
ATOM     43  C   UNL A   1      41.916  25.893  28.020  1.00  0.00     0.074 A 
ATOM     44  C   UNL A   1      44.088  25.286  27.014  1.00  0.00     0.049 A 
ATOM     45  N   UNL A   1      42.119  27.156  28.294  1.00  0.00    -0.248 NA
ATOM     46  C   UNL A   1      40.566  25.416  28.360  1.00  0.00     0.031 C 
ATOM     47  C   UNL A   1      45.065  24.440  26.327  1.00  0.00     0.029 A 
ATOM     48  N   UNL A   1      44.719  26.500  27.123  1.00  0.00    -0.354 N 
ATOM     49  C   UNL A   1      40.917  27.633  28.803  1.00  0.00     0.074 A 
ATOM     50  C   UNL A   1      39.982  26.529  28.778  1.00  0.00     0.031 C 
ATOM     51  C   UNL A   1      46.168  25.161  26.070  1.00  0.00     0.029 A 
ATOM     52  C   UNL A   1      45.972  26.524  26.556  1.00  0.00     0.049 A 
ATOM     53  H   UNL A   1      44.313  27.281  27.564  1.00  0.00     0.167 HD
ATOM     54  C   UNL A   1      40.628  28.869  29.278  1.00  0.00     0.034 A 
ATOM     55  C   UNL A   1      46.864  27.528  26.439  1.00  0.00     0.034 A 
ATOM     56  C   UNL A   1      41.573  29.949  29.356  1.00  0.00     0.049 A 
ATOM     57  C   UNL A   1      46.537  28.873  27.027  1.00  0.00     0.074 A 
ATOM     58  C   UNL A   1      41.400  31.205  29.911  1.00  0.00     0.029 A 
ATOM     59  N   UNL A   1      42.868  29.904  28.866  1.00  0.00    -0.354 N 
ATOM     60  N   UNL A   1      45.454  29.255  27.659  1.00  0.00    -0.248 NA
ATOM     61  C   UNL A   1      47.569  29.915  26.921  1.00  0.00     0.031 C 
ATOM     62  C   UNL A   1      42.591  31.922  29.750  1.00  0.00     0.029 A 
ATOM     63  C   UNL A   1      43.505  31.111  29.100  1.00  0.00     0.049 A 
ATOM     64  H   UNL A   1      43.276  29.128  28.417  1.00  0.00     0.167 HD
ATOM     65  C   UNL A   1      45.683  30.568  28.051  1.00  0.00     0.074 A 
ATOM     66  C   UNL A   1      47.018  30.910  27.605  1.00  0.00     0.031 C 
ATOM     67  C   UNL A   1      44.856  31.420  28.703  1.00  0.00     0.034 A 
BRANCH  54  68
ATOM     68  C   UNL A   1      39.243  29.100  29.820  1.00  0.00     0.023 A 
ATOM     69  C   UNL A   1      38.948  28.707  31.142  1.00  0.00     0.012 A 
ATOM     70  C   UNL A   1      38.258  29.757  29.057  1.00  0.00     0.148 A 
ATOM     71  C   UNL A   1      37.686  28.940  31.687  1.00  0.00     0.002 A 
ATOM     72  C   UNL A   1      37.013  30.018  29.621  1.00  0.00     0.091 A 
ATOM     73  F   UNL A   1      38.549  30.100  27.795  1.00  0.00    -0.205 F 
ATOM     74  C   UNL A   1      36.724  29.604  30.931  1.00  0.00     0.022 A 
BRANCH  72  75
ATOM     75  S   UNL A   1      35.733  30.928  28.748  1.00  0.00     0.127 S 
ATOM     76  O   UNL A   1      36.519  31.935  28.037  1.00  0.00    -0.237 OA
ATOM     77  O   UNL A   1      35.146  29.897  27.891  1.00  0.00    -0.237 OA
ATOM     78  O   UNL A   1      34.838  31.438  29.777  1.00  0.00    -0.744 OA
ENDBRANCH  72  75
ENDBRANCH  54  68
BRANCH  55  79
ATOM     79  C   UNL A   1      48.187  27.270  25.803  1.00  0.00     0.023 A 
ATOM     80  C   UNL A   1      49.239  26.763  26.591  1.00  0.00     0.012 A 
ATOM     81  C   UNL A   1      48.396  27.481  24.427  1.00  0.00     0.148 A 
ATOM     82  C   UNL A   1      50.484  26.493  26.022  1.00  0.00     0.002 A 
ATOM     83  C   UNL A   1      49.624  27.159  23.857  1.00  0.00     0.091 A 
ATOM     84  F   UNL A   1      47.390  27.981  23.698  1.00  0.00    -0.205 F 
ATOM     85  C   UNL A   1      50.674  26.679  24.655  1.00  0.00     0.022 A 
BRANCH  83  86
ATOM     86  S   UNL A   1      49.900  27.244  22.085  1.00  0.00     0.127 S 
ATOM     87  O   UNL A   1      51.271  26.756  21.970  1.00  0.00    -0.237 OA
ATOM     88  O   UNL A   1      48.877  26.335  21.567  1.00  0.00    -0.237 OA
ATOM     89  O   UNL A   1      49.686  28.642  21.729  1.00  0.00    -0.744 OA
ENDBRANCH  83  86
ENDBRANCH  55  79
BRANCH  67  90
ATOM     90  C   UNL A   1      45.367  32.806  28.994  1.00  0.00     0.023 A 
ATOM     91  C   UNL A   1      46.101  33.039  30.173  1.00  0.00     0.012 A 
ATOM     92  C   UNL A   1      45.189  33.854  28.070  1.00  0.00     0.148 A 
ATOM     93  C   UNL A   1      46.630  34.301  30.441  1.00  0.00     0.002 A 
ATOM     94  C   UNL A   1      45.754  35.099  28.325  1.00  0.00     0.091 A 
ATOM     95  F   UNL A   1      44.467  33.619  26.965  1.00  0.00    -0.205 F 
ATOM     96  C   UNL A   1      46.467  35.326  29.512  1.00  0.00     0.022 A 
BRANCH  94  97
ATOM     97  S   UNL A   1      45.664  36.447  27.139  1.00  0.00     0.127 S 
ATOM     98  O   UNL A   1      46.323  35.864  25.973  1.00  0.00    -0.237 OA
ATOM     99  O   UNL A   1      44.220  36.640  26.990  1.00  0.00    -0.237 OA
ATOM    100  O   UNL A   1      46.357  37.567  27.763  1.00  0.00    -0.744 OA
ENDBRANCH  94  97
ENDBRANCH  67  90
ENDBRANCH  41  42
ENDBRANCH  33  36
ENDBRANCH  31  32
ENDBRANCH  30  31
ENDBRANCH  29  30
ENDBRANCH   1  29
TORSDOF 19
ENDMDL
MODEL 3
REMARK VINA RESULT:     -11.8      1.842      8.299
REMARK SMILES Cc1ccc(S(=O)(=O)Nc2cc3c(cc2C(=O)NCCCCCCNC(=O)c2ccc(-c4c5nc(c(-c6cccc(S(=O)(=O)[O-])c6F)c6ccc([nH]6)c(-c6cccc(S(=O)(=O)[O-])c6F)c6nc(c(-c7cccc(S(=O)(=O)[O-])c7F)c7ccc4[nH]7)C=C6)C=C5)cc2)OCCO3)s1
REMARK SMILES IDX 21 1 20 2 19 3 18 4 16 5 17 6 15 8 10 9 11 10 12 11 14 12
REMARK SMILES IDX 13 13 94 14 91 15 93 16 92 17 9 18 6 20 7 21 8 22 5 23 1 24
REMARK SMILES IDX 2 25 3 26 95 27 4 28 22 29 23 30 24 31 25 32 26 33 27 35
REMARK SMILES IDX 28 36 29 37 90 38 30 39 89 40 31 41 32 42 33 43 83 44 34 45
REMARK SMILES IDX 88 46 82 47 84 48 35 49 87 50 81 51 80 52 36 54 68 55 48 56
REMARK SMILES IDX 67 57 49 58 52 59 66 60 85 61 50 62 51 63 65 65 86 66 53 67
REMARK SMILES IDX 37 68 38 69 46 70 39 71 41 72 47 73 40 74 42 75 43 76 44 77
REMARK SMILES IDX 45 78 69 79 70 80 78 81 71 82 73 83 79 84 72 85 74 86 75 87
REMARK SMILES IDX 76 88 77 89 54 90 55 91 63 92 56 93 58 94 64 95 57 96 59 97
REMARK SMILES IDX 60 98 61 99 62 100
REMARK H PARENT 18 7 9 19 25 34 84 53 52 64
REMARK Flexibility Score: inf
ROOT
ATOM      1  C   UNL A   1      31.788  29.849  25.637  1.00  0.00     0.002 C 
ENDROOT
BRANCH   1   2
ATOM      2  C   UNL A   1      32.638  28.585  25.508  1.00  0.00     0.021 C 
BRANCH   2   3
ATOM      3  C   UNL A   1      32.716  27.659  26.716  1.00  0.00     0.116 C 
BRANCH   3   4
ATOM      4  N   UNL A   1      31.659  26.664  26.791  1.00  0.00    -0.352 N 
ATOM      5  C   UNL A   1      31.615  25.368  26.333  1.00  0.00     0.253 C 
ATOM      6  O   UNL A   1      30.652  24.669  26.641  1.00  0.00    -0.269 OA
ATOM      7  H   UNL A   1      30.841  26.968  27.245  1.00  0.00     0.163 HD
BRANCH   5   8
ATOM      8  C   UNL A   1      32.688  24.816  25.461  1.00  0.00     0.067 A 
ATOM      9  C   UNL A   1      32.609  24.936  24.057  1.00  0.00     0.066 A 
ATOM     10  C   UNL A   1      33.655  24.459  23.255  1.00  0.00     0.078 A 
ATOM     11  C   UNL A   1      34.776  23.875  23.845  1.00  0.00     0.163 A 
ATOM     12  C   UNL A   1      33.776  24.146  26.031  1.00  0.00     0.066 A 
ATOM     13  C   UNL A   1      34.840  23.734  25.233  1.00  0.00     0.162 A 
ATOM     14  O   UNL A   1      35.786  23.477  23.008  1.00  0.00    -0.486 OA
ATOM     15  O   UNL A   1      35.925  23.216  25.887  1.00  0.00    -0.486 OA
ATOM     16  C   UNL A   1      36.761  22.669  23.685  1.00  0.00     0.271 C 
ATOM     17  C   UNL A   1      37.089  23.241  25.054  1.00  0.00     0.271 C 
BRANCH   9  18
ATOM     18  N   UNL A   1      31.476  25.554  23.436  1.00  0.00    -0.278 N 
ATOM     19  H   UNL A   1      30.560  25.325  23.717  1.00  0.00     0.180 HD
BRANCH  18  20
ATOM     20  S   UNL A   1      31.744  26.682  22.210  1.00  0.00     0.271 S 
ATOM     21  O   UNL A   1      31.458  26.031  20.952  1.00  0.00    -0.200 OA
ATOM     22  O   UNL A   1      33.052  27.264  22.449  1.00  0.00    -0.200 OA
BRANCH  20  23
ATOM     23  C   UNL A   1      30.617  28.046  22.407  1.00  0.00     0.140 A 
ATOM     24  C   UNL A   1      27.251  29.795  23.415  1.00  0.00     0.056 C 
ATOM     25  C   UNL A   1      28.601  29.364  22.952  1.00  0.00     0.003 A 
ATOM     26  C   UNL A   1      29.559  30.122  22.312  1.00  0.00     0.016 A 
ATOM     27  S   UNL A   1      29.132  27.755  23.198  1.00  0.00    -0.127 S 
ATOM     28  C   UNL A   1      30.719  29.364  22.001  1.00  0.00     0.034 A 
ENDBRANCH  20  23
ENDBRANCH  18  20
ENDBRANCH   9  18
ENDBRANCH   5   8
ENDBRANCH   3   4
ENDBRANCH   2   3
ENDBRANCH   1   2
BRANCH   1  29
ATOM     29  C   UNL A   1      31.919  30.634  26.940  1.00  0.00     0.002 C 
BRANCH  29  30
ATOM     30  C   UNL A   1      31.639  32.136  26.867  1.00  0.00     0.021 C 
BRANCH  30  31
ATOM     31  C   UNL A   1      32.855  33.055  26.894  1.00  0.00     0.116 C 
BRANCH  31  32
ATOM     32  N   UNL A   1      32.682  34.214  27.754  1.00  0.00    -0.352 N 
ATOM     33  C   UNL A   1      33.363  34.559  28.897  1.00  0.00     0.251 C 
ATOM     34  H   UNL A   1      31.976  34.842  27.478  1.00  0.00     0.163 HD
ATOM     35  O   UNL A   1      33.004  35.535  29.550  1.00  0.00    -0.269 OA
BRANCH  33  36
ATOM     36  C   UNL A   1      34.505  33.740  29.363  1.00  0.00     0.039 A 
ATOM     37  C   UNL A   1      35.801  34.151  29.037  1.00  0.00     0.014 A 
ATOM     38  C   UNL A   1      34.310  32.575  30.112  1.00  0.00     0.014 A 
ATOM     39  C   UNL A   1      36.902  33.436  29.518  1.00  0.00     0.010 A 
ATOM     40  C   UNL A   1      35.409  31.896  30.638  1.00  0.00     0.010 A 
ATOM     41  C   UNL A   1      36.715  32.320  30.350  1.00  0.00    -0.014 A 
BRANCH  41  42
ATOM     42  C   UNL A   1      37.872  31.606  30.950  1.00  0.00     0.031 A 
ATOM     43  C   UNL A   1      38.290  31.887  32.367  1.00  0.00     0.074 A 
ATOM     44  C   UNL A   1      38.603  30.770  30.188  1.00  0.00     0.049 A 
ATOM     45  N   UNL A   1      39.305  31.403  33.037  1.00  0.00    -0.248 NA
ATOM     46  C   UNL A   1      37.479  32.853  33.124  1.00  0.00     0.031 C 
ATOM     47  C   UNL A   1      38.350  30.474  28.776  1.00  0.00     0.029 A 
ATOM     48  N   UNL A   1      39.727  30.038  30.483  1.00  0.00    -0.354 N 
ATOM     49  C   UNL A   1      39.276  32.029  34.277  1.00  0.00     0.074 A 
ATOM     50  C   UNL A   1      38.157  32.946  34.259  1.00  0.00     0.031 C 
ATOM     51  C   UNL A   1      39.293  29.630  28.327  1.00  0.00     0.029 A 
ATOM     52  C   UNL A   1      40.228  29.338  29.410  1.00  0.00     0.049 A 
ATOM     53  H   UNL A   1      40.136  30.017  31.378  1.00  0.00     0.167 HD
ATOM     54  C   UNL A   1      40.088  31.836  35.344  1.00  0.00     0.034 A 
ATOM     55  C   UNL A   1      41.317  28.549  29.308  1.00  0.00     0.034 A 
ATOM     56  C   UNL A   1      41.164  30.883  35.382  1.00  0.00     0.049 A 
ATOM     57  C   UNL A   1      42.165  28.308  30.525  1.00  0.00     0.074 A 
ATOM     58  C   UNL A   1      41.978  30.547  36.449  1.00  0.00     0.029 A 
ATOM     59  N   UNL A   1      41.578  30.114  34.306  1.00  0.00    -0.354 N 
ATOM     60  N   UNL A   1      42.019  28.780  31.739  1.00  0.00    -0.248 NA
ATOM     61  C   UNL A   1      43.308  27.394  30.371  1.00  0.00     0.031 C 
ATOM     62  C   UNL A   1      42.889  29.577  36.016  1.00  0.00     0.029 A 
ATOM     63  C   UNL A   1      42.639  29.307  34.681  1.00  0.00     0.049 A 
ATOM     64  H   UNL A   1      41.177  30.137  33.407  1.00  0.00     0.167 HD
ATOM     65  C   UNL A   1      43.029  28.202  32.499  1.00  0.00     0.074 A 
ATOM     66  C   UNL A   1      43.767  27.325  31.613  1.00  0.00     0.031 C 
ATOM     67  C   UNL A   1      43.330  28.394  33.806  1.00  0.00     0.034 A 
BRANCH  54  68
ATOM     68  C   UNL A   1      39.798  32.624  36.593  1.00  0.00     0.023 A 
ATOM     69  C   UNL A   1      40.515  33.813  36.838  1.00  0.00     0.012 A 
ATOM     70  C   UNL A   1      38.782  32.232  37.487  1.00  0.00     0.148 A 
ATOM     71  C   UNL A   1      40.245  34.586  37.966  1.00  0.00     0.002 A 
ATOM     72  C   UNL A   1      38.495  33.027  38.591  1.00  0.00     0.091 A 
ATOM     73  F   UNL A   1      38.129  31.086  37.252  1.00  0.00    -0.205 F 
ATOM     74  C   UNL A   1      39.229  34.200  38.836  1.00  0.00     0.022 A 
BRANCH  72  75
ATOM     75  S   UNL A   1      37.159  32.646  39.731  1.00  0.00     0.127 S 
ATOM     76  O   UNL A   1      37.564  31.333  40.231  1.00  0.00    -0.237 OA
ATOM     77  O   UNL A   1      37.263  33.729  40.708  1.00  0.00    -0.237 OA
ATOM     78  O   UNL A   1      35.940  32.668  38.934  1.00  0.00    -0.744 OA
ENDBRANCH  72  75
ENDBRANCH  54  68
BRANCH  55  79
ATOM     79  C   UNL A   1      41.615  27.868  28.017  1.00  0.00     0.023 A 
ATOM     80  C   UNL A   1      42.107  28.627  26.938  1.00  0.00     0.012 A 
ATOM     81  C   UNL A   1      41.460  26.477  27.865  1.00  0.00     0.148 A 
ATOM     82  C   UNL A   1      42.415  28.017  25.721  1.00  0.00     0.002 A 
ATOM     83  C   UNL A   1      41.819  25.867  26.667  1.00  0.00     0.091 A 
ATOM     84  F   UNL A   1      40.974  25.772  28.897  1.00  0.00    -0.205 F 
ATOM     85  C   UNL A   1      42.283  26.637  25.590  1.00  0.00     0.022 A 
BRANCH  83  86
ATOM     86  S   UNL A   1      41.804  24.082  26.468  1.00  0.00     0.127 S 
ATOM     87  O   UNL A   1      42.561  23.642  27.636  1.00  0.00    -0.237 OA
ATOM     88  O   UNL A   1      40.374  23.777  26.510  1.00  0.00    -0.237 OA
ATOM     89  O   UNL A   1      42.426  23.836  25.172  1.00  0.00    -0.744 OA
ENDBRANCH  83  86
ENDBRANCH  55  79
BRANCH  67  90
ATOM     90  C   UNL A   1      44.498  27.635  34.374  1.00  0.00     0.023 A 
ATOM     91  C   UNL A   1      45.784  28.210  34.331  1.00  0.00     0.012 A 
ATOM     92  C   UNL A   1      44.315  26.395  35.015  1.00  0.00     0.148 A 
ATOM     93  C   UNL A   1      46.874  27.550  34.897  1.00  0.00     0.002 A 
ATOM     94  C   UNL A   1      45.400  25.762  35.613  1.00  0.00     0.091 A 
ATOM     95  F   UNL A   1      43.089  25.852  35.025  1.00  0.00    -0.205 F 
ATOM     96  C   UNL A   1      46.680  26.334  35.549  1.00  0.00     0.022 A 
BRANCH  94  97
ATOM     97  S   UNL A   1      45.219  24.237  36.546  1.00  0.00     0.127 S 
ATOM     98  O   UNL A   1      44.312  24.646  37.617  1.00  0.00    -0.237 OA
ATOM     99  O   UNL A   1      44.626  23.332  35.559  1.00  0.00    -0.237 OA
ATOM    100  O   UNL A   1      46.565  23.868  36.964  1.00  0.00    -0.744 OA
ENDBRANCH  94  97
ENDBRANCH  67  90
ENDBRANCH  41  42
ENDBRANCH  33  36
ENDBRANCH  31  32
ENDBRANCH  30  31
ENDBRANCH  29  30
ENDBRANCH   1  29
TORSDOF 19
ENDMDL
