MODEL 1
REMARK VINA RESULT:     -11.8      0.000      0.000
REMARK SMILES Cc1cc(=O)c(Oc2ccc(C(=O)NCCCCCCNC(=O)c3ccc(-c4c5nc(c(-c6cccc(S(=O)(=O)[O-])c6F)c6ccc([nH]6)c(-c6cccc(S(=O)(=O)[O-])c6F)c6nc(c(-c7cccc(S(=O)(=O)[O-])c7F)c7ccc4[nH]7)C=C6)C=C5)cc3)cc2)c(-c2ccc(S(C)(=O)=O)cc2)o1
REMARK SMILES IDX 17 1 16 2 15 3 14 4 12 5 13 6 11 8 8 9 9 10 88 11 10 12
REMARK SMILES IDX 87 13 7 14 6 15 1 16 2 17 3 18 100 19 4 20 89 21 5 22 90 23
REMARK SMILES IDX 91 24 99 25 92 26 98 27 93 28 94 29 95 30 96 31 97 32 18 33
REMARK SMILES IDX 19 34 20 35 21 36 22 37 23 39 24 40 25 41 86 42 26 43 85 44
REMARK SMILES IDX 27 45 28 46 29 47 79 48 30 49 84 50 78 51 80 52 31 53 83 54
REMARK SMILES IDX 77 55 76 56 32 58 64 59 44 60 63 61 45 62 48 63 62 64 81 65
REMARK SMILES IDX 46 66 47 67 61 69 82 70 49 71 33 72 34 73 42 74 35 75 37 76
REMARK SMILES IDX 43 77 36 78 38 79 39 80 40 81 41 82 65 83 66 84 74 85 67 86
REMARK SMILES IDX 69 87 75 88 68 89 70 90 71 91 72 92 73 93 50 94 51 95 59 96
REMARK SMILES IDX 52 97 54 98 60 99 53 100 55 101 56 102 57 103 58 104
REMARK H PARENT 14 7 21 38 80 57 48 68
REMARK Flexibility Score: inf
ROOT
ATOM      1  C   UNL A   1      30.647  28.112  24.464  1.00  0.00     0.002 C 
ENDROOT
BRANCH   1   2
ATOM      2  C   UNL A   1      31.041  28.590  23.067  1.00  0.00     0.021 C 
BRANCH   2   3
ATOM      3  C   UNL A   1      32.524  28.580  22.709  1.00  0.00     0.116 C 
BRANCH   3   4
ATOM      4  N   UNL A   1      32.908  27.680  21.639  1.00  0.00    -0.352 N 
ATOM      5  C   UNL A   1      33.049  26.311  21.622  1.00  0.00     0.251 C 
ATOM      6  O   UNL A   1      33.276  25.749  20.551  1.00  0.00    -0.269 OA
ATOM      7  H   UNL A   1      33.101  28.123  20.781  1.00  0.00     0.163 HD
BRANCH   5   8
ATOM      8  C   UNL A   1      33.056  25.504  22.874  1.00  0.00     0.040 A 
ATOM      9  C   UNL A   1      33.230  23.506  24.806  1.00  0.00     0.127 A 
ATOM     10  C   UNL A   1      32.057  23.638  24.071  1.00  0.00     0.048 A 
ATOM     11  C   UNL A   1      34.200  24.505  24.749  1.00  0.00     0.048 A 
ATOM     12  C   UNL A   1      31.988  24.615  23.073  1.00  0.00     0.017 A 
ATOM     13  C   UNL A   1      34.094  25.527  23.805  1.00  0.00     0.017 A 
BRANCH   9  14
ATOM     14  O   UNL A   1      33.465  22.469  25.657  1.00  0.00    -0.449 OA
BRANCH  14  15
ATOM     15  C   UNL A   1      33.796  21.184  25.245  1.00  0.00     0.217 A 
ATOM     16  C   UNL A   1      34.295  17.191  23.663  1.00  0.00     0.088 C 
ATOM     17  C   UNL A   1      34.001  18.534  24.250  1.00  0.00     0.105 A 
ATOM     18  C   UNL A   1      32.764  19.012  24.387  1.00  0.00     0.098 A 
ATOM     19  O   UNL A   1      35.117  19.249  24.629  1.00  0.00    -0.457 OA
ATOM     20  C   UNL A   1      32.581  20.362  24.934  1.00  0.00     0.228 A 
ATOM     21  C   UNL A   1      34.994  20.552  25.110  1.00  0.00     0.180 A 
ATOM     22  O   UNL A   1      31.440  20.785  25.104  1.00  0.00    -0.285 OA
BRANCH  21  23
ATOM     23  C   UNL A   1      36.339  21.100  25.376  1.00  0.00     0.021 A 
ATOM     24  C   UNL A   1      36.454  22.409  25.881  1.00  0.00     0.013 A 
ATOM     25  C   UNL A   1      37.506  20.360  25.135  1.00  0.00     0.013 A 
ATOM     26  C   UNL A   1      37.700  22.937  26.221  1.00  0.00     0.021 A 
ATOM     27  C   UNL A   1      38.761  20.889  25.466  1.00  0.00     0.021 A 
ATOM     28  C   UNL A   1      38.849  22.169  26.021  1.00  0.00     0.067 A 
BRANCH  28  29
ATOM     29  S   UNL A   1      40.414  22.805  26.579  1.00  0.00     0.175 S 
ATOM     30  C   UNL A   1      40.225  24.560  26.446  1.00  0.00     0.163 C 
ATOM     31  O   UNL A   1      40.532  22.486  27.988  1.00  0.00    -0.224 OA
ATOM     32  O   UNL A   1      41.432  22.407  25.623  1.00  0.00    -0.224 OA
ENDBRANCH  28  29
ENDBRANCH  21  23
ENDBRANCH  14  15
ENDBRANCH   9  14
ENDBRANCH   5   8
ENDBRANCH   3   4
ENDBRANCH   2   3
ENDBRANCH   1   2
BRANCH   1  33
ATOM     33  C   UNL A   1      31.325  28.801  25.649  1.00  0.00     0.002 C 
BRANCH  33  34
ATOM     34  C   UNL A   1      32.434  28.018  26.350  1.00  0.00     0.021 C 
BRANCH  34  35
ATOM     35  C   UNL A   1      33.703  28.799  26.662  1.00  0.00     0.116 C 
BRANCH  35  36
ATOM     36  N   UNL A   1      33.485  30.232  26.797  1.00  0.00    -0.352 N 
ATOM     37  C   UNL A   1      34.238  31.169  27.470  1.00  0.00     0.251 C 
ATOM     38  H   UNL A   1      32.685  30.580  26.343  1.00  0.00     0.163 HD
ATOM     39  O   UNL A   1      33.836  32.325  27.569  1.00  0.00    -0.269 OA
BRANCH  37  40
ATOM     40  C   UNL A   1      35.511  30.763  28.108  1.00  0.00     0.039 A 
ATOM     41  C   UNL A   1      35.610  29.543  28.778  1.00  0.00     0.014 A 
ATOM     42  C   UNL A   1      36.598  31.640  28.085  1.00  0.00     0.014 A 
ATOM     43  C   UNL A   1      36.710  29.295  29.592  1.00  0.00     0.010 A 
ATOM     44  C   UNL A   1      37.746  31.341  28.827  1.00  0.00     0.010 A 
ATOM     45  C   UNL A   1      37.786  30.196  29.638  1.00  0.00    -0.014 A 
BRANCH  45  46
ATOM     46  C   UNL A   1      38.933  29.924  30.547  1.00  0.00     0.031 A 
ATOM     47  C   UNL A   1      40.058  29.014  30.126  1.00  0.00     0.074 A 
ATOM     48  C   UNL A   1      38.984  30.537  31.745  1.00  0.00     0.049 A 
ATOM     49  N   UNL A   1      41.137  28.683  30.790  1.00  0.00    -0.248 NA
ATOM     50  C   UNL A   1      39.966  28.395  28.794  1.00  0.00     0.031 C 
ATOM     51  C   UNL A   1      37.953  31.431  32.276  1.00  0.00     0.029 A 
ATOM     52  N   UNL A   1      39.940  30.511  32.728  1.00  0.00    -0.354 N 
ATOM     53  C   UNL A   1      41.831  27.794  29.978  1.00  0.00     0.074 A 
ATOM     54  C   UNL A   1      41.046  27.625  28.774  1.00  0.00     0.031 C 
ATOM     55  C   UNL A   1      38.348  31.897  33.469  1.00  0.00     0.029 A 
ATOM     56  C   UNL A   1      39.629  31.291  33.815  1.00  0.00     0.049 A 
ATOM     57  H   UNL A   1      40.770  29.985  32.660  1.00  0.00     0.167 HD
ATOM     58  C   UNL A   1      43.023  27.192  30.201  1.00  0.00     0.034 A 
ATOM     59  C   UNL A   1      40.285  31.488  34.975  1.00  0.00     0.034 A 
ATOM     60  C   UNL A   1      43.824  27.389  31.379  1.00  0.00     0.049 A 
ATOM     61  C   UNL A   1      41.597  30.803  35.208  1.00  0.00     0.074 A 
ATOM     62  C   UNL A   1      45.062  26.846  31.674  1.00  0.00     0.029 A 
ATOM     63  N   UNL A   1      43.469  28.187  32.455  1.00  0.00    -0.354 N 
ATOM     64  N   UNL A   1      42.262  30.016  34.399  1.00  0.00    -0.248 NA
ATOM     65  C   UNL A   1      42.255  31.040  36.499  1.00  0.00     0.031 C 
ATOM     66  C   UNL A   1      45.450  27.306  32.935  1.00  0.00     0.029 A 
ATOM     67  C   UNL A   1      44.462  28.149  33.418  1.00  0.00     0.049 A 
ATOM     68  H   UNL A   1      42.634  28.703  32.525  1.00  0.00     0.167 HD
ATOM     69  C   UNL A   1      43.424  29.671  35.076  1.00  0.00     0.074 A 
ATOM     70  C   UNL A   1      43.380  30.348  36.357  1.00  0.00     0.031 C 
ATOM     71  C   UNL A   1      44.428  28.854  34.674  1.00  0.00     0.034 A 
BRANCH  58  72
ATOM     72  C   UNL A   1      43.569  26.292  29.125  1.00  0.00     0.023 A 
ATOM     73  C   UNL A   1      43.303  24.909  29.183  1.00  0.00     0.012 A 
ATOM     74  C   UNL A   1      44.270  26.818  28.022  1.00  0.00     0.148 A 
ATOM     75  C   UNL A   1      43.745  24.059  28.169  1.00  0.00     0.002 A 
ATOM     76  C   UNL A   1      44.680  25.969  27.001  1.00  0.00     0.091 A 
ATOM     77  F   UNL A   1      44.520  28.134  27.994  1.00  0.00    -0.205 F 
ATOM     78  C   UNL A   1      44.424  24.590  27.075  1.00  0.00     0.022 A 
BRANCH  76  79
ATOM     79  S   UNL A   1      45.518  26.556  25.523  1.00  0.00     0.127 S 
ATOM     80  O   UNL A   1      44.571  27.552  25.025  1.00  0.00    -0.237 OA
ATOM     81  O   UNL A   1      46.754  27.113  26.073  1.00  0.00    -0.237 OA
ATOM     82  O   UNL A   1      45.699  25.390  24.671  1.00  0.00    -0.744 OA
ENDBRANCH  76  79
ENDBRANCH  58  72
BRANCH  59  83
ATOM     83  C   UNL A   1      39.694  32.418  35.974  1.00  0.00     0.023 A 
ATOM     84  C   UNL A   1      38.882  31.903  37.000  1.00  0.00     0.012 A 
ATOM     85  C   UNL A   1      40.048  33.783  35.985  1.00  0.00     0.148 A 
ATOM     86  C   UNL A   1      38.438  32.731  38.032  1.00  0.00     0.002 A 
ATOM     87  C   UNL A   1      39.637  34.590  37.037  1.00  0.00     0.091 A 
ATOM     88  F   UNL A   1      40.831  34.240  34.998  1.00  0.00    -0.205 F 
ATOM     89  C   UNL A   1      38.826  34.069  38.056  1.00  0.00     0.022 A 
BRANCH  87  90
ATOM     90  S   UNL A   1      40.179  36.293  37.220  1.00  0.00     0.127 S 
ATOM     91  O   UNL A   1      39.918  36.834  35.889  1.00  0.00    -0.237 OA
ATOM     92  O   UNL A   1      39.280  36.777  38.269  1.00  0.00    -0.237 OA
ATOM     93  O   UNL A   1      41.582  36.227  37.601  1.00  0.00    -0.744 OA
ENDBRANCH  87  90
ENDBRANCH  59  83
BRANCH  71  94
ATOM     94  C   UNL A   1      45.583  28.637  35.610  1.00  0.00     0.023 A 
ATOM     95  C   UNL A   1      46.672  29.530  35.584  1.00  0.00     0.012 A 
ATOM     96  C   UNL A   1      45.527  27.635  36.599  1.00  0.00     0.148 A 
ATOM     97  C   UNL A   1      47.692  29.426  36.529  1.00  0.00     0.002 A 
ATOM     98  C   UNL A   1      46.531  27.558  37.556  1.00  0.00     0.091 A 
ATOM     99  F   UNL A   1      44.482  26.795  36.595  1.00  0.00    -0.205 F 
ATOM    100  C   UNL A   1      47.615  28.451  37.521  1.00  0.00     0.022 A 
BRANCH  98 101
ATOM    101  S   UNL A   1      46.489  26.383  38.914  1.00  0.00     0.127 S 
ATOM    102  O   UNL A   1      45.065  26.364  39.247  1.00  0.00    -0.237 OA
ATOM    103  O   UNL A   1      46.983  25.162  38.280  1.00  0.00    -0.237 OA
ATOM    104  O   UNL A   1      47.356  26.929  39.950  1.00  0.00    -0.744 OA
ENDBRANCH  98 101
ENDBRANCH  71  94
ENDBRANCH  45  46
ENDBRANCH  37  40
ENDBRANCH  35  36
ENDBRANCH  34  35
ENDBRANCH  33  34
ENDBRANCH   1  33
TORSDOF 20
ENDMDL
MODEL 2
REMARK VINA RESULT:     -11.8      2.327      7.946
REMARK SMILES Cc1cc(=O)c(Oc2ccc(C(=O)NCCCCCCNC(=O)c3ccc(-c4c5nc(c(-c6cccc(S(=O)(=O)[O-])c6F)c6ccc([nH]6)c(-c6cccc(S(=O)(=O)[O-])c6F)c6nc(c(-c7cccc(S(=O)(=O)[O-])c7F)c7ccc4[nH]7)C=C6)C=C5)cc3)cc2)c(-c2ccc(S(C)(=O)=O)cc2)o1
REMARK SMILES IDX 17 1 16 2 15 3 14 4 12 5 13 6 11 8 8 9 9 10 88 11 10 12
REMARK SMILES IDX 87 13 7 14 6 15 1 16 2 17 3 18 100 19 4 20 89 21 5 22 90 23
REMARK SMILES IDX 91 24 99 25 92 26 98 27 93 28 94 29 95 30 96 31 97 32 18 33
REMARK SMILES IDX 19 34 20 35 21 36 22 37 23 39 24 40 25 41 86 42 26 43 85 44
REMARK SMILES IDX 27 45 28 46 29 47 79 48 30 49 84 50 78 51 80 52 31 53 83 54
REMARK SMILES IDX 77 55 76 56 32 58 64 59 44 60 63 61 45 62 48 63 62 64 81 65
REMARK SMILES IDX 46 66 47 67 61 69 82 70 49 71 33 72 34 73 42 74 35 75 37 76
REMARK SMILES IDX 43 77 36 78 38 79 39 80 40 81 41 82 65 83 66 84 74 85 67 86
REMARK SMILES IDX 69 87 75 88 68 89 70 90 71 91 72 92 73 93 50 94 51 95 59 96
REMARK SMILES IDX 52 97 54 98 60 99 53 100 55 101 56 102 57 103 58 104
REMARK H PARENT 14 7 21 38 80 57 48 68
REMARK Flexibility Score: inf
ROOT
ATOM      1  C   UNL A   1      33.013  28.979  27.515  1.00  0.00     0.002 C 
ENDROOT
BRANCH   1   2
ATOM      2  C   UNL A   1      31.753  28.116  27.561  1.00  0.00     0.021 C 
BRANCH   2   3
ATOM      3  C   UNL A   1      31.622  27.003  26.525  1.00  0.00     0.116 C 
BRANCH   3   4
ATOM      4  N   UNL A   1      30.654  27.234  25.470  1.00  0.00    -0.352 N 
ATOM      5  C   UNL A   1      29.928  26.350  24.704  1.00  0.00     0.251 C 
ATOM      6  O   UNL A   1      29.071  26.790  23.939  1.00  0.00    -0.269 OA
ATOM      7  H   UNL A   1      30.489  28.183  25.268  1.00  0.00     0.163 HD
BRANCH   5   8
ATOM      8  C   UNL A   1      30.232  24.892  24.683  1.00  0.00     0.040 A 
ATOM      9  C   UNL A   1      31.403  22.374  24.480  1.00  0.00     0.127 A 
ATOM     10  C   UNL A   1      30.951  23.006  23.328  1.00  0.00     0.048 A 
ATOM     11  C   UNL A   1      31.055  22.880  25.732  1.00  0.00     0.048 A 
ATOM     12  C   UNL A   1      30.401  24.287  23.428  1.00  0.00     0.017 A 
ATOM     13  C   UNL A   1      30.434  24.126  25.831  1.00  0.00     0.017 A 
BRANCH   9  14
ATOM     14  O   UNL A   1      32.124  21.219  24.465  1.00  0.00    -0.449 OA
BRANCH  14  15
ATOM     15  C   UNL A   1      33.509  21.164  24.573  1.00  0.00     0.217 A 
ATOM     16  C   UNL A   1      37.758  20.396  24.803  1.00  0.00     0.088 C 
ATOM     17  C   UNL A   1      36.271  20.561  24.809  1.00  0.00     0.105 A 
ATOM     18  C   UNL A   1      35.430  19.560  25.073  1.00  0.00     0.098 A 
ATOM     19  O   UNL A   1      35.836  21.832  24.506  1.00  0.00    -0.457 OA
ATOM     20  C   UNL A   1      33.985  19.811  25.010  1.00  0.00     0.228 A 
ATOM     21  C   UNL A   1      34.474  22.106  24.390  1.00  0.00     0.180 A 
ATOM     22  O   UNL A   1      33.211  18.902  25.298  1.00  0.00    -0.285 OA
BRANCH  21  23
ATOM     23  C   UNL A   1      34.294  23.518  23.996  1.00  0.00     0.021 A 
ATOM     24  C   UNL A   1      34.104  23.827  22.636  1.00  0.00     0.013 A 
ATOM     25  C   UNL A   1      34.316  24.561  24.933  1.00  0.00     0.013 A 
ATOM     26  C   UNL A   1      33.851  25.138  22.230  1.00  0.00     0.021 A 
ATOM     27  C   UNL A   1      34.072  25.881  24.529  1.00  0.00     0.021 A 
ATOM     28  C   UNL A   1      33.826  26.160  23.181  1.00  0.00     0.067 A 
BRANCH  28  29
ATOM     29  S   UNL A   1      33.375  27.802  22.667  1.00  0.00     0.175 S 
ATOM     30  C   UNL A   1      33.807  28.808  24.058  1.00  0.00     0.163 C 
ATOM     31  O   UNL A   1      34.254  28.169  21.575  1.00  0.00    -0.224 OA
ATOM     32  O   UNL A   1      31.931  27.853  22.529  1.00  0.00    -0.224 OA
ENDBRANCH  28  29
ENDBRANCH  21  23
ENDBRANCH  14  15
ENDBRANCH   9  14
ENDBRANCH   5   8
ENDBRANCH   3   4
ENDBRANCH   2   3
ENDBRANCH   1   2
BRANCH   1  33
ATOM     33  C   UNL A   1      32.841  30.436  27.083  1.00  0.00     0.002 C 
BRANCH  33  34
ATOM     34  C   UNL A   1      33.505  31.491  27.965  1.00  0.00     0.021 C 
BRANCH  34  35
ATOM     35  C   UNL A   1      33.784  32.833  27.301  1.00  0.00     0.116 C 
BRANCH  35  36
ATOM     36  N   UNL A   1      33.095  33.948  27.933  1.00  0.00    -0.352 N 
ATOM     37  C   UNL A   1      33.363  34.572  29.132  1.00  0.00     0.251 C 
ATOM     38  H   UNL A   1      32.328  34.307  27.433  1.00  0.00     0.163 HD
ATOM     39  O   UNL A   1      32.600  35.432  29.562  1.00  0.00    -0.269 OA
BRANCH  37  40
ATOM     40  C   UNL A   1      34.552  34.168  29.917  1.00  0.00     0.039 A 
ATOM     41  C   UNL A   1      35.833  34.540  29.506  1.00  0.00     0.014 A 
ATOM     42  C   UNL A   1      34.385  33.358  31.043  1.00  0.00     0.014 A 
ATOM     43  C   UNL A   1      36.942  33.938  30.090  1.00  0.00     0.010 A 
ATOM     44  C   UNL A   1      35.507  32.833  31.692  1.00  0.00     0.010 A 
ATOM     45  C   UNL A   1      36.794  33.067  31.181  1.00  0.00    -0.014 A 
BRANCH  45  46
ATOM     46  C   UNL A   1      37.995  32.408  31.762  1.00  0.00     0.031 A 
ATOM     47  C   UNL A   1      38.549  32.839  33.095  1.00  0.00     0.074 A 
ATOM     48  C   UNL A   1      38.566  31.380  31.103  1.00  0.00     0.049 A 
ATOM     49  N   UNL A   1      39.579  32.361  33.749  1.00  0.00    -0.248 NA
ATOM     50  C   UNL A   1      37.868  33.946  33.786  1.00  0.00     0.031 C 
ATOM     51  C   UNL A   1      38.134  30.874  29.799  1.00  0.00     0.029 A 
ATOM     52  N   UNL A   1      39.623  30.574  31.440  1.00  0.00    -0.354 N 
ATOM     53  C   UNL A   1      39.690  33.126  34.903  1.00  0.00     0.074 A 
ATOM     54  C   UNL A   1      38.632  34.111  34.858  1.00  0.00     0.031 C 
ATOM     55  C   UNL A   1      38.892  29.822  29.463  1.00  0.00     0.029 A 
ATOM     56  C   UNL A   1      39.901  29.615  30.496  1.00  0.00     0.049 A 
ATOM     57  H   UNL A   1      40.132  30.671  32.276  1.00  0.00     0.167 HD
ATOM     58  C   UNL A   1      40.576  33.007  35.920  1.00  0.00     0.034 A 
ATOM     59  C   UNL A   1      40.870  28.680  30.448  1.00  0.00     0.034 A 
ATOM     60  C   UNL A   1      41.604  32.004  35.987  1.00  0.00     0.049 A 
ATOM     61  C   UNL A   1      41.848  28.572  31.578  1.00  0.00     0.074 A 
ATOM     62  C   UNL A   1      42.524  31.786  36.997  1.00  0.00     0.029 A 
ATOM     63  N   UNL A   1      41.851  31.053  35.008  1.00  0.00    -0.354 N 
ATOM     64  N   UNL A   1      41.896  29.267  32.687  1.00  0.00    -0.248 NA
ATOM     65  C   UNL A   1      42.895  27.548  31.460  1.00  0.00     0.031 C 
ATOM     66  C   UNL A   1      43.337  30.712  36.623  1.00  0.00     0.029 A 
ATOM     67  C   UNL A   1      42.910  30.249  35.388  1.00  0.00     0.049 A 
ATOM     68  H   UNL A   1      41.347  30.965  34.168  1.00  0.00     0.167 HD
ATOM     69  C   UNL A   1      42.969  28.759  33.408  1.00  0.00     0.074 A 
ATOM     70  C   UNL A   1      43.535  27.686  32.616  1.00  0.00     0.031 C 
ATOM     71  C   UNL A   1      43.445  29.160  34.612  1.00  0.00     0.034 A 
BRANCH  58  72
ATOM     72  C   UNL A   1      40.448  33.957  37.080  1.00  0.00     0.023 A 
ATOM     73  C   UNL A   1      41.049  35.230  36.997  1.00  0.00     0.012 A 
ATOM     74  C   UNL A   1      39.673  33.628  38.209  1.00  0.00     0.148 A 
ATOM     75  C   UNL A   1      40.897  36.154  38.031  1.00  0.00     0.002 A 
ATOM     76  C   UNL A   1      39.501  34.566  39.221  1.00  0.00     0.091 A 
ATOM     77  F   UNL A   1      39.121  32.409  38.270  1.00  0.00    -0.205 F 
ATOM     78  C   UNL A   1      40.117  35.826  39.137  1.00  0.00     0.022 A 
BRANCH  76  79
ATOM     79  S   UNL A   1      38.475  34.263  40.665  1.00  0.00     0.127 S 
ATOM     80  O   UNL A   1      39.418  33.596  41.561  1.00  0.00    -0.237 OA
ATOM     81  O   UNL A   1      38.108  35.621  41.069  1.00  0.00    -0.237 OA
ATOM     82  O   UNL A   1      37.366  33.441  40.207  1.00  0.00    -0.744 OA
ENDBRANCH  76  79
ENDBRANCH  58  72
BRANCH  59  83
ATOM     83  C   UNL A   1      40.908  27.757  29.282  1.00  0.00     0.023 A 
ATOM     84  C   UNL A   1      39.973  26.710  29.201  1.00  0.00     0.012 A 
ATOM     85  C   UNL A   1      41.776  28.002  28.199  1.00  0.00     0.148 A 
ATOM     86  C   UNL A   1      39.893  25.923  28.051  1.00  0.00     0.002 A 
ATOM     87  C   UNL A   1      41.662  27.242  27.043  1.00  0.00     0.091 A 
ATOM     88  F   UNL A   1      42.649  29.013  28.304  1.00  0.00    -0.205 F 
ATOM     89  C   UNL A   1      40.727  26.198  26.969  1.00  0.00     0.022 A 
BRANCH  87  90
ATOM     90  S   UNL A   1      42.607  27.592  25.556  1.00  0.00     0.127 S 
ATOM     91  O   UNL A   1      42.080  28.898  25.168  1.00  0.00    -0.237 OA
ATOM     92  O   UNL A   1      43.976  27.609  26.075  1.00  0.00    -0.237 OA
ATOM     93  O   UNL A   1      42.317  26.505  24.633  1.00  0.00    -0.744 OA
ENDBRANCH  87  90
ENDBRANCH  59  83
BRANCH  71  94
ATOM     94  C   UNL A   1      44.638  28.441  35.176  1.00  0.00     0.023 A 
ATOM     95  C   UNL A   1      45.927  28.966  34.962  1.00  0.00     0.012 A 
ATOM     96  C   UNL A   1      44.471  27.328  36.024  1.00  0.00     0.148 A 
ATOM     97  C   UNL A   1      47.035  28.391  35.583  1.00  0.00     0.002 A 
ATOM     98  C   UNL A   1      45.575  26.781  36.664  1.00  0.00     0.091 A 
ATOM     99  F   UNL A   1      43.233  26.845  36.204  1.00  0.00    -0.205 F 
ATOM    100  C   UNL A   1      46.858  27.309  36.443  1.00  0.00     0.022 A 
BRANCH  98 101
ATOM    101  S   UNL A   1      45.444  25.431  37.842  1.00  0.00     0.127 S 
ATOM    102  O   UNL A   1      46.758  25.466  38.483  1.00  0.00    -0.237 OA
ATOM    103  O   UNL A   1      44.339  25.870  38.692  1.00  0.00    -0.237 OA
ATOM    104  O   UNL A   1      45.173  24.233  37.057  1.00  0.00    -0.744 OA
ENDBRANCH  98 101
ENDBRANCH  71  94
ENDBRANCH  45  46
ENDBRANCH  37  40
ENDBRANCH  35  36
ENDBRANCH  34  35
ENDBRANCH  33  34
ENDBRANCH   1  33
TORSDOF 20
ENDMDL
MODEL 3
REMARK VINA RESULT:     -11.4      5.183     10.812
REMARK SMILES Cc1cc(=O)c(Oc2ccc(C(=O)NCCCCCCNC(=O)c3ccc(-c4c5nc(c(-c6cccc(S(=O)(=O)[O-])c6F)c6ccc([nH]6)c(-c6cccc(S(=O)(=O)[O-])c6F)c6nc(c(-c7cccc(S(=O)(=O)[O-])c7F)c7ccc4[nH]7)C=C6)C=C5)cc3)cc2)c(-c2ccc(S(C)(=O)=O)cc2)o1
REMARK SMILES IDX 17 1 16 2 15 3 14 4 12 5 13 6 11 8 8 9 9 10 88 11 10 12
REMARK SMILES IDX 87 13 7 14 6 15 1 16 2 17 3 18 100 19 4 20 89 21 5 22 90 23
REMARK SMILES IDX 91 24 99 25 92 26 98 27 93 28 94 29 95 30 96 31 97 32 18 33
REMARK SMILES IDX 19 34 20 35 21 36 22 37 23 39 24 40 25 41 86 42 26 43 85 44
REMARK SMILES IDX 27 45 28 46 29 47 79 48 30 49 84 50 78 51 80 52 31 53 83 54
REMARK SMILES IDX 77 55 76 56 32 58 64 59 44 60 63 61 45 62 48 63 62 64 81 65
REMARK SMILES IDX 46 66 47 67 61 69 82 70 49 71 33 72 34 73 42 74 35 75 37 76
REMARK SMILES IDX 43 77 36 78 38 79 39 80 40 81 41 82 65 83 66 84 74 85 67 86
REMARK SMILES IDX 69 87 75 88 68 89 70 90 71 91 72 92 73 93 50 94 51 95 59 96
REMARK SMILES IDX 52 97 54 98 60 99 53 100 55 101 56 102 57 103 58 104
REMARK H PARENT 14 7 21 38 80 57 48 68
REMARK Flexibility Score: inf
ROOT
ATOM      1  C   UNL A   1      39.747  22.341  26.880  1.00  0.00     0.002 C 
ENDROOT
BRANCH   1   2
ATOM      2  C   UNL A   1      38.778  23.477  26.555  1.00  0.00     0.021 C 
BRANCH   2   3
ATOM      3  C   UNL A   1      37.562  23.144  25.695  1.00  0.00     0.116 C 
BRANCH   3   4
ATOM      4  N   UNL A   1      36.503  22.410  26.359  1.00  0.00    -0.352 N 
ATOM      5  C   UNL A   1      35.135  22.477  26.217  1.00  0.00     0.251 C 
ATOM      6  O   UNL A   1      34.434  21.662  26.815  1.00  0.00    -0.269 OA
ATOM      7  H   UNL A   1      36.814  21.754  27.024  1.00  0.00     0.163 HD
BRANCH   5   8
ATOM      8  C   UNL A   1      34.475  23.579  25.462  1.00  0.00     0.040 A 
ATOM      9  C   UNL A   1      33.718  26.002  24.319  1.00  0.00     0.127 A 
ATOM     10  C   UNL A   1      33.315  25.710  25.616  1.00  0.00     0.048 A 
ATOM     11  C   UNL A   1      34.276  25.002  23.523  1.00  0.00     0.048 A 
ATOM     12  C   UNL A   1      33.731  24.511  26.202  1.00  0.00     0.017 A 
ATOM     13  C   UNL A   1      34.621  23.774  24.089  1.00  0.00     0.017 A 
BRANCH   9  14
ATOM     14  O   UNL A   1      33.531  27.218  23.734  1.00  0.00    -0.449 OA
BRANCH  14  15
ATOM     15  C   UNL A   1      32.306  27.873  23.676  1.00  0.00     0.217 A 
ATOM     16  C   UNL A   1      28.279  29.390  23.262  1.00  0.00     0.088 C 
ATOM     17  C   UNL A   1      29.663  28.825  23.278  1.00  0.00     0.105 A 
ATOM     18  C   UNL A   1      30.049  27.826  22.485  1.00  0.00     0.098 A 
ATOM     19  O   UNL A   1      30.509  29.413  24.193  1.00  0.00    -0.457 OA
ATOM     20  C   UNL A   1      31.418  27.310  22.607  1.00  0.00     0.228 A 
ATOM     21  C   UNL A   1      31.803  28.925  24.376  1.00  0.00     0.180 A 
ATOM     22  O   UNL A   1      31.788  26.421  21.844  1.00  0.00    -0.285 OA
BRANCH  21  23
ATOM     23  C   UNL A   1      32.462  29.691  25.453  1.00  0.00     0.021 A 
ATOM     24  C   UNL A   1      33.752  29.310  25.868  1.00  0.00     0.013 A 
ATOM     25  C   UNL A   1      31.840  30.780  26.081  1.00  0.00     0.013 A 
ATOM     26  C   UNL A   1      34.443  30.054  26.826  1.00  0.00     0.021 A 
ATOM     27  C   UNL A   1      32.526  31.525  27.050  1.00  0.00     0.021 A 
ATOM     28  C   UNL A   1      33.829  31.166  27.407  1.00  0.00     0.067 A 
BRANCH  28  29
ATOM     29  S   UNL A   1      34.769  32.178  28.528  1.00  0.00     0.175 S 
ATOM     30  C   UNL A   1      33.765  33.622  28.729  1.00  0.00     0.163 C 
ATOM     31  O   UNL A   1      34.803  31.491  29.804  1.00  0.00    -0.224 OA
ATOM     32  O   UNL A   1      35.987  32.590  27.855  1.00  0.00    -0.224 OA
ENDBRANCH  28  29
ENDBRANCH  21  23
ENDBRANCH  14  15
ENDBRANCH   9  14
ENDBRANCH   5   8
ENDBRANCH   3   4
ENDBRANCH   2   3
ENDBRANCH   1   2
BRANCH   1  33
ATOM     33  C   UNL A   1      40.101  21.383  25.741  1.00  0.00     0.002 C 
BRANCH  33  34
ATOM     34  C   UNL A   1      40.187  19.901  26.099  1.00  0.00     0.021 C 
BRANCH  34  35
ATOM     35  C   UNL A   1      41.482  19.452  26.761  1.00  0.00     0.116 C 
BRANCH  35  36
ATOM     36  N   UNL A   1      42.551  19.170  25.815  1.00  0.00    -0.352 N 
ATOM     37  C   UNL A   1      43.466  20.032  25.250  1.00  0.00     0.251 C 
ATOM     38  H   UNL A   1      42.632  18.229  25.538  1.00  0.00     0.163 HD
ATOM     39  O   UNL A   1      44.231  19.632  24.377  1.00  0.00    -0.269 OA
BRANCH  37  40
ATOM     40  C   UNL A   1      43.488  21.452  25.670  1.00  0.00     0.039 A 
ATOM     41  C   UNL A   1      43.414  22.473  24.722  1.00  0.00     0.014 A 
ATOM     42  C   UNL A   1      43.645  21.762  27.023  1.00  0.00     0.014 A 
ATOM     43  C   UNL A   1      43.704  23.780  25.098  1.00  0.00     0.010 A 
ATOM     44  C   UNL A   1      43.837  23.092  27.412  1.00  0.00     0.010 A 
ATOM     45  C   UNL A   1      43.932  24.105  26.445  1.00  0.00    -0.014 A 
BRANCH  45  46
ATOM     46  C   UNL A   1      44.277  25.505  26.814  1.00  0.00     0.031 A 
ATOM     47  C   UNL A   1      43.253  26.420  27.433  1.00  0.00     0.074 A 
ATOM     48  C   UNL A   1      45.538  25.943  26.630  1.00  0.00     0.049 A 
ATOM     49  N   UNL A   1      43.392  27.661  27.826  1.00  0.00    -0.248 NA
ATOM     50  C   UNL A   1      41.899  25.880  27.640  1.00  0.00     0.031 C 
ATOM     51  C   UNL A   1      46.620  25.161  26.029  1.00  0.00     0.029 A 
ATOM     52  N   UNL A   1      46.125  27.144  26.936  1.00  0.00    -0.354 N 
ATOM     53  C   UNL A   1      42.145  28.061  28.290  1.00  0.00     0.074 A 
ATOM     54  C   UNL A   1      41.253  26.934  28.120  1.00  0.00     0.031 C 
ATOM     55  C   UNL A   1      47.746  25.886  26.043  1.00  0.00     0.029 A 
ATOM     56  C   UNL A   1      47.455  27.204  26.598  1.00  0.00     0.049 A 
ATOM     57  H   UNL A   1      45.641  27.890  27.357  1.00  0.00     0.167 HD
ATOM     58  C   UNL A   1      41.779  29.246  28.831  1.00  0.00     0.034 A 
ATOM     59  C   UNL A   1      48.346  28.209  26.702  1.00  0.00     0.034 A 
ATOM     60  C   UNL A   1      42.672  30.354  29.039  1.00  0.00     0.049 A 
ATOM     61  C   UNL A   1      47.919  29.518  27.292  1.00  0.00     0.074 A 
ATOM     62  C   UNL A   1      42.395  31.582  29.613  1.00  0.00     0.029 A 
ATOM     63  N   UNL A   1      44.011  30.371  28.681  1.00  0.00    -0.354 N 
ATOM     64  N   UNL A   1      46.750  29.851  27.781  1.00  0.00    -0.248 NA
ATOM     65  C   UNL A   1      48.928  30.583  27.361  1.00  0.00     0.031 C 
ATOM     66  C   UNL A   1      43.565  32.348  29.590  1.00  0.00     0.029 A 
ATOM     67  C   UNL A   1      44.574  31.589  29.019  1.00  0.00     0.049 A 
ATOM     68  H   UNL A   1      44.490  29.628  28.250  1.00  0.00     0.167 HD
ATOM     69  C   UNL A   1      46.882  31.160  28.225  1.00  0.00     0.074 A 
ATOM     70  C   UNL A   1      48.252  31.555  27.963  1.00  0.00     0.031 C 
ATOM     71  C   UNL A   1      45.946  31.962  28.788  1.00  0.00     0.034 A 
BRANCH  58  72
ATOM     72  C   UNL A   1      40.353  29.401  29.289  1.00  0.00     0.023 A 
ATOM     73  C   UNL A   1      39.362  29.748  28.349  1.00  0.00     0.012 A 
ATOM     74  C   UNL A   1      39.981  29.127  30.619  1.00  0.00     0.148 A 
ATOM     75  C   UNL A   1      38.023  29.840  28.730  1.00  0.00     0.002 A 
ATOM     76  C   UNL A   1      38.642  29.191  30.985  1.00  0.00     0.091 A 
ATOM     77  F   UNL A   1      40.942  28.809  31.497  1.00  0.00    -0.205 F 
ATOM     78  C   UNL A   1      37.663  29.553  30.045  1.00  0.00     0.022 A 
BRANCH  76  79
ATOM     79  S   UNL A   1      38.063  28.791  32.639  1.00  0.00     0.127 S 
ATOM     80  O   UNL A   1      36.675  29.245  32.582  1.00  0.00    -0.237 OA
ATOM     81  O   UNL A   1      38.228  27.338  32.678  1.00  0.00    -0.237 OA
ATOM     82  O   UNL A   1      38.921  29.528  33.556  1.00  0.00    -0.744 OA
ENDBRANCH  76  79
ENDBRANCH  58  72
BRANCH  59  83
ATOM     83  C   UNL A   1      49.745  27.965  26.258  1.00  0.00     0.023 A 
ATOM     84  C   UNL A   1      50.073  28.123  24.899  1.00  0.00     0.012 A 
ATOM     85  C   UNL A   1      50.766  27.716  27.196  1.00  0.00     0.148 A 
ATOM     86  C   UNL A   1      51.402  28.044  24.481  1.00  0.00     0.002 A 
ATOM     87  C   UNL A   1      52.089  27.681  26.779  1.00  0.00     0.091 A 
ATOM     88  F   UNL A   1      50.420  27.580  28.484  1.00  0.00    -0.205 F 
ATOM     89  C   UNL A   1      52.409  27.836  25.421  1.00  0.00     0.022 A 
BRANCH  87  90
ATOM     90  S   UNL A   1      53.463  27.537  27.926  1.00  0.00     0.127 S 
ATOM     91  O   UNL A   1      53.232  28.674  28.813  1.00  0.00    -0.237 OA
ATOM     92  O   UNL A   1      53.211  26.226  28.526  1.00  0.00    -0.237 OA
ATOM     93  O   UNL A   1      54.670  27.615  27.116  1.00  0.00    -0.744 OA
ENDBRANCH  87  90
ENDBRANCH  59  83
BRANCH  71  94
ATOM     94  C   UNL A   1      46.350  33.356  29.177  1.00  0.00     0.023 A 
ATOM     95  C   UNL A   1      46.960  33.576  30.427  1.00  0.00     0.012 A 
ATOM     96  C   UNL A   1      46.247  34.417  28.255  1.00  0.00     0.148 A 
ATOM     97  C   UNL A   1      47.459  34.835  30.756  1.00  0.00     0.002 A 
ATOM     98  C   UNL A   1      46.776  35.660  28.577  1.00  0.00     0.091 A 
ATOM     99  F   UNL A   1      45.655  34.180  27.075  1.00  0.00    -0.205 F 
ATOM    100  C   UNL A   1      47.380  35.872  29.828  1.00  0.00     0.022 A 
BRANCH  98 101
ATOM    101  S   UNL A   1      46.784  37.039  27.426  1.00  0.00     0.127 S 
ATOM    102  O   UNL A   1      47.060  36.366  26.158  1.00  0.00    -0.237 OA
ATOM    103  O   UNL A   1      45.424  37.559  27.558  1.00  0.00    -0.237 OA
ATOM    104  O   UNL A   1      47.831  37.943  27.884  1.00  0.00    -0.744 OA
ENDBRANCH  98 101
ENDBRANCH  71  94
ENDBRANCH  45  46
ENDBRANCH  37  40
ENDBRANCH  35  36
ENDBRANCH  34  35
ENDBRANCH  33  34
ENDBRANCH   1  33
TORSDOF 20
ENDMDL
