MODEL 1
REMARK VINA RESULT:     -10.3      0.000      0.000
REMARK SMILES CCCC[C@@H](C(=O)NCCCCCCNC(=O)c1ccc(-c2c3nc(c(-c4cccc(S(=O)(=O)[O-])c4F)c4ccc([nH]4)c(-c4cccc(S(=O)(=O)[O-])c4F)c4nc(c(-c5cccc(S(=O)(=O)[O-])c5F)c5ccc2[nH]5)C=C4)C=C3)cc1)[C@](C)(O)c1cccc(Br)c1
REMARK SMILES IDX 11 1 10 2 9 3 8 4 6 5 7 6 5 8 4 9 3 10 2 11 1 12 81 13 82 14
REMARK SMILES IDX 83 15 84 17 85 18 90 19 86 20 88 21 87 22 89 23 12 24 13 25
REMARK SMILES IDX 14 26 15 27 16 28 17 30 18 31 19 32 80 33 20 34 79 35 21 36
REMARK SMILES IDX 22 37 23 38 73 39 24 40 78 41 72 42 74 43 25 44 77 45 71 46
REMARK SMILES IDX 70 47 26 49 58 50 38 51 57 52 39 53 42 54 56 55 75 56 40 57
REMARK SMILES IDX 41 58 55 60 76 61 43 62 27 63 28 64 36 65 29 66 31 67 37 68
REMARK SMILES IDX 30 69 32 70 33 71 34 72 35 73 59 74 60 75 68 76 61 77 63 78
REMARK SMILES IDX 69 79 62 80 64 81 65 82 66 83 67 84 44 85 45 86 53 87 46 88
REMARK SMILES IDX 48 89 54 90 47 91 49 92 50 93 51 94 52 95
REMARK H PARENT 8 7 83 16 15 29 74 48 42 59
REMARK Flexibility Score: inf
ROOT
ATOM      1  C   UNL A   1      33.044  29.957  27.084  1.00  0.00     0.002 C 
ENDROOT
BRANCH   1   2
ATOM      2  C   UNL A   1      33.795  29.129  26.043  1.00  0.00     0.021 C 
BRANCH   2   3
ATOM      3  C   UNL A   1      33.957  27.656  26.431  1.00  0.00     0.116 C 
BRANCH   3   4
ATOM      4  N   UNL A   1      32.674  27.122  26.815  1.00  0.00    -0.356 N 
ATOM      5  C   UNL A   1      31.546  26.890  26.097  1.00  0.00     0.226 C 
ATOM      6  O   UNL A   1      30.543  26.690  26.784  1.00  0.00    -0.275 OA
ATOM      7  H   UNL A   1      32.602  26.884  27.768  1.00  0.00     0.163 HD
BRANCH   5   8
ATOM      8  C   UNL A   1      31.551  26.798  24.557  1.00  0.00     0.114 C 
BRANCH   8   9
ATOM      9  C   UNL A   1      30.405  27.594  23.864  1.00  0.00     0.017 C 
BRANCH   9  10
ATOM     10  C   UNL A   1      30.714  28.724  22.880  1.00  0.00     0.001 C 
BRANCH  10  11
ATOM     11  C   UNL A   1      29.519  29.528  22.363  1.00  0.00    -0.003 C 
ATOM     12  C   UNL A   1      28.986  30.529  23.374  1.00  0.00     0.004 C 
ENDBRANCH  10  11
ENDBRANCH   9  10
ENDBRANCH   8   9
BRANCH   8  13
ATOM     13  C   UNL A   1      31.497  25.270  24.098  1.00  0.00     0.098 C 
ATOM     14  C   UNL A   1      31.024  25.112  22.637  1.00  0.00     0.048 C 
BRANCH  13  15
ATOM     15  O   UNL A   1      30.441  24.638  24.869  1.00  0.00    -0.385 OA
ATOM     16  H   UNL A   1      29.632  24.594  24.334  1.00  0.00     0.211 HD
ENDBRANCH  13  15
BRANCH  13  17
ATOM     17  C   UNL A   1      32.790  24.483  24.402  1.00  0.00    -0.015 A 
ATOM     18  C   UNL A   1      33.835  24.427  23.455  1.00  0.00     0.007 A 
ATOM     19  C   UNL A   1      32.949  23.714  25.567  1.00  0.00     0.022 A 
ATOM     20  C   UNL A   1      34.923  23.564  23.608  1.00  0.00     0.002 A 
ATOM     21  C   UNL A   1      34.043  22.855  25.723  1.00  0.00     0.018 A 
ATOM     22  C   UNL A   1      35.019  22.760  24.738  1.00  0.00     0.016 A 
ATOM     23  Br  UNL A   1      34.172  21.775  27.271  1.00  0.00    -0.051 Br
ENDBRANCH  13  17
ENDBRANCH   8  13
ENDBRANCH   5   8
ENDBRANCH   3   4
ENDBRANCH   2   3
ENDBRANCH   1   2
BRANCH   1  24
ATOM     24  C   UNL A   1      31.891  30.786  26.510  1.00  0.00     0.002 C 
BRANCH  24  25
ATOM     25  C   UNL A   1      31.696  32.162  27.155  1.00  0.00     0.021 C 
BRANCH  25  26
ATOM     26  C   UNL A   1      32.947  33.037  27.190  1.00  0.00     0.116 C 
BRANCH  26  27
ATOM     27  N   UNL A   1      32.656  34.367  27.700  1.00  0.00    -0.352 N 
ATOM     28  C   UNL A   1      33.103  34.977  28.843  1.00  0.00     0.251 C 
ATOM     29  H   UNL A   1      32.049  34.907  27.144  1.00  0.00     0.163 HD
ATOM     30  O   UNL A   1      32.562  36.006  29.236  1.00  0.00    -0.269 OA
BRANCH  28  31
ATOM     31  C   UNL A   1      34.236  34.398  29.596  1.00  0.00     0.039 A 
ATOM     32  C   UNL A   1      35.537  34.628  29.141  1.00  0.00     0.014 A 
ATOM     33  C   UNL A   1      34.016  33.591  30.716  1.00  0.00     0.014 A 
ATOM     34  C   UNL A   1      36.618  34.066  29.821  1.00  0.00     0.010 A 
ATOM     35  C   UNL A   1      35.097  33.088  31.433  1.00  0.00     0.010 A 
ATOM     36  C   UNL A   1      36.408  33.299  30.978  1.00  0.00    -0.014 A 
BRANCH  36  37
ATOM     37  C   UNL A   1      37.541  32.668  31.701  1.00  0.00     0.031 A 
ATOM     38  C   UNL A   1      38.269  31.503  31.082  1.00  0.00     0.074 A 
ATOM     39  C   UNL A   1      37.873  33.098  32.934  1.00  0.00     0.049 A 
ATOM     40  N   UNL A   1      39.248  30.788  31.571  1.00  0.00    -0.248 NA
ATOM     41  C   UNL A   1      37.819  31.068  29.748  1.00  0.00     0.031 C 
ATOM     42  C   UNL A   1      37.197  34.170  33.667  1.00  0.00     0.029 A 
ATOM     43  N   UNL A   1      38.848  32.668  33.798  1.00  0.00    -0.354 N 
ATOM     44  C   UNL A   1      39.505  29.800  30.627  1.00  0.00     0.074 A 
ATOM     45  C   UNL A   1      38.556  29.984  29.553  1.00  0.00     0.031 C 
ATOM     46  C   UNL A   1      37.780  34.317  34.867  1.00  0.00     0.029 A 
ATOM     47  C   UNL A   1      38.856  33.338  34.998  1.00  0.00     0.049 A 
ATOM     48  H   UNL A   1      39.483  31.948  33.579  1.00  0.00     0.167 HD
ATOM     49  C   UNL A   1      40.467  28.848  30.635  1.00  0.00     0.034 A 
ATOM     50  C   UNL A   1      39.645  33.182  36.080  1.00  0.00     0.034 A 
ATOM     51  C   UNL A   1      41.446  28.704  31.679  1.00  0.00     0.049 A 
ATOM     52  C   UNL A   1      40.745  32.155  36.037  1.00  0.00     0.074 A 
ATOM     53  C   UNL A   1      42.506  27.818  31.751  1.00  0.00     0.029 A 
ATOM     54  N   UNL A   1      41.487  29.472  32.832  1.00  0.00    -0.354 N 
ATOM     55  N   UNL A   1      41.063  31.325  35.073  1.00  0.00    -0.248 NA
ATOM     56  C   UNL A   1      41.623  32.072  37.213  1.00  0.00     0.031 C 
ATOM     57  C   UNL A   1      43.186  28.048  32.952  1.00  0.00     0.029 A 
ATOM     58  C   UNL A   1      42.558  29.088  33.618  1.00  0.00     0.049 A 
ATOM     59  H   UNL A   1      40.848  30.187  33.058  1.00  0.00     0.167 HD
ATOM     60  C   UNL A   1      42.203  30.657  35.505  1.00  0.00     0.074 A 
ATOM     61  C   UNL A   1      42.528  31.191  36.811  1.00  0.00     0.031 C 
ATOM     62  C   UNL A   1      42.908  29.680  34.884  1.00  0.00     0.034 A 
BRANCH  49  63
ATOM     63  C   UNL A   1      40.554  27.927  29.445  1.00  0.00     0.023 A 
ATOM     64  C   UNL A   1      39.753  26.767  29.409  1.00  0.00     0.012 A 
ATOM     65  C   UNL A   1      41.377  28.232  28.343  1.00  0.00     0.148 A 
ATOM     66  C   UNL A   1      39.794  25.907  28.313  1.00  0.00     0.002 A 
ATOM     67  C   UNL A   1      41.379  27.393  27.234  1.00  0.00     0.091 A 
ATOM     68  F   UNL A   1      42.146  29.328  28.402  1.00  0.00    -0.205 F 
ATOM     69  C   UNL A   1      40.598  26.225  27.223  1.00  0.00     0.022 A 
BRANCH  67  70
ATOM     70  S   UNL A   1      42.321  27.752  25.747  1.00  0.00     0.127 S 
ATOM     71  O   UNL A   1      43.694  27.676  26.241  1.00  0.00    -0.237 OA
ATOM     72  O   UNL A   1      41.929  26.656  24.861  1.00  0.00    -0.237 OA
ATOM     73  O   UNL A   1      41.887  29.071  25.307  1.00  0.00    -0.744 OA
ENDBRANCH  67  70
ENDBRANCH  49  63
BRANCH  50  74
ATOM     74  C   UNL A   1      39.482  34.078  37.259  1.00  0.00     0.023 A 
ATOM     75  C   UNL A   1      39.875  35.428  37.158  1.00  0.00     0.012 A 
ATOM     76  C   UNL A   1      38.927  33.616  38.468  1.00  0.00     0.148 A 
ATOM     77  C   UNL A   1      39.755  36.290  38.249  1.00  0.00     0.002 A 
ATOM     78  C   UNL A   1      38.759  34.493  39.534  1.00  0.00     0.091 A 
ATOM     79  F   UNL A   1      38.569  32.326  38.551  1.00  0.00    -0.205 F 
ATOM     80  C   UNL A   1      39.190  35.826  39.433  1.00  0.00     0.022 A 
BRANCH  78  81
ATOM     81  S   UNL A   1      37.921  34.012  41.048  1.00  0.00     0.127 S 
ATOM     82  O   UNL A   1      37.657  35.306  41.669  1.00  0.00    -0.237 OA
ATOM     83  O   UNL A   1      36.736  33.320  40.535  1.00  0.00    -0.237 OA
ATOM     84  O   UNL A   1      38.858  33.146  41.751  1.00  0.00    -0.744 OA
ENDBRANCH  78  81
ENDBRANCH  50  74
BRANCH  62  85
ATOM     85  C   UNL A   1      44.138  29.157  35.577  1.00  0.00     0.023 A 
ATOM     86  C   UNL A   1      45.383  29.779  35.363  1.00  0.00     0.012 A 
ATOM     87  C   UNL A   1      44.043  28.097  36.501  1.00  0.00     0.148 A 
ATOM     88  C   UNL A   1      46.522  29.333  36.032  1.00  0.00     0.002 A 
ATOM     89  C   UNL A   1      45.172  27.688  37.200  1.00  0.00     0.091 A 
ATOM     90  F   UNL A   1      42.853  27.504  36.675  1.00  0.00    -0.205 F 
ATOM     91  C   UNL A   1      46.414  28.298  36.958  1.00  0.00     0.022 A 
BRANCH  89  92
ATOM     92  S   UNL A   1      45.103  26.431  38.480  1.00  0.00     0.127 S 
ATOM     93  O   UNL A   1      46.502  26.350  38.894  1.00  0.00    -0.237 OA
ATOM     94  O   UNL A   1      44.208  27.037  39.467  1.00  0.00    -0.237 OA
ATOM     95  O   UNL A   1      44.566  25.238  37.837  1.00  0.00    -0.744 OA
ENDBRANCH  89  92
ENDBRANCH  62  85
ENDBRANCH  36  37
ENDBRANCH  28  31
ENDBRANCH  26  27
ENDBRANCH  25  26
ENDBRANCH  24  25
ENDBRANCH   1  24
TORSDOF 22
ENDMDL
MODEL 2
REMARK VINA RESULT:     -10.3      0.890      7.781
REMARK SMILES CCCC[C@@H](C(=O)NCCCCCCNC(=O)c1ccc(-c2c3nc(c(-c4cccc(S(=O)(=O)[O-])c4F)c4ccc([nH]4)c(-c4cccc(S(=O)(=O)[O-])c4F)c4nc(c(-c5cccc(S(=O)(=O)[O-])c5F)c5ccc2[nH]5)C=C4)C=C3)cc1)[C@](C)(O)c1cccc(Br)c1
REMARK SMILES IDX 11 1 10 2 9 3 8 4 6 5 7 6 5 8 4 9 3 10 2 11 1 12 81 13 82 14
REMARK SMILES IDX 83 15 84 17 85 18 90 19 86 20 88 21 87 22 89 23 12 24 13 25
REMARK SMILES IDX 14 26 15 27 16 28 17 30 18 31 19 32 80 33 20 34 79 35 21 36
REMARK SMILES IDX 22 37 23 38 73 39 24 40 78 41 72 42 74 43 25 44 77 45 71 46
REMARK SMILES IDX 70 47 26 49 58 50 38 51 57 52 39 53 42 54 56 55 75 56 40 57
REMARK SMILES IDX 41 58 55 60 76 61 43 62 27 63 28 64 36 65 29 66 31 67 37 68
REMARK SMILES IDX 30 69 32 70 33 71 34 72 35 73 59 74 60 75 68 76 61 77 63 78
REMARK SMILES IDX 69 79 62 80 64 81 65 82 66 83 67 84 44 85 45 86 53 87 46 88
REMARK SMILES IDX 48 89 54 90 47 91 49 92 50 93 51 94 52 95
REMARK H PARENT 8 7 83 16 15 29 74 48 42 59
REMARK Flexibility Score: inf
ROOT
ATOM      1  C   UNL A   1      32.526  30.051  26.822  1.00  0.00     0.002 C 
ENDROOT
BRANCH   1   2
ATOM      2  C   UNL A   1      33.536  29.467  25.835  1.00  0.00     0.021 C 
BRANCH   2   3
ATOM      3  C   UNL A   1      33.756  27.960  26.002  1.00  0.00     0.116 C 
BRANCH   3   4
ATOM      4  N   UNL A   1      32.608  27.382  26.655  1.00  0.00    -0.356 N 
ATOM      5  C   UNL A   1      31.428  26.926  26.161  1.00  0.00     0.226 C 
ATOM      6  O   UNL A   1      30.557  26.753  27.016  1.00  0.00    -0.275 OA
ATOM      7  H   UNL A   1      32.694  27.303  27.633  1.00  0.00     0.163 HD
BRANCH   5   8
ATOM      8  C   UNL A   1      31.236  26.576  24.671  1.00  0.00     0.114 C 
BRANCH   8   9
ATOM      9  C   UNL A   1      29.886  27.065  24.066  1.00  0.00     0.017 C 
BRANCH   9  10
ATOM     10  C   UNL A   1      29.844  28.225  23.071  1.00  0.00     0.001 C 
BRANCH  10  11
ATOM     11  C   UNL A   1      30.979  29.247  23.160  1.00  0.00    -0.003 C 
ATOM     12  C   UNL A   1      32.234  28.817  22.420  1.00  0.00     0.004 C 
ENDBRANCH  10  11
ENDBRANCH   9  10
ENDBRANCH   8   9
BRANCH   8  13
ATOM     13  C   UNL A   1      31.383  25.000  24.455  1.00  0.00     0.098 C 
ATOM     14  C   UNL A   1      30.989  24.564  23.027  1.00  0.00     0.048 C 
BRANCH  13  15
ATOM     15  O   UNL A   1      30.381  24.367  25.294  1.00  0.00    -0.385 OA
ATOM     16  H   UNL A   1      30.148  24.962  26.025  1.00  0.00     0.211 HD
ENDBRANCH  13  15
BRANCH  13  17
ATOM     17  C   UNL A   1      32.748  24.435  24.903  1.00  0.00    -0.015 A 
ATOM     18  C   UNL A   1      33.928  24.773  24.207  1.00  0.00     0.007 A 
ATOM     19  C   UNL A   1      32.871  23.494  25.939  1.00  0.00     0.022 A 
ATOM     20  C   UNL A   1      35.140  24.125  24.453  1.00  0.00     0.002 A 
ATOM     21  C   UNL A   1      34.088  22.850  26.190  1.00  0.00     0.018 A 
ATOM     22  C   UNL A   1      35.218  23.146  25.436  1.00  0.00     0.016 A 
ATOM     23  Br  UNL A   1      34.187  21.528  27.540  1.00  0.00    -0.051 Br
ENDBRANCH  13  17
ENDBRANCH   8  13
ENDBRANCH   5   8
ENDBRANCH   3   4
ENDBRANCH   2   3
ENDBRANCH   1   2
BRANCH   1  24
ATOM     24  C   UNL A   1      31.466  30.946  26.175  1.00  0.00     0.002 C 
BRANCH  24  25
ATOM     25  C   UNL A   1      31.389  32.371  26.734  1.00  0.00     0.021 C 
BRANCH  25  26
ATOM     26  C   UNL A   1      32.707  32.919  27.276  1.00  0.00     0.116 C 
BRANCH  26  27
ATOM     27  N   UNL A   1      32.553  34.270  27.790  1.00  0.00    -0.352 N 
ATOM     28  C   UNL A   1      33.162  34.865  28.865  1.00  0.00     0.251 C 
ATOM     29  H   UNL A   1      31.920  34.839  27.296  1.00  0.00     0.163 HD
ATOM     30  O   UNL A   1      32.730  35.930  29.296  1.00  0.00    -0.269 OA
BRANCH  28  31
ATOM     31  C   UNL A   1      34.337  34.229  29.497  1.00  0.00     0.039 A 
ATOM     32  C   UNL A   1      35.594  34.399  28.911  1.00  0.00     0.014 A 
ATOM     33  C   UNL A   1      34.194  33.426  30.632  1.00  0.00     0.014 A 
ATOM     34  C   UNL A   1      36.711  33.782  29.476  1.00  0.00     0.010 A 
ATOM     35  C   UNL A   1      35.318  32.868  31.234  1.00  0.00     0.010 A 
ATOM     36  C   UNL A   1      36.583  33.019  30.648  1.00  0.00    -0.014 A 
BRANCH  36  37
ATOM     37  C   UNL A   1      37.754  32.330  31.249  1.00  0.00     0.031 A 
ATOM     38  C   UNL A   1      38.347  32.846  32.534  1.00  0.00     0.074 A 
ATOM     39  C   UNL A   1      38.320  31.288  30.610  1.00  0.00     0.049 A 
ATOM     40  N   UNL A   1      39.394  32.418  33.189  1.00  0.00    -0.248 NA
ATOM     41  C   UNL A   1      37.695  34.016  33.148  1.00  0.00     0.031 C 
ATOM     42  C   UNL A   1      37.879  30.742  29.325  1.00  0.00     0.029 A 
ATOM     43  N   UNL A   1      39.404  30.517  30.945  1.00  0.00    -0.354 N 
ATOM     44  C   UNL A   1      39.547  33.283  34.267  1.00  0.00     0.074 A 
ATOM     45  C   UNL A   1      38.509  34.282  34.159  1.00  0.00     0.031 C 
ATOM     46  C   UNL A   1      38.682  29.722  28.983  1.00  0.00     0.029 A 
ATOM     47  C   UNL A   1      39.706  29.554  30.010  1.00  0.00     0.049 A 
ATOM     48  H   UNL A   1      39.917  30.640  31.776  1.00  0.00     0.167 HD
ATOM     49  C   UNL A   1      40.447  33.229  35.278  1.00  0.00     0.034 A 
ATOM     50  C   UNL A   1      40.694  28.639  29.988  1.00  0.00     0.034 A 
ATOM     51  C   UNL A   1      41.442  32.200  35.413  1.00  0.00     0.049 A 
ATOM     52  C   UNL A   1      41.644  28.565  31.154  1.00  0.00     0.074 A 
ATOM     53  C   UNL A   1      42.356  32.013  36.435  1.00  0.00     0.029 A 
ATOM     54  N   UNL A   1      41.648  31.179  34.499  1.00  0.00    -0.354 N 
ATOM     55  N   UNL A   1      41.682  29.303  32.237  1.00  0.00    -0.248 NA
ATOM     56  C   UNL A   1      42.661  27.503  31.117  1.00  0.00     0.031 C 
ATOM     57  C   UNL A   1      43.120  30.880  36.134  1.00  0.00     0.029 A 
ATOM     58  C   UNL A   1      42.669  30.353  34.935  1.00  0.00     0.049 A 
ATOM     59  H   UNL A   1      41.143  31.058  33.662  1.00  0.00     0.167 HD
ATOM     60  C   UNL A   1      42.691  28.767  33.029  1.00  0.00     0.074 A 
ATOM     61  C   UNL A   1      43.229  27.632  32.308  1.00  0.00     0.031 C 
ATOM     62  C   UNL A   1      43.142  29.185  34.237  1.00  0.00     0.034 A 
BRANCH  49  63
ATOM     63  C   UNL A   1      40.353  34.277  36.357  1.00  0.00     0.023 A 
ATOM     64  C   UNL A   1      40.760  35.598  36.074  1.00  0.00     0.012 A 
ATOM     65  C   UNL A   1      39.815  33.976  37.624  1.00  0.00     0.148 A 
ATOM     66  C   UNL A   1      40.666  36.594  37.045  1.00  0.00     0.002 A 
ATOM     67  C   UNL A   1      39.683  34.985  38.572  1.00  0.00     0.091 A 
ATOM     68  F   UNL A   1      39.453  32.712  37.882  1.00  0.00    -0.205 F 
ATOM     69  C   UNL A   1      40.119  36.290  38.288  1.00  0.00     0.022 A 
BRANCH  67  70
ATOM     70  S   UNL A   1      38.920  34.716  40.176  1.00  0.00     0.127 S 
ATOM     71  O   UNL A   1      37.768  33.890  39.820  1.00  0.00    -0.237 OA
ATOM     72  O   UNL A   1      39.975  34.011  40.904  1.00  0.00    -0.237 OA
ATOM     73  O   UNL A   1      38.604  36.040  40.696  1.00  0.00    -0.744 OA
ENDBRANCH  67  70
ENDBRANCH  49  63
BRANCH  50  74
ATOM     74  C   UNL A   1      40.782  27.660  28.868  1.00  0.00     0.023 A 
ATOM     75  C   UNL A   1      39.881  26.577  28.827  1.00  0.00     0.012 A 
ATOM     76  C   UNL A   1      41.731  27.800  27.837  1.00  0.00     0.148 A 
ATOM     77  C   UNL A   1      39.948  25.631  27.804  1.00  0.00     0.002 A 
ATOM     78  C   UNL A   1      41.757  26.886  26.790  1.00  0.00     0.091 A 
ATOM     79  F   UNL A   1      42.588  28.830  27.897  1.00  0.00    -0.205 F 
ATOM     80  C   UNL A   1      40.879  25.790  26.781  1.00  0.00     0.022 A 
BRANCH  78  81
ATOM     81  S   UNL A   1      42.835  27.087  25.368  1.00  0.00     0.127 S 
ATOM     82  O   UNL A   1      44.141  27.249  26.000  1.00  0.00    -0.237 OA
ATOM     83  O   UNL A   1      42.646  25.820  24.658  1.00  0.00    -0.237 OA
ATOM     84  O   UNL A   1      42.323  28.250  24.655  1.00  0.00    -0.744 OA
ENDBRANCH  78  81
ENDBRANCH  50  74
BRANCH  62  85
ATOM     85  C   UNL A   1      44.237  28.384  34.891  1.00  0.00     0.023 A 
ATOM     86  C   UNL A   1      45.581  28.614  34.539  1.00  0.00     0.012 A 
ATOM     87  C   UNL A   1      43.936  27.457  35.909  1.00  0.00     0.148 A 
ATOM     88  C   UNL A   1      46.608  27.910  35.167  1.00  0.00     0.002 A 
ATOM     89  C   UNL A   1      44.966  26.795  36.564  1.00  0.00     0.091 A 
ATOM     90  F   UNL A   1      42.649  27.238  36.215  1.00  0.00    -0.205 F 
ATOM     91  C   UNL A   1      46.302  27.011  36.187  1.00  0.00     0.022 A 
BRANCH  89  92
ATOM     92  S   UNL A   1      44.667  25.696  37.954  1.00  0.00     0.127 S 
ATOM     93  O   UNL A   1      43.992  24.574  37.306  1.00  0.00    -0.237 OA
ATOM     94  O   UNL A   1      46.024  25.405  38.420  1.00  0.00    -0.237 OA
ATOM     95  O   UNL A   1      43.859  26.459  38.896  1.00  0.00    -0.744 OA
ENDBRANCH  89  92
ENDBRANCH  62  85
ENDBRANCH  36  37
ENDBRANCH  28  31
ENDBRANCH  26  27
ENDBRANCH  25  26
ENDBRANCH  24  25
ENDBRANCH   1  24
TORSDOF 22
ENDMDL
MODEL 3
REMARK VINA RESULT:      -9.8      2.104      7.824
REMARK SMILES CCCC[C@@H](C(=O)NCCCCCCNC(=O)c1ccc(-c2c3nc(c(-c4cccc(S(=O)(=O)[O-])c4F)c4ccc([nH]4)c(-c4cccc(S(=O)(=O)[O-])c4F)c4nc(c(-c5cccc(S(=O)(=O)[O-])c5F)c5ccc2[nH]5)C=C4)C=C3)cc1)[C@](C)(O)c1cccc(Br)c1
REMARK SMILES IDX 11 1 10 2 9 3 8 4 6 5 7 6 5 8 4 9 3 10 2 11 1 12 81 13 82 14
REMARK SMILES IDX 83 15 84 17 85 18 90 19 86 20 88 21 87 22 89 23 12 24 13 25
REMARK SMILES IDX 14 26 15 27 16 28 17 30 18 31 19 32 80 33 20 34 79 35 21 36
REMARK SMILES IDX 22 37 23 38 73 39 24 40 78 41 72 42 74 43 25 44 77 45 71 46
REMARK SMILES IDX 70 47 26 49 58 50 38 51 57 52 39 53 42 54 56 55 75 56 40 57
REMARK SMILES IDX 41 58 55 60 76 61 43 62 27 63 28 64 36 65 29 66 31 67 37 68
REMARK SMILES IDX 30 69 32 70 33 71 34 72 35 73 59 74 60 75 68 76 61 77 63 78
REMARK SMILES IDX 69 79 62 80 64 81 65 82 66 83 67 84 44 85 45 86 53 87 46 88
REMARK SMILES IDX 48 89 54 90 47 91 49 92 50 93 51 94 52 95
REMARK H PARENT 8 7 83 16 15 29 74 48 42 59
REMARK Flexibility Score: inf
ROOT
ATOM      1  C   UNL A   1      34.150  30.721  27.649  1.00  0.00     0.002 C 
ENDROOT
BRANCH   1   2
ATOM      2  C   UNL A   1      32.750  30.607  27.048  1.00  0.00     0.021 C 
BRANCH   2   3
ATOM      3  C   UNL A   1      32.713  29.856  25.714  1.00  0.00     0.116 C 
BRANCH   3   4
ATOM      4  N   UNL A   1      32.195  28.527  25.931  1.00  0.00    -0.356 N 
ATOM      5  C   UNL A   1      31.275  27.799  25.249  1.00  0.00     0.226 C 
ATOM      6  O   UNL A   1      30.860  26.812  25.860  1.00  0.00    -0.275 OA
ATOM      7  H   UNL A   1      32.577  28.066  26.713  1.00  0.00     0.163 HD
BRANCH   5   8
ATOM      8  C   UNL A   1      30.859  28.138  23.803  1.00  0.00     0.114 C 
BRANCH   8   9
ATOM      9  C   UNL A   1      29.408  27.708  23.435  1.00  0.00     0.017 C 
BRANCH   9  10
ATOM     10  C   UNL A   1      28.349  28.746  23.061  1.00  0.00     0.001 C 
BRANCH  10  11
ATOM     11  C   UNL A   1      28.845  29.999  22.335  1.00  0.00    -0.003 C 
ATOM     12  C   UNL A   1      28.570  31.283  23.098  1.00  0.00     0.004 C 
ENDBRANCH  10  11
ENDBRANCH   9  10
ENDBRANCH   8   9
BRANCH   8  13
ATOM     13  C   UNL A   1      31.890  27.489  22.770  1.00  0.00     0.098 C 
ATOM     14  C   UNL A   1      33.084  28.421  22.470  1.00  0.00     0.048 C 
BRANCH  13  15
ATOM     15  O   UNL A   1      31.203  27.395  21.495  1.00  0.00    -0.385 OA
ATOM     16  H   UNL A   1      30.906  26.481  21.354  1.00  0.00     0.211 HD
ENDBRANCH  13  15
BRANCH  13  17
ATOM     17  C   UNL A   1      32.323  26.055  23.141  1.00  0.00    -0.015 A 
ATOM     18  C   UNL A   1      31.476  24.958  22.878  1.00  0.00     0.007 A 
ATOM     19  C   UNL A   1      33.512  25.783  23.839  1.00  0.00     0.022 A 
ATOM     20  C   UNL A   1      31.742  23.683  23.382  1.00  0.00     0.002 A 
ATOM     21  C   UNL A   1      33.782  24.504  24.337  1.00  0.00     0.018 A 
ATOM     22  C   UNL A   1      32.891  23.458  24.131  1.00  0.00     0.016 A 
ATOM     23  Br  UNL A   1      35.356  24.204  25.345  1.00  0.00    -0.051 Br
ENDBRANCH  13  17
ENDBRANCH   8  13
ENDBRANCH   5   8
ENDBRANCH   3   4
ENDBRANCH   2   3
ENDBRANCH   1   2
BRANCH   1  24
ATOM     24  C   UNL A   1      34.550  32.148  28.034  1.00  0.00     0.002 C 
BRANCH  24  25
ATOM     25  C   UNL A   1      33.420  33.180  27.969  1.00  0.00     0.021 C 
BRANCH  25  26
ATOM     26  C   UNL A   1      33.855  34.624  28.209  1.00  0.00     0.116 C 
BRANCH  26  27
ATOM     27  N   UNL A   1      33.251  35.172  29.413  1.00  0.00    -0.352 N 
ATOM     28  C   UNL A   1      33.504  34.871  30.726  1.00  0.00     0.251 C 
ATOM     29  H   UNL A   1      32.561  35.858  29.262  1.00  0.00     0.163 HD
ATOM     30  O   UNL A   1      32.729  35.254  31.598  1.00  0.00    -0.269 OA
BRANCH  28  31
ATOM     31  C   UNL A   1      34.707  34.092  31.089  1.00  0.00     0.039 A 
ATOM     32  C   UNL A   1      34.552  32.916  31.827  1.00  0.00     0.014 A 
ATOM     33  C   UNL A   1      35.984  34.546  30.749  1.00  0.00     0.014 A 
ATOM     34  C   UNL A   1      35.678  32.182  32.205  1.00  0.00     0.010 A 
ATOM     35  C   UNL A   1      37.101  33.778  31.066  1.00  0.00     0.010 A 
ATOM     36  C   UNL A   1      36.961  32.603  31.820  1.00  0.00    -0.014 A 
BRANCH  36  37
ATOM     37  C   UNL A   1      38.173  31.853  32.235  1.00  0.00     0.031 A 
ATOM     38  C   UNL A   1      38.871  32.210  33.522  1.00  0.00     0.074 A 
ATOM     39  C   UNL A   1      38.682  30.901  31.429  1.00  0.00     0.049 A 
ATOM     40  N   UNL A   1      39.966  31.711  34.032  1.00  0.00    -0.248 NA
ATOM     41  C   UNL A   1      38.276  33.291  34.326  1.00  0.00     0.031 C 
ATOM     42  C   UNL A   1      38.136  30.514  30.127  1.00  0.00     0.029 A 
ATOM     43  N   UNL A   1      39.786  30.100  31.578  1.00  0.00    -0.354 N 
ATOM     44  C   UNL A   1      40.209  32.437  35.193  1.00  0.00     0.074 A 
ATOM     45  C   UNL A   1      39.170  33.437  35.293  1.00  0.00     0.031 C 
ATOM     46  C   UNL A   1      38.905  29.549  29.597  1.00  0.00     0.029 A 
ATOM     47  C   UNL A   1      40.007  29.262  30.510  1.00  0.00     0.049 A 
ATOM     48  H   UNL A   1      40.365  30.123  32.373  1.00  0.00     0.167 HD
ATOM     49  C   UNL A   1      41.188  32.265  36.113  1.00  0.00     0.034 A 
ATOM     50  C   UNL A   1      40.987  28.362  30.296  1.00  0.00     0.034 A 
ATOM     51  C   UNL A   1      42.186  31.232  36.039  1.00  0.00     0.049 A 
ATOM     52  C   UNL A   1      42.028  28.150  31.364  1.00  0.00     0.074 A 
ATOM     53  C   UNL A   1      43.179  30.927  36.953  1.00  0.00     0.029 A 
ATOM     54  N   UNL A   1      42.313  30.333  34.993  1.00  0.00    -0.354 N 
ATOM     55  N   UNL A   1      42.157  28.750  32.522  1.00  0.00    -0.248 NA
ATOM     56  C   UNL A   1      43.034  27.107  31.114  1.00  0.00     0.031 C 
ATOM     57  C   UNL A   1      43.912  29.844  36.455  1.00  0.00     0.029 A 
ATOM     58  C   UNL A   1      43.363  29.466  35.240  1.00  0.00     0.049 A 
ATOM     59  H   UNL A   1      41.741  30.313  34.191  1.00  0.00     0.167 HD
ATOM     60  C   UNL A   1      43.224  28.126  33.158  1.00  0.00     0.074 A 
ATOM     61  C   UNL A   1      43.697  27.092  32.262  1.00  0.00     0.031 C 
ATOM     62  C   UNL A   1      43.773  28.395  34.368  1.00  0.00     0.034 A 
BRANCH  49  63
ATOM     63  C   UNL A   1      41.186  33.171  37.317  1.00  0.00     0.023 A 
ATOM     64  C   UNL A   1      40.323  32.885  38.396  1.00  0.00     0.012 A 
ATOM     65  C   UNL A   1      42.067  34.266  37.410  1.00  0.00     0.148 A 
ATOM     66  C   UNL A   1      40.313  33.692  39.532  1.00  0.00     0.002 A 
ATOM     67  C   UNL A   1      42.083  35.040  38.565  1.00  0.00     0.091 A 
ATOM     68  F   UNL A   1      42.865  34.536  36.367  1.00  0.00    -0.205 F 
ATOM     69  C   UNL A   1      41.199  34.762  39.621  1.00  0.00     0.022 A 
BRANCH  67  70
ATOM     70  S   UNL A   1      43.239  36.394  38.811  1.00  0.00     0.127 S 
ATOM     71  O   UNL A   1      44.523  35.724  38.613  1.00  0.00    -0.237 OA
ATOM     72  O   UNL A   1      42.862  37.319  37.742  1.00  0.00    -0.237 OA
ATOM     73  O   UNL A   1      42.993  36.890  40.158  1.00  0.00    -0.744 OA
ENDBRANCH  67  70
ENDBRANCH  49  63
BRANCH  50  74
ATOM     74  C   UNL A   1      40.980  27.529  29.060  1.00  0.00     0.023 A 
ATOM     75  C   UNL A   1      40.034  26.492  28.934  1.00  0.00     0.012 A 
ATOM     76  C   UNL A   1      41.882  27.764  28.006  1.00  0.00     0.148 A 
ATOM     77  C   UNL A   1      40.011  25.680  27.800  1.00  0.00     0.002 A 
ATOM     78  C   UNL A   1      41.820  26.987  26.854  1.00  0.00     0.091 A 
ATOM     79  F   UNL A   1      42.783  28.747  28.147  1.00  0.00    -0.205 F 
ATOM     80  C   UNL A   1      40.898  25.933  26.757  1.00  0.00     0.022 A 
BRANCH  78  81
ATOM     81  S   UNL A   1      42.835  27.328  25.412  1.00  0.00     0.127 S 
ATOM     82  O   UNL A   1      44.145  27.557  26.014  1.00  0.00    -0.237 OA
ATOM     83  O   UNL A   1      42.715  26.082  24.652  1.00  0.00    -0.237 OA
ATOM     84  O   UNL A   1      42.219  28.480  24.767  1.00  0.00    -0.744 OA
ENDBRANCH  78  81
ENDBRANCH  50  74
BRANCH  62  85
ATOM     85  C   UNL A   1      44.913  27.526  34.827  1.00  0.00     0.023 A 
ATOM     86  C   UNL A   1      46.239  27.991  34.719  1.00  0.00     0.012 A 
ATOM     87  C   UNL A   1      44.664  26.280  35.437  1.00  0.00     0.148 A 
ATOM     88  C   UNL A   1      47.301  27.215  35.181  1.00  0.00     0.002 A 
ATOM     89  C   UNL A   1      45.723  25.534  35.938  1.00  0.00     0.091 A 
ATOM     90  F   UNL A   1      43.398  25.846  35.512  1.00  0.00    -0.205 F 
ATOM     91  C   UNL A   1      47.043  25.994  35.800  1.00  0.00     0.022 A 
BRANCH  89  92
ATOM     92  S   UNL A   1      45.473  23.999  36.836  1.00  0.00     0.127 S 
ATOM     93  O   UNL A   1      46.814  23.419  36.816  1.00  0.00    -0.237 OA
ATOM     94  O   UNL A   1      45.032  24.473  38.149  1.00  0.00    -0.237 OA
ATOM     95  O   UNL A   1      44.458  23.264  36.092  1.00  0.00    -0.744 OA
ENDBRANCH  89  92
ENDBRANCH  62  85
ENDBRANCH  36  37
ENDBRANCH  28  31
ENDBRANCH  26  27
ENDBRANCH  25  26
ENDBRANCH  24  25
ENDBRANCH   1  24
TORSDOF 22
ENDMDL
