MODEL 1
REMARK VINA RESULT:     -11.6      0.000      0.000
REMARK SMILES COc1ccc(NC(=O)C[C@@H](C[NH+]2CCOCC2)C(=O)NCCCCCCNC(=O)c2ccc(-c3c4nc(c(-c5cccc(S(=O)(=O)[O-])c5F)c5ccc([nH]5)c(-c5cccc(S(=O)(=O)[O-])c5F)c5nc(c(-c6cccc(S(=O)(=O)[O-])c6F)c6ccc3[nH]6)C=C5)C=C4)cc2)cc1
REMARK SMILES IDX 24 1 23 2 22 3 21 4 19 5 20 6 11 8 10 9 8 10 7 11 9 13 6 14
REMARK SMILES IDX 3 15 4 16 95 17 5 18 94 19 2 20 1 21 12 22 13 23 14 24 18 25
REMARK SMILES IDX 15 27 17 28 16 29 25 30 26 31 27 32 28 33 29 34 30 36 31 37
REMARK SMILES IDX 32 38 93 39 33 40 92 41 34 42 35 43 36 44 86 45 37 46 91 47
REMARK SMILES IDX 85 48 87 49 38 50 90 51 84 52 83 53 39 55 71 56 51 57 70 58
REMARK SMILES IDX 52 59 55 60 69 61 88 62 53 63 54 64 68 66 89 67 56 68 40 69
REMARK SMILES IDX 41 70 49 71 42 72 44 73 50 74 43 75 45 76 46 77 47 78 48 79
REMARK SMILES IDX 72 80 73 81 81 82 74 83 76 84 82 85 75 86 77 87 78 88 79 89
REMARK SMILES IDX 80 90 57 91 58 92 66 93 59 94 61 95 67 96 60 97 62 98 63 99
REMARK SMILES IDX 64 100 65 101
REMARK H PARENT 21 7 7 12 13 26 28 35 87 54 55 65
REMARK Flexibility Score: inf
ROOT
ATOM      1  C   UNL A   1      35.215  24.497  25.368  1.00  0.00     0.002 C 
ENDROOT
BRANCH   1   2
ATOM      2  C   UNL A   1      33.978  24.845  24.507  1.00  0.00     0.021 C 
BRANCH   2   3
ATOM      3  C   UNL A   1      33.807  24.310  23.024  1.00  0.00     0.116 C 
BRANCH   3   4
ATOM      4  N   UNL A   1      33.177  22.909  22.886  1.00  0.00    -0.356 N 
ATOM      5  C   UNL A   1      32.550  21.849  23.521  1.00  0.00     0.229 C 
ATOM      6  O   UNL A   1      32.140  21.006  22.701  1.00  0.00    -0.275 OA
ATOM      7  H   UNL A   1      33.252  22.660  21.937  1.00  0.00     0.163 HD
BRANCH   5   8
ATOM      8  C   UNL A   1      32.222  21.546  25.075  1.00  0.00     0.142 C 
BRANCH   8   9
ATOM      9  C   UNL A   1      30.824  22.065  25.626  1.00  0.00     0.119 C 
BRANCH   9  10
ATOM     10  C   UNL A   1      30.297  23.249  26.583  1.00  0.00     0.225 C 
ATOM     11  N   UNL A   1      30.173  24.615  26.517  1.00  0.00    -0.326 N 
ATOM     12  H   UNL A   1      29.732  24.965  27.324  1.00  0.00     0.169 HD
ATOM     13  O   UNL A   1      29.980  22.848  27.730  1.00  0.00    -0.275 OA
BRANCH  11  14
ATOM     14  C   UNL A   1      30.495  25.659  25.628  1.00  0.00     0.041 A 
ATOM     15  C   UNL A   1      31.077  27.583  23.584  1.00  0.00     0.119 A 
ATOM     16  C   UNL A   1      30.500  26.379  23.277  1.00  0.00     0.048 A 
ATOM     17  C   UNL A   1      31.382  27.825  24.932  1.00  0.00     0.048 A 
ATOM     18  C   UNL A   1      30.273  25.475  24.306  1.00  0.00     0.030 A 
ATOM     19  C   UNL A   1      31.107  26.865  25.953  1.00  0.00     0.030 A 
BRANCH  15  20
ATOM     20  O   UNL A   1      31.395  28.538  22.662  1.00  0.00    -0.497 OA
ATOM     21  C   UNL A   1      30.355  29.458  22.292  1.00  0.00     0.278 C 
ENDBRANCH  15  20
ENDBRANCH  11  14
ENDBRANCH   9  10
ENDBRANCH   8   9
BRANCH   8  22
ATOM     22  C   UNL A   1      32.564  20.126  25.461  1.00  0.00     0.276 C 
BRANCH  22  23
ATOM     23  N   UNL A   1      33.150  19.150  24.511  1.00  0.00    -0.330 N 
ATOM     24  C   UNL A   1      32.287  18.004  24.391  1.00  0.00     0.291 C 
ATOM     25  C   UNL A   1      34.508  18.589  24.341  1.00  0.00     0.291 C 
ATOM     26  H   UNL A   1      33.262  19.919  23.851  1.00  0.00     0.348 HD
ATOM     27  C   UNL A   1      32.592  16.906  25.416  1.00  0.00     0.221 C 
ATOM     28  C   UNL A   1      34.854  17.199  24.953  1.00  0.00     0.221 C 
ATOM     29  O   UNL A   1      33.777  16.260  24.976  1.00  0.00    -0.370 OA
ENDBRANCH  22  23
ENDBRANCH   8  22
ENDBRANCH   5   8
ENDBRANCH   3   4
ENDBRANCH   2   3
ENDBRANCH   1   2
BRANCH   1  30
ATOM     30  C   UNL A   1      35.238  23.222  26.228  1.00  0.00     0.002 C 
BRANCH  30  31
ATOM     31  C   UNL A   1      35.754  21.884  25.660  1.00  0.00     0.021 C 
BRANCH  31  32
ATOM     32  C   UNL A   1      37.095  21.856  24.917  1.00  0.00     0.116 C 
BRANCH  32  33
ATOM     33  N   UNL A   1      38.005  20.856  25.448  1.00  0.00    -0.352 N 
ATOM     34  C   UNL A   1      39.225  20.975  26.064  1.00  0.00     0.251 C 
ATOM     35  H   UNL A   1      37.690  19.928  25.349  1.00  0.00     0.163 HD
ATOM     36  O   UNL A   1      39.921  19.967  26.191  1.00  0.00    -0.269 OA
BRANCH  34  37
ATOM     37  C   UNL A   1      39.718  22.268  26.594  1.00  0.00     0.039 A 
ATOM     38  C   UNL A   1      39.200  23.456  26.058  1.00  0.00     0.014 A 
ATOM     39  C   UNL A   1      40.765  22.331  27.518  1.00  0.00     0.014 A 
ATOM     40  C   UNL A   1      39.720  24.692  26.452  1.00  0.00     0.010 A 
ATOM     41  C   UNL A   1      41.237  23.567  27.961  1.00  0.00     0.010 A 
ATOM     42  C   UNL A   1      40.744  24.760  27.409  1.00  0.00    -0.014 A 
BRANCH  42  43
ATOM     43  C   UNL A   1      41.353  26.062  27.789  1.00  0.00     0.031 A 
ATOM     44  C   UNL A   1      42.781  26.365  27.405  1.00  0.00     0.074 A 
ATOM     45  C   UNL A   1      40.639  26.953  28.504  1.00  0.00     0.049 A 
ATOM     46  N   UNL A   1      43.500  27.426  27.665  1.00  0.00    -0.248 NA
ATOM     47  C   UNL A   1      43.504  25.326  26.651  1.00  0.00     0.031 C 
ATOM     48  C   UNL A   1      39.270  26.751  28.983  1.00  0.00     0.029 A 
ATOM     49  N   UNL A   1      40.969  28.202  28.966  1.00  0.00    -0.354 N 
ATOM     50  C   UNL A   1      44.760  27.173  27.130  1.00  0.00     0.074 A 
ATOM     51  C   UNL A   1      44.724  25.838  26.578  1.00  0.00     0.031 C 
ATOM     52  C   UNL A   1      38.873  27.841  29.660  1.00  0.00     0.029 A 
ATOM     53  C   UNL A   1      39.965  28.808  29.687  1.00  0.00     0.049 A 
ATOM     54  H   UNL A   1      41.842  28.626  28.799  1.00  0.00     0.167 HD
ATOM     55  C   UNL A   1      45.839  27.991  27.067  1.00  0.00     0.034 A 
ATOM     56  C   UNL A   1      39.933  30.009  30.297  1.00  0.00     0.034 A 
ATOM     57  C   UNL A   1      45.856  29.331  27.586  1.00  0.00     0.049 A 
ATOM     58  C   UNL A   1      41.137  30.907  30.186  1.00  0.00     0.074 A 
ATOM     59  C   UNL A   1      46.879  30.262  27.545  1.00  0.00     0.029 A 
ATOM     60  N   UNL A   1      44.792  29.937  28.236  1.00  0.00    -0.354 N 
ATOM     61  N   UNL A   1      42.278  30.692  29.576  1.00  0.00    -0.248 NA
ATOM     62  C   UNL A   1      41.032  32.234  30.809  1.00  0.00     0.031 C 
ATOM     63  C   UNL A   1      46.437  31.426  28.181  1.00  0.00     0.029 A 
ATOM     64  C   UNL A   1      45.127  31.232  28.588  1.00  0.00     0.049 A 
ATOM     65  H   UNL A   1      43.924  29.509  28.420  1.00  0.00     0.167 HD
ATOM     66  C   UNL A   1      42.999  31.875  29.689  1.00  0.00     0.074 A 
ATOM     67  C   UNL A   1      42.159  32.807  30.413  1.00  0.00     0.031 C 
ATOM     68  C   UNL A   1      44.248  32.163  29.246  1.00  0.00     0.034 A 
BRANCH  55  69
ATOM     69  C   UNL A   1      47.067  27.479  26.356  1.00  0.00     0.023 A 
ATOM     70  C   UNL A   1      47.260  27.794  24.994  1.00  0.00     0.012 A 
ATOM     71  C   UNL A   1      48.054  26.740  27.037  1.00  0.00     0.148 A 
ATOM     72  C   UNL A   1      48.392  27.349  24.311  1.00  0.00     0.002 A 
ATOM     73  C   UNL A   1      49.204  26.342  26.363  1.00  0.00     0.091 A 
ATOM     74  F   UNL A   1      47.850  26.436  28.326  1.00  0.00    -0.205 F 
ATOM     75  C   UNL A   1      49.368  26.633  24.998  1.00  0.00     0.022 A 
BRANCH  73  76
ATOM     76  S   UNL A   1      50.560  25.484  27.173  1.00  0.00     0.127 S 
ATOM     77  O   UNL A   1      51.501  25.308  26.066  1.00  0.00    -0.237 OA
ATOM     78  O   UNL A   1      50.981  26.462  28.178  1.00  0.00    -0.237 OA
ATOM     79  O   UNL A   1      49.998  24.257  27.712  1.00  0.00    -0.744 OA
ENDBRANCH  73  76
ENDBRANCH  55  69
BRANCH  56  80
ATOM     80  C   UNL A   1      38.700  30.473  30.999  1.00  0.00     0.023 A 
ATOM     81  C   UNL A   1      38.547  30.211  32.375  1.00  0.00     0.012 A 
ATOM     82  C   UNL A   1      37.676  31.154  30.314  1.00  0.00     0.148 A 
ATOM     83  C   UNL A   1      37.375  30.568  33.043  1.00  0.00     0.002 A 
ATOM     84  C   UNL A   1      36.536  31.559  30.999  1.00  0.00     0.091 A 
ATOM     85  F   UNL A   1      37.833  31.388  29.003  1.00  0.00    -0.205 F 
ATOM     86  C   UNL A   1      36.374  31.248  32.357  1.00  0.00     0.022 A 
BRANCH  84  87
ATOM     87  S   UNL A   1      35.261  32.556  30.217  1.00  0.00     0.127 S 
ATOM     88  O   UNL A   1      36.020  33.749  29.823  1.00  0.00    -0.237 OA
ATOM     89  O   UNL A   1      34.853  31.698  29.096  1.00  0.00    -0.237 OA
ATOM     90  O   UNL A   1      34.243  32.751  31.220  1.00  0.00    -0.744 OA
ENDBRANCH  84  87
ENDBRANCH  56  80
BRANCH  68  91
ATOM     91  C   UNL A   1      44.750  33.568  29.457  1.00  0.00     0.023 A 
ATOM     92  C   UNL A   1      45.375  33.927  30.668  1.00  0.00     0.012 A 
ATOM     93  C   UNL A   1      44.639  34.522  28.426  1.00  0.00     0.148 A 
ATOM     94  C   UNL A   1      45.833  35.228  30.868  1.00  0.00     0.002 A 
ATOM     95  C   UNL A   1      45.150  35.800  28.612  1.00  0.00     0.091 A 
ATOM     96  F   UNL A   1      44.025  34.168  27.288  1.00  0.00    -0.205 F 
ATOM     97  C   UNL A   1      45.731  36.160  29.838  1.00  0.00     0.022 A 
BRANCH  95  98
ATOM     98  S   UNL A   1      45.154  37.027  27.302  1.00  0.00     0.127 S 
ATOM     99  O   UNL A   1      45.945  36.359  26.270  1.00  0.00    -0.237 OA
ATOM    100  O   UNL A   1      43.728  37.155  26.991  1.00  0.00    -0.237 OA
ATOM    101  O   UNL A   1      45.753  38.223  27.876  1.00  0.00    -0.744 OA
ENDBRANCH  95  98
ENDBRANCH  68  91
ENDBRANCH  42  43
ENDBRANCH  34  37
ENDBRANCH  32  33
ENDBRANCH  31  32
ENDBRANCH  30  31
ENDBRANCH   1  30
TORSDOF 22
ENDMDL
MODEL 2
REMARK VINA RESULT:     -11.2      1.188      4.097
REMARK SMILES COc1ccc(NC(=O)C[C@@H](C[NH+]2CCOCC2)C(=O)NCCCCCCNC(=O)c2ccc(-c3c4nc(c(-c5cccc(S(=O)(=O)[O-])c5F)c5ccc([nH]5)c(-c5cccc(S(=O)(=O)[O-])c5F)c5nc(c(-c6cccc(S(=O)(=O)[O-])c6F)c6ccc3[nH]6)C=C5)C=C4)cc2)cc1
REMARK SMILES IDX 24 1 23 2 22 3 21 4 19 5 20 6 11 8 10 9 8 10 7 11 9 13 6 14
REMARK SMILES IDX 3 15 4 16 95 17 5 18 94 19 2 20 1 21 12 22 13 23 14 24 18 25
REMARK SMILES IDX 15 27 17 28 16 29 25 30 26 31 27 32 28 33 29 34 30 36 31 37
REMARK SMILES IDX 32 38 93 39 33 40 92 41 34 42 35 43 36 44 86 45 37 46 91 47
REMARK SMILES IDX 85 48 87 49 38 50 90 51 84 52 83 53 39 55 71 56 51 57 70 58
REMARK SMILES IDX 52 59 55 60 69 61 88 62 53 63 54 64 68 66 89 67 56 68 40 69
REMARK SMILES IDX 41 70 49 71 42 72 44 73 50 74 43 75 45 76 46 77 47 78 48 79
REMARK SMILES IDX 72 80 73 81 81 82 74 83 76 84 82 85 75 86 77 87 78 88 79 89
REMARK SMILES IDX 80 90 57 91 58 92 66 93 59 94 61 95 67 96 60 97 62 98 63 99
REMARK SMILES IDX 64 100 65 101
REMARK H PARENT 21 7 7 12 13 26 28 35 87 54 55 65
REMARK Flexibility Score: inf
ROOT
ATOM      1  C   UNL A   1      34.176  24.350  23.042  1.00  0.00     0.002 C 
ENDROOT
BRANCH   1   2
ATOM      2  C   UNL A   1      32.955  24.546  22.114  1.00  0.00     0.021 C 
BRANCH   2   3
ATOM      3  C   UNL A   1      32.822  25.799  21.150  1.00  0.00     0.116 C 
BRANCH   3   4
ATOM      4  N   UNL A   1      31.646  26.751  21.448  1.00  0.00    -0.356 N 
ATOM      5  C   UNL A   1      30.792  27.280  22.401  1.00  0.00     0.229 C 
ATOM      6  O   UNL A   1      30.097  28.200  21.930  1.00  0.00    -0.275 OA
ATOM      7  H   UNL A   1      31.392  27.160  20.589  1.00  0.00     0.163 HD
BRANCH   5   8
ATOM      8  C   UNL A   1      30.579  26.965  23.973  1.00  0.00     0.142 C 
BRANCH   8   9
ATOM      9  C   UNL A   1      30.875  25.478  24.452  1.00  0.00     0.119 C 
BRANCH   9  10
ATOM     10  C   UNL A   1      30.900  24.668  25.844  1.00  0.00     0.225 C 
ATOM     11  N   UNL A   1      31.340  23.445  26.287  1.00  0.00    -0.326 N 
ATOM     12  H   UNL A   1      31.214  23.360  27.260  1.00  0.00     0.169 HD
ATOM     13  O   UNL A   1      30.294  25.263  26.769  1.00  0.00    -0.275 OA
BRANCH  11  14
ATOM     14  C   UNL A   1      31.920  22.278  25.753  1.00  0.00     0.041 A 
ATOM     15  C   UNL A   1      33.297  19.906  24.918  1.00  0.00     0.119 A 
ATOM     16  C   UNL A   1      33.533  20.464  26.147  1.00  0.00     0.048 A 
ATOM     17  C   UNL A   1      32.369  20.551  24.086  1.00  0.00     0.048 A 
ATOM     18  C   UNL A   1      32.860  21.632  26.481  1.00  0.00     0.030 A 
ATOM     19  C   UNL A   1      31.690  21.741  24.492  1.00  0.00     0.030 A 
BRANCH  15  20
ATOM     20  O   UNL A   1      33.925  18.788  24.450  1.00  0.00    -0.497 OA
ATOM     21  C   UNL A   1      33.393  17.520  24.864  1.00  0.00     0.278 C 
ENDBRANCH  15  20
ENDBRANCH  11  14
ENDBRANCH   9  10
ENDBRANCH   8   9
BRANCH   8  22
ATOM     22  C   UNL A   1      31.171  28.040  24.854  1.00  0.00     0.276 C 
BRANCH  22  23
ATOM     23  N   UNL A   1      32.017  27.740  26.035  1.00  0.00    -0.330 N 
ATOM     24  C   UNL A   1      31.688  28.635  27.113  1.00  0.00     0.291 C 
ATOM     25  C   UNL A   1      33.465  27.494  26.209  1.00  0.00     0.291 C 
ATOM     26  H   UNL A   1      31.749  26.762  25.930  1.00  0.00     0.348 HD
ATOM     27  C   UNL A   1      32.503  29.933  27.093  1.00  0.00     0.221 C 
ATOM     28  C   UNL A   1      34.400  28.655  26.663  1.00  0.00     0.221 C 
ATOM     29  O   UNL A   1      33.804  29.601  27.553  1.00  0.00    -0.370 OA
ENDBRANCH  22  23
ENDBRANCH   8  22
ENDBRANCH   5   8
ENDBRANCH   3   4
ENDBRANCH   2   3
ENDBRANCH   1   2
BRANCH   1  30
ATOM     30  C   UNL A   1      34.793  22.955  23.241  1.00  0.00     0.002 C 
BRANCH  30  31
ATOM     31  C   UNL A   1      36.202  22.782  23.844  1.00  0.00     0.021 C 
BRANCH  31  32
ATOM     32  C   UNL A   1      36.339  22.405  25.325  1.00  0.00     0.116 C 
BRANCH  32  33
ATOM     33  N   UNL A   1      37.343  21.379  25.547  1.00  0.00    -0.352 N 
ATOM     34  C   UNL A   1      38.659  21.465  25.928  1.00  0.00     0.251 C 
ATOM     35  H   UNL A   1      37.024  20.460  25.396  1.00  0.00     0.163 HD
ATOM     36  O   UNL A   1      39.375  20.472  25.796  1.00  0.00    -0.269 OA
BRANCH  34  37
ATOM     37  C   UNL A   1      39.232  22.701  26.510  1.00  0.00     0.039 A 
ATOM     38  C   UNL A   1      38.744  23.940  26.070  1.00  0.00     0.014 A 
ATOM     39  C   UNL A   1      40.323  22.663  27.383  1.00  0.00     0.014 A 
ATOM     40  C   UNL A   1      39.337  25.127  26.510  1.00  0.00     0.010 A 
ATOM     41  C   UNL A   1      40.869  23.850  27.875  1.00  0.00     0.010 A 
ATOM     42  C   UNL A   1      40.406  25.093  27.419  1.00  0.00    -0.014 A 
BRANCH  42  43
ATOM     43  C   UNL A   1      41.088  26.343  27.845  1.00  0.00     0.031 A 
ATOM     44  C   UNL A   1      42.525  26.586  27.451  1.00  0.00     0.074 A 
ATOM     45  C   UNL A   1      40.434  27.238  28.610  1.00  0.00     0.049 A 
ATOM     46  N   UNL A   1      43.304  27.596  27.744  1.00  0.00    -0.248 NA
ATOM     47  C   UNL A   1      43.181  25.545  26.640  1.00  0.00     0.031 C 
ATOM     48  C   UNL A   1      39.063  27.088  29.103  1.00  0.00     0.029 A 
ATOM     49  N   UNL A   1      40.837  28.446  29.121  1.00  0.00    -0.354 N 
ATOM     50  C   UNL A   1      44.541  27.300  27.179  1.00  0.00     0.074 A 
ATOM     51  C   UNL A   1      44.425  25.994  26.570  1.00  0.00     0.031 C 
ATOM     52  C   UNL A   1      38.735  28.166  29.833  1.00  0.00     0.029 A 
ATOM     53  C   UNL A   1      39.878  29.072  29.884  1.00  0.00     0.049 A 
ATOM     54  H   UNL A   1      41.729  28.830  28.957  1.00  0.00     0.167 HD
ATOM     55  C   UNL A   1      45.661  28.061  27.133  1.00  0.00     0.034 A 
ATOM     56  C   UNL A   1      39.919  30.245  30.546  1.00  0.00     0.034 A 
ATOM     57  C   UNL A   1      45.758  29.375  27.710  1.00  0.00     0.049 A 
ATOM     58  C   UNL A   1      41.168  31.082  30.454  1.00  0.00     0.074 A 
ATOM     59  C   UNL A   1      46.828  30.251  27.692  1.00  0.00     0.029 A 
ATOM     60  N   UNL A   1      44.737  30.007  28.403  1.00  0.00    -0.354 N 
ATOM     61  N   UNL A   1      42.287  30.833  29.817  1.00  0.00    -0.248 NA
ATOM     62  C   UNL A   1      41.143  32.384  31.136  1.00  0.00     0.031 C 
ATOM     63  C   UNL A   1      46.458  31.407  28.386  1.00  0.00     0.029 A 
ATOM     64  C   UNL A   1      45.146  31.265  28.806  1.00  0.00     0.049 A 
ATOM     65  H   UNL A   1      43.850  29.617  28.583  1.00  0.00     0.167 HD
ATOM     66  C   UNL A   1      43.072  31.970  29.969  1.00  0.00     0.074 A 
ATOM     67  C   UNL A   1      42.294  32.912  30.747  1.00  0.00     0.031 C 
ATOM     68  C   UNL A   1      44.328  32.211  29.518  1.00  0.00     0.034 A 
BRANCH  55  69
ATOM     69  C   UNL A   1      46.850  27.518  26.380  1.00  0.00     0.023 A 
ATOM     70  C   UNL A   1      46.965  27.766  24.996  1.00  0.00     0.012 A 
ATOM     71  C   UNL A   1      47.876  26.813  27.040  1.00  0.00     0.148 A 
ATOM     72  C   UNL A   1      48.059  27.291  24.273  1.00  0.00     0.002 A 
ATOM     73  C   UNL A   1      48.988  26.384  26.322  1.00  0.00     0.091 A 
ATOM     74  F   UNL A   1      47.745  26.571  28.351  1.00  0.00    -0.205 F 
ATOM     75  C   UNL A   1      49.074  26.609  24.938  1.00  0.00     0.022 A 
BRANCH  73  76
ATOM     76  S   UNL A   1      50.389  25.567  27.095  1.00  0.00     0.127 S 
ATOM     77  O   UNL A   1      49.768  24.350  27.620  1.00  0.00    -0.237 OA
ATOM     78  O   UNL A   1      51.282  25.350  25.954  1.00  0.00    -0.237 OA
ATOM     79  O   UNL A   1      50.894  26.490  28.098  1.00  0.00    -0.744 OA
ENDBRANCH  73  76
ENDBRANCH  55  69
BRANCH  56  80
ATOM     80  C   UNL A   1      38.723  30.741  31.288  1.00  0.00     0.023 A 
ATOM     81  C   UNL A   1      38.640  30.541  32.680  1.00  0.00     0.012 A 
ATOM     82  C   UNL A   1      37.666  31.393  30.626  1.00  0.00     0.148 A 
ATOM     83  C   UNL A   1      37.503  30.930  33.391  1.00  0.00     0.002 A 
ATOM     84  C   UNL A   1      36.561  31.831  31.349  1.00  0.00     0.091 A 
ATOM     85  F   UNL A   1      37.756  31.568  29.300  1.00  0.00    -0.205 F 
ATOM     86  C   UNL A   1      36.468  31.581  32.726  1.00  0.00     0.022 A 
BRANCH  84  87
ATOM     87  S   UNL A   1      35.248  32.794  30.589  1.00  0.00     0.127 S 
ATOM     88  O   UNL A   1      34.326  32.976  31.716  1.00  0.00    -0.237 OA
ATOM     89  O   UNL A   1      35.963  34.012  30.186  1.00  0.00    -0.237 OA
ATOM     90  O   UNL A   1      34.761  31.996  29.489  1.00  0.00    -0.744 OA
ENDBRANCH  84  87
ENDBRANCH  56  80
BRANCH  68  91
ATOM     91  C   UNL A   1      44.908  33.577  29.782  1.00  0.00     0.023 A 
ATOM     92  C   UNL A   1      45.607  33.835  30.977  1.00  0.00     0.012 A 
ATOM     93  C   UNL A   1      44.793  34.593  28.813  1.00  0.00     0.148 A 
ATOM     94  C   UNL A   1      46.138  35.099  31.227  1.00  0.00     0.002 A 
ATOM     95  C   UNL A   1      45.375  35.834  29.044  1.00  0.00     0.091 A 
ATOM     96  F   UNL A   1      44.109  34.335  27.690  1.00  0.00    -0.205 F 
ATOM     97  C   UNL A   1      46.032  36.094  30.258  1.00  0.00     0.022 A 
BRANCH  95  98
ATOM     98  S   UNL A   1      45.376  37.134  27.806  1.00  0.00     0.127 S 
ATOM     99  O   UNL A   1      45.966  36.451  26.657  1.00  0.00    -0.237 OA
ATOM    100  O   UNL A   1      43.949  37.435  27.671  1.00  0.00    -0.237 OA
ATOM    101  O   UNL A   1      46.169  38.219  28.367  1.00  0.00    -0.744 OA
ENDBRANCH  95  98
ENDBRANCH  68  91
ENDBRANCH  42  43
ENDBRANCH  34  37
ENDBRANCH  32  33
ENDBRANCH  31  32
ENDBRANCH  30  31
ENDBRANCH   1  30
TORSDOF 22
ENDMDL
MODEL 3
REMARK VINA RESULT:     -11.0      5.413     10.095
REMARK SMILES COc1ccc(NC(=O)C[C@@H](C[NH+]2CCOCC2)C(=O)NCCCCCCNC(=O)c2ccc(-c3c4nc(c(-c5cccc(S(=O)(=O)[O-])c5F)c5ccc([nH]5)c(-c5cccc(S(=O)(=O)[O-])c5F)c5nc(c(-c6cccc(S(=O)(=O)[O-])c6F)c6ccc3[nH]6)C=C5)C=C4)cc2)cc1
REMARK SMILES IDX 24 1 23 2 22 3 21 4 19 5 20 6 11 8 10 9 8 10 7 11 9 13 6 14
REMARK SMILES IDX 3 15 4 16 95 17 5 18 94 19 2 20 1 21 12 22 13 23 14 24 18 25
REMARK SMILES IDX 15 27 17 28 16 29 25 30 26 31 27 32 28 33 29 34 30 36 31 37
REMARK SMILES IDX 32 38 93 39 33 40 92 41 34 42 35 43 36 44 86 45 37 46 91 47
REMARK SMILES IDX 85 48 87 49 38 50 90 51 84 52 83 53 39 55 71 56 51 57 70 58
REMARK SMILES IDX 52 59 55 60 69 61 88 62 53 63 54 64 68 66 89 67 56 68 40 69
REMARK SMILES IDX 41 70 49 71 42 72 44 73 50 74 43 75 45 76 46 77 47 78 48 79
REMARK SMILES IDX 72 80 73 81 81 82 74 83 76 84 82 85 75 86 77 87 78 88 79 89
REMARK SMILES IDX 80 90 57 91 58 92 66 93 59 94 61 95 67 96 60 97 62 98 63 99
REMARK SMILES IDX 64 100 65 101
REMARK H PARENT 21 7 7 12 13 26 28 35 87 54 55 65
REMARK Flexibility Score: inf
ROOT
ATOM      1  C   UNL A   1      32.601  29.890  26.106  1.00  0.00     0.002 C 
ENDROOT
BRANCH   1   2
ATOM      2  C   UNL A   1      32.515  28.415  25.647  1.00  0.00     0.021 C 
BRANCH   2   3
ATOM      3  C   UNL A   1      32.728  27.207  26.652  1.00  0.00     0.116 C 
BRANCH   3   4
ATOM      4  N   UNL A   1      31.666  26.091  26.592  1.00  0.00    -0.356 N 
ATOM      5  C   UNL A   1      31.177  24.986  25.914  1.00  0.00     0.229 C 
ATOM      6  O   UNL A   1      30.282  24.412  26.563  1.00  0.00    -0.275 OA
ATOM      7  H   UNL A   1      31.081  26.218  27.374  1.00  0.00     0.163 HD
BRANCH   5   8
ATOM      8  C   UNL A   1      31.581  24.302  24.505  1.00  0.00     0.142 C 
BRANCH   8   9
ATOM      9  C   UNL A   1      32.726  25.016  23.664  1.00  0.00     0.119 C 
BRANCH   9  10
ATOM     10  C   UNL A   1      32.821  26.136  22.511  1.00  0.00     0.225 C 
ATOM     11  N   UNL A   1      32.080  27.214  22.094  1.00  0.00    -0.326 N 
ATOM     12  H   UNL A   1      32.535  27.689  21.361  1.00  0.00     0.169 HD
ATOM     13  O   UNL A   1      33.781  25.950  21.723  1.00  0.00    -0.275 OA
BRANCH  11  14
ATOM     14  C   UNL A   1      30.857  27.837  22.410  1.00  0.00     0.041 A 
ATOM     15  C   UNL A   1      28.501  29.378  22.955  1.00  0.00     0.119 A 
ATOM     16  C   UNL A   1      29.564  29.926  22.287  1.00  0.00     0.048 A 
ATOM     17  C   UNL A   1      28.621  28.043  23.370  1.00  0.00     0.048 A 
ATOM     18  C   UNL A   1      30.691  29.140  22.083  1.00  0.00     0.030 A 
ATOM     19  C   UNL A   1      29.798  27.275  23.113  1.00  0.00     0.030 A 
BRANCH  15  20
ATOM     20  O   UNL A   1      27.356  30.055  23.260  1.00  0.00    -0.497 OA
ATOM     21  C   UNL A   1      27.497  31.429  23.655  1.00  0.00     0.278 C 
ENDBRANCH  15  20
ENDBRANCH  11  14
ENDBRANCH   9  10
ENDBRANCH   8   9
BRANCH   8  22
ATOM     22  C   UNL A   1      31.726  22.803  24.622  1.00  0.00     0.276 C 
BRANCH  22  23
ATOM     23  N   UNL A   1      33.031  22.107  24.505  1.00  0.00    -0.330 N 
ATOM     24  C   UNL A   1      33.066  20.977  25.396  1.00  0.00     0.291 C 
ATOM     25  C   UNL A   1      34.433  22.579  24.476  1.00  0.00     0.291 C 
ATOM     26  H   UNL A   1      32.893  22.103  23.495  1.00  0.00     0.348 HD
ATOM     27  C   UNL A   1      33.588  21.325  26.794  1.00  0.00     0.221 C 
ATOM     28  C   UNL A   1      35.285  22.553  25.780  1.00  0.00     0.221 C 
ATOM     29  O   UNL A   1      34.995  21.476  26.674  1.00  0.00    -0.370 OA
ENDBRANCH  22  23
ENDBRANCH   8  22
ENDBRANCH   5   8
ENDBRANCH   3   4
ENDBRANCH   2   3
ENDBRANCH   1   2
BRANCH   1  30
ATOM     30  C   UNL A   1      31.386  30.824  25.970  1.00  0.00     0.002 C 
BRANCH  30  31
ATOM     31  C   UNL A   1      31.399  32.244  26.574  1.00  0.00     0.021 C 
BRANCH  31  32
ATOM     32  C   UNL A   1      32.657  32.734  27.302  1.00  0.00     0.116 C 
BRANCH  32  33
ATOM     33  N   UNL A   1      32.537  34.109  27.755  1.00  0.00    -0.352 N 
ATOM     34  C   UNL A   1      33.146  34.782  28.784  1.00  0.00     0.251 C 
ATOM     35  H   UNL A   1      31.907  34.655  27.231  1.00  0.00     0.163 HD
ATOM     36  O   UNL A   1      32.686  35.871  29.128  1.00  0.00    -0.269 OA
BRANCH  34  37
ATOM     37  C   UNL A   1      34.345  34.250  29.474  1.00  0.00     0.039 A 
ATOM     38  C   UNL A   1      35.607  34.496  28.914  1.00  0.00     0.014 A 
ATOM     39  C   UNL A   1      34.239  33.412  30.588  1.00  0.00     0.014 A 
ATOM     40  C   UNL A   1      36.750  33.916  29.471  1.00  0.00     0.010 A 
ATOM     41  C   UNL A   1      35.388  32.890  31.185  1.00  0.00     0.010 A 
ATOM     42  C   UNL A   1      36.651  33.107  30.614  1.00  0.00    -0.014 A 
BRANCH  42  43
ATOM     43  C   UNL A   1      37.849  32.432  31.180  1.00  0.00     0.031 A 
ATOM     44  C   UNL A   1      38.480  32.957  32.447  1.00  0.00     0.074 A 
ATOM     45  C   UNL A   1      38.388  31.375  30.541  1.00  0.00     0.049 A 
ATOM     46  N   UNL A   1      39.540  32.528  33.082  1.00  0.00    -0.248 NA
ATOM     47  C   UNL A   1      37.850  34.135  33.068  1.00  0.00     0.031 C 
ATOM     48  C   UNL A   1      37.902  30.812  29.279  1.00  0.00     0.029 A 
ATOM     49  N   UNL A   1      39.471  30.594  30.856  1.00  0.00    -0.354 N 
ATOM     50  C   UNL A   1      39.717  33.394  34.157  1.00  0.00     0.074 A 
ATOM     51  C   UNL A   1      38.687  34.404  34.059  1.00  0.00     0.031 C 
ATOM     52  C   UNL A   1      38.675  29.769  28.934  1.00  0.00     0.029 A 
ATOM     53  C   UNL A   1      39.726  29.605  29.932  1.00  0.00     0.049 A 
ATOM     54  H   UNL A   1      40.014  30.727  31.665  1.00  0.00     0.167 HD
ATOM     55  C   UNL A   1      40.627  33.334  35.159  1.00  0.00     0.034 A 
ATOM     56  C   UNL A   1      40.698  28.672  29.901  1.00  0.00     0.034 A 
ATOM     57  C   UNL A   1      41.626  32.306  35.269  1.00  0.00     0.049 A 
ATOM     58  C   UNL A   1      41.679  28.613  31.042  1.00  0.00     0.074 A 
ATOM     59  C   UNL A   1      42.574  32.125  36.260  1.00  0.00     0.029 A 
ATOM     60  N   UNL A   1      41.799  31.276  34.358  1.00  0.00    -0.354 N 
ATOM     61  N   UNL A   1      41.756  29.373  32.109  1.00  0.00    -0.248 NA
ATOM     62  C   UNL A   1      42.679  27.537  30.999  1.00  0.00     0.031 C 
ATOM     63  C   UNL A   1      43.329  30.992  35.940  1.00  0.00     0.029 A 
ATOM     64  C   UNL A   1      42.828  30.448  34.770  1.00  0.00     0.049 A 
ATOM     65  H   UNL A   1      41.267  31.151  33.539  1.00  0.00     0.167 HD
ATOM     66  C   UNL A   1      42.770  28.830  32.890  1.00  0.00     0.074 A 
ATOM     67  C   UNL A   1      43.267  27.670  32.180  1.00  0.00     0.031 C 
ATOM     68  C   UNL A   1      43.256  29.259  34.081  1.00  0.00     0.034 A 
BRANCH  55  69
ATOM     69  C   UNL A   1      40.542  34.375  36.248  1.00  0.00     0.023 A 
ATOM     70  C   UNL A   1      40.990  35.687  35.988  1.00  0.00     0.012 A 
ATOM     71  C   UNL A   1      39.974  34.078  37.503  1.00  0.00     0.148 A 
ATOM     72  C   UNL A   1      40.912  36.676  36.968  1.00  0.00     0.002 A 
ATOM     73  C   UNL A   1      39.854  35.082  38.459  1.00  0.00     0.091 A 
ATOM     74  F   UNL A   1      39.567  32.824  37.741  1.00  0.00    -0.205 F 
ATOM     75  C   UNL A   1      40.335  36.376  38.199  1.00  0.00     0.022 A 
BRANCH  73  76
ATOM     76  S   UNL A   1      39.055  34.823  40.047  1.00  0.00     0.127 S 
ATOM     77  O   UNL A   1      38.058  33.806  39.712  1.00  0.00    -0.237 OA
ATOM     78  O   UNL A   1      40.165  34.337  40.870  1.00  0.00    -0.237 OA
ATOM     79  O   UNL A   1      38.518  36.113  40.446  1.00  0.00    -0.744 OA
ENDBRANCH  73  76
ENDBRANCH  55  69
BRANCH  56  80
ATOM     80  C   UNL A   1      40.752  27.668  28.798  1.00  0.00     0.023 A 
ATOM     81  C   UNL A   1      39.830  26.603  28.785  1.00  0.00     0.012 A 
ATOM     82  C   UNL A   1      41.717  27.751  27.776  1.00  0.00     0.148 A 
ATOM     83  C   UNL A   1      39.901  25.609  27.807  1.00  0.00     0.002 A 
ATOM     84  C   UNL A   1      41.745  26.789  26.771  1.00  0.00     0.091 A 
ATOM     85  F   UNL A   1      42.593  28.765  27.808  1.00  0.00    -0.205 F 
ATOM     86  C   UNL A   1      40.853  25.707  26.798  1.00  0.00     0.022 A 
BRANCH  84  87
ATOM     87  S   UNL A   1      42.854  26.917  25.364  1.00  0.00     0.127 S 
ATOM     88  O   UNL A   1      42.604  25.647  24.674  1.00  0.00    -0.237 OA
ATOM     89  O   UNL A   1      42.325  28.100  24.670  1.00  0.00    -0.237 OA
ATOM     90  O   UNL A   1      44.175  27.093  25.918  1.00  0.00    -0.744 OA
ENDBRANCH  84  87
ENDBRANCH  56  80
BRANCH  68  91
ATOM     91  C   UNL A   1      44.326  28.421  34.733  1.00  0.00     0.023 A 
ATOM     92  C   UNL A   1      45.682  28.611  34.399  1.00  0.00     0.012 A 
ATOM     93  C   UNL A   1      43.981  27.473  35.716  1.00  0.00     0.148 A 
ATOM     94  C   UNL A   1      46.672  27.832  34.996  1.00  0.00     0.002 A 
ATOM     95  C   UNL A   1      44.979  26.741  36.347  1.00  0.00     0.091 A 
ATOM     96  F   UNL A   1      42.685  27.293  36.007  1.00  0.00    -0.205 F 
ATOM     97  C   UNL A   1      46.323  26.906  35.976  1.00  0.00     0.022 A 
BRANCH  95  98
ATOM     98  S   UNL A   1      44.625  25.606  37.693  1.00  0.00     0.127 S 
ATOM     99  O   UNL A   1      43.900  26.466  38.626  1.00  0.00    -0.237 OA
ATOM    100  O   UNL A   1      43.802  24.590  37.033  1.00  0.00    -0.237 OA
ATOM    101  O   UNL A   1      45.917  25.123  38.158  1.00  0.00    -0.744 OA
ENDBRANCH  95  98
ENDBRANCH  68  91
ENDBRANCH  42  43
ENDBRANCH  34  37
ENDBRANCH  32  33
ENDBRANCH  31  32
ENDBRANCH  30  31
ENDBRANCH   1  30
TORSDOF 22
ENDMDL
