MODEL 1
REMARK VINA RESULT:     -10.9      0.000      0.000
REMARK SMILES O=C(CN(CC(=O)NCc1ccccc1)c1ccccc1)NCCCCCCNC(=O)c1ccc(-c2c3nc(c(-c4cccc(S(=O)(=O)[O-])c4F)c4ccc([nH]4)c(-c4cccc(S(=O)(=O)[O-])c4F)c4nc(c(-c5cccc(S(=O)(=O)[O-])c5F)c5ccc2[nH]5)C=C4)C=C3)cc1
REMARK SMILES IDX 24 1 23 2 22 3 1 4 2 5 3 7 4 8 5 9 6 10 7 11 8 12 9 14 10 15
REMARK SMILES IDX 11 16 15 17 12 18 14 19 13 20 16 21 17 22 21 23 18 24 20 25
REMARK SMILES IDX 19 26 25 27 26 28 27 29 28 30 29 31 30 32 31 34 32 35 33 36
REMARK SMILES IDX 94 37 34 38 93 39 35 40 36 41 37 42 87 43 38 44 92 45 86 46
REMARK SMILES IDX 88 47 39 48 91 49 85 50 84 51 40 53 72 54 52 55 71 56 53 57
REMARK SMILES IDX 56 58 70 59 89 60 54 61 55 62 69 64 90 65 57 66 41 67 42 68
REMARK SMILES IDX 50 69 43 70 45 71 51 72 44 73 46 74 47 75 48 76 49 77 73 78
REMARK SMILES IDX 74 79 82 80 75 81 77 82 83 83 76 84 78 85 79 86 80 87 81 88
REMARK SMILES IDX 58 89 59 90 67 91 60 92 62 93 68 94 61 95 63 96 64 97 65 98
REMARK SMILES IDX 66 99
REMARK H PARENT 22 6 8 13 29 33 88 52 56 63
REMARK Flexibility Score: inf
ROOT
ATOM      1  C   UNL A   1      32.717  29.227  24.332  1.00  0.00     0.021 C 
ENDROOT
BRANCH   1   2
ATOM      2  C   UNL A   1      32.591  27.868  23.648  1.00  0.00     0.116 C 
BRANCH   2   3
ATOM      3  N   UNL A   1      33.351  26.837  24.324  1.00  0.00    -0.355 N 
ATOM      4  O   UNL A   1      31.685  26.281  25.793  1.00  0.00    -0.273 OA
ATOM      5  C   UNL A   1      32.804  26.074  25.325  1.00  0.00     0.239 C 
ATOM      6  H   UNL A   1      34.285  26.680  24.058  1.00  0.00     0.163 HD
BRANCH   5   7
ATOM      7  C   UNL A   1      33.701  24.977  25.892  1.00  0.00     0.217 C 
BRANCH   7   8
ATOM      8  N   UNL A   1      33.622  23.627  25.267  1.00  0.00    -0.353 N 
BRANCH   8   9
ATOM      9  C   UNL A   1      32.289  23.216  24.755  1.00  0.00     0.217 C 
BRANCH   9  10
ATOM     10  C   UNL A   1      31.567  22.067  25.484  1.00  0.00     0.239 C 
ATOM     11  O   UNL A   1      30.709  22.312  26.342  1.00  0.00    -0.273 OA
ATOM     12  N   UNL A   1      31.793  20.752  25.218  1.00  0.00    -0.350 N 
ATOM     13  H   UNL A   1      31.416  20.127  25.879  1.00  0.00     0.163 HD
BRANCH  12  14
ATOM     14  C   UNL A   1      32.495  20.123  24.127  1.00  0.00     0.151 C 
BRANCH  14  15
ATOM     15  C   UNL A   1      32.774  18.656  24.341  1.00  0.00    -0.029 A 
ATOM     16  C   UNL A   1      32.532  18.031  25.572  1.00  0.00     0.005 A 
ATOM     17  C   UNL A   1      33.385  17.903  23.328  1.00  0.00     0.005 A 
ATOM     18  C   UNL A   1      32.908  16.706  25.798  1.00  0.00     0.000 A 
ATOM     19  C   UNL A   1      33.746  16.570  23.546  1.00  0.00     0.000 A 
ATOM     20  C   UNL A   1      33.518  15.975  24.784  1.00  0.00     0.000 A 
ENDBRANCH  14  15
ENDBRANCH  12  14
ENDBRANCH   9  10
ENDBRANCH   8   9
BRANCH   8  21
ATOM     21  C   UNL A   1      34.796  22.940  24.947  1.00  0.00     0.038 A 
ATOM     22  C   UNL A   1      35.513  23.158  23.758  1.00  0.00     0.026 A 
ATOM     23  C   UNL A   1      35.374  22.001  25.818  1.00  0.00     0.026 A 
ATOM     24  C   UNL A   1      36.753  22.554  23.494  1.00  0.00     0.002 A 
ATOM     25  C   UNL A   1      36.588  21.352  25.546  1.00  0.00     0.002 A 
ATOM     26  C   UNL A   1      37.293  21.648  24.392  1.00  0.00     0.000 A 
ENDBRANCH   8  21
ENDBRANCH   7   8
ENDBRANCH   5   7
ENDBRANCH   2   3
ENDBRANCH   1   2
BRANCH   1  27
ATOM     27  C   UNL A   1      31.451  29.684  25.063  1.00  0.00     0.002 C 
BRANCH  27  28
ATOM     28  C   UNL A   1      31.650  30.089  26.527  1.00  0.00     0.002 C 
BRANCH  28  29
ATOM     29  C   UNL A   1      31.508  31.586  26.821  1.00  0.00     0.021 C 
BRANCH  29  30
ATOM     30  C   UNL A   1      32.810  32.309  27.152  1.00  0.00     0.116 C 
BRANCH  30  31
ATOM     31  N   UNL A   1      32.584  33.652  27.666  1.00  0.00    -0.352 N 
ATOM     32  C   UNL A   1      33.217  34.319  28.683  1.00  0.00     0.251 C 
ATOM     33  H   UNL A   1      31.870  34.158  27.215  1.00  0.00     0.163 HD
ATOM     34  O   UNL A   1      32.763  35.396  29.075  1.00  0.00    -0.269 OA
BRANCH  32  35
ATOM     35  C   UNL A   1      34.421  33.750  29.327  1.00  0.00     0.039 A 
ATOM     36  C   UNL A   1      34.260  32.745  30.284  1.00  0.00     0.014 A 
ATOM     37  C   UNL A   1      35.703  34.210  29.009  1.00  0.00     0.014 A 
ATOM     38  C   UNL A   1      35.382  32.165  30.881  1.00  0.00     0.010 A 
ATOM     39  C   UNL A   1      36.824  33.579  29.550  1.00  0.00     0.010 A 
ATOM     40  C   UNL A   1      36.677  32.554  30.495  1.00  0.00    -0.014 A 
BRANCH  40  41
ATOM     41  C   UNL A   1      37.872  31.865  31.051  1.00  0.00     0.031 A 
ATOM     42  C   UNL A   1      38.406  32.216  32.415  1.00  0.00     0.074 A 
ATOM     43  C   UNL A   1      38.519  30.956  30.295  1.00  0.00     0.049 A 
ATOM     44  N   UNL A   1      39.409  31.686  33.067  1.00  0.00    -0.248 NA
ATOM     45  C   UNL A   1      37.744  33.319  33.131  1.00  0.00     0.031 C 
ATOM     46  C   UNL A   1      38.159  30.592  28.922  1.00  0.00     0.029 A 
ATOM     47  N   UNL A   1      39.619  30.182  30.566  1.00  0.00    -0.354 N 
ATOM     48  C   UNL A   1      39.524  32.411  34.247  1.00  0.00     0.074 A 
ATOM     49  C   UNL A   1      38.506  33.438  34.208  1.00  0.00     0.031 C 
ATOM     50  C   UNL A   1      39.004  29.646  28.483  1.00  0.00     0.029 A 
ATOM     51  C   UNL A   1      39.981  29.356  29.528  1.00  0.00     0.049 A 
ATOM     52  H   UNL A   1      40.104  30.215  31.422  1.00  0.00     0.167 HD
ATOM     53  C   UNL A   1      40.380  32.223  35.281  1.00  0.00     0.034 A 
ATOM     54  C   UNL A   1      40.980  28.458  29.429  1.00  0.00     0.034 A 
ATOM     55  C   UNL A   1      41.367  31.177  35.332  1.00  0.00     0.049 A 
ATOM     56  C   UNL A   1      41.883  28.236  30.610  1.00  0.00     0.074 A 
ATOM     57  C   UNL A   1      42.206  30.834  36.380  1.00  0.00     0.029 A 
ATOM     58  N   UNL A   1      41.667  30.316  34.287  1.00  0.00    -0.354 N 
ATOM     59  N   UNL A   1      41.854  28.801  31.792  1.00  0.00    -0.248 NA
ATOM     60  C   UNL A   1      42.935  27.221  30.455  1.00  0.00     0.031 C 
ATOM     61  C   UNL A   1      43.036  29.791  35.954  1.00  0.00     0.029 A 
ATOM     62  C   UNL A   1      42.691  29.459  34.653  1.00  0.00     0.049 A 
ATOM     63  H   UNL A   1      41.216  30.315  33.412  1.00  0.00     0.167 HD
ATOM     64  C   UNL A   1      42.860  28.191  32.532  1.00  0.00     0.074 A 
ATOM     65  C   UNL A   1      43.460  27.189  31.673  1.00  0.00     0.031 C 
ATOM     66  C   UNL A   1      43.261  28.444  33.803  1.00  0.00     0.034 A 
BRANCH  53  67
ATOM     67  C   UNL A   1      40.261  33.151  36.465  1.00  0.00     0.023 A 
ATOM     68  C   UNL A   1      39.294  32.896  37.461  1.00  0.00     0.012 A 
ATOM     69  C   UNL A   1      41.135  34.244  36.619  1.00  0.00     0.148 A 
ATOM     70  C   UNL A   1      39.171  33.737  38.566  1.00  0.00     0.002 A 
ATOM     71  C   UNL A   1      41.037  35.052  37.748  1.00  0.00     0.091 A 
ATOM     72  F   UNL A   1      42.034  34.487  35.655  1.00  0.00    -0.205 F 
ATOM     73  C   UNL A   1      40.048  34.808  38.714  1.00  0.00     0.022 A 
BRANCH  71  74
ATOM     74  S   UNL A   1      42.173  36.405  38.069  1.00  0.00     0.127 S 
ATOM     75  O   UNL A   1      42.497  36.847  36.714  1.00  0.00    -0.237 OA
ATOM     76  O   UNL A   1      41.338  37.336  38.829  1.00  0.00    -0.237 OA
ATOM     77  O   UNL A   1      43.279  35.830  38.823  1.00  0.00    -0.744 OA
ENDBRANCH  71  74
ENDBRANCH  53  67
BRANCH  54  78
ATOM     78  C   UNL A   1      41.122  27.636  28.194  1.00  0.00     0.023 A 
ATOM     79  C   UNL A   1      41.738  28.201  27.059  1.00  0.00     0.012 A 
ATOM     80  C   UNL A   1      40.685  26.299  28.143  1.00  0.00     0.148 A 
ATOM     81  C   UNL A   1      41.887  27.460  25.887  1.00  0.00     0.002 A 
ATOM     82  C   UNL A   1      40.887  25.549  26.990  1.00  0.00     0.091 A 
ATOM     83  F   UNL A   1      40.093  25.784  29.230  1.00  0.00    -0.205 F 
ATOM     84  C   UNL A   1      41.471  26.132  25.856  1.00  0.00     0.022 A 
BRANCH  82  85
ATOM     85  S   UNL A   1      40.503  23.796  26.901  1.00  0.00     0.127 S 
ATOM     86  O   UNL A   1      41.323  23.369  25.768  1.00  0.00    -0.237 OA
ATOM     87  O   UNL A   1      40.963  23.322  28.207  1.00  0.00    -0.237 OA
ATOM     88  O   UNL A   1      39.064  23.716  26.704  1.00  0.00    -0.744 OA
ENDBRANCH  82  85
ENDBRANCH  54  78
BRANCH  66  89
ATOM     89  C   UNL A   1      44.393  27.611  34.352  1.00  0.00     0.023 A 
ATOM     90  C   UNL A   1      45.728  28.013  34.139  1.00  0.00     0.012 A 
ATOM     91  C   UNL A   1      44.136  26.449  35.105  1.00  0.00     0.148 A 
ATOM     92  C   UNL A   1      46.787  27.247  34.624  1.00  0.00     0.002 A 
ATOM     93  C   UNL A   1      45.196  25.720  35.633  1.00  0.00     0.091 A 
ATOM     94  F   UNL A   1      42.863  26.068  35.283  1.00  0.00    -0.205 F 
ATOM     95  C   UNL A   1      46.521  26.108  35.379  1.00  0.00     0.022 A 
BRANCH  93  96
ATOM     96  S   UNL A   1      44.944  24.296  36.698  1.00  0.00     0.127 S 
ATOM     97  O   UNL A   1      44.201  24.883  37.811  1.00  0.00    -0.237 OA
ATOM     98  O   UNL A   1      44.159  23.402  35.844  1.00  0.00    -0.237 OA
ATOM     99  O   UNL A   1      46.275  23.800  37.022  1.00  0.00    -0.744 OA
ENDBRANCH  93  96
ENDBRANCH  66  89
ENDBRANCH  40  41
ENDBRANCH  32  35
ENDBRANCH  30  31
ENDBRANCH  29  30
ENDBRANCH  28  29
ENDBRANCH  27  28
ENDBRANCH   1  27
TORSDOF 22
ENDMDL
MODEL 2
REMARK VINA RESULT:     -10.8      2.705      8.291
REMARK SMILES O=C(CN(CC(=O)NCc1ccccc1)c1ccccc1)NCCCCCCNC(=O)c1ccc(-c2c3nc(c(-c4cccc(S(=O)(=O)[O-])c4F)c4ccc([nH]4)c(-c4cccc(S(=O)(=O)[O-])c4F)c4nc(c(-c5cccc(S(=O)(=O)[O-])c5F)c5ccc2[nH]5)C=C4)C=C3)cc1
REMARK SMILES IDX 24 1 23 2 22 3 1 4 2 5 3 7 4 8 5 9 6 10 7 11 8 12 9 14 10 15
REMARK SMILES IDX 11 16 15 17 12 18 14 19 13 20 16 21 17 22 21 23 18 24 20 25
REMARK SMILES IDX 19 26 25 27 26 28 27 29 28 30 29 31 30 32 31 34 32 35 33 36
REMARK SMILES IDX 94 37 34 38 93 39 35 40 36 41 37 42 87 43 38 44 92 45 86 46
REMARK SMILES IDX 88 47 39 48 91 49 85 50 84 51 40 53 72 54 52 55 71 56 53 57
REMARK SMILES IDX 56 58 70 59 89 60 54 61 55 62 69 64 90 65 57 66 41 67 42 68
REMARK SMILES IDX 50 69 43 70 45 71 51 72 44 73 46 74 47 75 48 76 49 77 73 78
REMARK SMILES IDX 74 79 82 80 75 81 77 82 83 83 76 84 78 85 79 86 80 87 81 88
REMARK SMILES IDX 58 89 59 90 67 91 60 92 62 93 68 94 61 95 63 96 64 97 65 98
REMARK SMILES IDX 66 99
REMARK H PARENT 22 6 8 13 29 33 88 52 56 63
REMARK Flexibility Score: inf
ROOT
ATOM      1  C   UNL A   1      32.715  28.627  26.365  1.00  0.00     0.021 C 
ENDROOT
BRANCH   1   2
ATOM      2  C   UNL A   1      33.531  27.454  25.829  1.00  0.00     0.116 C 
BRANCH   2   3
ATOM      3  N   UNL A   1      32.993  26.174  26.239  1.00  0.00    -0.355 N 
ATOM      4  O   UNL A   1      34.562  24.926  25.131  1.00  0.00    -0.273 OA
ATOM      5  C   UNL A   1      33.599  24.991  25.895  1.00  0.00     0.239 C 
ATOM      6  H   UNL A   1      32.171  26.151  26.779  1.00  0.00     0.163 HD
BRANCH   5   7
ATOM      7  C   UNL A   1      32.960  23.726  26.462  1.00  0.00     0.217 C 
BRANCH   7   8
ATOM      8  N   UNL A   1      32.296  22.798  25.505  1.00  0.00    -0.353 N 
BRANCH   8   9
ATOM      9  C   UNL A   1      31.113  23.334  24.781  1.00  0.00     0.217 C 
BRANCH   9  10
ATOM     10  C   UNL A   1      31.372  24.181  23.520  1.00  0.00     0.239 C 
ATOM     11  O   UNL A   1      31.986  23.699  22.559  1.00  0.00    -0.273 OA
ATOM     12  N   UNL A   1      30.929  25.458  23.371  1.00  0.00    -0.350 N 
ATOM     13  H   UNL A   1      31.323  25.945  22.611  1.00  0.00     0.163 HD
BRANCH  12  14
ATOM     14  C   UNL A   1      29.978  26.217  24.146  1.00  0.00     0.151 C 
BRANCH  14  15
ATOM     15  C   UNL A   1      29.436  27.430  23.432  1.00  0.00    -0.029 A 
ATOM     16  C   UNL A   1      30.280  28.365  22.819  1.00  0.00     0.005 A 
ATOM     17  C   UNL A   1      28.060  27.702  23.458  1.00  0.00     0.005 A 
ATOM     18  C   UNL A   1      29.778  29.546  22.270  1.00  0.00     0.000 A 
ATOM     19  C   UNL A   1      27.551  28.875  22.892  1.00  0.00     0.000 A 
ATOM     20  C   UNL A   1      28.412  29.802  22.308  1.00  0.00     0.000 A 
ENDBRANCH  14  15
ENDBRANCH  12  14
ENDBRANCH   9  10
ENDBRANCH   8   9
BRANCH   8  21
ATOM     21  C   UNL A   1      32.934  21.612  25.130  1.00  0.00     0.038 A 
ATOM     22  C   UNL A   1      34.331  21.456  25.140  1.00  0.00     0.026 A 
ATOM     23  C   UNL A   1      32.217  20.465  24.749  1.00  0.00     0.026 A 
ATOM     24  C   UNL A   1      34.963  20.230  24.877  1.00  0.00     0.002 A 
ATOM     25  C   UNL A   1      32.837  19.246  24.436  1.00  0.00     0.002 A 
ATOM     26  C   UNL A   1      34.213  19.120  24.524  1.00  0.00     0.000 A 
ENDBRANCH   8  21
ENDBRANCH   7   8
ENDBRANCH   5   7
ENDBRANCH   2   3
ENDBRANCH   1   2
BRANCH   1  27
ATOM     27  C   UNL A   1      32.405  29.707  25.324  1.00  0.00     0.002 C 
BRANCH  27  28
ATOM     28  C   UNL A   1      31.389  30.767  25.762  1.00  0.00     0.002 C 
BRANCH  28  29
ATOM     29  C   UNL A   1      31.723  31.500  27.065  1.00  0.00     0.021 C 
BRANCH  29  30
ATOM     30  C   UNL A   1      32.929  32.432  26.994  1.00  0.00     0.116 C 
BRANCH  30  31
ATOM     31  N   UNL A   1      32.617  33.780  27.446  1.00  0.00    -0.352 N 
ATOM     32  C   UNL A   1      33.130  34.493  28.500  1.00  0.00     0.251 C 
ATOM     33  H   UNL A   1      31.935  34.252  26.915  1.00  0.00     0.163 HD
ATOM     34  O   UNL A   1      32.610  35.565  28.815  1.00  0.00    -0.269 OA
BRANCH  32  35
ATOM     35  C   UNL A   1      34.283  33.978  29.270  1.00  0.00     0.039 A 
ATOM     36  C   UNL A   1      34.043  33.114  30.342  1.00  0.00     0.014 A 
ATOM     37  C   UNL A   1      35.593  34.353  28.959  1.00  0.00     0.014 A 
ATOM     38  C   UNL A   1      35.115  32.585  31.064  1.00  0.00     0.010 A 
ATOM     39  C   UNL A   1      36.665  33.766  29.632  1.00  0.00     0.010 A 
ATOM     40  C   UNL A   1      36.439  32.880  30.695  1.00  0.00    -0.014 A 
BRANCH  40  41
ATOM     41  C   UNL A   1      37.582  32.236  31.394  1.00  0.00     0.031 A 
ATOM     42  C   UNL A   1      38.352  31.112  30.752  1.00  0.00     0.074 A 
ATOM     43  C   UNL A   1      37.892  32.626  32.648  1.00  0.00     0.049 A 
ATOM     44  N   UNL A   1      39.398  30.469  31.203  1.00  0.00    -0.248 NA
ATOM     45  C   UNL A   1      37.874  30.633  29.446  1.00  0.00     0.031 C 
ATOM     46  C   UNL A   1      37.167  33.639  33.418  1.00  0.00     0.029 A 
ATOM     47  N   UNL A   1      38.886  32.211  33.497  1.00  0.00    -0.354 N 
ATOM     48  C   UNL A   1      39.680  29.488  30.260  1.00  0.00     0.074 A 
ATOM     49  C   UNL A   1      38.676  29.603  29.225  1.00  0.00     0.031 C 
ATOM     50  C   UNL A   1      37.759  33.788  34.614  1.00  0.00     0.029 A 
ATOM     51  C   UNL A   1      38.884  32.863  34.708  1.00  0.00     0.049 A 
ATOM     52  H   UNL A   1      39.539  31.513  33.263  1.00  0.00     0.167 HD
ATOM     53  C   UNL A   1      40.697  28.592  30.242  1.00  0.00     0.034 A 
ATOM     54  C   UNL A   1      39.701  32.740  35.772  1.00  0.00     0.034 A 
ATOM     55  C   UNL A   1      41.715  28.505  31.255  1.00  0.00     0.049 A 
ATOM     56  C   UNL A   1      40.850  31.772  35.704  1.00  0.00     0.074 A 
ATOM     57  C   UNL A   1      42.847  27.707  31.273  1.00  0.00     0.029 A 
ATOM     58  N   UNL A   1      41.717  29.224  32.441  1.00  0.00    -0.354 N 
ATOM     59  N   UNL A   1      41.213  30.986  34.719  1.00  0.00    -0.248 NA
ATOM     60  C   UNL A   1      41.726  31.704  36.882  1.00  0.00     0.031 C 
ATOM     61  C   UNL A   1      43.513  27.918  32.486  1.00  0.00     0.029 A 
ATOM     62  C   UNL A   1      42.816  28.873  33.209  1.00  0.00     0.049 A 
ATOM     63  H   UNL A   1      41.037  29.886  32.700  1.00  0.00     0.167 HD
ATOM     64  C   UNL A   1      42.375  30.354  35.145  1.00  0.00     0.074 A 
ATOM     65  C   UNL A   1      42.672  30.873  36.466  1.00  0.00     0.031 C 
ATOM     66  C   UNL A   1      43.122  29.418  34.507  1.00  0.00     0.034 A 
BRANCH  53  67
ATOM     67  C   UNL A   1      40.779  27.652  29.064  1.00  0.00     0.023 A 
ATOM     68  C   UNL A   1      39.953  26.509  29.021  1.00  0.00     0.012 A 
ATOM     69  C   UNL A   1      41.636  27.923  27.980  1.00  0.00     0.148 A 
ATOM     70  C   UNL A   1      40.009  25.630  27.940  1.00  0.00     0.002 A 
ATOM     71  C   UNL A   1      41.652  27.067  26.883  1.00  0.00     0.091 A 
ATOM     72  F   UNL A   1      42.430  29.001  28.045  1.00  0.00    -0.205 F 
ATOM     73  C   UNL A   1      40.851  25.915  26.868  1.00  0.00     0.022 A 
BRANCH  71  74
ATOM     74  S   UNL A   1      42.640  27.392  25.419  1.00  0.00     0.127 S 
ATOM     75  O   UNL A   1      42.401  26.185  24.628  1.00  0.00    -0.237 OA
ATOM     76  O   UNL A   1      42.013  28.602  24.885  1.00  0.00    -0.237 OA
ATOM     77  O   UNL A   1      44.006  27.573  25.888  1.00  0.00    -0.744 OA
ENDBRANCH  71  74
ENDBRANCH  53  67
BRANCH  54  78
ATOM     78  C   UNL A   1      39.514  33.621  36.959  1.00  0.00     0.023 A 
ATOM     79  C   UNL A   1      39.970  34.953  36.907  1.00  0.00     0.012 A 
ATOM     80  C   UNL A   1      38.862  33.163  38.121  1.00  0.00     0.148 A 
ATOM     81  C   UNL A   1      39.811  35.804  38.001  1.00  0.00     0.002 A 
ATOM     82  C   UNL A   1      38.657  34.032  39.186  1.00  0.00     0.091 A 
ATOM     83  F   UNL A   1      38.444  31.890  38.154  1.00  0.00    -0.205 F 
ATOM     84  C   UNL A   1      39.146  35.347  39.136  1.00  0.00     0.022 A 
BRANCH  82  85
ATOM     85  S   UNL A   1      37.698  33.574  40.634  1.00  0.00     0.127 S 
ATOM     86  O   UNL A   1      38.535  32.533  41.229  1.00  0.00    -0.237 OA
ATOM     87  O   UNL A   1      37.661  34.833  41.379  1.00  0.00    -0.237 OA
ATOM     88  O   UNL A   1      36.406  33.134  40.130  1.00  0.00    -0.744 OA
ENDBRANCH  82  85
ENDBRANCH  54  78
BRANCH  66  89
ATOM     89  C   UNL A   1      44.348  28.906  35.222  1.00  0.00     0.023 A 
ATOM     90  C   UNL A   1      44.257  27.762  36.041  1.00  0.00     0.012 A 
ATOM     91  C   UNL A   1      45.597  29.536  35.057  1.00  0.00     0.148 A 
ATOM     92  C   UNL A   1      45.376  27.284  36.723  1.00  0.00     0.002 A 
ATOM     93  C   UNL A   1      46.719  29.021  35.696  1.00  0.00     0.091 A 
ATOM     94  F   UNL A   1      45.664  30.634  34.290  1.00  0.00    -0.205 F 
ATOM     95  C   UNL A   1      46.608  27.907  36.541  1.00  0.00     0.022 A 
BRANCH  93  96
ATOM     96  S   UNL A   1      48.363  29.701  35.441  1.00  0.00     0.127 S 
ATOM     97  O   UNL A   1      48.616  29.357  34.044  1.00  0.00    -0.237 OA
ATOM     98  O   UNL A   1      48.152  31.129  35.690  1.00  0.00    -0.237 OA
ATOM     99  O   UNL A   1      49.222  29.043  36.417  1.00  0.00    -0.744 OA
ENDBRANCH  93  96
ENDBRANCH  66  89
ENDBRANCH  40  41
ENDBRANCH  32  35
ENDBRANCH  30  31
ENDBRANCH  29  30
ENDBRANCH  28  29
ENDBRANCH  27  28
ENDBRANCH   1  27
TORSDOF 22
ENDMDL
MODEL 3
REMARK VINA RESULT:     -10.8      2.361      4.024
REMARK SMILES O=C(CN(CC(=O)NCc1ccccc1)c1ccccc1)NCCCCCCNC(=O)c1ccc(-c2c3nc(c(-c4cccc(S(=O)(=O)[O-])c4F)c4ccc([nH]4)c(-c4cccc(S(=O)(=O)[O-])c4F)c4nc(c(-c5cccc(S(=O)(=O)[O-])c5F)c5ccc2[nH]5)C=C4)C=C3)cc1
REMARK SMILES IDX 24 1 23 2 22 3 1 4 2 5 3 7 4 8 5 9 6 10 7 11 8 12 9 14 10 15
REMARK SMILES IDX 11 16 15 17 12 18 14 19 13 20 16 21 17 22 21 23 18 24 20 25
REMARK SMILES IDX 19 26 25 27 26 28 27 29 28 30 29 31 30 32 31 34 32 35 33 36
REMARK SMILES IDX 94 37 34 38 93 39 35 40 36 41 37 42 87 43 38 44 92 45 86 46
REMARK SMILES IDX 88 47 39 48 91 49 85 50 84 51 40 53 72 54 52 55 71 56 53 57
REMARK SMILES IDX 56 58 70 59 89 60 54 61 55 62 69 64 90 65 57 66 41 67 42 68
REMARK SMILES IDX 50 69 43 70 45 71 51 72 44 73 46 74 47 75 48 76 49 77 73 78
REMARK SMILES IDX 74 79 82 80 75 81 77 82 83 83 76 84 78 85 79 86 80 87 81 88
REMARK SMILES IDX 58 89 59 90 67 91 60 92 62 93 68 94 61 95 63 96 64 97 65 98
REMARK SMILES IDX 66 99
REMARK H PARENT 22 6 8 13 29 33 88 52 56 63
REMARK Flexibility Score: inf
ROOT
ATOM      1  C   UNL A   1      35.086  28.993  27.076  1.00  0.00     0.021 C 
ENDROOT
BRANCH   1   2
ATOM      2  C   UNL A   1      33.690  28.472  26.745  1.00  0.00     0.116 C 
BRANCH   2   3
ATOM      3  N   UNL A   1      33.491  28.291  25.322  1.00  0.00    -0.355 N 
ATOM      4  O   UNL A   1      31.859  29.887  25.136  1.00  0.00    -0.273 OA
ATOM      5  C   UNL A   1      32.613  29.069  24.610  1.00  0.00     0.239 C 
ATOM      6  H   UNL A   1      34.000  27.590  24.854  1.00  0.00     0.163 HD
BRANCH   5   7
ATOM      7  C   UNL A   1      32.565  28.812  23.106  1.00  0.00     0.217 C 
BRANCH   7   8
ATOM      8  N   UNL A   1      31.376  28.100  22.563  1.00  0.00    -0.353 N 
BRANCH   8   9
ATOM      9  C   UNL A   1      31.518  26.633  22.369  1.00  0.00     0.217 C 
BRANCH   9  10
ATOM     10  C   UNL A   1      32.945  26.065  22.246  1.00  0.00     0.239 C 
ATOM     11  O   UNL A   1      33.650  26.350  21.268  1.00  0.00    -0.273 OA
ATOM     12  N   UNL A   1      33.518  25.267  23.187  1.00  0.00    -0.350 N 
ATOM     13  H   UNL A   1      34.348  24.821  22.900  1.00  0.00     0.163 HD
BRANCH  12  14
ATOM     14  C   UNL A   1      33.108  24.967  24.536  1.00  0.00     0.151 C 
BRANCH  14  15
ATOM     15  C   UNL A   1      33.719  23.707  25.096  1.00  0.00    -0.029 A 
ATOM     16  C   UNL A   1      33.728  23.437  26.471  1.00  0.00     0.005 A 
ATOM     17  C   UNL A   1      34.391  22.816  24.246  1.00  0.00     0.005 A 
ATOM     18  C   UNL A   1      34.403  22.332  26.990  1.00  0.00     0.000 A 
ATOM     19  C   UNL A   1      35.053  21.696  24.761  1.00  0.00     0.000 A 
ATOM     20  C   UNL A   1      35.069  21.462  26.134  1.00  0.00     0.000 A 
ENDBRANCH  14  15
ENDBRANCH  12  14
ENDBRANCH   9  10
ENDBRANCH   8   9
BRANCH   8  21
ATOM     21  C   UNL A   1      30.138  28.748  22.519  1.00  0.00     0.038 A 
ATOM     22  C   UNL A   1      28.965  28.201  23.068  1.00  0.00     0.026 A 
ATOM     23  C   UNL A   1      29.983  30.025  21.953  1.00  0.00     0.026 A 
ATOM     24  C   UNL A   1      27.751  28.905  23.127  1.00  0.00     0.002 A 
ATOM     25  C   UNL A   1      28.765  30.722  21.962  1.00  0.00     0.002 A 
ATOM     26  C   UNL A   1      27.651  30.170  22.573  1.00  0.00     0.000 A 
ENDBRANCH   8  21
ENDBRANCH   7   8
ENDBRANCH   5   7
ENDBRANCH   2   3
ENDBRANCH   1   2
BRANCH   1  27
ATOM     27  C   UNL A   1      35.125  30.463  27.505  1.00  0.00     0.002 C 
BRANCH  27  28
ATOM     28  C   UNL A   1      33.765  31.086  27.833  1.00  0.00     0.002 C 
BRANCH  28  29
ATOM     29  C   UNL A   1      33.521  32.480  27.247  1.00  0.00     0.021 C 
BRANCH  29  30
ATOM     30  C   UNL A   1      32.263  33.184  27.747  1.00  0.00     0.116 C 
BRANCH  30  31
ATOM     31  N   UNL A   1      32.491  34.593  28.032  1.00  0.00    -0.352 N 
ATOM     32  C   UNL A   1      33.439  35.185  28.826  1.00  0.00     0.251 C 
ATOM     33  H   UNL A   1      31.870  35.215  27.587  1.00  0.00     0.163 HD
ATOM     34  O   UNL A   1      33.359  36.391  29.067  1.00  0.00    -0.269 OA
BRANCH  32  35
ATOM     35  C   UNL A   1      34.541  34.389  29.410  1.00  0.00     0.039 A 
ATOM     36  C   UNL A   1      35.762  34.332  28.731  1.00  0.00     0.014 A 
ATOM     37  C   UNL A   1      34.377  33.685  30.607  1.00  0.00     0.014 A 
ATOM     38  C   UNL A   1      36.830  33.617  29.278  1.00  0.00     0.010 A 
ATOM     39  C   UNL A   1      35.465  33.035  31.189  1.00  0.00     0.010 A 
ATOM     40  C   UNL A   1      36.702  32.988  30.529  1.00  0.00    -0.014 A 
BRANCH  40  41
ATOM     41  C   UNL A   1      37.868  32.317  31.162  1.00  0.00     0.031 A 
ATOM     42  C   UNL A   1      38.431  32.808  32.470  1.00  0.00     0.074 A 
ATOM     43  C   UNL A   1      38.465  31.292  30.522  1.00  0.00     0.049 A 
ATOM     44  N   UNL A   1      39.414  32.315  33.179  1.00  0.00    -0.248 NA
ATOM     45  C   UNL A   1      37.829  34.021  33.046  1.00  0.00     0.031 C 
ATOM     46  C   UNL A   1      38.075  30.778  29.206  1.00  0.00     0.029 A 
ATOM     47  N   UNL A   1      39.530  30.505  30.883  1.00  0.00    -0.354 N 
ATOM     48  C   UNL A   1      39.574  33.174  34.260  1.00  0.00     0.074 A 
ATOM     49  C   UNL A   1      38.605  34.235  34.098  1.00  0.00     0.031 C 
ATOM     50  C   UNL A   1      38.870  29.746  28.885  1.00  0.00     0.029 A 
ATOM     51  C   UNL A   1      39.842  29.541  29.954  1.00  0.00     0.049 A 
ATOM     52  H   UNL A   1      40.023  30.620  31.726  1.00  0.00     0.167 HD
ATOM     53  C   UNL A   1      40.430  33.074  35.306  1.00  0.00     0.034 A 
ATOM     54  C   UNL A   1      40.797  28.591  29.964  1.00  0.00     0.034 A 
ATOM     55  C   UNL A   1      41.368  31.997  35.483  1.00  0.00     0.049 A 
ATOM     56  C   UNL A   1      41.700  28.473  31.159  1.00  0.00     0.074 A 
ATOM     57  C   UNL A   1      42.199  31.747  36.562  1.00  0.00     0.029 A 
ATOM     58  N   UNL A   1      41.617  31.000  34.551  1.00  0.00    -0.354 N 
ATOM     59  N   UNL A   1      41.708  29.181  32.263  1.00  0.00    -0.248 NA
ATOM     60  C   UNL A   1      42.702  27.398  31.128  1.00  0.00     0.031 C 
ATOM     61  C   UNL A   1      42.975  30.620  36.265  1.00  0.00     0.029 A 
ATOM     62  C   UNL A   1      42.603  30.147  35.017  1.00  0.00     0.049 A 
ATOM     63  H   UNL A   1      41.158  30.913  33.684  1.00  0.00     0.167 HD
ATOM     64  C   UNL A   1      42.692  28.620  33.069  1.00  0.00     0.074 A 
ATOM     65  C   UNL A   1      43.236  27.492  32.338  1.00  0.00     0.031 C 
ATOM     66  C   UNL A   1      43.116  29.008  34.298  1.00  0.00     0.034 A 
BRANCH  53  67
ATOM     67  C   UNL A   1      40.366  34.146  36.366  1.00  0.00     0.023 A 
ATOM     68  C   UNL A   1      40.835  35.445  36.078  1.00  0.00     0.012 A 
ATOM     69  C   UNL A   1      39.798  33.884  37.628  1.00  0.00     0.148 A 
ATOM     70  C   UNL A   1      40.780  36.452  37.041  1.00  0.00     0.002 A 
ATOM     71  C   UNL A   1      39.703  34.906  38.567  1.00  0.00     0.091 A 
ATOM     72  F   UNL A   1      39.376  32.640  37.895  1.00  0.00    -0.205 F 
ATOM     73  C   UNL A   1      40.205  36.185  38.281  1.00  0.00     0.022 A 
BRANCH  71  74
ATOM     74  S   UNL A   1      38.905  34.683  40.161  1.00  0.00     0.127 S 
ATOM     75  O   UNL A   1      37.649  34.041  39.774  1.00  0.00    -0.237 OA
ATOM     76  O   UNL A   1      39.847  33.806  40.858  1.00  0.00    -0.237 OA
ATOM     77  O   UNL A   1      38.778  36.014  40.736  1.00  0.00    -0.744 OA
ENDBRANCH  71  74
ENDBRANCH  53  67
BRANCH  54  78
ATOM     78  C   UNL A   1      40.889  27.617  28.839  1.00  0.00     0.023 A 
ATOM     79  C   UNL A   1      39.980  26.540  28.785  1.00  0.00     0.012 A 
ATOM     80  C   UNL A   1      41.840  27.765  27.812  1.00  0.00     0.148 A 
ATOM     81  C   UNL A   1      40.039  25.611  27.746  1.00  0.00     0.002 A 
ATOM     82  C   UNL A   1      41.857  26.867  26.751  1.00  0.00     0.091 A 
ATOM     83  F   UNL A   1      42.701  28.790  27.887  1.00  0.00    -0.205 F 
ATOM     84  C   UNL A   1      40.970  25.780  26.724  1.00  0.00     0.022 A 
BRANCH  82  85
ATOM     85  S   UNL A   1      42.931  27.078  25.326  1.00  0.00     0.127 S 
ATOM     86  O   UNL A   1      42.285  28.187  24.627  1.00  0.00    -0.237 OA
ATOM     87  O   UNL A   1      44.207  27.409  25.960  1.00  0.00    -0.237 OA
ATOM     88  O   UNL A   1      42.919  25.800  24.630  1.00  0.00    -0.744 OA
ENDBRANCH  82  85
ENDBRANCH  54  78
BRANCH  66  89
ATOM     89  C   UNL A   1      44.213  28.197  34.941  1.00  0.00     0.023 A 
ATOM     90  C   UNL A   1      45.554  28.623  34.839  1.00  0.00     0.012 A 
ATOM     91  C   UNL A   1      43.915  27.031  35.673  1.00  0.00     0.148 A 
ATOM     92  C   UNL A   1      46.582  27.876  35.413  1.00  0.00     0.002 A 
ATOM     93  C   UNL A   1      44.940  26.322  36.290  1.00  0.00     0.091 A 
ATOM     94  F   UNL A   1      42.638  26.629  35.745  1.00  0.00    -0.205 F 
ATOM     95  C   UNL A   1      46.274  26.733  36.146  1.00  0.00     0.022 A 
BRANCH  93  96
ATOM     96  S   UNL A   1      44.625  24.895  37.334  1.00  0.00     0.127 S 
ATOM     97  O   UNL A   1      43.839  24.042  36.446  1.00  0.00    -0.237 OA
ATOM     98  O   UNL A   1      45.977  24.406  37.611  1.00  0.00    -0.237 OA
ATOM     99  O   UNL A   1      43.920  25.404  38.503  1.00  0.00    -0.744 OA
ENDBRANCH  93  96
ENDBRANCH  66  89
ENDBRANCH  40  41
ENDBRANCH  32  35
ENDBRANCH  30  31
ENDBRANCH  29  30
ENDBRANCH  28  29
ENDBRANCH  27  28
ENDBRANCH   1  27
TORSDOF 22
ENDMDL
