MODEL 1
REMARK VINA RESULT:      -6.8      0.000      0.000
REMARK SMILES C[C@H](CCC(=O)NCCCCCCNC(=O)c1ccc(-c2c3nc(c(-c4cccc(S(=O)(=O)[O-])c4F)c4ccc([nH]4)c(-c4cccc(S(=O)(=O)[O-])c4F)c4nc(c(-c5cccc(S(=O)(=O)[O-])c5F)c5ccc2[nH]5)C=C4)C=C3)cc1)NC(=O)N(C)CCc1cccs1
REMARK SMILES IDX 8 1 7 2 5 3 6 4 4 6 3 7 2 8 1 9 80 10 81 11 82 13 83 14
REMARK SMILES IDX 84 15 85 16 86 17 87 18 88 19 91 20 89 21 90 22 9 23 10 24
REMARK SMILES IDX 11 25 12 26 13 27 14 28 15 29 16 31 17 32 18 33 79 34 19 35
REMARK SMILES IDX 78 36 20 37 21 38 22 39 72 40 23 41 77 42 71 43 73 44 24 45
REMARK SMILES IDX 76 46 70 47 69 48 25 50 57 51 37 52 56 53 38 54 41 55 55 56
REMARK SMILES IDX 74 57 39 58 40 59 54 61 75 62 42 63 26 64 27 65 35 66 28 67
REMARK SMILES IDX 30 68 36 69 29 70 31 71 32 72 33 73 34 74 58 75 59 76 67 77
REMARK SMILES IDX 60 78 62 79 68 80 61 81 63 82 64 83 65 84 66 85 43 86 44 87
REMARK SMILES IDX 52 88 45 89 47 90 53 91 46 92 48 93 49 94 50 95 51 96
REMARK H PARENT 7 5 80 12 14 30 73 49 41 60
REMARK Flexibility Score: inf
ROOT
ATOM      1  C   UNL A   1      37.855  32.949  38.431  1.00  0.00     0.116 C 
ENDROOT
BRANCH   1   2
ATOM      2  N   UNL A   1      38.118  31.638  37.850  1.00  0.00    -0.356 N 
ATOM      3  C   UNL A   1      38.257  31.229  36.558  1.00  0.00     0.220 C 
ATOM      4  O   UNL A   1      38.717  30.101  36.356  1.00  0.00    -0.275 OA
ATOM      5  H   UNL A   1      38.215  30.917  38.513  1.00  0.00     0.163 HD
BRANCH   3   6
ATOM      6  C   UNL A   1      37.776  32.077  35.396  1.00  0.00     0.102 C 
BRANCH   6   7
ATOM      7  C   UNL A   1      38.806  32.098  34.259  1.00  0.00     0.034 C 
BRANCH   7   8
ATOM      8  C   UNL A   1      38.175  31.837  32.880  1.00  0.00     0.081 C 
ATOM      9  C   UNL A   1      37.571  30.426  32.844  1.00  0.00     0.031 C 
BRANCH   8  10
ATOM     10  N   UNL A   1      37.154  32.835  32.584  1.00  0.00    -0.336 N 
ATOM     11  C   UNL A   1      36.931  33.640  31.517  1.00  0.00     0.317 C 
ATOM     12  H   UNL A   1      36.492  32.947  33.305  1.00  0.00     0.165 HD
ATOM     13  O   UNL A   1      35.880  34.284  31.519  1.00  0.00    -0.249 OA
BRANCH  11  14
ATOM     14  N   UNL A   1      37.831  33.704  30.480  1.00  0.00    -0.328 N 
ATOM     15  C   UNL A   1      38.853  34.735  30.454  1.00  0.00     0.148 C 
BRANCH  14  16
ATOM     16  C   UNL A   1      37.417  33.198  29.161  1.00  0.00     0.126 C 
BRANCH  16  17
ATOM     17  C   UNL A   1      37.109  31.699  29.080  1.00  0.00     0.068 C 
BRANCH  17  18
ATOM     18  C   UNL A   1      38.271  30.744  29.098  1.00  0.00     0.006 A 
ATOM     19  C   UNL A   1      39.506  30.785  29.715  1.00  0.00     0.015 A 
ATOM     20  S   UNL A   1      38.082  29.252  28.289  1.00  0.00    -0.149 S 
ATOM     21  C   UNL A   1      40.332  29.668  29.384  1.00  0.00     0.012 A 
ATOM     22  C   UNL A   1      39.670  28.749  28.609  1.00  0.00     0.065 A 
ENDBRANCH  17  18
ENDBRANCH  16  17
ENDBRANCH  14  16
ENDBRANCH  11  14
ENDBRANCH   8  10
ENDBRANCH   7   8
ENDBRANCH   6   7
ENDBRANCH   3   6
ENDBRANCH   1   2
BRANCH   1  23
ATOM     23  C   UNL A   1      39.038  33.932  38.451  1.00  0.00     0.021 C 
BRANCH  23  24
ATOM     24  C   UNL A   1      40.391  33.428  37.927  1.00  0.00     0.002 C 
BRANCH  24  25
ATOM     25  C   UNL A   1      41.517  33.317  38.961  1.00  0.00     0.002 C 
BRANCH  25  26
ATOM     26  C   UNL A   1      41.633  34.486  39.954  1.00  0.00     0.021 C 
BRANCH  26  27
ATOM     27  C   UNL A   1      43.032  35.082  40.154  1.00  0.00     0.116 C 
BRANCH  27  28
ATOM     28  N   UNL A   1      43.069  36.539  40.182  1.00  0.00    -0.352 N 
ATOM     29  C   UNL A   1      43.208  37.414  39.116  1.00  0.00     0.251 C 
ATOM     30  H   UNL A   1      42.984  36.954  41.071  1.00  0.00     0.163 HD
ATOM     31  O   UNL A   1      43.237  38.616  39.284  1.00  0.00    -0.269 OA
BRANCH  29  32
ATOM     32  C   UNL A   1      43.336  36.845  37.754  1.00  0.00     0.039 A 
ATOM     33  C   UNL A   1      44.579  36.441  37.276  1.00  0.00     0.014 A 
ATOM     34  C   UNL A   1      42.195  36.653  36.982  1.00  0.00     0.014 A 
ATOM     35  C   UNL A   1      44.653  35.760  36.055  1.00  0.00     0.010 A 
ATOM     36  C   UNL A   1      42.255  35.887  35.817  1.00  0.00     0.010 A 
ATOM     37  C   UNL A   1      43.484  35.414  35.342  1.00  0.00    -0.014 A 
BRANCH  37  38
ATOM     38  C   UNL A   1      43.552  34.489  34.170  1.00  0.00     0.031 A 
ATOM     39  C   UNL A   1      43.568  34.988  32.746  1.00  0.00     0.074 A 
ATOM     40  C   UNL A   1      43.514  33.156  34.392  1.00  0.00     0.049 A 
ATOM     41  N   UNL A   1      43.696  34.302  31.637  1.00  0.00    -0.248 NA
ATOM     42  C   UNL A   1      43.374  36.430  32.530  1.00  0.00     0.031 C 
ATOM     43  C   UNL A   1      43.342  32.523  35.703  1.00  0.00     0.029 A 
ATOM     44  N   UNL A   1      43.620  32.092  33.528  1.00  0.00    -0.354 N 
ATOM     45  C   UNL A   1      43.553  35.216  30.597  1.00  0.00     0.074 A 
ATOM     46  C   UNL A   1      43.286  36.500  31.208  1.00  0.00     0.031 C 
ATOM     47  C   UNL A   1      43.420  31.191  35.566  1.00  0.00     0.029 A 
ATOM     48  C   UNL A   1      43.622  30.868  34.158  1.00  0.00     0.049 A 
ATOM     49  H   UNL A   1      43.688  32.196  32.552  1.00  0.00     0.167 HD
ATOM     50  C   UNL A   1      43.674  35.018  29.261  1.00  0.00     0.034 A 
ATOM     51  C   UNL A   1      43.797  29.624  33.668  1.00  0.00     0.034 A 
ATOM     52  C   UNL A   1      44.018  33.757  28.660  1.00  0.00     0.049 A 
ATOM     53  C   UNL A   1      44.057  29.445  32.199  1.00  0.00     0.074 A 
ATOM     54  C   UNL A   1      44.311  33.485  27.333  1.00  0.00     0.029 A 
ATOM     55  N   UNL A   1      44.117  32.555  29.342  1.00  0.00    -0.354 N 
ATOM     56  N   UNL A   1      44.141  30.355  31.259  1.00  0.00    -0.248 NA
ATOM     57  C   UNL A   1      44.286  28.071  31.727  1.00  0.00     0.031 C 
ATOM     58  C   UNL A   1      44.572  32.115  27.214  1.00  0.00     0.029 A 
ATOM     59  C   UNL A   1      44.456  31.537  28.467  1.00  0.00     0.049 A 
ATOM     60  H   UNL A   1      43.966  32.442  30.309  1.00  0.00     0.167 HD
ATOM     61  C   UNL A   1      44.465  29.670  30.094  1.00  0.00     0.074 A 
ATOM     62  C   UNL A   1      44.585  28.271  30.449  1.00  0.00     0.031 C 
ATOM     63  C   UNL A   1      44.628  30.156  28.839  1.00  0.00     0.034 A 
BRANCH  50  64
ATOM     64  C   UNL A   1      43.513  36.216  28.356  1.00  0.00     0.023 A 
ATOM     65  C   UNL A   1      42.221  36.601  27.940  1.00  0.00     0.012 A 
ATOM     66  C   UNL A   1      44.620  36.994  27.962  1.00  0.00     0.148 A 
ATOM     67  C   UNL A   1      42.037  37.706  27.110  1.00  0.00     0.002 A 
ATOM     68  C   UNL A   1      44.424  38.123  27.172  1.00  0.00     0.091 A 
ATOM     69  F   UNL A   1      45.845  36.610  28.351  1.00  0.00    -0.205 F 
ATOM     70  C   UNL A   1      43.137  38.471  26.734  1.00  0.00     0.022 A 
BRANCH  68  71
ATOM     71  S   UNL A   1      45.770  39.221  26.709  1.00  0.00     0.127 S 
ATOM     72  O   UNL A   1      45.155  40.008  25.641  1.00  0.00    -0.237 OA
ATOM     73  O   UNL A   1      46.009  39.961  27.949  1.00  0.00    -0.237 OA
ATOM     74  O   UNL A   1      46.867  38.354  26.303  1.00  0.00    -0.744 OA
ENDBRANCH  68  71
ENDBRANCH  50  64
BRANCH  51  75
ATOM     75  C   UNL A   1      43.869  28.464  34.604  1.00  0.00     0.023 A 
ATOM     76  C   UNL A   1      45.128  28.062  35.093  1.00  0.00     0.012 A 
ATOM     77  C   UNL A   1      42.714  27.796  35.049  1.00  0.00     0.148 A 
ATOM     78  C   UNL A   1      45.237  26.996  35.987  1.00  0.00     0.002 A 
ATOM     79  C   UNL A   1      42.825  26.771  35.982  1.00  0.00     0.091 A 
ATOM     80  F   UNL A   1      41.526  28.188  34.565  1.00  0.00    -0.205 F 
ATOM     81  C   UNL A   1      44.086  26.359  36.440  1.00  0.00     0.022 A 
BRANCH  79  82
ATOM     82  S   UNL A   1      41.388  25.988  36.726  1.00  0.00     0.127 S 
ATOM     83  O   UNL A   1      40.700  27.129  37.323  1.00  0.00    -0.237 OA
ATOM     84  O   UNL A   1      40.721  25.407  35.560  1.00  0.00    -0.237 OA
ATOM     85  O   UNL A   1      41.919  25.005  37.662  1.00  0.00    -0.744 OA
ENDBRANCH  79  82
ENDBRANCH  51  75
BRANCH  63  86
ATOM     86  C   UNL A   1      44.978  29.174  27.750  1.00  0.00     0.023 A 
ATOM     87  C   UNL A   1      46.330  28.961  27.413  1.00  0.00     0.012 A 
ATOM     88  C   UNL A   1      43.978  28.415  27.112  1.00  0.00     0.148 A 
ATOM     89  C   UNL A   1      46.678  28.031  26.435  1.00  0.00     0.002 A 
ATOM     90  C   UNL A   1      44.337  27.456  26.171  1.00  0.00     0.091 A 
ATOM     91  F   UNL A   1      42.696  28.648  27.429  1.00  0.00    -0.205 F 
ATOM     92  C   UNL A   1      45.684  27.271  25.823  1.00  0.00     0.022 A 
BRANCH  90  93
ATOM     93  S   UNL A   1      43.129  26.369  25.402  1.00  0.00     0.127 S 
ATOM     94  O   UNL A   1      42.442  27.283  24.492  1.00  0.00    -0.237 OA
ATOM     95  O   UNL A   1      43.978  25.375  24.743  1.00  0.00    -0.237 OA
ATOM     96  O   UNL A   1      42.321  25.840  26.493  1.00  0.00    -0.744 OA
ENDBRANCH  90  93
ENDBRANCH  63  86
ENDBRANCH  37  38
ENDBRANCH  29  32
ENDBRANCH  27  28
ENDBRANCH  26  27
ENDBRANCH  25  26
ENDBRANCH  24  25
ENDBRANCH  23  24
ENDBRANCH   1  23
TORSDOF 23
ENDMDL
MODEL 2
REMARK VINA RESULT:      -6.6      6.246     10.239
REMARK SMILES C[C@H](CCC(=O)NCCCCCCNC(=O)c1ccc(-c2c3nc(c(-c4cccc(S(=O)(=O)[O-])c4F)c4ccc([nH]4)c(-c4cccc(S(=O)(=O)[O-])c4F)c4nc(c(-c5cccc(S(=O)(=O)[O-])c5F)c5ccc2[nH]5)C=C4)C=C3)cc1)NC(=O)N(C)CCc1cccs1
REMARK SMILES IDX 8 1 7 2 5 3 6 4 4 6 3 7 2 8 1 9 80 10 81 11 82 13 83 14
REMARK SMILES IDX 84 15 85 16 86 17 87 18 88 19 91 20 89 21 90 22 9 23 10 24
REMARK SMILES IDX 11 25 12 26 13 27 14 28 15 29 16 31 17 32 18 33 79 34 19 35
REMARK SMILES IDX 78 36 20 37 21 38 22 39 72 40 23 41 77 42 71 43 73 44 24 45
REMARK SMILES IDX 76 46 70 47 69 48 25 50 57 51 37 52 56 53 38 54 41 55 55 56
REMARK SMILES IDX 74 57 39 58 40 59 54 61 75 62 42 63 26 64 27 65 35 66 28 67
REMARK SMILES IDX 30 68 36 69 29 70 31 71 32 72 33 73 34 74 58 75 59 76 67 77
REMARK SMILES IDX 60 78 62 79 68 80 61 81 63 82 64 83 65 84 66 85 43 86 44 87
REMARK SMILES IDX 52 88 45 89 47 90 53 91 46 92 48 93 49 94 50 95 51 96
REMARK H PARENT 7 5 80 12 14 30 73 49 41 60
REMARK Flexibility Score: inf
ROOT
ATOM      1  C   UNL A   1      33.749  30.622  27.557  1.00  0.00     0.116 C 
ENDROOT
BRANCH   1   2
ATOM      2  N   UNL A   1      32.690  30.839  26.579  1.00  0.00    -0.356 N 
ATOM      3  C   UNL A   1      32.168  30.035  25.612  1.00  0.00     0.220 C 
ATOM      4  O   UNL A   1      31.109  30.383  25.080  1.00  0.00    -0.275 OA
ATOM      5  H   UNL A   1      32.275  31.731  26.628  1.00  0.00     0.163 HD
BRANCH   3   6
ATOM      6  C   UNL A   1      32.898  28.799  25.123  1.00  0.00     0.102 C 
BRANCH   6   7
ATOM      7  C   UNL A   1      32.368  27.532  25.808  1.00  0.00     0.034 C 
BRANCH   7   8
ATOM      8  C   UNL A   1      31.822  26.498  24.807  1.00  0.00     0.081 C 
ATOM      9  C   UNL A   1      30.476  26.979  24.246  1.00  0.00     0.031 C 
BRANCH   8  10
ATOM     10  N   UNL A   1      32.773  26.277  23.725  1.00  0.00    -0.336 N 
ATOM     11  C   UNL A   1      33.203  25.161  23.088  1.00  0.00     0.317 C 
ATOM     12  H   UNL A   1      33.187  27.105  23.389  1.00  0.00     0.165 HD
ATOM     13  O   UNL A   1      33.924  25.329  22.102  1.00  0.00    -0.249 OA
BRANCH  11  14
ATOM     14  N   UNL A   1      32.826  23.911  23.518  1.00  0.00    -0.328 N 
ATOM     15  C   UNL A   1      31.517  23.379  23.181  1.00  0.00     0.148 C 
BRANCH  14  16
ATOM     16  C   UNL A   1      33.411  23.393  24.766  1.00  0.00     0.126 C 
BRANCH  16  17
ATOM     17  C   UNL A   1      34.860  23.803  25.052  1.00  0.00     0.068 C 
BRANCH  17  18
ATOM     18  C   UNL A   1      35.901  22.717  25.076  1.00  0.00     0.006 A 
ATOM     19  C   UNL A   1      35.845  21.362  24.820  1.00  0.00     0.015 A 
ATOM     20  S   UNL A   1      37.515  23.176  25.394  1.00  0.00    -0.149 S 
ATOM     21  C   UNL A   1      37.091  20.700  25.044  1.00  0.00     0.012 A 
ATOM     22  C   UNL A   1      38.093  21.582  25.361  1.00  0.00     0.065 A 
ENDBRANCH  17  18
ENDBRANCH  16  17
ENDBRANCH  14  16
ENDBRANCH  11  14
ENDBRANCH   8  10
ENDBRANCH   7   8
ENDBRANCH   6   7
ENDBRANCH   3   6
ENDBRANCH   1   2
BRANCH   1  23
ATOM     23  C   UNL A   1      34.587  31.855  27.936  1.00  0.00     0.021 C 
BRANCH  23  24
ATOM     24  C   UNL A   1      34.430  32.410  29.359  1.00  0.00     0.002 C 
BRANCH  24  25
ATOM     25  C   UNL A   1      35.381  31.839  30.416  1.00  0.00     0.002 C 
BRANCH  25  26
ATOM     26  C   UNL A   1      36.791  31.472  29.922  1.00  0.00     0.021 C 
BRANCH  26  27
ATOM     27  C   UNL A   1      37.952  31.758  30.882  1.00  0.00     0.116 C 
BRANCH  27  28
ATOM     28  N   UNL A   1      37.606  31.654  32.294  1.00  0.00    -0.352 N 
ATOM     29  C   UNL A   1      38.303  31.008  33.303  1.00  0.00     0.251 C 
ATOM     30  H   UNL A   1      36.771  32.100  32.566  1.00  0.00     0.163 HD
ATOM     31  O   UNL A   1      37.890  30.989  34.445  1.00  0.00    -0.269 OA
BRANCH  29  32
ATOM     32  C   UNL A   1      39.569  30.323  32.953  1.00  0.00     0.039 A 
ATOM     33  C   UNL A   1      40.757  31.042  32.876  1.00  0.00     0.014 A 
ATOM     34  C   UNL A   1      39.574  28.944  32.769  1.00  0.00     0.014 A 
ATOM     35  C   UNL A   1      41.964  30.351  32.703  1.00  0.00     0.010 A 
ATOM     36  C   UNL A   1      40.781  28.249  32.699  1.00  0.00     0.010 A 
ATOM     37  C   UNL A   1      41.998  28.940  32.681  1.00  0.00    -0.014 A 
BRANCH  37  38
ATOM     38  C   UNL A   1      43.300  28.209  32.735  1.00  0.00     0.031 A 
ATOM     39  C   UNL A   1      44.015  27.739  31.491  1.00  0.00     0.074 A 
ATOM     40  C   UNL A   1      43.815  27.885  33.942  1.00  0.00     0.049 A 
ATOM     41  N   UNL A   1      45.184  27.156  31.387  1.00  0.00    -0.248 NA
ATOM     42  C   UNL A   1      43.319  27.900  30.206  1.00  0.00     0.031 C 
ATOM     43  C   UNL A   1      43.163  28.134  35.231  1.00  0.00     0.029 A 
ATOM     44  N   UNL A   1      44.999  27.282  34.288  1.00  0.00    -0.354 N 
ATOM     45  C   UNL A   1      45.342  26.842  30.041  1.00  0.00     0.074 A 
ATOM     46  C   UNL A   1      44.129  27.261  29.373  1.00  0.00     0.031 C 
ATOM     47  C   UNL A   1      43.979  27.751  36.223  1.00  0.00     0.029 A 
ATOM     48  C   UNL A   1      45.203  27.204  35.648  1.00  0.00     0.049 A 
ATOM     49  H   UNL A   1      45.642  26.938  33.627  1.00  0.00     0.167 HD
ATOM     50  C   UNL A   1      46.410  26.296  29.408  1.00  0.00     0.034 A 
ATOM     51  C   UNL A   1      46.265  26.773  36.357  1.00  0.00     0.034 A 
ATOM     52  C   UNL A   1      47.646  25.953  30.062  1.00  0.00     0.049 A 
ATOM     53  C   UNL A   1      47.488  26.291  35.628  1.00  0.00     0.074 A 
ATOM     54  C   UNL A   1      48.836  25.535  29.490  1.00  0.00     0.029 A 
ATOM     55  N   UNL A   1      47.853  25.987  31.431  1.00  0.00    -0.354 N 
ATOM     56  N   UNL A   1      47.700  26.212  34.337  1.00  0.00    -0.248 NA
ATOM     57  C   UNL A   1      48.632  25.875  36.452  1.00  0.00     0.031 C 
ATOM     58  C   UNL A   1      49.758  25.303  30.517  1.00  0.00     0.029 A 
ATOM     59  C   UNL A   1      49.147  25.590  31.727  1.00  0.00     0.049 A 
ATOM     60  H   UNL A   1      47.178  26.254  32.097  1.00  0.00     0.167 HD
ATOM     61  C   UNL A   1      49.010  25.771  34.192  1.00  0.00     0.074 A 
ATOM     62  C   UNL A   1      49.551  25.622  35.527  1.00  0.00     0.031 C 
ATOM     63  C   UNL A   1      49.695  25.496  33.055  1.00  0.00     0.034 A 
BRANCH  50  64
ATOM     64  C   UNL A   1      46.322  26.109  27.912  1.00  0.00     0.023 A 
ATOM     65  C   UNL A   1      46.695  27.169  27.060  1.00  0.00     0.012 A 
ATOM     66  C   UNL A   1      45.931  24.880  27.347  1.00  0.00     0.148 A 
ATOM     67  C   UNL A   1      46.633  27.027  25.674  1.00  0.00     0.002 A 
ATOM     68  C   UNL A   1      45.916  24.730  25.963  1.00  0.00     0.091 A 
ATOM     69  F   UNL A   1      45.564  23.883  28.167  1.00  0.00    -0.205 F 
ATOM     70  C   UNL A   1      46.252  25.806  25.127  1.00  0.00     0.022 A 
BRANCH  68  71
ATOM     71  S   UNL A   1      45.523  23.167  25.167  1.00  0.00     0.127 S 
ATOM     72  O   UNL A   1      44.073  23.102  25.341  1.00  0.00    -0.237 OA
ATOM     73  O   UNL A   1      45.958  23.401  23.789  1.00  0.00    -0.237 OA
ATOM     74  O   UNL A   1      46.291  22.155  25.878  1.00  0.00    -0.744 OA
ENDBRANCH  68  71
ENDBRANCH  50  64
BRANCH  51  75
ATOM     75  C   UNL A   1      46.266  26.908  37.843  1.00  0.00     0.023 A 
ATOM     76  C   UNL A   1      45.668  25.895  38.619  1.00  0.00     0.012 A 
ATOM     77  C   UNL A   1      46.891  27.989  38.491  1.00  0.00     0.148 A 
ATOM     78  C   UNL A   1      45.667  25.971  40.012  1.00  0.00     0.002 A 
ATOM     79  C   UNL A   1      46.934  28.032  39.880  1.00  0.00     0.091 A 
ATOM     80  F   UNL A   1      47.446  28.948  37.735  1.00  0.00    -0.205 F 
ATOM     81  C   UNL A   1      46.309  27.032  40.642  1.00  0.00     0.022 A 
BRANCH  79  82
ATOM     82  S   UNL A   1      47.859  29.285  40.775  1.00  0.00     0.127 S 
ATOM     83  O   UNL A   1      49.235  28.959  40.412  1.00  0.00    -0.237 OA
ATOM     84  O   UNL A   1      47.344  30.522  40.186  1.00  0.00    -0.237 OA
ATOM     85  O   UNL A   1      47.510  29.102  42.178  1.00  0.00    -0.744 OA
ENDBRANCH  79  82
ENDBRANCH  51  75
BRANCH  63  86
ATOM     86  C   UNL A   1      51.120  25.024  33.195  1.00  0.00     0.023 A 
ATOM     87  C   UNL A   1      52.150  25.967  33.384  1.00  0.00     0.012 A 
ATOM     88  C   UNL A   1      51.428  23.651  33.209  1.00  0.00     0.148 A 
ATOM     89  C   UNL A   1      53.470  25.551  33.553  1.00  0.00     0.002 A 
ATOM     90  C   UNL A   1      52.740  23.242  33.425  1.00  0.00     0.091 A 
ATOM     91  F   UNL A   1      50.439  22.769  33.005  1.00  0.00    -0.205 F 
ATOM     92  C   UNL A   1      53.763  24.189  33.585  1.00  0.00     0.022 A 
BRANCH  90  93
ATOM     93  S   UNL A   1      53.191  21.508  33.573  1.00  0.00     0.127 S 
ATOM     94  O   UNL A   1      54.623  21.595  33.853  1.00  0.00    -0.237 OA
ATOM     95  O   UNL A   1      52.374  21.068  34.705  1.00  0.00    -0.237 OA
ATOM     96  O   UNL A   1      52.835  20.895  32.300  1.00  0.00    -0.744 OA
ENDBRANCH  90  93
ENDBRANCH  63  86
ENDBRANCH  37  38
ENDBRANCH  29  32
ENDBRANCH  27  28
ENDBRANCH  26  27
ENDBRANCH  25  26
ENDBRANCH  24  25
ENDBRANCH  23  24
ENDBRANCH   1  23
TORSDOF 23
ENDMDL
MODEL 3
REMARK VINA RESULT:      -6.5      5.795      8.821
REMARK SMILES C[C@H](CCC(=O)NCCCCCCNC(=O)c1ccc(-c2c3nc(c(-c4cccc(S(=O)(=O)[O-])c4F)c4ccc([nH]4)c(-c4cccc(S(=O)(=O)[O-])c4F)c4nc(c(-c5cccc(S(=O)(=O)[O-])c5F)c5ccc2[nH]5)C=C4)C=C3)cc1)NC(=O)N(C)CCc1cccs1
REMARK SMILES IDX 8 1 7 2 5 3 6 4 4 6 3 7 2 8 1 9 80 10 81 11 82 13 83 14
REMARK SMILES IDX 84 15 85 16 86 17 87 18 88 19 91 20 89 21 90 22 9 23 10 24
REMARK SMILES IDX 11 25 12 26 13 27 14 28 15 29 16 31 17 32 18 33 79 34 19 35
REMARK SMILES IDX 78 36 20 37 21 38 22 39 72 40 23 41 77 42 71 43 73 44 24 45
REMARK SMILES IDX 76 46 70 47 69 48 25 50 57 51 37 52 56 53 38 54 41 55 55 56
REMARK SMILES IDX 74 57 39 58 40 59 54 61 75 62 42 63 26 64 27 65 35 66 28 67
REMARK SMILES IDX 30 68 36 69 29 70 31 71 32 72 33 73 34 74 58 75 59 76 67 77
REMARK SMILES IDX 60 78 62 79 68 80 61 81 63 82 64 83 65 84 66 85 43 86 44 87
REMARK SMILES IDX 52 88 45 89 47 90 53 91 46 92 48 93 49 94 50 95 51 96
REMARK H PARENT 7 5 80 12 14 30 73 49 41 60
REMARK Flexibility Score: inf
ROOT
ATOM      1  C   UNL A   1      33.657  30.272  27.462  1.00  0.00     0.116 C 
ENDROOT
BRANCH   1   2
ATOM      2  N   UNL A   1      33.477  29.948  26.052  1.00  0.00    -0.356 N 
ATOM      3  C   UNL A   1      32.608  29.115  25.415  1.00  0.00     0.220 C 
ATOM      4  O   UNL A   1      32.510  29.210  24.188  1.00  0.00    -0.275 OA
ATOM      5  H   UNL A   1      34.097  30.419  25.449  1.00  0.00     0.163 HD
BRANCH   3   6
ATOM      6  C   UNL A   1      31.850  28.033  26.161  1.00  0.00     0.102 C 
BRANCH   6   7
ATOM      7  C   UNL A   1      32.790  26.909  26.617  1.00  0.00     0.034 C 
BRANCH   7   8
ATOM      8  C   UNL A   1      32.925  25.786  25.574  1.00  0.00     0.081 C 
ATOM      9  C   UNL A   1      34.409  25.540  25.265  1.00  0.00     0.031 C 
BRANCH   8  10
ATOM     10  N   UNL A   1      32.296  24.561  26.052  1.00  0.00    -0.336 N 
ATOM     11  C   UNL A   1      32.084  23.349  25.483  1.00  0.00     0.317 C 
ATOM     12  H   UNL A   1      31.957  24.626  26.974  1.00  0.00     0.165 HD
ATOM     13  O   UNL A   1      31.640  22.463  26.215  1.00  0.00    -0.249 OA
BRANCH  11  14
ATOM     14  N   UNL A   1      32.377  23.129  24.158  1.00  0.00    -0.328 N 
ATOM     15  C   UNL A   1      31.546  23.702  23.114  1.00  0.00     0.148 C 
BRANCH  14  16
ATOM     16  C   UNL A   1      33.076  21.887  23.792  1.00  0.00     0.126 C 
BRANCH  16  17
ATOM     17  C   UNL A   1      32.194  20.740  23.286  1.00  0.00     0.068 C 
BRANCH  17  18
ATOM     18  C   UNL A   1      32.565  19.340  23.693  1.00  0.00     0.006 A 
ATOM     19  C   UNL A   1      32.833  18.195  22.969  1.00  0.00     0.015 A 
ATOM     20  S   UNL A   1      32.805  19.038  25.356  1.00  0.00    -0.149 S 
ATOM     21  C   UNL A   1      33.073  17.055  23.796  1.00  0.00     0.012 A 
ATOM     22  C   UNL A   1      33.089  17.381  25.129  1.00  0.00     0.065 A 
ENDBRANCH  17  18
ENDBRANCH  16  17
ENDBRANCH  14  16
ENDBRANCH  11  14
ENDBRANCH   8  10
ENDBRANCH   7   8
ENDBRANCH   6   7
ENDBRANCH   3   6
ENDBRANCH   1   2
BRANCH   1  23
ATOM     23  C   UNL A   1      33.919  31.752  27.790  1.00  0.00     0.021 C 
BRANCH  23  24
ATOM     24  C   UNL A   1      35.378  32.229  27.807  1.00  0.00     0.002 C 
BRANCH  24  25
ATOM     25  C   UNL A   1      35.988  32.489  29.189  1.00  0.00     0.002 C 
BRANCH  25  26
ATOM     26  C   UNL A   1      35.007  32.455  30.373  1.00  0.00     0.021 C 
BRANCH  26  27
ATOM     27  C   UNL A   1      35.376  31.537  31.545  1.00  0.00     0.116 C 
BRANCH  27  28
ATOM     28  N   UNL A   1      35.532  32.223  32.822  1.00  0.00    -0.352 N 
ATOM     29  C   UNL A   1      36.704  32.639  33.435  1.00  0.00     0.251 C 
ATOM     30  H   UNL A   1      34.699  32.416  33.311  1.00  0.00     0.163 HD
ATOM     31  O   UNL A   1      36.690  33.193  34.515  1.00  0.00    -0.269 OA
BRANCH  29  32
ATOM     32  C   UNL A   1      37.987  32.379  32.743  1.00  0.00     0.039 A 
ATOM     33  C   UNL A   1      38.870  31.424  33.237  1.00  0.00     0.014 A 
ATOM     34  C   UNL A   1      38.274  33.047  31.557  1.00  0.00     0.014 A 
ATOM     35  C   UNL A   1      39.998  31.080  32.481  1.00  0.00     0.010 A 
ATOM     36  C   UNL A   1      39.340  32.635  30.758  1.00  0.00     0.010 A 
ATOM     37  C   UNL A   1      40.212  31.632  31.200  1.00  0.00    -0.014 A 
BRANCH  37  38
ATOM     38  C   UNL A   1      41.280  31.091  30.305  1.00  0.00     0.031 A 
ATOM     39  C   UNL A   1      42.582  31.817  30.071  1.00  0.00     0.074 A 
ATOM     40  C   UNL A   1      41.036  29.952  29.618  1.00  0.00     0.049 A 
ATOM     41  N   UNL A   1      43.624  31.430  29.377  1.00  0.00    -0.248 NA
ATOM     42  C   UNL A   1      42.723  33.162  30.648  1.00  0.00     0.031 C 
ATOM     43  C   UNL A   1      39.767  29.220  29.620  1.00  0.00     0.029 A 
ATOM     44  N   UNL A   1      41.839  29.208  28.788  1.00  0.00    -0.354 N 
ATOM     45  C   UNL A   1      44.519  32.495  29.396  1.00  0.00     0.074 A 
ATOM     46  C   UNL A   1      43.879  33.561  30.134  1.00  0.00     0.031 C 
ATOM     47  C   UNL A   1      39.896  28.105  28.888  1.00  0.00     0.029 A 
ATOM     48  C   UNL A   1      41.247  28.048  28.341  1.00  0.00     0.049 A 
ATOM     49  H   UNL A   1      42.753  29.478  28.537  1.00  0.00     0.167 HD
ATOM     50  C   UNL A   1      45.773  32.568  28.884  1.00  0.00     0.034 A 
ATOM     51  C   UNL A   1      41.739  27.035  27.601  1.00  0.00     0.034 A 
ATOM     52  C   UNL A   1      46.439  31.479  28.219  1.00  0.00     0.049 A 
ATOM     53  C   UNL A   1      43.174  27.083  27.155  1.00  0.00     0.074 A 
ATOM     54  C   UNL A   1      47.756  31.401  27.799  1.00  0.00     0.029 A 
ATOM     55  N   UNL A   1      45.841  30.277  27.876  1.00  0.00    -0.354 N 
ATOM     56  N   UNL A   1      44.077  28.007  27.377  1.00  0.00    -0.248 NA
ATOM     57  C   UNL A   1      43.670  25.929  26.389  1.00  0.00     0.031 C 
ATOM     58  C   UNL A   1      47.949  30.157  27.188  1.00  0.00     0.029 A 
ATOM     59  C   UNL A   1      46.756  29.454  27.241  1.00  0.00     0.049 A 
ATOM     60  H   UNL A   1      44.901  30.044  28.056  1.00  0.00     0.167 HD
ATOM     61  C   UNL A   1      45.253  27.534  26.809  1.00  0.00     0.074 A 
ATOM     62  C   UNL A   1      44.956  26.230  26.253  1.00  0.00     0.031 C 
ATOM     63  C   UNL A   1      46.467  28.136  26.739  1.00  0.00     0.034 A 
BRANCH  50  64
ATOM     64  C   UNL A   1      46.546  33.849  29.097  1.00  0.00     0.023 A 
ATOM     65  C   UNL A   1      47.269  34.030  30.294  1.00  0.00     0.012 A 
ATOM     66  C   UNL A   1      46.607  34.843  28.101  1.00  0.00     0.148 A 
ATOM     67  C   UNL A   1      47.998  35.196  30.519  1.00  0.00     0.002 A 
ATOM     68  C   UNL A   1      47.376  35.985  28.313  1.00  0.00     0.091 A 
ATOM     69  F   UNL A   1      45.904  34.667  26.973  1.00  0.00    -0.205 F 
ATOM     70  C   UNL A   1      48.059  36.169  29.525  1.00  0.00     0.022 A 
BRANCH  68  71
ATOM     71  S   UNL A   1      47.584  37.253  27.056  1.00  0.00     0.127 S 
ATOM     72  O   UNL A   1      47.485  38.476  27.850  1.00  0.00    -0.237 OA
ATOM     73  O   UNL A   1      48.927  36.968  26.546  1.00  0.00    -0.237 OA
ATOM     74  O   UNL A   1      46.515  37.036  26.092  1.00  0.00    -0.744 OA
ENDBRANCH  68  71
ENDBRANCH  50  64
BRANCH  51  75
ATOM     75  C   UNL A   1      40.903  25.825  27.354  1.00  0.00     0.023 A 
ATOM     76  C   UNL A   1      39.633  25.985  26.763  1.00  0.00     0.012 A 
ATOM     77  C   UNL A   1      41.365  24.529  27.646  1.00  0.00     0.148 A 
ATOM     78  C   UNL A   1      38.828  24.878  26.494  1.00  0.00     0.002 A 
ATOM     79  C   UNL A   1      40.581  23.426  27.326  1.00  0.00     0.091 A 
ATOM     80  F   UNL A   1      42.572  24.399  28.217  1.00  0.00    -0.205 F 
ATOM     81  C   UNL A   1      39.306  23.599  26.765  1.00  0.00     0.022 A 
BRANCH  79  82
ATOM     82  S   UNL A   1      41.173  21.739  27.509  1.00  0.00     0.127 S 
ATOM     83  O   UNL A   1      40.212  20.995  26.699  1.00  0.00    -0.237 OA
ATOM     84  O   UNL A   1      42.520  21.827  26.943  1.00  0.00    -0.237 OA
ATOM     85  O   UNL A   1      41.143  21.468  28.940  1.00  0.00    -0.744 OA
ENDBRANCH  79  82
ENDBRANCH  51  75
BRANCH  63  86
ATOM     86  C   UNL A   1      47.580  27.385  26.054  1.00  0.00     0.023 A 
ATOM     87  C   UNL A   1      47.679  27.416  24.649  1.00  0.00     0.012 A 
ATOM     88  C   UNL A   1      48.563  26.710  26.803  1.00  0.00     0.148 A 
ATOM     89  C   UNL A   1      48.723  26.759  23.997  1.00  0.00     0.002 A 
ATOM     90  C   UNL A   1      49.626  26.097  26.148  1.00  0.00     0.091 A 
ATOM     91  F   UNL A   1      48.440  26.672  28.138  1.00  0.00    -0.205 F 
ATOM     92  C   UNL A   1      49.701  26.111  24.747  1.00  0.00     0.022 A 
BRANCH  90  93
ATOM     93  S   UNL A   1      50.980  25.319  27.039  1.00  0.00     0.127 S 
ATOM     94  O   UNL A   1      51.804  24.810  25.945  1.00  0.00    -0.237 OA
ATOM     95  O   UNL A   1      51.563  26.446  27.768  1.00  0.00    -0.237 OA
ATOM     96  O   UNL A   1      50.366  24.307  27.888  1.00  0.00    -0.744 OA
ENDBRANCH  90  93
ENDBRANCH  63  86
ENDBRANCH  37  38
ENDBRANCH  29  32
ENDBRANCH  27  28
ENDBRANCH  26  27
ENDBRANCH  25  26
ENDBRANCH  24  25
ENDBRANCH  23  24
ENDBRANCH   1  23
TORSDOF 23
ENDMDL
