MODEL 1
REMARK VINA RESULT:     -11.4      0.000      0.000
REMARK SMILES Cc1nc(=O)[nH]c(C)c1CC(=O)N1CC[C@H](C(=O)NCCCCCCNC(=O)c2ccc(-c3c4nc(c(-c5cccc(S(=O)(=O)[O-])c5F)c5ccc([nH]5)c(-c5cccc(S(=O)(=O)[O-])c5F)c5nc(c(-c6cccc(S(=O)(=O)[O-])c6F)c6ccc3[nH]6)C=C5)C=C4)cc2)[C@@H]1C
REMARK SMILES IDX 22 1 21 2 20 3 19 4 17 5 18 6 16 8 13 9 14 10 92 11 15 12
REMARK SMILES IDX 93 13 11 14 12 15 10 16 9 17 1 18 2 19 3 20 4 21 7 22 5 23
REMARK SMILES IDX 6 24 8 25 23 27 24 28 25 29 26 30 27 31 28 33 29 34 30 35
REMARK SMILES IDX 91 36 31 37 90 38 32 39 33 40 34 41 84 42 35 43 89 44 83 45
REMARK SMILES IDX 85 46 36 47 88 48 82 49 81 50 37 52 69 53 49 54 68 55 50 56
REMARK SMILES IDX 53 57 67 58 86 59 51 60 52 61 66 63 87 64 54 65 38 66 39 67
REMARK SMILES IDX 47 68 40 69 42 70 48 71 41 72 43 73 44 74 45 75 46 76 70 77
REMARK SMILES IDX 71 78 79 79 72 80 74 81 80 82 73 83 75 84 76 85 77 86 78 87
REMARK SMILES IDX 55 88 56 89 64 90 57 91 59 92 65 93 58 94 60 95 61 96 62 97
REMARK SMILES IDX 63 98
REMARK H PARENT 19 7 6 26 26 32 85 51 53 62
REMARK Flexibility Score: inf
ROOT
ATOM      1  C   UNL A   1      36.896  22.216  23.882  1.00  0.00     0.002 C 
ENDROOT
BRANCH   1   2
ATOM      2  C   UNL A   1      35.679  23.062  24.267  1.00  0.00     0.021 C 
BRANCH   2   3
ATOM      3  C   UNL A   1      34.742  22.412  25.280  1.00  0.00     0.116 C 
BRANCH   3   4
ATOM      4  N   UNL A   1      33.979  21.307  24.725  1.00  0.00    -0.356 N 
ATOM      5  C   UNL A   1      32.757  21.217  24.145  1.00  0.00     0.225 C 
ATOM      6  O   UNL A   1      32.506  20.131  23.600  1.00  0.00    -0.275 OA
ATOM      7  H   UNL A   1      34.447  20.442  24.784  1.00  0.00     0.163 HD
BRANCH   5   8
ATOM      8  C   UNL A   1      31.638  22.269  24.199  1.00  0.00     0.102 C 
ATOM      9  N   UNL A   1      32.220  24.454  24.932  1.00  0.00    -0.339 N 
ATOM     10  C   UNL A   1      32.005  23.623  26.117  1.00  0.00     0.120 C 
ATOM     11  C   UNL A   1      31.840  23.714  23.709  1.00  0.00     0.094 C 
ATOM     12  C   UNL A   1      31.174  22.451  25.637  1.00  0.00     0.037 C 
ATOM     13  C   UNL A   1      32.751  23.755  22.488  1.00  0.00     0.032 C 
BRANCH   9  14
ATOM     14  C   UNL A   1      32.616  25.757  25.162  1.00  0.00     0.227 C 
ATOM     15  O   UNL A   1      33.820  26.043  25.122  1.00  0.00    -0.275 OA
BRANCH  14  16
ATOM     16  C   UNL A   1      31.632  26.812  25.663  1.00  0.00     0.139 C 
BRANCH  16  17
ATOM     17  C   UNL A   1      31.081  27.769  24.659  1.00  0.00     0.002 A 
ATOM     18  C   UNL A   1      29.084  26.161  24.085  1.00  0.00     0.067 C 
ATOM     19  C   UNL A   1      29.895  27.414  23.813  1.00  0.00     0.049 A 
ATOM     20  N   UNL A   1      29.489  28.099  22.792  1.00  0.00    -0.198 NA
ATOM     21  C   UNL A   1      30.126  29.266  22.481  1.00  0.00     0.345 A 
ATOM     22  C   UNL A   1      31.579  28.997  24.407  1.00  0.00     0.022 A 
ATOM     23  O   UNL A   1      29.895  29.890  21.447  1.00  0.00    -0.246 OA
ATOM     24  N   UNL A   1      31.085  29.715  23.348  1.00  0.00    -0.310 N 
ATOM     25  C   UNL A   1      32.726  29.650  25.132  1.00  0.00     0.065 C 
ATOM     26  H   UNL A   1      31.445  30.620  23.201  1.00  0.00     0.171 HD
ENDBRANCH  16  17
ENDBRANCH  14  16
ENDBRANCH   9  14
ENDBRANCH   5   8
ENDBRANCH   3   4
ENDBRANCH   2   3
ENDBRANCH   1   2
BRANCH   1  27
ATOM     27  C   UNL A   1      37.783  21.753  25.043  1.00  0.00     0.002 C 
BRANCH  27  28
ATOM     28  C   UNL A   1      38.298  20.314  24.964  1.00  0.00     0.021 C 
BRANCH  28  29
ATOM     29  C   UNL A   1      38.889  19.754  26.254  1.00  0.00     0.116 C 
BRANCH  29  30
ATOM     30  N   UNL A   1      40.107  18.994  26.035  1.00  0.00    -0.352 N 
ATOM     31  C   UNL A   1      41.410  19.430  26.015  1.00  0.00     0.251 C 
ATOM     32  H   UNL A   1      39.982  18.029  25.879  1.00  0.00     0.163 HD
ATOM     33  O   UNL A   1      42.308  18.661  25.684  1.00  0.00    -0.269 OA
BRANCH  31  34
ATOM     34  C   UNL A   1      41.723  20.832  26.364  1.00  0.00     0.039 A 
ATOM     35  C   UNL A   1      42.008  21.147  27.695  1.00  0.00     0.014 A 
ATOM     36  C   UNL A   1      41.744  21.831  25.387  1.00  0.00     0.014 A 
ATOM     37  C   UNL A   1      42.369  22.453  28.037  1.00  0.00     0.010 A 
ATOM     38  C   UNL A   1      42.174  23.114  25.716  1.00  0.00     0.010 A 
ATOM     39  C   UNL A   1      42.486  23.441  27.045  1.00  0.00    -0.014 A 
BRANCH  39  40
ATOM     40  C   UNL A   1      42.941  24.817  27.375  1.00  0.00     0.031 A 
ATOM     41  C   UNL A   1      41.986  25.799  28.001  1.00  0.00     0.074 A 
ATOM     42  C   UNL A   1      44.182  25.214  27.026  1.00  0.00     0.049 A 
ATOM     43  N   UNL A   1      42.171  27.063  28.284  1.00  0.00    -0.248 NA
ATOM     44  C   UNL A   1      40.637  25.307  28.331  1.00  0.00     0.031 C 
ATOM     45  C   UNL A   1      45.178  24.381  26.346  1.00  0.00     0.029 A 
ATOM     46  N   UNL A   1      44.808  26.429  27.163  1.00  0.00    -0.354 N 
ATOM     47  C   UNL A   1      40.957  27.526  28.775  1.00  0.00     0.074 A 
ATOM     48  C   UNL A   1      40.034  26.415  28.740  1.00  0.00     0.031 C 
ATOM     49  C   UNL A   1      46.281  25.111  26.117  1.00  0.00     0.029 A 
ATOM     50  C   UNL A   1      46.063  26.471  26.600  1.00  0.00     0.049 A 
ATOM     51  H   UNL A   1      44.397  27.198  27.620  1.00  0.00     0.167 HD
ATOM     52  C   UNL A   1      40.645  28.761  29.234  1.00  0.00     0.034 A 
ATOM     53  C   UNL A   1      46.931  27.494  26.467  1.00  0.00     0.034 A 
ATOM     54  C   UNL A   1      41.581  29.849  29.322  1.00  0.00     0.049 A 
ATOM     55  C   UNL A   1      46.569  28.842  27.030  1.00  0.00     0.074 A 
ATOM     56  C   UNL A   1      41.388  31.102  29.878  1.00  0.00     0.029 A 
ATOM     57  N   UNL A   1      42.875  29.823  28.834  1.00  0.00    -0.354 N 
ATOM     58  N   UNL A   1      45.476  29.209  27.651  1.00  0.00    -0.248 NA
ATOM     59  C   UNL A   1      47.575  29.909  26.907  1.00  0.00     0.031 C 
ATOM     60  C   UNL A   1      42.554  31.847  29.692  1.00  0.00     0.029 A 
ATOM     61  C   UNL A   1      43.488  31.043  29.058  1.00  0.00     0.049 A 
ATOM     62  H   UNL A   1      43.299  29.050  28.394  1.00  0.00     0.167 HD
ATOM     63  C   UNL A   1      45.678  30.531  28.029  1.00  0.00     0.074 A 
ATOM     64  C   UNL A   1      47.007  30.896  27.587  1.00  0.00     0.031 C 
ATOM     65  C   UNL A   1      44.834  31.373  28.673  1.00  0.00     0.034 A 
BRANCH  52  66
ATOM     66  C   UNL A   1      39.243  29.009  29.725  1.00  0.00     0.023 A 
ATOM     67  C   UNL A   1      38.889  28.655  31.041  1.00  0.00     0.012 A 
ATOM     68  C   UNL A   1      38.316  29.698  28.917  1.00  0.00     0.148 A 
ATOM     69  C   UNL A   1      37.626  28.969  31.542  1.00  0.00     0.002 A 
ATOM     70  C   UNL A   1      37.078  30.047  29.439  1.00  0.00     0.091 A 
ATOM     71  F   UNL A   1      38.670  30.009  27.662  1.00  0.00    -0.205 F 
ATOM     72  C   UNL A   1      36.727  29.675  30.748  1.00  0.00     0.022 A 
BRANCH  70  73
ATOM     73  S   UNL A   1      35.882  31.032  28.530  1.00  0.00     0.127 S 
ATOM     74  O   UNL A   1      34.884  31.312  29.562  1.00  0.00    -0.237 OA
ATOM     75  O   UNL A   1      36.682  32.187  28.125  1.00  0.00    -0.237 OA
ATOM     76  O   UNL A   1      35.417  30.194  27.433  1.00  0.00    -0.744 OA
ENDBRANCH  70  73
ENDBRANCH  52  66
BRANCH  53  77
ATOM     77  C   UNL A   1      48.246  27.285  25.793  1.00  0.00     0.023 A 
ATOM     78  C   UNL A   1      49.375  26.928  26.557  1.00  0.00     0.012 A 
ATOM     79  C   UNL A   1      48.386  27.460  24.404  1.00  0.00     0.148 A 
ATOM     80  C   UNL A   1      50.628  26.799  25.956  1.00  0.00     0.002 A 
ATOM     81  C   UNL A   1      49.624  27.270  23.803  1.00  0.00     0.091 A 
ATOM     82  F   UNL A   1      47.305  27.814  23.694  1.00  0.00    -0.205 F 
ATOM     83  C   UNL A   1      50.751  26.962  24.579  1.00  0.00     0.022 A 
BRANCH  81  84
ATOM     84  S   UNL A   1      49.835  27.330  22.021  1.00  0.00     0.127 S 
ATOM     85  O   UNL A   1      49.643  28.750  21.744  1.00  0.00    -0.237 OA
ATOM     86  O   UNL A   1      51.208  26.849  21.862  1.00  0.00    -0.237 OA
ATOM     87  O   UNL A   1      48.822  26.432  21.482  1.00  0.00    -0.744 OA
ENDBRANCH  81  84
ENDBRANCH  53  77
BRANCH  65  88
ATOM     88  C   UNL A   1      45.331  32.756  29.001  1.00  0.00     0.023 A 
ATOM     89  C   UNL A   1      45.952  33.010  30.239  1.00  0.00     0.012 A 
ATOM     90  C   UNL A   1      45.256  33.784  28.039  1.00  0.00     0.148 A 
ATOM     91  C   UNL A   1      46.464  34.274  30.526  1.00  0.00     0.002 A 
ATOM     92  C   UNL A   1      45.817  35.024  28.311  1.00  0.00     0.091 A 
ATOM     93  F   UNL A   1      44.646  33.525  26.873  1.00  0.00    -0.205 F 
ATOM     94  C   UNL A   1      46.409  35.276  29.560  1.00  0.00     0.022 A 
BRANCH  92  95
ATOM     95  S   UNL A   1      45.885  36.340  27.092  1.00  0.00     0.127 S 
ATOM     96  O   UNL A   1      44.485  36.760  27.029  1.00  0.00    -0.237 OA
ATOM     97  O   UNL A   1      46.783  37.305  27.727  1.00  0.00    -0.237 OA
ATOM     98  O   UNL A   1      46.409  35.736  25.874  1.00  0.00    -0.744 OA
ENDBRANCH  92  95
ENDBRANCH  65  88
ENDBRANCH  39  40
ENDBRANCH  31  34
ENDBRANCH  29  30
ENDBRANCH  28  29
ENDBRANCH  27  28
ENDBRANCH   1  27
TORSDOF 19
ENDMDL
MODEL 2
REMARK VINA RESULT:     -11.2      5.997     11.464
REMARK SMILES Cc1nc(=O)[nH]c(C)c1CC(=O)N1CC[C@H](C(=O)NCCCCCCNC(=O)c2ccc(-c3c4nc(c(-c5cccc(S(=O)(=O)[O-])c5F)c5ccc([nH]5)c(-c5cccc(S(=O)(=O)[O-])c5F)c5nc(c(-c6cccc(S(=O)(=O)[O-])c6F)c6ccc3[nH]6)C=C5)C=C4)cc2)[C@@H]1C
REMARK SMILES IDX 22 1 21 2 20 3 19 4 17 5 18 6 16 8 13 9 14 10 92 11 15 12
REMARK SMILES IDX 93 13 11 14 12 15 10 16 9 17 1 18 2 19 3 20 4 21 7 22 5 23
REMARK SMILES IDX 6 24 8 25 23 27 24 28 25 29 26 30 27 31 28 33 29 34 30 35
REMARK SMILES IDX 91 36 31 37 90 38 32 39 33 40 34 41 84 42 35 43 89 44 83 45
REMARK SMILES IDX 85 46 36 47 88 48 82 49 81 50 37 52 69 53 49 54 68 55 50 56
REMARK SMILES IDX 53 57 67 58 86 59 51 60 52 61 66 63 87 64 54 65 38 66 39 67
REMARK SMILES IDX 47 68 40 69 42 70 48 71 41 72 43 73 44 74 45 75 46 76 70 77
REMARK SMILES IDX 71 78 79 79 72 80 74 81 80 82 73 83 75 84 76 85 77 86 78 87
REMARK SMILES IDX 55 88 56 89 64 90 57 91 59 92 65 93 58 94 60 95 61 96 62 97
REMARK SMILES IDX 63 98
REMARK H PARENT 19 7 6 26 26 32 85 51 53 62
REMARK Flexibility Score: inf
ROOT
ATOM      1  C   UNL A   1      31.403  29.872  25.186  1.00  0.00     0.002 C 
ENDROOT
BRANCH   1   2
ATOM      2  C   UNL A   1      31.107  29.374  23.769  1.00  0.00     0.021 C 
BRANCH   2   3
ATOM      3  C   UNL A   1      30.008  28.320  23.676  1.00  0.00     0.116 C 
BRANCH   3   4
ATOM      4  N   UNL A   1      30.280  27.139  24.478  1.00  0.00    -0.356 N 
ATOM      5  C   UNL A   1      31.414  26.460  24.781  1.00  0.00     0.225 C 
ATOM      6  O   UNL A   1      31.297  25.602  25.669  1.00  0.00    -0.275 OA
ATOM      7  H   UNL A   1      29.472  26.751  24.886  1.00  0.00     0.163 HD
BRANCH   5   8
ATOM      8  C   UNL A   1      32.767  26.571  24.063  1.00  0.00     0.102 C 
ATOM      9  N   UNL A   1      34.235  24.705  24.191  1.00  0.00    -0.339 N 
ATOM     10  C   UNL A   1      34.398  25.492  25.413  1.00  0.00     0.120 C 
ATOM     11  C   UNL A   1      33.359  25.417  23.234  1.00  0.00     0.094 C 
ATOM     12  C   UNL A   1      33.864  26.868  25.077  1.00  0.00     0.037 C 
ATOM     13  C   UNL A   1      32.262  24.652  22.502  1.00  0.00     0.032 C 
BRANCH   9  14
ATOM     14  C   UNL A   1      34.978  23.544  24.106  1.00  0.00     0.227 C 
ATOM     15  O   UNL A   1      35.391  23.165  23.003  1.00  0.00    -0.275 OA
BRANCH  14  16
ATOM     16  C   UNL A   1      35.134  22.610  25.305  1.00  0.00     0.139 C 
BRANCH  16  17
ATOM     17  C   UNL A   1      34.300  21.373  25.325  1.00  0.00     0.002 A 
ATOM     18  C   UNL A   1      36.373  19.855  24.775  1.00  0.00     0.067 C 
ATOM     19  C   UNL A   1      34.879  20.037  24.967  1.00  0.00     0.049 A 
ATOM     20  N   UNL A   1      34.183  18.964  24.766  1.00  0.00    -0.198 NA
ATOM     21  C   UNL A   1      32.831  19.008  24.949  1.00  0.00     0.345 A 
ATOM     22  C   UNL A   1      32.989  21.329  25.639  1.00  0.00     0.022 A 
ATOM     23  O   UNL A   1      32.090  18.076  24.635  1.00  0.00    -0.246 OA
ATOM     24  N   UNL A   1      32.297  20.158  25.463  1.00  0.00    -0.310 N 
ATOM     25  C   UNL A   1      32.151  22.495  26.092  1.00  0.00     0.065 C 
ATOM     26  H   UNL A   1      31.348  20.143  25.725  1.00  0.00     0.171 HD
ENDBRANCH  16  17
ENDBRANCH  14  16
ENDBRANCH   9  14
ENDBRANCH   5   8
ENDBRANCH   3   4
ENDBRANCH   2   3
ENDBRANCH   1   2
BRANCH   1  27
ATOM     27  C   UNL A   1      30.944  31.299  25.503  1.00  0.00     0.002 C 
BRANCH  27  28
ATOM     28  C   UNL A   1      31.295  31.825  26.898  1.00  0.00     0.021 C 
BRANCH  28  29
ATOM     29  C   UNL A   1      32.609  32.591  27.002  1.00  0.00     0.116 C 
BRANCH  29  30
ATOM     30  N   UNL A   1      32.443  33.925  27.552  1.00  0.00    -0.352 N 
ATOM     31  C   UNL A   1      33.138  34.539  28.566  1.00  0.00     0.251 C 
ATOM     32  H   UNL A   1      31.732  34.468  27.139  1.00  0.00     0.163 HD
ATOM     33  O   UNL A   1      32.772  35.633  28.985  1.00  0.00    -0.269 OA
BRANCH  31  34
ATOM     34  C   UNL A   1      34.309  33.866  29.169  1.00  0.00     0.039 A 
ATOM     35  C   UNL A   1      35.590  34.306  28.824  1.00  0.00     0.014 A 
ATOM     36  C   UNL A   1      34.149  32.813  30.073  1.00  0.00     0.014 A 
ATOM     37  C   UNL A   1      36.708  33.728  29.431  1.00  0.00     0.010 A 
ATOM     38  C   UNL A   1      35.259  32.288  30.729  1.00  0.00     0.010 A 
ATOM     39  C   UNL A   1      36.551  32.735  30.412  1.00  0.00    -0.014 A 
BRANCH  39  40
ATOM     40  C   UNL A   1      37.722  32.160  31.123  1.00  0.00     0.031 A 
ATOM     41  C   UNL A   1      38.493  31.020  30.511  1.00  0.00     0.074 A 
ATOM     42  C   UNL A   1      38.036  32.598  32.360  1.00  0.00     0.049 A 
ATOM     43  N   UNL A   1      39.487  30.333  31.014  1.00  0.00    -0.248 NA
ATOM     44  C   UNL A   1      38.078  30.573  29.170  1.00  0.00     0.031 C 
ATOM     45  C   UNL A   1      37.322  33.645  33.095  1.00  0.00     0.029 A 
ATOM     46  N   UNL A   1      39.016  32.194  33.234  1.00  0.00    -0.354 N 
ATOM     47  C   UNL A   1      39.782  29.349  30.079  1.00  0.00     0.074 A 
ATOM     48  C   UNL A   1      38.855  29.514  28.982  1.00  0.00     0.031 C 
ATOM     49  C   UNL A   1      37.879  33.793  34.308  1.00  0.00     0.029 A 
ATOM     50  C   UNL A   1      38.966  32.830  34.453  1.00  0.00     0.049 A 
ATOM     51  H   UNL A   1      39.690  31.512  33.009  1.00  0.00     0.167 HD
ATOM     52  C   UNL A   1      40.753  28.407  30.120  1.00  0.00     0.034 A 
ATOM     53  C   UNL A   1      39.698  32.644  35.570  1.00  0.00     0.034 A 
ATOM     54  C   UNL A   1      41.711  28.281  31.184  1.00  0.00     0.049 A 
ATOM     55  C   UNL A   1      40.799  31.618  35.564  1.00  0.00     0.074 A 
ATOM     56  C   UNL A   1      42.800  27.430  31.260  1.00  0.00     0.029 A 
ATOM     57  N   UNL A   1      41.691  29.012  32.359  1.00  0.00    -0.354 N 
ATOM     58  N   UNL A   1      41.174  30.817  34.598  1.00  0.00    -0.248 NA
ATOM     59  C   UNL A   1      41.604  31.495  36.790  1.00  0.00     0.031 C 
ATOM     60  C   UNL A   1      43.417  27.620  32.498  1.00  0.00     0.029 A 
ATOM     61  C   UNL A   1      42.737  28.619  33.176  1.00  0.00     0.049 A 
ATOM     62  H   UNL A   1      41.031  29.708  32.581  1.00  0.00     0.167 HD
ATOM     63  C   UNL A   1      42.280  30.127  35.082  1.00  0.00     0.074 A 
ATOM     64  C   UNL A   1      42.529  30.619  36.420  1.00  0.00     0.031 C 
ATOM     65  C   UNL A   1      43.015  29.163  34.478  1.00  0.00     0.034 A 
BRANCH  52  66
ATOM     66  C   UNL A   1      40.870  27.450  28.963  1.00  0.00     0.023 A 
ATOM     67  C   UNL A   1      39.947  26.394  28.830  1.00  0.00     0.012 A 
ATOM     68  C   UNL A   1      41.823  27.671  27.948  1.00  0.00     0.148 A 
ATOM     69  C   UNL A   1      39.981  25.561  27.713  1.00  0.00     0.002 A 
ATOM     70  C   UNL A   1      41.820  26.865  26.817  1.00  0.00     0.091 A 
ATOM     71  F   UNL A   1      42.702  28.671  28.104  1.00  0.00    -0.205 F 
ATOM     72  C   UNL A   1      40.907  25.804  26.701  1.00  0.00     0.022 A 
BRANCH  70  73
ATOM     73  S   UNL A   1      42.913  27.148  25.419  1.00  0.00     0.127 S 
ATOM     74  O   UNL A   1      42.237  28.248  24.734  1.00  0.00    -0.237 OA
ATOM     75  O   UNL A   1      44.164  27.518  26.080  1.00  0.00    -0.237 OA
ATOM     76  O   UNL A   1      42.958  25.894  24.680  1.00  0.00    -0.744 OA
ENDBRANCH  70  73
ENDBRANCH  52  66
BRANCH  53  77
ATOM     77  C   UNL A   1      39.437  33.464  36.789  1.00  0.00     0.023 A 
ATOM     78  C   UNL A   1      39.958  34.771  36.878  1.00  0.00     0.012 A 
ATOM     79  C   UNL A   1      38.694  32.948  37.867  1.00  0.00     0.148 A 
ATOM     80  C   UNL A   1      39.786  35.527  38.038  1.00  0.00     0.002 A 
ATOM     81  C   UNL A   1      38.474  33.729  38.994  1.00  0.00     0.091 A 
ATOM     82  F   UNL A   1      38.218  31.698  37.771  1.00  0.00    -0.205 F 
ATOM     83  C   UNL A   1      39.038  35.010  39.092  1.00  0.00     0.022 A 
BRANCH  81  84
ATOM     84  S   UNL A   1      37.411  33.186  40.335  1.00  0.00     0.127 S 
ATOM     85  O   UNL A   1      36.183  32.843  39.624  1.00  0.00    -0.237 OA
ATOM     86  O   UNL A   1      38.156  32.044  40.868  1.00  0.00    -0.237 OA
ATOM     87  O   UNL A   1      37.327  34.321  41.245  1.00  0.00    -0.744 OA
ENDBRANCH  81  84
ENDBRANCH  53  77
BRANCH  65  88
ATOM     88  C   UNL A   1      44.201  28.609  35.223  1.00  0.00     0.023 A 
ATOM     89  C   UNL A   1      45.477  29.175  35.041  1.00  0.00     0.012 A 
ATOM     90  C   UNL A   1      44.027  27.579  36.170  1.00  0.00     0.148 A 
ATOM     91  C   UNL A   1      46.569  28.704  35.769  1.00  0.00     0.002 A 
ATOM     92  C   UNL A   1      45.108  27.153  36.930  1.00  0.00     0.091 A 
ATOM     93  F   UNL A   1      42.806  27.044  36.315  1.00  0.00    -0.205 F 
ATOM     94  C   UNL A   1      46.383  27.704  36.721  1.00  0.00     0.022 A 
BRANCH  92  95
ATOM     95  S   UNL A   1      44.942  25.946  38.249  1.00  0.00     0.127 S 
ATOM     96  O   UNL A   1      43.898  26.549  39.075  1.00  0.00    -0.237 OA
ATOM     97  O   UNL A   1      44.526  24.747  37.520  1.00  0.00    -0.237 OA
ATOM     98  O   UNL A   1      46.254  25.849  38.875  1.00  0.00    -0.744 OA
ENDBRANCH  92  95
ENDBRANCH  65  88
ENDBRANCH  39  40
ENDBRANCH  31  34
ENDBRANCH  29  30
ENDBRANCH  28  29
ENDBRANCH  27  28
ENDBRANCH   1  27
TORSDOF 19
ENDMDL
MODEL 3
REMARK VINA RESULT:     -11.1      5.346      9.178
REMARK SMILES Cc1nc(=O)[nH]c(C)c1CC(=O)N1CC[C@H](C(=O)NCCCCCCNC(=O)c2ccc(-c3c4nc(c(-c5cccc(S(=O)(=O)[O-])c5F)c5ccc([nH]5)c(-c5cccc(S(=O)(=O)[O-])c5F)c5nc(c(-c6cccc(S(=O)(=O)[O-])c6F)c6ccc3[nH]6)C=C5)C=C4)cc2)[C@@H]1C
REMARK SMILES IDX 22 1 21 2 20 3 19 4 17 5 18 6 16 8 13 9 14 10 92 11 15 12
REMARK SMILES IDX 93 13 11 14 12 15 10 16 9 17 1 18 2 19 3 20 4 21 7 22 5 23
REMARK SMILES IDX 6 24 8 25 23 27 24 28 25 29 26 30 27 31 28 33 29 34 30 35
REMARK SMILES IDX 91 36 31 37 90 38 32 39 33 40 34 41 84 42 35 43 89 44 83 45
REMARK SMILES IDX 85 46 36 47 88 48 82 49 81 50 37 52 69 53 49 54 68 55 50 56
REMARK SMILES IDX 53 57 67 58 86 59 51 60 52 61 66 63 87 64 54 65 38 66 39 67
REMARK SMILES IDX 47 68 40 69 42 70 48 71 41 72 43 73 44 74 45 75 46 76 70 77
REMARK SMILES IDX 71 78 79 79 72 80 74 81 80 82 73 83 75 84 76 85 77 86 78 87
REMARK SMILES IDX 55 88 56 89 64 90 57 91 59 92 65 93 58 94 60 95 61 96 62 97
REMARK SMILES IDX 63 98
REMARK H PARENT 19 7 6 26 26 32 85 51 53 62
REMARK Flexibility Score: inf
ROOT
ATOM      1  C   UNL A   1      31.428  29.475  24.011  1.00  0.00     0.002 C 
ENDROOT
BRANCH   1   2
ATOM      2  C   UNL A   1      30.067  29.092  23.424  1.00  0.00     0.021 C 
BRANCH   2   3
ATOM      3  C   UNL A   1      30.016  27.714  22.773  1.00  0.00     0.116 C 
BRANCH   3   4
ATOM      4  N   UNL A   1      30.177  26.627  23.723  1.00  0.00    -0.356 N 
ATOM      5  C   UNL A   1      31.256  26.075  24.333  1.00  0.00     0.225 C 
ATOM      6  O   UNL A   1      30.999  25.282  25.250  1.00  0.00    -0.275 OA
ATOM      7  H   UNL A   1      29.327  26.202  23.977  1.00  0.00     0.163 HD
BRANCH   5   8
ATOM      8  C   UNL A   1      32.727  26.249  23.925  1.00  0.00     0.102 C 
ATOM      9  N   UNL A   1      34.215  24.453  24.390  1.00  0.00    -0.339 N 
ATOM     10  C   UNL A   1      34.072  25.249  25.610  1.00  0.00     0.120 C 
ATOM     11  C   UNL A   1      33.537  25.122  23.258  1.00  0.00     0.094 C 
ATOM     12  C   UNL A   1      33.562  26.598  25.149  1.00  0.00     0.037 C 
ATOM     13  C   UNL A   1      32.662  24.306  22.313  1.00  0.00     0.032 C 
BRANCH   9  14
ATOM     14  C   UNL A   1      35.011  23.329  24.482  1.00  0.00     0.227 C 
ATOM     15  O   UNL A   1      35.771  23.043  23.548  1.00  0.00    -0.275 OA
BRANCH  14  16
ATOM     16  C   UNL A   1      34.833  22.318  25.614  1.00  0.00     0.139 C 
BRANCH  16  17
ATOM     17  C   UNL A   1      34.239  20.994  25.266  1.00  0.00     0.002 A 
ATOM     18  C   UNL A   1      31.795  21.951  25.405  1.00  0.00     0.067 C 
ATOM     19  C   UNL A   1      32.754  20.783  25.262  1.00  0.00     0.049 A 
ATOM     20  N   UNL A   1      32.176  19.629  25.172  1.00  0.00    -0.198 NA
ATOM     21  C   UNL A   1      32.945  18.514  25.002  1.00  0.00     0.345 A 
ATOM     22  C   UNL A   1      34.944  19.890  24.947  1.00  0.00     0.022 A 
ATOM     23  O   UNL A   1      32.482  17.375  25.057  1.00  0.00    -0.246 OA
ATOM     24  N   UNL A   1      34.288  18.694  24.807  1.00  0.00    -0.310 N 
ATOM     25  C   UNL A   1      36.441  19.807  24.814  1.00  0.00     0.065 C 
ATOM     26  H   UNL A   1      34.820  17.907  24.546  1.00  0.00     0.171 HD
ENDBRANCH  16  17
ENDBRANCH  14  16
ENDBRANCH   9  14
ENDBRANCH   5   8
ENDBRANCH   3   4
ENDBRANCH   2   3
ENDBRANCH   1   2
BRANCH   1  27
ATOM     27  C   UNL A   1      31.410  30.020  25.443  1.00  0.00     0.002 C 
BRANCH  27  28
ATOM     28  C   UNL A   1      32.774  30.338  26.061  1.00  0.00     0.021 C 
BRANCH  28  29
ATOM     29  C   UNL A   1      32.737  31.018  27.426  1.00  0.00     0.116 C 
BRANCH  29  30
ATOM     30  N   UNL A   1      33.032  32.439  27.357  1.00  0.00    -0.352 N 
ATOM     31  C   UNL A   1      34.137  33.119  27.809  1.00  0.00     0.251 C 
ATOM     32  H   UNL A   1      32.342  32.994  26.925  1.00  0.00     0.163 HD
ATOM     33  O   UNL A   1      34.156  34.346  27.779  1.00  0.00    -0.269 OA
BRANCH  31  34
ATOM     34  C   UNL A   1      35.289  32.372  28.357  1.00  0.00     0.039 A 
ATOM     35  C   UNL A   1      36.546  32.983  28.366  1.00  0.00     0.014 A 
ATOM     36  C   UNL A   1      35.134  31.080  28.866  1.00  0.00     0.014 A 
ATOM     37  C   UNL A   1      37.635  32.321  28.937  1.00  0.00     0.010 A 
ATOM     38  C   UNL A   1      36.204  30.451  29.499  1.00  0.00     0.010 A 
ATOM     39  C   UNL A   1      37.467  31.062  29.537  1.00  0.00    -0.014 A 
BRANCH  39  40
ATOM     40  C   UNL A   1      38.595  30.373  30.217  1.00  0.00     0.031 A 
ATOM     41  C   UNL A   1      39.021  30.800  31.597  1.00  0.00     0.074 A 
ATOM     42  C   UNL A   1      39.296  29.427  29.558  1.00  0.00     0.049 A 
ATOM     43  N   UNL A   1      40.030  30.378  32.315  1.00  0.00    -0.248 NA
ATOM     44  C   UNL A   1      38.227  31.857  32.247  1.00  0.00     0.031 C 
ATOM     45  C   UNL A   1      39.032  28.976  28.189  1.00  0.00     0.029 A 
ATOM     46  N   UNL A   1      40.398  28.699  29.937  1.00  0.00    -0.354 N 
ATOM     47  C   UNL A   1      40.022  31.146  33.473  1.00  0.00     0.074 A 
ATOM     48  C   UNL A   1      38.918  32.073  33.358  1.00  0.00     0.031 C 
ATOM     49  C   UNL A   1      39.950  28.060  27.841  1.00  0.00     0.029 A 
ATOM     50  C   UNL A   1      40.888  27.881  28.944  1.00  0.00     0.049 A 
ATOM     51  H   UNL A   1      40.800  28.758  30.833  1.00  0.00     0.167 HD
ATOM     52  C   UNL A   1      40.846  31.073  34.544  1.00  0.00     0.034 A 
ATOM     53  C   UNL A   1      41.982  27.093  28.918  1.00  0.00     0.034 A 
ATOM     54  C   UNL A   1      41.907  30.112  34.680  1.00  0.00     0.049 A 
ATOM     55  C   UNL A   1      42.850  27.001  30.144  1.00  0.00     0.074 A 
ATOM     56  C   UNL A   1      42.722  29.887  35.776  1.00  0.00     0.029 A 
ATOM     57  N   UNL A   1      42.309  29.230  33.693  1.00  0.00    -0.354 N 
ATOM     58  N   UNL A   1      42.718  27.611  31.295  1.00  0.00    -0.248 NA
ATOM     59  C   UNL A   1      44.000  26.084  30.080  1.00  0.00     0.031 C 
ATOM     60  C   UNL A   1      43.643  28.893  35.438  1.00  0.00     0.029 A 
ATOM     61  C   UNL A   1      43.374  28.470  34.146  1.00  0.00     0.049 A 
ATOM     62  H   UNL A   1      41.899  29.153  32.801  1.00  0.00     0.167 HD
ATOM     63  C   UNL A   1      43.737  27.122  32.104  1.00  0.00     0.074 A 
ATOM     64  C   UNL A   1      44.467  26.150  31.320  1.00  0.00     0.031 C 
ATOM     65  C   UNL A   1      44.049  27.458  33.379  1.00  0.00     0.034 A 
BRANCH  52  66
ATOM     66  C   UNL A   1      40.620  32.026  35.687  1.00  0.00     0.023 A 
ATOM     67  C   UNL A   1      41.442  33.162  35.825  1.00  0.00     0.012 A 
ATOM     68  C   UNL A   1      39.521  31.855  36.553  1.00  0.00     0.148 A 
ATOM     69  C   UNL A   1      41.184  34.105  36.818  1.00  0.00     0.002 A 
ATOM     70  C   UNL A   1      39.244  32.823  37.509  1.00  0.00     0.091 A 
ATOM     71  F   UNL A   1      38.763  30.758  36.414  1.00  0.00    -0.205 F 
ATOM     72  C   UNL A   1      40.079  33.944  37.651  1.00  0.00     0.022 A 
BRANCH  70  73
ATOM     73  S   UNL A   1      37.797  32.753  38.572  1.00  0.00     0.127 S 
ATOM     74  O   UNL A   1      36.721  33.046  37.625  1.00  0.00    -0.237 OA
ATOM     75  O   UNL A   1      37.832  31.370  39.045  1.00  0.00    -0.237 OA
ATOM     76  O   UNL A   1      38.003  33.760  39.604  1.00  0.00    -0.744 OA
ENDBRANCH  70  73
ENDBRANCH  52  66
BRANCH  53  77
ATOM     77  C   UNL A   1      42.312  26.302  27.697  1.00  0.00     0.023 A 
ATOM     78  C   UNL A   1      42.991  26.919  26.626  1.00  0.00     0.012 A 
ATOM     79  C   UNL A   1      41.939  24.950  27.583  1.00  0.00     0.148 A 
ATOM     80  C   UNL A   1      43.246  26.217  25.447  1.00  0.00     0.002 A 
ATOM     81  C   UNL A   1      42.250  24.240  26.431  1.00  0.00     0.091 A 
ATOM     82  F   UNL A   1      41.282  24.383  28.605  1.00  0.00    -0.205 F 
ATOM     83  C   UNL A   1      42.883  24.876  25.352  1.00  0.00     0.022 A 
BRANCH  81  84
ATOM     84  S   UNL A   1      41.936  22.478  26.286  1.00  0.00     0.127 S 
ATOM     85  O   UNL A   1      42.801  22.110  25.169  1.00  0.00    -0.237 OA
ATOM     86  O   UNL A   1      42.370  21.984  27.593  1.00  0.00    -0.237 OA
ATOM     87  O   UNL A   1      40.503  22.360  26.049  1.00  0.00    -0.744 OA
ENDBRANCH  81  84
ENDBRANCH  53  77
BRANCH  65  88
ATOM     88  C   UNL A   1      45.192  26.732  34.040  1.00  0.00     0.023 A 
ATOM     89  C   UNL A   1      46.494  27.264  33.984  1.00  0.00     0.012 A 
ATOM     90  C   UNL A   1      44.951  25.564  34.792  1.00  0.00     0.148 A 
ATOM     91  C   UNL A   1      47.546  26.628  34.641  1.00  0.00     0.002 A 
ATOM     92  C   UNL A   1      45.994  24.967  35.487  1.00  0.00     0.091 A 
ATOM     93  F   UNL A   1      43.707  25.066  34.818  1.00  0.00    -0.205 F 
ATOM     94  C   UNL A   1      47.295  25.489  35.402  1.00  0.00     0.022 A 
BRANCH  92  95
ATOM     95  S   UNL A   1      45.745  23.559  36.574  1.00  0.00     0.127 S 
ATOM     96  O   UNL A   1      44.977  24.158  37.665  1.00  0.00    -0.237 OA
ATOM     97  O   UNL A   1      44.984  22.643  35.724  1.00  0.00    -0.237 OA
ATOM     98  O   UNL A   1      47.075  23.087  36.934  1.00  0.00    -0.744 OA
ENDBRANCH  92  95
ENDBRANCH  65  88
ENDBRANCH  39  40
ENDBRANCH  31  34
ENDBRANCH  29  30
ENDBRANCH  28  29
ENDBRANCH  27  28
ENDBRANCH   1  27
TORSDOF 19
ENDMDL
