MODEL 1
REMARK VINA RESULT:     -11.5      0.000      0.000
REMARK SMILES Nc1c(CC(=O)NCCCCCCNC(=O)c2ccc(-c3c4nc(c(-c5cccc(S(=O)(=O)[O-])c5F)c5ccc([nH]5)c(-c5cccc(S(=O)(=O)[O-])c5F)c5nc(c(-c6cccc(S(=O)(=O)[O-])c6F)c6ccc3[nH]6)C=C5)C=C4)cc2)cccc1C(=O)c1ccc(Br)cc1
REMARK SMILES IDX 10 1 9 2 8 3 7 4 5 5 6 6 4 8 3 9 2 10 83 11 80 12 82 13
REMARK SMILES IDX 81 14 1 15 84 18 85 19 86 20 87 21 92 22 88 23 91 24 89 25
REMARK SMILES IDX 90 26 11 27 12 28 13 29 14 30 15 31 16 33 17 34 18 35 79 36
REMARK SMILES IDX 19 37 78 38 20 39 21 40 22 41 72 42 23 43 77 44 71 45 73 46
REMARK SMILES IDX 24 47 76 48 70 49 69 50 25 52 57 53 37 54 56 55 38 56 41 57
REMARK SMILES IDX 55 58 74 59 39 60 40 61 54 63 75 64 42 65 26 66 27 67 35 68
REMARK SMILES IDX 28 69 30 70 36 71 29 72 31 73 32 74 33 75 34 76 58 77 59 78
REMARK SMILES IDX 67 79 60 80 62 81 68 82 61 83 63 84 64 85 65 86 66 87 43 88
REMARK SMILES IDX 44 89 52 90 45 91 47 92 53 93 46 94 48 95 49 96 50 97 51 98
REMARK H PARENT 7 7 1 16 1 17 14 32 73 51 41 62
REMARK Flexibility Score: inf
ROOT
ATOM      1  C   UNL A   1      32.420  29.653  25.505  1.00  0.00     0.002 C 
ENDROOT
BRANCH   1   2
ATOM      2  C   UNL A   1      33.015  29.026  24.237  1.00  0.00     0.021 C 
BRANCH   2   3
ATOM      3  C   UNL A   1      31.948  28.560  23.247  1.00  0.00     0.116 C 
BRANCH   3   4
ATOM      4  N   UNL A   1      32.546  27.845  22.137  1.00  0.00    -0.356 N 
ATOM      5  C   UNL A   1      32.694  26.501  21.962  1.00  0.00     0.224 C 
ATOM      6  O   UNL A   1      33.345  26.108  20.990  1.00  0.00    -0.275 OA
ATOM      7  H   UNL A   1      32.891  28.408  21.407  1.00  0.00     0.163 HD
BRANCH   5   8
ATOM      8  C   UNL A   1      32.001  25.516  22.890  1.00  0.00     0.137 C 
BRANCH   8   9
ATOM      9  C   UNL A   1      32.900  24.850  23.920  1.00  0.00    -0.015 A 
ATOM     10  C   UNL A   1      33.714  23.722  23.616  1.00  0.00     0.046 A 
ATOM     11  C   UNL A   1      34.459  23.116  24.661  1.00  0.00     0.046 A 
ATOM     12  C   UNL A   1      32.869  25.366  25.228  1.00  0.00     0.006 A 
ATOM     13  C   UNL A   1      34.386  23.655  25.961  1.00  0.00     0.014 A 
ATOM     14  C   UNL A   1      33.604  24.771  26.243  1.00  0.00     0.001 A 
BRANCH  10  15
ATOM     15  N   UNL A   1      33.705  23.229  22.316  1.00  0.00    -0.398 N 
ATOM     16  H   UNL A   1      33.274  22.366  22.120  1.00  0.00     0.156 HD
ATOM     17  H   UNL A   1      34.129  23.743  21.592  1.00  0.00     0.156 HD
ENDBRANCH  10  15
BRANCH  11  18
ATOM     18  C   UNL A   1      35.323  21.887  24.544  1.00  0.00     0.195 C 
ATOM     19  O   UNL A   1      36.532  22.002  24.342  1.00  0.00    -0.289 OA
BRANCH  18  20
ATOM     20  C   UNL A   1      34.813  20.514  24.717  1.00  0.00     0.023 A 
ATOM     21  C   UNL A   1      33.432  20.335  24.866  1.00  0.00     0.013 A 
ATOM     22  C   UNL A   1      35.672  19.411  24.684  1.00  0.00     0.013 A 
ATOM     23  C   UNL A   1      32.899  19.044  24.896  1.00  0.00     0.016 A 
ATOM     24  C   UNL A   1      35.135  18.121  24.700  1.00  0.00     0.016 A 
ATOM     25  C   UNL A   1      33.752  17.945  24.790  1.00  0.00     0.018 A 
ATOM     26  Br  UNL A   1      33.033  16.199  24.741  1.00  0.00    -0.051 Br
ENDBRANCH  18  20
ENDBRANCH  11  18
ENDBRANCH   8   9
ENDBRANCH   5   8
ENDBRANCH   3   4
ENDBRANCH   2   3
ENDBRANCH   1   2
BRANCH   1  27
ATOM     27  C   UNL A   1      31.130  30.448  25.277  1.00  0.00     0.002 C 
BRANCH  27  28
ATOM     28  C   UNL A   1      31.015  31.733  26.104  1.00  0.00     0.021 C 
BRANCH  28  29
ATOM     29  C   UNL A   1      32.302  32.133  26.818  1.00  0.00     0.116 C 
BRANCH  29  30
ATOM     30  N   UNL A   1      32.299  33.544  27.179  1.00  0.00    -0.352 N 
ATOM     31  C   UNL A   1      33.072  34.204  28.098  1.00  0.00     0.251 C 
ATOM     32  H   UNL A   1      31.651  34.102  26.695  1.00  0.00     0.163 HD
ATOM     33  O   UNL A   1      32.777  35.350  28.439  1.00  0.00    -0.269 OA
BRANCH  31  34
ATOM     34  C   UNL A   1      34.251  33.536  28.685  1.00  0.00     0.039 A 
ATOM     35  C   UNL A   1      35.517  34.091  28.488  1.00  0.00     0.014 A 
ATOM     36  C   UNL A   1      34.106  32.358  29.424  1.00  0.00     0.014 A 
ATOM     37  C   UNL A   1      36.633  33.492  29.075  1.00  0.00     0.010 A 
ATOM     38  C   UNL A   1      35.206  31.809  30.073  1.00  0.00     0.010 A 
ATOM     39  C   UNL A   1      36.483  32.362  29.898  1.00  0.00    -0.014 A 
BRANCH  39  40
ATOM     40  C   UNL A   1      37.648  31.750  30.585  1.00  0.00     0.031 A 
ATOM     41  C   UNL A   1      38.465  30.691  29.895  1.00  0.00     0.074 A 
ATOM     42  C   UNL A   1      37.921  32.089  31.861  1.00  0.00     0.049 A 
ATOM     43  N   UNL A   1      39.481  30.006  30.352  1.00  0.00    -0.248 NA
ATOM     44  C   UNL A   1      38.074  30.337  28.520  1.00  0.00     0.031 C 
ATOM     45  C   UNL A   1      37.158  33.047  32.664  1.00  0.00     0.029 A 
ATOM     46  N   UNL A   1      38.898  31.645  32.715  1.00  0.00    -0.354 N 
ATOM     47  C   UNL A   1      39.828  29.119  29.340  1.00  0.00     0.074 A 
ATOM     48  C   UNL A   1      38.891  29.327  28.257  1.00  0.00     0.031 C 
ATOM     49  C   UNL A   1      37.699  33.124  33.889  1.00  0.00     0.029 A 
ATOM     50  C   UNL A   1      38.823  32.197  33.973  1.00  0.00     0.049 A 
ATOM     51  H   UNL A   1      39.589  30.994  32.453  1.00  0.00     0.167 HD
ATOM     52  C   UNL A   1      40.850  28.232  29.301  1.00  0.00     0.034 A 
ATOM     53  C   UNL A   1      39.566  31.972  35.074  1.00  0.00     0.034 A 
ATOM     54  C   UNL A   1      41.799  28.051  30.367  1.00  0.00     0.049 A 
ATOM     55  C   UNL A   1      40.710  30.997  34.998  1.00  0.00     0.074 A 
ATOM     56  C   UNL A   1      42.918  27.239  30.393  1.00  0.00     0.029 A 
ATOM     57  N   UNL A   1      41.734  28.681  31.600  1.00  0.00    -0.354 N 
ATOM     58  N   UNL A   1      41.117  30.281  33.978  1.00  0.00    -0.248 NA
ATOM     59  C   UNL A   1      41.518  30.825  36.213  1.00  0.00     0.031 C 
ATOM     60  C   UNL A   1      43.510  27.351  31.655  1.00  0.00     0.029 A 
ATOM     61  C   UNL A   1      42.784  28.265  32.400  1.00  0.00     0.049 A 
ATOM     62  H   UNL A   1      41.042  29.329  31.868  1.00  0.00     0.167 HD
ATOM     63  C   UNL A   1      42.250  29.604  34.415  1.00  0.00     0.074 A 
ATOM     64  C   UNL A   1      42.475  30.012  35.788  1.00  0.00     0.031 C 
ATOM     65  C   UNL A   1      43.026  28.715  33.747  1.00  0.00     0.034 A 
BRANCH  52  66
ATOM     66  C   UNL A   1      41.021  27.414  28.046  1.00  0.00     0.023 A 
ATOM     67  C   UNL A   1      41.634  27.992  26.915  1.00  0.00     0.012 A 
ATOM     68  C   UNL A   1      40.629  26.062  28.002  1.00  0.00     0.148 A 
ATOM     69  C   UNL A   1      41.818  27.250  25.748  1.00  0.00     0.002 A 
ATOM     70  C   UNL A   1      40.859  25.316  26.853  1.00  0.00     0.091 A 
ATOM     71  F   UNL A   1      40.030  25.535  29.080  1.00  0.00    -0.205 F 
ATOM     72  C   UNL A   1      41.440  25.911  25.721  1.00  0.00     0.022 A 
BRANCH  70  73
ATOM     73  S   UNL A   1      40.489  23.561  26.744  1.00  0.00     0.127 S 
ATOM     74  O   UNL A   1      41.478  23.112  25.764  1.00  0.00    -0.237 OA
ATOM     75  O   UNL A   1      40.738  23.109  28.112  1.00  0.00    -0.237 OA
ATOM     76  O   UNL A   1      39.100  23.469  26.314  1.00  0.00    -0.744 OA
ENDBRANCH  70  73
ENDBRANCH  52  66
BRANCH  53  77
ATOM     77  C   UNL A   1      39.287  32.725  36.330  1.00  0.00     0.023 A 
ATOM     78  C   UNL A   1      39.878  33.987  36.529  1.00  0.00     0.012 A 
ATOM     79  C   UNL A   1      38.423  32.207  37.314  1.00  0.00     0.148 A 
ATOM     80  C   UNL A   1      39.645  34.703  37.703  1.00  0.00     0.002 A 
ATOM     81  C   UNL A   1      38.148  32.952  38.455  1.00  0.00     0.091 A 
ATOM     82  F   UNL A   1      37.876  31.000  37.109  1.00  0.00    -0.205 F 
ATOM     83  C   UNL A   1      38.773  34.192  38.661  1.00  0.00     0.022 A 
BRANCH  81  84
ATOM     84  S   UNL A   1      36.937  32.433  39.675  1.00  0.00     0.127 S 
ATOM     85  O   UNL A   1      37.482  31.151  40.113  1.00  0.00    -0.237 OA
ATOM     86  O   UNL A   1      37.023  33.510  40.662  1.00  0.00    -0.237 OA
ATOM     87  O   UNL A   1      35.666  32.370  38.966  1.00  0.00    -0.744 OA
ENDBRANCH  81  84
ENDBRANCH  53  77
BRANCH  65  88
ATOM     88  C   UNL A   1      44.223  28.152  34.467  1.00  0.00     0.023 A 
ATOM     89  C   UNL A   1      45.433  28.875  34.500  1.00  0.00     0.012 A 
ATOM     90  C   UNL A   1      44.125  26.936  35.173  1.00  0.00     0.148 A 
ATOM     91  C   UNL A   1      46.536  28.378  35.194  1.00  0.00     0.002 A 
ATOM     92  C   UNL A   1      45.211  26.475  35.906  1.00  0.00     0.091 A 
ATOM     93  F   UNL A   1      42.972  26.254  35.116  1.00  0.00    -0.205 F 
ATOM     94  C   UNL A   1      46.422  27.187  35.907  1.00  0.00     0.022 A 
BRANCH  92  95
ATOM     95  S   UNL A   1      45.127  25.004  36.934  1.00  0.00     0.127 S 
ATOM     96  O   UNL A   1      44.551  25.536  38.169  1.00  0.00    -0.237 OA
ATOM     97  O   UNL A   1      44.231  24.140  36.165  1.00  0.00    -0.237 OA
ATOM     98  O   UNL A   1      46.493  24.512  37.046  1.00  0.00    -0.744 OA
ENDBRANCH  92  95
ENDBRANCH  65  88
ENDBRANCH  39  40
ENDBRANCH  31  34
ENDBRANCH  29  30
ENDBRANCH  28  29
ENDBRANCH  27  28
ENDBRANCH   1  27
TORSDOF 20
ENDMDL
MODEL 2
REMARK VINA RESULT:     -11.2      5.471      8.085
REMARK SMILES Nc1c(CC(=O)NCCCCCCNC(=O)c2ccc(-c3c4nc(c(-c5cccc(S(=O)(=O)[O-])c5F)c5ccc([nH]5)c(-c5cccc(S(=O)(=O)[O-])c5F)c5nc(c(-c6cccc(S(=O)(=O)[O-])c6F)c6ccc3[nH]6)C=C5)C=C4)cc2)cccc1C(=O)c1ccc(Br)cc1
REMARK SMILES IDX 10 1 9 2 8 3 7 4 5 5 6 6 4 8 3 9 2 10 83 11 80 12 82 13
REMARK SMILES IDX 81 14 1 15 84 18 85 19 86 20 87 21 92 22 88 23 91 24 89 25
REMARK SMILES IDX 90 26 11 27 12 28 13 29 14 30 15 31 16 33 17 34 18 35 79 36
REMARK SMILES IDX 19 37 78 38 20 39 21 40 22 41 72 42 23 43 77 44 71 45 73 46
REMARK SMILES IDX 24 47 76 48 70 49 69 50 25 52 57 53 37 54 56 55 38 56 41 57
REMARK SMILES IDX 55 58 74 59 39 60 40 61 54 63 75 64 42 65 26 66 27 67 35 68
REMARK SMILES IDX 28 69 30 70 36 71 29 72 31 73 32 74 33 75 34 76 58 77 59 78
REMARK SMILES IDX 67 79 60 80 62 81 68 82 61 83 63 84 64 85 65 86 66 87 43 88
REMARK SMILES IDX 44 89 52 90 45 91 47 92 53 93 46 94 48 95 49 96 50 97 51 98
REMARK H PARENT 7 7 1 16 1 17 14 32 73 51 41 62
REMARK Flexibility Score: inf
ROOT
ATOM      1  C   UNL A   1      34.931  31.961  28.071  1.00  0.00     0.002 C 
ENDROOT
BRANCH   1   2
ATOM      2  C   UNL A   1      33.647  31.465  27.394  1.00  0.00     0.021 C 
BRANCH   2   3
ATOM      3  C   UNL A   1      33.722  29.996  26.978  1.00  0.00     0.116 C 
BRANCH   3   4
ATOM      4  N   UNL A   1      32.812  29.185  27.762  1.00  0.00    -0.356 N 
ATOM      5  C   UNL A   1      31.869  28.298  27.335  1.00  0.00     0.224 C 
ATOM      6  O   UNL A   1      31.114  27.800  28.175  1.00  0.00    -0.275 OA
ATOM      7  H   UNL A   1      32.886  29.289  28.738  1.00  0.00     0.163 HD
BRANCH   5   8
ATOM      8  C   UNL A   1      31.810  27.868  25.877  1.00  0.00     0.137 C 
BRANCH   8   9
ATOM      9  C   UNL A   1      32.383  26.492  25.582  1.00  0.00    -0.015 A 
ATOM     10  C   UNL A   1      31.635  25.293  25.756  1.00  0.00     0.046 A 
ATOM     11  C   UNL A   1      32.278  24.047  25.534  1.00  0.00     0.046 A 
ATOM     12  C   UNL A   1      33.725  26.432  25.166  1.00  0.00     0.006 A 
ATOM     13  C   UNL A   1      33.630  24.033  25.133  1.00  0.00     0.014 A 
ATOM     14  C   UNL A   1      34.346  25.211  24.946  1.00  0.00     0.001 A 
BRANCH  10  15
ATOM     15  N   UNL A   1      30.316  25.391  26.186  1.00  0.00    -0.398 N 
ATOM     16  H   UNL A   1      29.580  25.293  25.541  1.00  0.00     0.156 HD
ATOM     17  H   UNL A   1      30.120  25.557  27.136  1.00  0.00     0.156 HD
ENDBRANCH  10  15
BRANCH  11  18
ATOM     18  C   UNL A   1      31.670  22.682  25.725  1.00  0.00     0.195 C 
ATOM     19  O   UNL A   1      30.671  22.548  26.431  1.00  0.00    -0.289 OA
BRANCH  18  20
ATOM     20  C   UNL A   1      32.170  21.468  25.056  1.00  0.00     0.023 A 
ATOM     21  C   UNL A   1      32.793  20.489  25.840  1.00  0.00     0.013 A 
ATOM     22  C   UNL A   1      31.987  21.266  23.684  1.00  0.00     0.013 A 
ATOM     23  C   UNL A   1      33.157  19.268  25.267  1.00  0.00     0.016 A 
ATOM     24  C   UNL A   1      32.339  20.039  23.117  1.00  0.00     0.016 A 
ATOM     25  C   UNL A   1      32.907  19.042  23.913  1.00  0.00     0.018 A 
ATOM     26  Br  UNL A   1      33.315  17.363  23.149  1.00  0.00    -0.051 Br
ENDBRANCH  18  20
ENDBRANCH  11  18
ENDBRANCH   8   9
ENDBRANCH   5   8
ENDBRANCH   3   4
ENDBRANCH   2   3
ENDBRANCH   1   2
BRANCH   1  27
ATOM     27  C   UNL A   1      34.853  33.390  28.617  1.00  0.00     0.002 C 
BRANCH  27  28
ATOM     28  C   UNL A   1      34.622  33.488  30.128  1.00  0.00     0.021 C 
BRANCH  28  29
ATOM     29  C   UNL A   1      34.786  32.166  30.871  1.00  0.00     0.116 C 
BRANCH  29  30
ATOM     30  N   UNL A   1      35.243  32.372  32.239  1.00  0.00    -0.352 N 
ATOM     31  C   UNL A   1      36.401  31.951  32.838  1.00  0.00     0.251 C 
ATOM     32  H   UNL A   1      34.633  32.887  32.814  1.00  0.00     0.163 HD
ATOM     33  O   UNL A   1      36.517  32.015  34.063  1.00  0.00    -0.269 OA
BRANCH  31  34
ATOM     34  C   UNL A   1      37.502  31.413  32.016  1.00  0.00     0.039 A 
ATOM     35  C   UNL A   1      37.621  31.821  30.685  1.00  0.00     0.014 A 
ATOM     36  C   UNL A   1      38.413  30.500  32.556  1.00  0.00     0.014 A 
ATOM     37  C   UNL A   1      38.684  31.352  29.911  1.00  0.00     0.010 A 
ATOM     38  C   UNL A   1      39.514  30.097  31.809  1.00  0.00     0.010 A 
ATOM     39  C   UNL A   1      39.657  30.509  30.476  1.00  0.00    -0.014 A 
BRANCH  39  40
ATOM     40  C   UNL A   1      40.830  30.053  29.689  1.00  0.00     0.031 A 
ATOM     41  C   UNL A   1      40.870  28.658  29.126  1.00  0.00     0.074 A 
ATOM     42  C   UNL A   1      41.896  30.867  29.552  1.00  0.00     0.049 A 
ATOM     43  N   UNL A   1      41.827  28.065  28.462  1.00  0.00    -0.248 NA
ATOM     44  C   UNL A   1      39.690  27.809  29.362  1.00  0.00     0.031 C 
ATOM     45  C   UNL A   1      42.009  32.215  30.114  1.00  0.00     0.029 A 
ATOM     46  N   UNL A   1      43.097  30.671  28.919  1.00  0.00    -0.354 N 
ATOM     47  C   UNL A   1      41.384  26.769  28.231  1.00  0.00     0.074 A 
ATOM     48  C   UNL A   1      40.086  26.649  28.858  1.00  0.00     0.031 C 
ATOM     49  C   UNL A   1      43.209  32.725  29.796  1.00  0.00     0.029 A 
ATOM     50  C   UNL A   1      43.964  31.732  29.039  1.00  0.00     0.049 A 
ATOM     51  H   UNL A   1      43.318  29.849  28.424  1.00  0.00     0.167 HD
ATOM     52  C   UNL A   1      41.987  25.774  27.536  1.00  0.00     0.034 A 
ATOM     53  C   UNL A   1      45.229  31.883  28.602  1.00  0.00     0.034 A 
ATOM     54  C   UNL A   1      43.263  25.908  26.887  1.00  0.00     0.049 A 
ATOM     55  C   UNL A   1      45.868  30.773  27.813  1.00  0.00     0.074 A 
ATOM     56  C   UNL A   1      43.922  24.989  26.089  1.00  0.00     0.029 A 
ATOM     57  N   UNL A   1      44.082  27.023  26.969  1.00  0.00    -0.354 N 
ATOM     58  N   UNL A   1      45.369  29.609  27.473  1.00  0.00    -0.248 NA
ATOM     59  C   UNL A   1      47.232  31.008  27.318  1.00  0.00     0.031 C 
ATOM     60  C   UNL A   1      45.154  25.537  25.718  1.00  0.00     0.029 A 
ATOM     61  C   UNL A   1      45.245  26.813  26.250  1.00  0.00     0.049 A 
ATOM     62  H   UNL A   1      43.867  27.846  27.467  1.00  0.00     0.167 HD
ATOM     63  C   UNL A   1      46.339  28.991  26.693  1.00  0.00     0.074 A 
ATOM     64  C   UNL A   1      47.449  29.919  26.595  1.00  0.00     0.031 C 
ATOM     65  C   UNL A   1      46.321  27.762  26.120  1.00  0.00     0.034 A 
BRANCH  52  66
ATOM     66  C   UNL A   1      41.253  24.464  27.407  1.00  0.00     0.023 A 
ATOM     67  C   UNL A   1      41.743  23.321  28.069  1.00  0.00     0.012 A 
ATOM     68  C   UNL A   1      40.051  24.376  26.677  1.00  0.00     0.148 A 
ATOM     69  C   UNL A   1      41.072  22.101  27.978  1.00  0.00     0.002 A 
ATOM     70  C   UNL A   1      39.361  23.170  26.631  1.00  0.00     0.091 A 
ATOM     71  F   UNL A   1      39.609  25.468  26.037  1.00  0.00    -0.205 F 
ATOM     72  C   UNL A   1      39.877  22.030  27.267  1.00  0.00     0.022 A 
BRANCH  70  73
ATOM     73  S   UNL A   1      37.770  22.992  25.815  1.00  0.00     0.127 S 
ATOM     74  O   UNL A   1      37.988  23.742  24.578  1.00  0.00    -0.237 OA
ATOM     75  O   UNL A   1      37.675  21.543  25.641  1.00  0.00    -0.237 OA
ATOM     76  O   UNL A   1      36.786  23.563  26.725  1.00  0.00    -0.744 OA
ENDBRANCH  70  73
ENDBRANCH  52  66
BRANCH  53  77
ATOM     77  C   UNL A   1      45.958  33.159  28.852  1.00  0.00     0.023 A 
ATOM     78  C   UNL A   1      46.791  33.274  29.981  1.00  0.00     0.012 A 
ATOM     79  C   UNL A   1      45.847  34.249  27.967  1.00  0.00     0.148 A 
ATOM     80  C   UNL A   1      47.471  34.463  30.246  1.00  0.00     0.002 A 
ATOM     81  C   UNL A   1      46.573  35.410  28.204  1.00  0.00     0.091 A 
ATOM     82  F   UNL A   1      45.043  34.123  26.901  1.00  0.00    -0.205 F 
ATOM     83  C   UNL A   1      47.370  35.527  29.353  1.00  0.00     0.022 A 
BRANCH  81  84
ATOM     84  S   UNL A   1      46.609  36.778  27.040  1.00  0.00     0.127 S 
ATOM     85  O   UNL A   1      45.198  37.145  26.966  1.00  0.00    -0.237 OA
ATOM     86  O   UNL A   1      47.463  37.742  27.736  1.00  0.00    -0.237 OA
ATOM     87  O   UNL A   1      47.188  36.239  25.817  1.00  0.00    -0.744 OA
ENDBRANCH  81  84
ENDBRANCH  53  77
BRANCH  65  88
ATOM     88  C   UNL A   1      47.514  27.357  25.294  1.00  0.00     0.023 A 
ATOM     89  C   UNL A   1      48.501  26.516  25.845  1.00  0.00     0.012 A 
ATOM     90  C   UNL A   1      47.617  27.753  23.946  1.00  0.00     0.148 A 
ATOM     91  C   UNL A   1      49.591  26.106  25.077  1.00  0.00     0.002 A 
ATOM     92  C   UNL A   1      48.677  27.297  23.172  1.00  0.00     0.091 A 
ATOM     93  F   UNL A   1      46.677  28.568  23.444  1.00  0.00    -0.205 F 
ATOM     94  C   UNL A   1      49.673  26.486  23.739  1.00  0.00     0.022 A 
BRANCH  92  95
ATOM     95  S   UNL A   1      48.813  27.652  21.416  1.00  0.00     0.127 S 
ATOM     96  O   UNL A   1      47.409  27.651  21.003  1.00  0.00    -0.237 OA
ATOM     97  O   UNL A   1      49.448  28.970  21.415  1.00  0.00    -0.237 OA
ATOM     98  O   UNL A   1      49.628  26.586  20.851  1.00  0.00    -0.744 OA
ENDBRANCH  92  95
ENDBRANCH  65  88
ENDBRANCH  39  40
ENDBRANCH  31  34
ENDBRANCH  29  30
ENDBRANCH  28  29
ENDBRANCH  27  28
ENDBRANCH   1  27
TORSDOF 20
ENDMDL
MODEL 3
REMARK VINA RESULT:     -11.1      1.670      2.089
REMARK SMILES Nc1c(CC(=O)NCCCCCCNC(=O)c2ccc(-c3c4nc(c(-c5cccc(S(=O)(=O)[O-])c5F)c5ccc([nH]5)c(-c5cccc(S(=O)(=O)[O-])c5F)c5nc(c(-c6cccc(S(=O)(=O)[O-])c6F)c6ccc3[nH]6)C=C5)C=C4)cc2)cccc1C(=O)c1ccc(Br)cc1
REMARK SMILES IDX 10 1 9 2 8 3 7 4 5 5 6 6 4 8 3 9 2 10 83 11 80 12 82 13
REMARK SMILES IDX 81 14 1 15 84 18 85 19 86 20 87 21 92 22 88 23 91 24 89 25
REMARK SMILES IDX 90 26 11 27 12 28 13 29 14 30 15 31 16 33 17 34 18 35 79 36
REMARK SMILES IDX 19 37 78 38 20 39 21 40 22 41 72 42 23 43 77 44 71 45 73 46
REMARK SMILES IDX 24 47 76 48 70 49 69 50 25 52 57 53 37 54 56 55 38 56 41 57
REMARK SMILES IDX 55 58 74 59 39 60 40 61 54 63 75 64 42 65 26 66 27 67 35 68
REMARK SMILES IDX 28 69 30 70 36 71 29 72 31 73 32 74 33 75 34 76 58 77 59 78
REMARK SMILES IDX 67 79 60 80 62 81 68 82 61 83 63 84 64 85 65 86 66 87 43 88
REMARK SMILES IDX 44 89 52 90 45 91 47 92 53 93 46 94 48 95 49 96 50 97 51 98
REMARK H PARENT 7 7 1 16 1 17 14 32 73 51 41 62
REMARK Flexibility Score: inf
ROOT
ATOM      1  C   UNL A   1      32.388  29.496  25.592  1.00  0.00     0.002 C 
ENDROOT
BRANCH   1   2
ATOM      2  C   UNL A   1      33.222  28.989  24.407  1.00  0.00     0.021 C 
BRANCH   2   3
ATOM      3  C   UNL A   1      32.441  28.975  23.093  1.00  0.00     0.116 C 
BRANCH   3   4
ATOM      4  N   UNL A   1      33.034  28.053  22.145  1.00  0.00    -0.356 N 
ATOM      5  C   UNL A   1      32.668  26.773  21.849  1.00  0.00     0.224 C 
ATOM      6  O   UNL A   1      33.391  26.121  21.091  1.00  0.00    -0.275 OA
ATOM      7  H   UNL A   1      33.807  28.400  21.644  1.00  0.00     0.163 HD
BRANCH   5   8
ATOM      8  C   UNL A   1      31.360  26.200  22.370  1.00  0.00     0.137 C 
BRANCH   8   9
ATOM      9  C   UNL A   1      31.473  25.374  23.641  1.00  0.00    -0.015 A 
ATOM     10  C   UNL A   1      31.919  24.022  23.644  1.00  0.00     0.046 A 
ATOM     11  C   UNL A   1      31.915  23.303  24.868  1.00  0.00     0.046 A 
ATOM     12  C   UNL A   1      31.068  25.986  24.841  1.00  0.00     0.006 A 
ATOM     13  C   UNL A   1      31.485  23.950  26.044  1.00  0.00     0.014 A 
ATOM     14  C   UNL A   1      31.071  25.278  26.035  1.00  0.00     0.001 A 
BRANCH  10  15
ATOM     15  N   UNL A   1      32.294  23.445  22.435  1.00  0.00    -0.398 N 
ATOM     16  H   UNL A   1      32.456  24.014  21.648  1.00  0.00     0.156 HD
ATOM     17  H   UNL A   1      32.399  22.469  22.367  1.00  0.00     0.156 HD
ENDBRANCH  10  15
BRANCH  11  18
ATOM     18  C   UNL A   1      32.293  21.856  25.054  1.00  0.00     0.195 C 
ATOM     19  O   UNL A   1      31.420  21.017  25.274  1.00  0.00    -0.289 OA
BRANCH  18  20
ATOM     20  C   UNL A   1      33.673  21.353  24.928  1.00  0.00     0.023 A 
ATOM     21  C   UNL A   1      34.720  22.283  24.934  1.00  0.00     0.013 A 
ATOM     22  C   UNL A   1      33.943  19.982  24.856  1.00  0.00     0.013 A 
ATOM     23  C   UNL A   1      36.044  21.839  24.954  1.00  0.00     0.016 A 
ATOM     24  C   UNL A   1      35.267  19.540  24.891  1.00  0.00     0.016 A 
ATOM     25  C   UNL A   1      36.309  20.469  24.955  1.00  0.00     0.018 A 
ATOM     26  Br  UNL A   1      38.092  19.857  25.072  1.00  0.00    -0.051 Br
ENDBRANCH  18  20
ENDBRANCH  11  18
ENDBRANCH   8   9
ENDBRANCH   5   8
ENDBRANCH   3   4
ENDBRANCH   2   3
ENDBRANCH   1   2
BRANCH   1  27
ATOM     27  C   UNL A   1      31.192  30.371  25.201  1.00  0.00     0.002 C 
BRANCH  27  28
ATOM     28  C   UNL A   1      31.037  31.651  26.027  1.00  0.00     0.021 C 
BRANCH  28  29
ATOM     29  C   UNL A   1      32.298  32.063  26.781  1.00  0.00     0.116 C 
BRANCH  29  30
ATOM     30  N   UNL A   1      32.254  33.465  27.174  1.00  0.00    -0.352 N 
ATOM     31  C   UNL A   1      33.010  34.128  28.105  1.00  0.00     0.251 C 
ATOM     32  H   UNL A   1      31.588  34.015  26.703  1.00  0.00     0.163 HD
ATOM     33  O   UNL A   1      32.682  35.256  28.472  1.00  0.00    -0.269 OA
BRANCH  31  34
ATOM     34  C   UNL A   1      34.210  33.482  28.673  1.00  0.00     0.039 A 
ATOM     35  C   UNL A   1      35.455  34.092  28.508  1.00  0.00     0.014 A 
ATOM     36  C   UNL A   1      34.106  32.271  29.366  1.00  0.00     0.014 A 
ATOM     37  C   UNL A   1      36.590  33.513  29.079  1.00  0.00     0.010 A 
ATOM     38  C   UNL A   1      35.222  31.739  30.001  1.00  0.00     0.010 A 
ATOM     39  C   UNL A   1      36.478  32.347  29.856  1.00  0.00    -0.014 A 
BRANCH  39  40
ATOM     40  C   UNL A   1      37.661  31.753  30.527  1.00  0.00     0.031 A 
ATOM     41  C   UNL A   1      38.462  30.679  29.842  1.00  0.00     0.074 A 
ATOM     42  C   UNL A   1      37.966  32.122  31.787  1.00  0.00     0.049 A 
ATOM     43  N   UNL A   1      39.491  30.006  30.289  1.00  0.00    -0.248 NA
ATOM     44  C   UNL A   1      38.037  30.291  28.487  1.00  0.00     0.031 C 
ATOM     45  C   UNL A   1      37.223  33.098  32.587  1.00  0.00     0.029 A 
ATOM     46  N   UNL A   1      38.966  31.700  32.627  1.00  0.00    -0.354 N 
ATOM     47  C   UNL A   1      39.813  29.095  29.290  1.00  0.00     0.074 A 
ATOM     48  C   UNL A   1      38.848  29.276  28.227  1.00  0.00     0.031 C 
ATOM     49  C   UNL A   1      37.795  33.205  33.795  1.00  0.00     0.029 A 
ATOM     50  C   UNL A   1      38.922  32.282  33.873  1.00  0.00     0.049 A 
ATOM     51  H   UNL A   1      39.651  31.044  32.363  1.00  0.00     0.167 HD
ATOM     52  C   UNL A   1      40.836  28.208  29.246  1.00  0.00     0.034 A 
ATOM     53  C   UNL A   1      39.694  32.084  34.959  1.00  0.00     0.034 A 
ATOM     54  C   UNL A   1      41.812  28.055  30.291  1.00  0.00     0.049 A 
ATOM     55  C   UNL A   1      40.837  31.109  34.877  1.00  0.00     0.074 A 
ATOM     56  C   UNL A   1      42.933  27.244  30.308  1.00  0.00     0.029 A 
ATOM     57  N   UNL A   1      41.778  28.713  31.510  1.00  0.00    -0.354 N 
ATOM     58  N   UNL A   1      41.220  30.369  33.865  1.00  0.00    -0.248 NA
ATOM     59  C   UNL A   1      41.677  30.967  36.075  1.00  0.00     0.031 C 
ATOM     60  C   UNL A   1      43.557  27.388  31.551  1.00  0.00     0.029 A 
ATOM     61  C   UNL A   1      42.849  28.319  32.292  1.00  0.00     0.049 A 
ATOM     62  H   UNL A   1      41.091  29.367  31.780  1.00  0.00     0.167 HD
ATOM     63  C   UNL A   1      42.364  29.704  34.289  1.00  0.00     0.074 A 
ATOM     64  C   UNL A   1      42.624  30.146  35.645  1.00  0.00     0.031 C 
ATOM     65  C   UNL A   1      43.124  28.801  33.622  1.00  0.00     0.034 A 
BRANCH  52  66
ATOM     66  C   UNL A   1      40.976  27.361  28.007  1.00  0.00     0.023 A 
ATOM     67  C   UNL A   1      41.591  27.901  26.859  1.00  0.00     0.012 A 
ATOM     68  C   UNL A   1      40.552  26.018  27.995  1.00  0.00     0.148 A 
ATOM     69  C   UNL A   1      41.746  27.131  25.706  1.00  0.00     0.002 A 
ATOM     70  C   UNL A   1      40.755  25.242  26.860  1.00  0.00     0.091 A 
ATOM     71  F   UNL A   1      39.953  25.527  29.090  1.00  0.00    -0.205 F 
ATOM     72  C   UNL A   1      41.338  25.801  25.711  1.00  0.00     0.022 A 
BRANCH  70  73
ATOM     73  S   UNL A   1      40.344  23.495  26.791  1.00  0.00     0.127 S 
ATOM     74  O   UNL A   1      38.980  23.533  26.263  1.00  0.00    -0.237 OA
ATOM     75  O   UNL A   1      41.345  22.980  25.858  1.00  0.00    -0.237 OA
ATOM     76  O   UNL A   1      40.469  22.998  28.155  1.00  0.00    -0.744 OA
ENDBRANCH  70  73
ENDBRANCH  52  66
BRANCH  53  77
ATOM     77  C   UNL A   1      39.446  32.867  36.203  1.00  0.00     0.023 A 
ATOM     78  C   UNL A   1      38.579  32.352  37.186  1.00  0.00     0.012 A 
ATOM     79  C   UNL A   1      40.080  34.104  36.426  1.00  0.00     0.148 A 
ATOM     80  C   UNL A   1      38.318  33.073  38.352  1.00  0.00     0.002 A 
ATOM     81  C   UNL A   1      39.862  34.789  37.615  1.00  0.00     0.091 A 
ATOM     82  F   UNL A   1      40.896  34.581  35.474  1.00  0.00    -0.205 F 
ATOM     83  C   UNL A   1      38.966  34.286  38.572  1.00  0.00     0.022 A 
BRANCH  81  84
ATOM     84  S   UNL A   1      40.755  36.289  38.040  1.00  0.00     0.127 S 
ATOM     85  O   UNL A   1      39.666  37.197  38.390  1.00  0.00    -0.237 OA
ATOM     86  O   UNL A   1      41.573  35.842  39.169  1.00  0.00    -0.237 OA
ATOM     87  O   UNL A   1      41.517  36.644  36.851  1.00  0.00    -0.744 OA
ENDBRANCH  81  84
ENDBRANCH  53  77
BRANCH  65  88
ATOM     88  C   UNL A   1      44.341  28.256  34.324  1.00  0.00     0.023 A 
ATOM     89  C   UNL A   1      45.574  28.932  34.229  1.00  0.00     0.012 A 
ATOM     90  C   UNL A   1      44.242  27.111  35.139  1.00  0.00     0.148 A 
ATOM     91  C   UNL A   1      46.697  28.456  34.903  1.00  0.00     0.002 A 
ATOM     92  C   UNL A   1      45.352  26.674  35.852  1.00  0.00     0.091 A 
ATOM     93  F   UNL A   1      43.065  26.471  35.204  1.00  0.00    -0.205 F 
ATOM     94  C   UNL A   1      46.584  27.335  35.724  1.00  0.00     0.022 A 
BRANCH  92  95
ATOM     95  S   UNL A   1      45.276  25.301  37.009  1.00  0.00     0.127 S 
ATOM     96  O   UNL A   1      46.694  25.058  37.275  1.00  0.00    -0.237 OA
ATOM     97  O   UNL A   1      44.536  25.882  38.129  1.00  0.00    -0.237 OA
ATOM     98  O   UNL A   1      44.580  24.227  36.314  1.00  0.00    -0.744 OA
ENDBRANCH  92  95
ENDBRANCH  65  88
ENDBRANCH  39  40
ENDBRANCH  31  34
ENDBRANCH  29  30
ENDBRANCH  28  29
ENDBRANCH  27  28
ENDBRANCH   1  27
TORSDOF 20
ENDMDL
