MODEL 1
REMARK VINA RESULT:     -11.5      0.000      0.000
REMARK SMILES O=C(NCCCCCCNC(=O)c1cnc(Nc2ccccc2)nc1)c1ccc(-c2c3nc(c(-c4cccc(S(=O)(=O)[O-])c4F)c4ccc([nH]4)c(-c4cccc(S(=O)(=O)[O-])c4F)c4nc(c(-c5cccc(S(=O)(=O)[O-])c5F)c5ccc2[nH]5)C=C4)C=C3)cc1
REMARK SMILES IDX 6 1 5 2 4 3 3 4 1 5 2 6 26 8 27 9 88 10 28 11 87 12 29 13
REMARK SMILES IDX 30 14 31 15 81 16 32 17 86 18 80 19 82 20 33 21 85 22 79 23
REMARK SMILES IDX 78 24 34 26 66 27 46 28 65 29 47 30 50 31 64 32 83 33 48 34
REMARK SMILES IDX 49 35 63 37 84 38 51 39 35 40 36 41 44 42 37 43 39 44 45 45
REMARK SMILES IDX 38 46 40 47 41 48 42 49 43 50 67 51 68 52 76 53 69 54 71 55
REMARK SMILES IDX 77 56 70 57 72 58 73 59 74 60 75 61 52 62 53 63 61 64 54 65
REMARK SMILES IDX 56 66 62 67 55 68 57 69 58 70 59 71 60 72 7 73 8 74 9 75
REMARK SMILES IDX 10 76 11 77 12 79 13 80 14 81 25 82 15 83 24 84 16 85 17 86
REMARK SMILES IDX 18 88 19 89 23 90 20 91 22 92 21 93
REMARK H PARENT 3 7 82 25 50 36 10 78 17 87
REMARK Flexibility Score: inf
ROOT
ATOM      1  C   UNL A   1      35.053  23.826  23.883  1.00  0.00     0.002 C 
ENDROOT
BRANCH   1   2
ATOM      2  C   UNL A   1      35.801  22.502  24.053  1.00  0.00     0.021 C 
BRANCH   2   3
ATOM      3  C   UNL A   1      36.140  22.143  25.496  1.00  0.00     0.116 C 
BRANCH   3   4
ATOM      4  N   UNL A   1      37.061  21.021  25.576  1.00  0.00    -0.352 N 
ATOM      5  O   UNL A   1      39.062  19.994  25.648  1.00  0.00    -0.269 OA
ATOM      6  C   UNL A   1      38.411  21.020  25.825  1.00  0.00     0.251 C 
ATOM      7  H   UNL A   1      36.658  20.135  25.433  1.00  0.00     0.163 HD
BRANCH   6   8
ATOM      8  C   UNL A   1      39.075  22.259  26.282  1.00  0.00     0.039 A 
ATOM      9  C   UNL A   1      38.615  23.512  25.865  1.00  0.00     0.014 A 
ATOM     10  C   UNL A   1      40.166  22.163  27.148  1.00  0.00     0.014 A 
ATOM     11  C   UNL A   1      39.322  24.661  26.210  1.00  0.00     0.010 A 
ATOM     12  C   UNL A   1      40.827  23.323  27.556  1.00  0.00     0.010 A 
ATOM     13  C   UNL A   1      40.429  24.578  27.066  1.00  0.00    -0.014 A 
BRANCH  13  14
ATOM     14  C   UNL A   1      41.137  25.809  27.497  1.00  0.00     0.031 A 
ATOM     15  C   UNL A   1      40.414  26.884  28.258  1.00  0.00     0.074 A 
ATOM     16  C   UNL A   1      42.427  25.979  27.146  1.00  0.00     0.049 A 
ATOM     17  N   UNL A   1      40.846  28.060  28.634  1.00  0.00    -0.248 NA
ATOM     18  C   UNL A   1      39.020  26.608  28.637  1.00  0.00     0.031 C 
ATOM     19  C   UNL A   1      43.223  25.016  26.382  1.00  0.00     0.029 A 
ATOM     20  N   UNL A   1      43.282  27.030  27.353  1.00  0.00    -0.354 N 
ATOM     21  C   UNL A   1      39.767  28.685  29.249  1.00  0.00     0.074 A 
ATOM     22  C   UNL A   1      38.658  27.757  29.192  1.00  0.00     0.031 C 
ATOM     23  C   UNL A   1      44.445  25.526  26.174  1.00  0.00     0.029 A 
ATOM     24  C   UNL A   1      44.500  26.870  26.738  1.00  0.00     0.049 A 
ATOM     25  H   UNL A   1      43.047  27.821  27.892  1.00  0.00     0.167 HD
ATOM     26  C   UNL A   1      39.710  29.915  29.813  1.00  0.00     0.034 A 
ATOM     27  C   UNL A   1      45.534  27.722  26.602  1.00  0.00     0.034 A 
ATOM     28  C   UNL A   1      40.825  30.823  29.877  1.00  0.00     0.049 A 
ATOM     29  C   UNL A   1      45.447  29.081  27.231  1.00  0.00     0.074 A 
ATOM     30  C   UNL A   1      40.889  32.065  30.484  1.00  0.00     0.029 A 
ATOM     31  N   UNL A   1      42.065  30.600  29.296  1.00  0.00    -0.354 N 
ATOM     32  N   UNL A   1      44.460  29.612  27.910  1.00  0.00    -0.248 NA
ATOM     33  C   UNL A   1      46.625  29.951  27.105  1.00  0.00     0.031 C 
ATOM     34  C   UNL A   1      42.154  32.608  30.237  1.00  0.00     0.029 A 
ATOM     35  C   UNL A   1      42.896  31.685  29.516  1.00  0.00     0.049 A 
ATOM     36  H   UNL A   1      42.316  29.788  28.798  1.00  0.00     0.167 HD
ATOM     37  C   UNL A   1      44.910  30.858  28.328  1.00  0.00     0.074 A 
ATOM     38  C   UNL A   1      46.262  31.002  27.828  1.00  0.00     0.031 C 
ATOM     39  C   UNL A   1      44.257  31.796  29.058  1.00  0.00     0.034 A 
BRANCH  26  40
ATOM     40  C   UNL A   1      38.396  30.350  30.413  1.00  0.00     0.023 A 
ATOM     41  C   UNL A   1      38.097  30.036  31.755  1.00  0.00     0.012 A 
ATOM     42  C   UNL A   1      37.474  31.104  29.661  1.00  0.00     0.148 A 
ATOM     43  C   UNL A   1      36.883  30.421  32.322  1.00  0.00     0.002 A 
ATOM     44  C   UNL A   1      36.287  31.526  30.247  1.00  0.00     0.091 A 
ATOM     45  F   UNL A   1      37.764  31.380  28.381  1.00  0.00    -0.205 F 
ATOM     46  C   UNL A   1      35.982  31.174  31.572  1.00  0.00     0.022 A 
BRANCH  44  47
ATOM     47  S   UNL A   1      35.104  32.569  29.387  1.00  0.00     0.127 S 
ATOM     48  O   UNL A   1      34.234  32.995  30.483  1.00  0.00    -0.237 OA
ATOM     49  O   UNL A   1      35.959  33.625  28.843  1.00  0.00    -0.237 OA
ATOM     50  O   UNL A   1      34.480  31.721  28.382  1.00  0.00    -0.744 OA
ENDBRANCH  44  47
ENDBRANCH  26  40
BRANCH  27  51
ATOM     51  C   UNL A   1      46.746  27.282  25.857  1.00  0.00     0.023 A 
ATOM     52  C   UNL A   1      46.864  27.577  24.486  1.00  0.00     0.012 A 
ATOM     53  C   UNL A   1      47.812  26.641  26.521  1.00  0.00     0.148 A 
ATOM     54  C   UNL A   1      48.017  27.225  23.784  1.00  0.00     0.002 A 
ATOM     55  C   UNL A   1      48.979  26.346  25.828  1.00  0.00     0.091 A 
ATOM     56  F   UNL A   1      47.674  26.369  27.826  1.00  0.00    -0.205 F 
ATOM     57  C   UNL A   1      49.077  26.622  24.456  1.00  0.00     0.022 A 
BRANCH  55  58
ATOM     58  S   UNL A   1      50.445  25.695  26.635  1.00  0.00     0.127 S 
ATOM     59  O   UNL A   1      51.366  25.552  25.511  1.00  0.00    -0.237 OA
ATOM     60  O   UNL A   1      50.773  26.774  27.568  1.00  0.00    -0.237 OA
ATOM     61  O   UNL A   1      50.031  24.453  27.271  1.00  0.00    -0.744 OA
ENDBRANCH  55  58
ENDBRANCH  27  51
BRANCH  39  62
ATOM     62  C   UNL A   1      45.010  33.048  29.427  1.00  0.00     0.023 A 
ATOM     63  C   UNL A   1      45.847  33.066  30.558  1.00  0.00     0.012 A 
ATOM     64  C   UNL A   1      44.960  34.175  28.583  1.00  0.00     0.148 A 
ATOM     65  C   UNL A   1      46.610  34.195  30.855  1.00  0.00     0.002 A 
ATOM     66  C   UNL A   1      45.762  35.276  28.854  1.00  0.00     0.091 A 
ATOM     67  F   UNL A   1      44.139  34.142  27.523  1.00  0.00    -0.205 F 
ATOM     68  C   UNL A   1      46.579  35.293  29.997  1.00  0.00     0.022 A 
BRANCH  66  69
ATOM     69  S   UNL A   1      45.864  36.690  27.752  1.00  0.00     0.127 S 
ATOM     70  O   UNL A   1      46.873  37.514  28.416  1.00  0.00    -0.237 OA
ATOM     71  O   UNL A   1      46.306  36.073  26.500  1.00  0.00    -0.237 OA
ATOM     72  O   UNL A   1      44.525  37.264  27.705  1.00  0.00    -0.744 OA
ENDBRANCH  66  69
ENDBRANCH  39  62
ENDBRANCH  13  14
ENDBRANCH   6   8
ENDBRANCH   3   4
ENDBRANCH   2   3
ENDBRANCH   1   2
BRANCH   1  73
ATOM     73  C   UNL A   1      34.834  24.622  25.173  1.00  0.00     0.002 C 
BRANCH  73  74
ATOM     74  C   UNL A   1      33.969  25.879  25.025  1.00  0.00     0.021 C 
BRANCH  74  75
ATOM     75  C   UNL A   1      33.340  26.058  23.645  1.00  0.00     0.116 C 
BRANCH  75  76
ATOM     76  N   UNL A   1      31.910  26.325  23.738  1.00  0.00    -0.352 N 
ATOM     77  C   UNL A   1      30.881  25.434  23.906  1.00  0.00     0.254 C 
ATOM     78  H   UNL A   1      31.648  27.271  23.670  1.00  0.00     0.163 HD
ATOM     79  O   UNL A   1      29.712  25.770  23.743  1.00  0.00    -0.269 OA
BRANCH  77  80
ATOM     80  C   UNL A   1      31.187  24.059  24.282  1.00  0.00     0.076 A 
ATOM     81  C   UNL A   1      31.086  23.621  25.576  1.00  0.00     0.130 A 
ATOM     82  C   UNL A   1      31.604  23.128  23.365  1.00  0.00     0.130 A 
ATOM     83  N   UNL A   1      31.451  22.385  25.957  1.00  0.00    -0.221 NA
ATOM     84  N   UNL A   1      32.002  21.880  23.709  1.00  0.00    -0.221 NA
ATOM     85  C   UNL A   1      31.935  21.555  25.014  1.00  0.00     0.227 A 
BRANCH  85  86
ATOM     86  N   UNL A   1      32.508  20.343  25.383  1.00  0.00    -0.324 N 
ATOM     87  H   UNL A   1      32.557  20.175  26.352  1.00  0.00     0.170 HD
BRANCH  86  88
ATOM     88  C   UNL A   1      33.024  19.327  24.571  1.00  0.00     0.041 A 
ATOM     89  C   UNL A   1      34.289  18.795  24.849  1.00  0.00     0.026 A 
ATOM     90  C   UNL A   1      32.266  18.730  23.555  1.00  0.00     0.026 A 
ATOM     91  C   UNL A   1      34.778  17.695  24.136  1.00  0.00     0.002 A 
ATOM     92  C   UNL A   1      32.756  17.642  22.829  1.00  0.00     0.002 A 
ATOM     93  C   UNL A   1      34.011  17.120  23.126  1.00  0.00     0.000 A 
ENDBRANCH  86  88
ENDBRANCH  85  86
ENDBRANCH  77  80
ENDBRANCH  75  76
ENDBRANCH  74  75
ENDBRANCH  73  74
ENDBRANCH   1  73
TORSDOF 18
ENDMDL
MODEL 2
REMARK VINA RESULT:     -11.5      5.495      8.313
REMARK SMILES O=C(NCCCCCCNC(=O)c1cnc(Nc2ccccc2)nc1)c1ccc(-c2c3nc(c(-c4cccc(S(=O)(=O)[O-])c4F)c4ccc([nH]4)c(-c4cccc(S(=O)(=O)[O-])c4F)c4nc(c(-c5cccc(S(=O)(=O)[O-])c5F)c5ccc2[nH]5)C=C4)C=C3)cc1
REMARK SMILES IDX 6 1 5 2 4 3 3 4 1 5 2 6 26 8 27 9 88 10 28 11 87 12 29 13
REMARK SMILES IDX 30 14 31 15 81 16 32 17 86 18 80 19 82 20 33 21 85 22 79 23
REMARK SMILES IDX 78 24 34 26 66 27 46 28 65 29 47 30 50 31 64 32 83 33 48 34
REMARK SMILES IDX 49 35 63 37 84 38 51 39 35 40 36 41 44 42 37 43 39 44 45 45
REMARK SMILES IDX 38 46 40 47 41 48 42 49 43 50 67 51 68 52 76 53 69 54 71 55
REMARK SMILES IDX 77 56 70 57 72 58 73 59 74 60 75 61 52 62 53 63 61 64 54 65
REMARK SMILES IDX 56 66 62 67 55 68 57 69 58 70 59 71 60 72 7 73 8 74 9 75
REMARK SMILES IDX 10 76 11 77 12 79 13 80 14 81 25 82 15 83 24 84 16 85 17 86
REMARK SMILES IDX 18 88 19 89 23 90 20 91 22 92 21 93
REMARK H PARENT 3 7 82 25 50 36 10 78 17 87
REMARK Flexibility Score: inf
ROOT
ATOM      1  C   UNL A   1      32.126  27.016  26.195  1.00  0.00     0.002 C 
ENDROOT
BRANCH   1   2
ATOM      2  C   UNL A   1      31.599  28.447  26.077  1.00  0.00     0.021 C 
BRANCH   2   3
ATOM      3  C   UNL A   1      32.612  29.458  25.550  1.00  0.00     0.116 C 
BRANCH   3   4
ATOM      4  N   UNL A   1      32.251  30.823  25.895  1.00  0.00    -0.352 N 
ATOM      5  O   UNL A   1      32.147  32.669  27.177  1.00  0.00    -0.269 OA
ATOM      6  C   UNL A   1      32.719  31.616  26.913  1.00  0.00     0.251 C 
ATOM      7  H   UNL A   1      31.574  31.239  25.314  1.00  0.00     0.163 HD
BRANCH   6   8
ATOM      8  C   UNL A   1      33.895  31.184  27.699  1.00  0.00     0.039 A 
ATOM      9  C   UNL A   1      34.676  32.117  28.388  1.00  0.00     0.014 A 
ATOM     10  C   UNL A   1      34.211  29.825  27.754  1.00  0.00     0.014 A 
ATOM     11  C   UNL A   1      35.844  31.709  29.025  1.00  0.00     0.010 A 
ATOM     12  C   UNL A   1      35.341  29.408  28.459  1.00  0.00     0.010 A 
ATOM     13  C   UNL A   1      36.183  30.349  29.075  1.00  0.00    -0.014 A 
BRANCH  13  14
ATOM     14  C   UNL A   1      37.387  29.903  29.819  1.00  0.00     0.031 A 
ATOM     15  C   UNL A   1      37.661  30.406  31.208  1.00  0.00     0.074 A 
ATOM     16  C   UNL A   1      38.266  29.084  29.210  1.00  0.00     0.049 A 
ATOM     17  N   UNL A   1      38.704  30.197  31.969  1.00  0.00    -0.248 NA
ATOM     18  C   UNL A   1      36.636  31.267  31.818  1.00  0.00     0.031 C 
ATOM     19  C   UNL A   1      38.120  28.554  27.853  1.00  0.00     0.029 A 
ATOM     20  N   UNL A   1      39.468  28.581  29.637  1.00  0.00    -0.354 N 
ATOM     21  C   UNL A   1      38.486  30.937  33.126  1.00  0.00     0.074 A 
ATOM     22  C   UNL A   1      37.212  31.603  32.964  1.00  0.00     0.031 C 
ATOM     23  C   UNL A   1      39.196  27.812  27.554  1.00  0.00     0.029 A 
ATOM     24  C   UNL A   1      40.130  27.861  28.672  1.00  0.00     0.049 A 
ATOM     25  H   UNL A   1      39.822  28.721  30.546  1.00  0.00     0.167 HD
ATOM     26  C   UNL A   1      39.274  31.044  34.223  1.00  0.00     0.034 A 
ATOM     27  C   UNL A   1      41.369  27.332  28.666  1.00  0.00     0.034 A 
ATOM     28  C   UNL A   1      40.533  30.364  34.379  1.00  0.00     0.049 A 
ATOM     29  C   UNL A   1      42.226  27.468  29.890  1.00  0.00     0.074 A 
ATOM     30  C   UNL A   1      41.375  30.354  35.477  1.00  0.00     0.029 A 
ATOM     31  N   UNL A   1      41.143  29.590  33.402  1.00  0.00    -0.354 N 
ATOM     32  N   UNL A   1      41.956  28.073  31.021  1.00  0.00    -0.248 NA
ATOM     33  C   UNL A   1      43.546  26.822  29.855  1.00  0.00     0.031 C 
ATOM     34  C   UNL A   1      42.512  29.607  35.150  1.00  0.00     0.029 A 
ATOM     35  C   UNL A   1      42.357  29.111  33.864  1.00  0.00     0.049 A 
ATOM     36  H   UNL A   1      40.768  29.410  32.510  1.00  0.00     0.167 HD
ATOM     37  C   UNL A   1      43.051  27.848  31.846  1.00  0.00     0.074 A 
ATOM     38  C   UNL A   1      43.987  27.045  31.086  1.00  0.00     0.031 C 
ATOM     39  C   UNL A   1      43.258  28.271  33.117  1.00  0.00     0.034 A 
BRANCH  26  40
ATOM     40  C   UNL A   1      38.793  31.927  35.347  1.00  0.00     0.023 A 
ATOM     41  C   UNL A   1      38.904  33.329  35.238  1.00  0.00     0.012 A 
ATOM     42  C   UNL A   1      38.196  31.372  36.496  1.00  0.00     0.148 A 
ATOM     43  C   UNL A   1      38.475  34.160  36.271  1.00  0.00     0.002 A 
ATOM     44  C   UNL A   1      37.726  32.209  37.501  1.00  0.00     0.091 A 
ATOM     45  F   UNL A   1      38.113  30.037  36.595  1.00  0.00    -0.205 F 
ATOM     46  C   UNL A   1      37.877  33.601  37.399  1.00  0.00     0.022 A 
BRANCH  44  47
ATOM     47  S   UNL A   1      36.868  31.586  38.952  1.00  0.00     0.127 S 
ATOM     48  O   UNL A   1      35.811  32.582  39.120  1.00  0.00    -0.237 OA
ATOM     49  O   UNL A   1      36.402  30.275  38.497  1.00  0.00    -0.237 OA
ATOM     50  O   UNL A   1      37.862  31.538  40.014  1.00  0.00    -0.744 OA
ENDBRANCH  44  47
ENDBRANCH  26  40
BRANCH  27  51
ATOM     51  C   UNL A   1      41.843  26.604  27.458  1.00  0.00     0.023 A 
ATOM     52  C   UNL A   1      42.508  27.309  26.437  1.00  0.00     0.012 A 
ATOM     53  C   UNL A   1      41.705  25.205  27.353  1.00  0.00     0.148 A 
ATOM     54  C   UNL A   1      43.011  26.637  25.324  1.00  0.00     0.002 A 
ATOM     55  C   UNL A   1      42.258  24.535  26.270  1.00  0.00     0.091 A 
ATOM     56  F   UNL A   1      41.065  24.557  28.337  1.00  0.00    -0.205 F 
ATOM     57  C   UNL A   1      42.897  25.251  25.246  1.00  0.00     0.022 A 
BRANCH  55  58
ATOM     58  S   UNL A   1      42.283  22.743  26.150  1.00  0.00     0.127 S 
ATOM     59  O   UNL A   1      40.857  22.425  26.153  1.00  0.00    -0.237 OA
ATOM     60  O   UNL A   1      42.958  22.541  24.868  1.00  0.00    -0.237 OA
ATOM     61  O   UNL A   1      43.033  22.277  27.307  1.00  0.00    -0.744 OA
ENDBRANCH  55  58
ENDBRANCH  27  51
BRANCH  39  62
ATOM     62  C   UNL A   1      44.520  27.826  33.809  1.00  0.00     0.023 A 
ATOM     63  C   UNL A   1      45.665  28.645  33.794  1.00  0.00     0.012 A 
ATOM     64  C   UNL A   1      44.528  26.636  34.564  1.00  0.00     0.148 A 
ATOM     65  C   UNL A   1      46.807  28.275  34.505  1.00  0.00     0.002 A 
ATOM     66  C   UNL A   1      45.650  26.300  35.311  1.00  0.00     0.091 A 
ATOM     67  F   UNL A   1      43.433  25.862  34.546  1.00  0.00    -0.205 F 
ATOM     68  C   UNL A   1      46.795  27.113  35.273  1.00  0.00     0.022 A 
BRANCH  66  69
ATOM     69  S   UNL A   1      45.687  24.879  36.408  1.00  0.00     0.127 S 
ATOM     70  O   UNL A   1      47.030  24.978  36.978  1.00  0.00    -0.237 OA
ATOM     71  O   UNL A   1      44.603  25.184  37.344  1.00  0.00    -0.237 OA
ATOM     72  O   UNL A   1      45.453  23.712  35.568  1.00  0.00    -0.744 OA
ENDBRANCH  66  69
ENDBRANCH  39  62
ENDBRANCH  13  14
ENDBRANCH   6   8
ENDBRANCH   3   4
ENDBRANCH   2   3
ENDBRANCH   1   2
BRANCH   1  73
ATOM     73  C   UNL A   1      33.615  26.841  25.880  1.00  0.00     0.002 C 
BRANCH  73  74
ATOM     74  C   UNL A   1      34.088  25.389  25.753  1.00  0.00     0.021 C 
BRANCH  74  75
ATOM     75  C   UNL A   1      33.151  24.483  24.958  1.00  0.00     0.116 C 
BRANCH  75  76
ATOM     76  N   UNL A   1      33.514  24.441  23.547  1.00  0.00    -0.352 N 
ATOM     77  C   UNL A   1      32.863  25.001  22.478  1.00  0.00     0.254 C 
ATOM     78  H   UNL A   1      34.336  23.944  23.333  1.00  0.00     0.163 HD
ATOM     79  O   UNL A   1      33.154  24.701  21.324  1.00  0.00    -0.269 OA
BRANCH  77  80
ATOM     80  C   UNL A   1      31.801  25.970  22.721  1.00  0.00     0.076 A 
ATOM     81  C   UNL A   1      30.606  25.610  23.286  1.00  0.00     0.130 A 
ATOM     82  C   UNL A   1      31.932  27.294  22.390  1.00  0.00     0.130 A 
ATOM     83  N   UNL A   1      29.583  26.469  23.433  1.00  0.00    -0.221 NA
ATOM     84  N   UNL A   1      30.920  28.187  22.500  1.00  0.00    -0.221 NA
ATOM     85  C   UNL A   1      29.756  27.732  23.002  1.00  0.00     0.227 A 
BRANCH  85  86
ATOM     86  N   UNL A   1      28.673  28.603  22.949  1.00  0.00    -0.324 N 
ATOM     87  H   UNL A   1      27.799  28.204  23.159  1.00  0.00     0.170 HD
BRANCH  86  88
ATOM     88  C   UNL A   1      28.653  29.968  22.639  1.00  0.00     0.041 A 
ATOM     89  C   UNL A   1      28.267  30.380  21.358  1.00  0.00     0.026 A 
ATOM     90  C   UNL A   1      28.887  30.953  23.607  1.00  0.00     0.026 A 
ATOM     91  C   UNL A   1      28.113  31.738  21.057  1.00  0.00     0.002 A 
ATOM     92  C   UNL A   1      28.752  32.310  23.307  1.00  0.00     0.002 A 
ATOM     93  C   UNL A   1      28.357  32.702  22.032  1.00  0.00     0.000 A 
ENDBRANCH  86  88
ENDBRANCH  85  86
ENDBRANCH  77  80
ENDBRANCH  75  76
ENDBRANCH  74  75
ENDBRANCH  73  74
ENDBRANCH   1  73
TORSDOF 18
ENDMDL
MODEL 3
REMARK VINA RESULT:     -11.4      5.502     10.463
REMARK SMILES O=C(NCCCCCCNC(=O)c1cnc(Nc2ccccc2)nc1)c1ccc(-c2c3nc(c(-c4cccc(S(=O)(=O)[O-])c4F)c4ccc([nH]4)c(-c4cccc(S(=O)(=O)[O-])c4F)c4nc(c(-c5cccc(S(=O)(=O)[O-])c5F)c5ccc2[nH]5)C=C4)C=C3)cc1
REMARK SMILES IDX 6 1 5 2 4 3 3 4 1 5 2 6 26 8 27 9 88 10 28 11 87 12 29 13
REMARK SMILES IDX 30 14 31 15 81 16 32 17 86 18 80 19 82 20 33 21 85 22 79 23
REMARK SMILES IDX 78 24 34 26 66 27 46 28 65 29 47 30 50 31 64 32 83 33 48 34
REMARK SMILES IDX 49 35 63 37 84 38 51 39 35 40 36 41 44 42 37 43 39 44 45 45
REMARK SMILES IDX 38 46 40 47 41 48 42 49 43 50 67 51 68 52 76 53 69 54 71 55
REMARK SMILES IDX 77 56 70 57 72 58 73 59 74 60 75 61 52 62 53 63 61 64 54 65
REMARK SMILES IDX 56 66 62 67 55 68 57 69 58 70 59 71 60 72 7 73 8 74 9 75
REMARK SMILES IDX 10 76 11 77 12 79 13 80 14 81 25 82 15 83 24 84 16 85 17 86
REMARK SMILES IDX 18 88 19 89 23 90 20 91 22 92 21 93
REMARK H PARENT 3 7 82 25 50 36 10 78 17 87
REMARK Flexibility Score: inf
ROOT
ATOM      1  C   UNL A   1      31.655  27.927  26.253  1.00  0.00     0.002 C 
ENDROOT
BRANCH   1   2
ATOM      2  C   UNL A   1      31.767  29.234  25.465  1.00  0.00     0.021 C 
BRANCH   2   3
ATOM      3  C   UNL A   1      32.946  30.116  25.857  1.00  0.00     0.116 C 
BRANCH   3   4
ATOM      4  N   UNL A   1      32.528  31.463  26.207  1.00  0.00    -0.352 N 
ATOM      5  O   UNL A   1      32.393  33.319  27.472  1.00  0.00    -0.269 OA
ATOM      6  C   UNL A   1      33.009  32.297  27.186  1.00  0.00     0.251 C 
ATOM      7  H   UNL A   1      31.794  31.831  25.664  1.00  0.00     0.163 HD
BRANCH   6   8
ATOM      8  C   UNL A   1      34.254  31.946  27.903  1.00  0.00     0.039 A 
ATOM      9  C   UNL A   1      35.299  32.869  28.015  1.00  0.00     0.014 A 
ATOM     10  C   UNL A   1      34.369  30.679  28.479  1.00  0.00     0.014 A 
ATOM     11  C   UNL A   1      36.506  32.483  28.591  1.00  0.00     0.010 A 
ATOM     12  C   UNL A   1      35.553  30.321  29.125  1.00  0.00     0.010 A 
ATOM     13  C   UNL A   1      36.642  31.208  29.160  1.00  0.00    -0.014 A 
BRANCH  13  14
ATOM     14  C   UNL A   1      37.902  30.822  29.841  1.00  0.00     0.031 A 
ATOM     15  C   UNL A   1      38.861  29.862  29.196  1.00  0.00     0.074 A 
ATOM     16  C   UNL A   1      38.151  31.299  31.077  1.00  0.00     0.049 A 
ATOM     17  N   UNL A   1      39.960  29.344  29.681  1.00  0.00    -0.248 NA
ATOM     18  C   UNL A   1      38.538  29.416  27.832  1.00  0.00     0.031 C 
ATOM     19  C   UNL A   1      37.278  32.215  31.814  1.00  0.00     0.029 A 
ATOM     20  N   UNL A   1      39.187  31.056  31.941  1.00  0.00    -0.354 N 
ATOM     21  C   UNL A   1      40.434  28.474  28.706  1.00  0.00     0.074 A 
ATOM     22  C   UNL A   1      39.500  28.533  27.602  1.00  0.00     0.031 C 
ATOM     23  C   UNL A   1      37.808  32.445  33.024  1.00  0.00     0.029 A 
ATOM     24  C   UNL A   1      39.024  31.652  33.168  1.00  0.00     0.049 A 
ATOM     25  H   UNL A   1      39.972  30.508  31.705  1.00  0.00     0.167 HD
ATOM     26  C   UNL A   1      41.549  27.704  28.728  1.00  0.00     0.034 A 
ATOM     27  C   UNL A   1      39.745  31.543  34.300  1.00  0.00     0.034 A 
ATOM     28  C   UNL A   1      42.478  27.665  29.826  1.00  0.00     0.049 A 
ATOM     29  C   UNL A   1      40.972  30.680  34.303  1.00  0.00     0.074 A 
ATOM     30  C   UNL A   1      43.670  26.969  29.920  1.00  0.00     0.029 A 
ATOM     31  N   UNL A   1      42.311  28.333  31.031  1.00  0.00    -0.354 N 
ATOM     32  N   UNL A   1      41.471  29.956  33.332  1.00  0.00    -0.248 NA
ATOM     33  C   UNL A   1      41.757  30.642  35.546  1.00  0.00     0.031 C 
ATOM     34  C   UNL A   1      44.204  27.185  31.196  1.00  0.00     0.029 A 
ATOM     35  C   UNL A   1      43.368  28.055  31.880  1.00  0.00     0.049 A 
ATOM     36  H   UNL A   1      41.551  28.919  31.250  1.00  0.00     0.167 HD
ATOM     37  C   UNL A   1      42.647  29.408  33.829  1.00  0.00     0.074 A 
ATOM     38  C   UNL A   1      42.789  29.890  35.188  1.00  0.00     0.031 C 
ATOM     39  C   UNL A   1      43.526  28.581  33.212  1.00  0.00     0.034 A 
BRANCH  26  40
ATOM     40  C   UNL A   1      41.828  26.841  27.523  1.00  0.00     0.023 A 
ATOM     41  C   UNL A   1      42.419  27.406  26.374  1.00  0.00     0.012 A 
ATOM     42  C   UNL A   1      41.541  25.461  27.541  1.00  0.00     0.148 A 
ATOM     43  C   UNL A   1      42.674  26.625  25.248  1.00  0.00     0.002 A 
ATOM     44  C   UNL A   1      41.843  24.679  26.433  1.00  0.00     0.091 A 
ATOM     45  F   UNL A   1      40.963  24.941  28.634  1.00  0.00    -0.205 F 
ATOM     46  C   UNL A   1      42.394  25.260  25.280  1.00  0.00     0.022 A 
BRANCH  44  47
ATOM     47  S   UNL A   1      41.596  22.900  26.412  1.00  0.00     0.127 S 
ATOM     48  O   UNL A   1      42.180  22.506  27.693  1.00  0.00    -0.237 OA
ATOM     49  O   UNL A   1      40.138  22.790  26.348  1.00  0.00    -0.237 OA
ATOM     50  O   UNL A   1      42.290  22.414  25.229  1.00  0.00    -0.744 OA
ENDBRANCH  44  47
ENDBRANCH  26  40
BRANCH  27  51
ATOM     51  C   UNL A   1      39.321  32.304  35.508  1.00  0.00     0.023 A 
ATOM     52  C   UNL A   1      39.565  33.688  35.579  1.00  0.00     0.012 A 
ATOM     53  C   UNL A   1      38.612  31.673  36.550  1.00  0.00     0.148 A 
ATOM     54  C   UNL A   1      39.125  34.429  36.675  1.00  0.00     0.002 A 
ATOM     55  C   UNL A   1      38.127  32.427  37.611  1.00  0.00     0.091 A 
ATOM     56  F   UNL A   1      38.395  30.353  36.460  1.00  0.00    -0.205 F 
ATOM     57  C   UNL A   1      38.396  33.802  37.683  1.00  0.00     0.022 A 
BRANCH  55  58
ATOM     58  S   UNL A   1      37.065  31.736  38.883  1.00  0.00     0.127 S 
ATOM     59  O   UNL A   1      37.908  31.849  40.070  1.00  0.00    -0.237 OA
ATOM     60  O   UNL A   1      35.924  32.652  38.847  1.00  0.00    -0.237 OA
ATOM     61  O   UNL A   1      36.762  30.378  38.454  1.00  0.00    -0.744 OA
ENDBRANCH  55  58
ENDBRANCH  27  51
BRANCH  39  62
ATOM     62  C   UNL A   1      44.766  28.183  33.969  1.00  0.00     0.023 A 
ATOM     63  C   UNL A   1      45.908  29.006  33.945  1.00  0.00     0.012 A 
ATOM     64  C   UNL A   1      44.754  27.038  34.789  1.00  0.00     0.148 A 
ATOM     65  C   UNL A   1      47.028  28.683  34.712  1.00  0.00     0.002 A 
ATOM     66  C   UNL A   1      45.852  26.751  35.590  1.00  0.00     0.091 A 
ATOM     67  F   UNL A   1      43.663  26.257  34.780  1.00  0.00    -0.205 F 
ATOM     68  C   UNL A   1      46.995  27.567  35.544  1.00  0.00     0.022 A 
BRANCH  66  69
ATOM     69  S   UNL A   1      45.859  25.394  36.767  1.00  0.00     0.127 S 
ATOM     70  O   UNL A   1      45.673  24.239  35.891  1.00  0.00    -0.237 OA
ATOM     71  O   UNL A   1      47.194  25.505  37.357  1.00  0.00    -0.237 OA
ATOM     72  O   UNL A   1      44.764  25.656  37.692  1.00  0.00    -0.744 OA
ENDBRANCH  66  69
ENDBRANCH  39  62
ENDBRANCH  13  14
ENDBRANCH   6   8
ENDBRANCH   3   4
ENDBRANCH   2   3
ENDBRANCH   1   2
BRANCH   1  73
ATOM     73  C   UNL A   1      32.987  27.330  26.718  1.00  0.00     0.002 C 
BRANCH  73  74
ATOM     74  C   UNL A   1      33.628  26.332  25.748  1.00  0.00     0.021 C 
BRANCH  74  75
ATOM     75  C   UNL A   1      32.885  25.003  25.622  1.00  0.00     0.116 C 
BRANCH  75  76
ATOM     76  N   UNL A   1      33.018  24.439  24.284  1.00  0.00    -0.352 N 
ATOM     77  C   UNL A   1      32.228  24.648  23.183  1.00  0.00     0.254 C 
ATOM     78  H   UNL A   1      33.775  23.825  24.154  1.00  0.00     0.163 HD
ATOM     79  O   UNL A   1      32.320  23.940  22.186  1.00  0.00    -0.269 OA
BRANCH  77  80
ATOM     80  C   UNL A   1      31.256  25.735  23.204  1.00  0.00     0.076 A 
ATOM     81  C   UNL A   1      30.082  25.646  23.905  1.00  0.00     0.130 A 
ATOM     82  C   UNL A   1      31.454  26.904  22.514  1.00  0.00     0.130 A 
ATOM     83  N   UNL A   1      29.134  26.598  23.862  1.00  0.00    -0.221 NA
ATOM     84  N   UNL A   1      30.517  27.878  22.426  1.00  0.00    -0.221 NA
ATOM     85  C   UNL A   1      29.363  27.678  23.091  1.00  0.00     0.227 A 
BRANCH  85  86
ATOM     86  N   UNL A   1      28.343  28.592  22.855  1.00  0.00    -0.324 N 
ATOM     87  H   UNL A   1      27.429  28.233  22.922  1.00  0.00     0.170 HD
BRANCH  86  88
ATOM     88  C   UNL A   1      28.432  29.952  22.535  1.00  0.00     0.041 A 
ATOM     89  C   UNL A   1      28.081  30.384  21.251  1.00  0.00     0.026 A 
ATOM     90  C   UNL A   1      28.745  30.922  23.496  1.00  0.00     0.026 A 
ATOM     91  C   UNL A   1      28.037  31.748  20.939  1.00  0.00     0.002 A 
ATOM     92  C   UNL A   1      28.720  32.284  23.185  1.00  0.00     0.002 A 
ATOM     93  C   UNL A   1      28.358  32.696  21.907  1.00  0.00     0.000 A 
ENDBRANCH  86  88
ENDBRANCH  85  86
ENDBRANCH  77  80
ENDBRANCH  75  76
ENDBRANCH  74  75
ENDBRANCH  73  74
ENDBRANCH   1  73
TORSDOF 18
ENDMDL
