MODEL 1
REMARK VINA RESULT:     -10.3      0.000      0.000
REMARK SMILES COc1cc(C[N@@H+]2CCO[C@@H](CC(=O)NCCCCCCNC(=O)c3ccc(-c4c5nc(c(-c6cccc(S(=O)(=O)[O-])c6F)c6ccc([nH]6)c(-c6cccc(S(=O)(=O)[O-])c6F)c6nc(c(-c7cccc(S(=O)(=O)[O-])c7F)c7ccc4[nH]7)C=C6)C=C5)cc3)C2)ccc1O
REMARK SMILES IDX 18 1 17 2 16 3 15 4 13 5 14 6 12 8 11 9 7 10 8 11 88 12 9 14
REMARK SMILES IDX 10 15 6 16 5 17 3 18 4 19 91 20 90 21 89 22 2 23 1 24 92 25
REMARK SMILES IDX 19 27 20 28 21 29 22 30 23 31 24 33 25 34 26 35 87 36 27 37
REMARK SMILES IDX 86 38 28 39 29 40 30 41 80 42 31 43 85 44 79 45 81 46 32 47
REMARK SMILES IDX 84 48 78 49 77 50 33 52 65 53 45 54 64 55 46 56 49 57 63 58
REMARK SMILES IDX 82 59 47 60 48 61 62 63 83 64 50 65 34 66 35 67 43 68 36 69
REMARK SMILES IDX 38 70 44 71 37 72 39 73 40 74 41 75 42 76 66 77 67 78 75 79
REMARK SMILES IDX 68 80 70 81 76 82 69 83 71 84 72 85 73 86 74 87 51 88 52 89
REMARK SMILES IDX 60 90 53 91 55 92 61 93 54 94 56 95 57 96 58 97 59 98
REMARK H PARENT 15 7 7 13 92 26 22 32 81 51 49 62
REMARK Flexibility Score: inf
ROOT
ATOM      1  C   UNL A   1      37.748  23.147  25.621  1.00  0.00     0.002 C 
ENDROOT
BRANCH   1   2
ATOM      2  C   UNL A   1      36.786  22.248  24.849  1.00  0.00     0.021 C 
BRANCH   2   3
ATOM      3  C   UNL A   1      35.869  21.404  25.740  1.00  0.00     0.116 C 
BRANCH   3   4
ATOM      4  N   UNL A   1      35.354  20.262  24.998  1.00  0.00    -0.356 N 
ATOM      5  C   UNL A   1      34.101  19.722  25.002  1.00  0.00     0.222 C 
ATOM      6  O   UNL A   1      33.916  18.652  24.420  1.00  0.00    -0.275 OA
ATOM      7  H   UNL A   1      36.004  19.816  24.409  1.00  0.00     0.163 HD
BRANCH   5   8
ATOM      8  C   UNL A   1      32.974  20.435  25.711  1.00  0.00     0.138 C 
BRANCH   8   9
ATOM      9  C   UNL A   1      32.332  21.567  24.903  1.00  0.00     0.182 C 
ATOM     10  N   UNL A   1      32.070  24.115  24.758  1.00  0.00    -0.327 N 
ATOM     11  C   UNL A   1      32.518  23.983  23.368  1.00  0.00     0.291 C 
ATOM     12  C   UNL A   1      32.486  22.959  25.555  1.00  0.00     0.295 C 
ATOM     13  H   UNL A   1      32.572  24.924  25.125  1.00  0.00     0.348 HD
ATOM     14  C   UNL A   1      32.421  22.570  22.761  1.00  0.00     0.222 C 
ATOM     15  O   UNL A   1      32.979  21.564  23.615  1.00  0.00    -0.366 OA
BRANCH  10  16
ATOM     16  C   UNL A   1      30.707  24.601  24.986  1.00  0.00     0.299 C 
BRANCH  16  17
ATOM     17  C   UNL A   1      30.518  26.083  24.789  1.00  0.00     0.010 A 
ATOM     18  C   UNL A   1      31.405  28.324  25.142  1.00  0.00     0.160 A 
ATOM     19  C   UNL A   1      31.306  26.983  25.517  1.00  0.00     0.060 A 
ATOM     20  C   UNL A   1      30.622  28.775  24.078  1.00  0.00     0.157 A 
ATOM     21  C   UNL A   1      29.721  27.922  23.437  1.00  0.00     0.051 A 
ATOM     22  C   UNL A   1      29.669  26.576  23.790  1.00  0.00     0.013 A 
BRANCH  18  23
ATOM     23  O   UNL A   1      32.307  29.024  25.891  1.00  0.00    -0.493 OA
ATOM     24  C   UNL A   1      31.912  29.418  27.194  1.00  0.00     0.278 C 
ENDBRANCH  18  23
BRANCH  20  25
ATOM     25  O   UNL A   1      30.719  30.038  23.571  1.00  0.00    -0.504 OA
ATOM     26  H   UNL A   1      30.897  30.166  22.661  1.00  0.00     0.293 HD
ENDBRANCH  20  25
ENDBRANCH  16  17
ENDBRANCH  10  16
ENDBRANCH   8   9
ENDBRANCH   5   8
ENDBRANCH   3   4
ENDBRANCH   2   3
ENDBRANCH   1   2
BRANCH   1  27
ATOM     27  C   UNL A   1      38.914  22.406  26.278  1.00  0.00     0.002 C 
BRANCH  27  28
ATOM     28  C   UNL A   1      39.344  21.111  25.579  1.00  0.00     0.021 C 
BRANCH  28  29
ATOM     29  C   UNL A   1      39.628  19.940  26.516  1.00  0.00     0.116 C 
BRANCH  29  30
ATOM     30  N   UNL A   1      40.875  19.274  26.178  1.00  0.00    -0.352 N 
ATOM     31  C   UNL A   1      42.115  19.818  25.955  1.00  0.00     0.251 C 
ATOM     32  H   UNL A   1      40.823  18.295  26.098  1.00  0.00     0.163 HD
ATOM     33  O   UNL A   1      42.997  19.142  25.438  1.00  0.00    -0.269 OA
BRANCH  31  34
ATOM     34  C   UNL A   1      42.381  21.220  26.342  1.00  0.00     0.039 A 
ATOM     35  C   UNL A   1      42.440  21.552  27.697  1.00  0.00     0.014 A 
ATOM     36  C   UNL A   1      42.536  22.209  25.365  1.00  0.00     0.014 A 
ATOM     37  C   UNL A   1      42.687  22.874  28.074  1.00  0.00     0.010 A 
ATOM     38  C   UNL A   1      42.851  23.511  25.744  1.00  0.00     0.010 A 
ATOM     39  C   UNL A   1      42.907  23.861  27.100  1.00  0.00    -0.014 A 
BRANCH  39  40
ATOM     40  C   UNL A   1      43.162  25.274  27.477  1.00  0.00     0.031 A 
ATOM     41  C   UNL A   1      44.564  25.823  27.421  1.00  0.00     0.074 A 
ATOM     42  C   UNL A   1      42.155  26.037  27.944  1.00  0.00     0.049 A 
ATOM     43  N   UNL A   1      45.003  27.005  27.768  1.00  0.00    -0.248 NA
ATOM     44  C   UNL A   1      45.617  24.912  26.939  1.00  0.00     0.031 C 
ATOM     45  C   UNL A   1      40.771  25.596  28.117  1.00  0.00     0.029 A 
ATOM     46  N   UNL A   1      42.148  27.336  28.386  1.00  0.00    -0.354 N 
ATOM     47  C   UNL A   1      46.380  26.967  27.586  1.00  0.00     0.074 A 
ATOM     48  C   UNL A   1      46.711  25.636  27.131  1.00  0.00     0.031 C 
ATOM     49  C   UNL A   1      40.048  26.607  28.628  1.00  0.00     0.029 A 
ATOM     50  C   UNL A   1      40.920  27.758  28.841  1.00  0.00     0.049 A 
ATOM     51  H   UNL A   1      42.947  27.913  28.379  1.00  0.00     0.167 HD
ATOM     52  C   UNL A   1      47.286  27.960  27.752  1.00  0.00     0.034 A 
ATOM     53  C   UNL A   1      40.543  28.938  29.371  1.00  0.00     0.034 A 
ATOM     54  C   UNL A   1      46.945  29.299  28.150  1.00  0.00     0.049 A 
ATOM     55  C   UNL A   1      41.558  30.044  29.488  1.00  0.00     0.074 A 
ATOM     56  C   UNL A   1      47.774  30.401  28.262  1.00  0.00     0.029 A 
ATOM     57  N   UNL A   1      45.672  29.718  28.501  1.00  0.00    -0.354 N 
ATOM     58  N   UNL A   1      42.828  30.035  29.162  1.00  0.00    -0.248 NA
ATOM     59  C   UNL A   1      41.080  31.333  30.007  1.00  0.00     0.031 C 
ATOM     60  C   UNL A   1      47.001  31.485  28.694  1.00  0.00     0.029 A 
ATOM     61  C   UNL A   1      45.690  31.061  28.831  1.00  0.00     0.049 A 
ATOM     62  H   UNL A   1      44.871  29.143  28.514  1.00  0.00     0.167 HD
ATOM     63  C   UNL A   1      43.290  31.326  29.396  1.00  0.00     0.074 A 
ATOM     64  C   UNL A   1      42.159  32.093  29.874  1.00  0.00     0.031 C 
ATOM     65  C   UNL A   1      44.540  31.826  29.243  1.00  0.00     0.034 A 
BRANCH  52  66
ATOM     66  C   UNL A   1      48.728  27.653  27.442  1.00  0.00     0.023 A 
ATOM     67  C   UNL A   1      49.562  27.142  28.457  1.00  0.00     0.012 A 
ATOM     68  C   UNL A   1      49.243  27.816  26.141  1.00  0.00     0.148 A 
ATOM     69  C   UNL A   1      50.896  26.831  28.193  1.00  0.00     0.002 A 
ATOM     70  C   UNL A   1      50.562  27.461  25.874  1.00  0.00     0.091 A 
ATOM     71  F   UNL A   1      48.443  28.323  25.193  1.00  0.00    -0.205 F 
ATOM     72  C   UNL A   1      51.392  26.980  26.901  1.00  0.00     0.022 A 
BRANCH  70  73
ATOM     73  S   UNL A   1      51.272  27.541  24.227  1.00  0.00     0.127 S 
ATOM     74  O   UNL A   1      52.591  26.947  24.445  1.00  0.00    -0.237 OA
ATOM     75  O   UNL A   1      50.351  26.708  23.452  1.00  0.00    -0.237 OA
ATOM     76  O   UNL A   1      51.274  28.949  23.858  1.00  0.00    -0.744 OA
ENDBRANCH  70  73
ENDBRANCH  52  66
BRANCH  53  77
ATOM     77  C   UNL A   1      39.121  29.161  29.757  1.00  0.00     0.023 A 
ATOM     78  C   UNL A   1      38.693  28.800  31.050  1.00  0.00     0.012 A 
ATOM     79  C   UNL A   1      38.200  29.748  28.869  1.00  0.00     0.148 A 
ATOM     80  C   UNL A   1      37.367  28.988  31.440  1.00  0.00     0.002 A 
ATOM     81  C   UNL A   1      36.893  29.983  29.282  1.00  0.00     0.091 A 
ATOM     82  F   UNL A   1      38.622  30.074  27.639  1.00  0.00    -0.205 F 
ATOM     83  C   UNL A   1      36.470  29.588  30.560  1.00  0.00     0.022 A 
BRANCH  81  84
ATOM     84  S   UNL A   1      35.706  30.866  28.263  1.00  0.00     0.127 S 
ATOM     85  O   UNL A   1      35.374  29.867  27.253  1.00  0.00    -0.237 OA
ATOM     86  O   UNL A   1      34.638  31.154  29.221  1.00  0.00    -0.237 OA
ATOM     87  O   UNL A   1      36.409  32.048  27.781  1.00  0.00    -0.744 OA
ENDBRANCH  81  84
ENDBRANCH  53  77
BRANCH  65  88
ATOM     88  C   UNL A   1      44.754  33.285  29.551  1.00  0.00     0.023 A 
ATOM     89  C   UNL A   1      45.153  33.677  30.844  1.00  0.00     0.012 A 
ATOM     90  C   UNL A   1      44.638  34.256  28.537  1.00  0.00     0.148 A 
ATOM     91  C   UNL A   1      45.405  35.019  31.130  1.00  0.00     0.002 A 
ATOM     92  C   UNL A   1      44.937  35.584  28.817  1.00  0.00     0.091 A 
ATOM     93  F   UNL A   1      44.238  33.864  27.318  1.00  0.00    -0.205 F 
ATOM     94  C   UNL A   1      45.309  35.969  30.115  1.00  0.00     0.022 A 
BRANCH  92  95
ATOM     95  S   UNL A   1      44.936  36.856  27.549  1.00  0.00     0.127 S 
ATOM     96  O   UNL A   1      45.537  37.984  28.257  1.00  0.00    -0.237 OA
ATOM     97  O   UNL A   1      45.785  36.264  26.514  1.00  0.00    -0.237 OA
ATOM     98  O   UNL A   1      43.543  37.028  27.158  1.00  0.00    -0.744 OA
ENDBRANCH  92  95
ENDBRANCH  65  88
ENDBRANCH  39  40
ENDBRANCH  31  34
ENDBRANCH  29  30
ENDBRANCH  28  29
ENDBRANCH  27  28
ENDBRANCH   1  27
TORSDOF 21
ENDMDL
MODEL 2
REMARK VINA RESULT:     -10.1      1.901      7.734
REMARK SMILES COc1cc(C[N@@H+]2CCO[C@@H](CC(=O)NCCCCCCNC(=O)c3ccc(-c4c5nc(c(-c6cccc(S(=O)(=O)[O-])c6F)c6ccc([nH]6)c(-c6cccc(S(=O)(=O)[O-])c6F)c6nc(c(-c7cccc(S(=O)(=O)[O-])c7F)c7ccc4[nH]7)C=C6)C=C5)cc3)C2)ccc1O
REMARK SMILES IDX 18 1 17 2 16 3 15 4 13 5 14 6 12 8 11 9 7 10 8 11 88 12 9 14
REMARK SMILES IDX 10 15 6 16 5 17 3 18 4 19 91 20 90 21 89 22 2 23 1 24 92 25
REMARK SMILES IDX 19 27 20 28 21 29 22 30 23 31 24 33 25 34 26 35 87 36 27 37
REMARK SMILES IDX 86 38 28 39 29 40 30 41 80 42 31 43 85 44 79 45 81 46 32 47
REMARK SMILES IDX 84 48 78 49 77 50 33 52 65 53 45 54 64 55 46 56 49 57 63 58
REMARK SMILES IDX 82 59 47 60 48 61 62 63 83 64 50 65 34 66 35 67 43 68 36 69
REMARK SMILES IDX 38 70 44 71 37 72 39 73 40 74 41 75 42 76 66 77 67 78 75 79
REMARK SMILES IDX 68 80 70 81 76 82 69 83 71 84 72 85 73 86 74 87 51 88 52 89
REMARK SMILES IDX 60 90 53 91 55 92 61 93 54 94 56 95 57 96 58 97 59 98
REMARK H PARENT 15 7 7 13 92 26 22 32 81 51 49 62
REMARK Flexibility Score: inf
ROOT
ATOM      1  C   UNL A   1      37.138  22.229  25.198  1.00  0.00     0.002 C 
ENDROOT
BRANCH   1   2
ATOM      2  C   UNL A   1      35.718  22.565  25.644  1.00  0.00     0.021 C 
BRANCH   2   3
ATOM      3  C   UNL A   1      35.063  21.483  26.509  1.00  0.00     0.116 C 
BRANCH   3   4
ATOM      4  N   UNL A   1      34.133  20.694  25.714  1.00  0.00    -0.356 N 
ATOM      5  C   UNL A   1      32.779  20.815  25.592  1.00  0.00     0.222 C 
ATOM      6  O   UNL A   1      32.158  19.940  24.989  1.00  0.00    -0.275 OA
ATOM      7  H   UNL A   1      34.540  19.968  25.188  1.00  0.00     0.163 HD
BRANCH   5   8
ATOM      8  C   UNL A   1      32.071  22.008  26.193  1.00  0.00     0.138 C 
BRANCH   8   9
ATOM      9  C   UNL A   1      31.983  23.225  25.267  1.00  0.00     0.182 C 
ATOM     10  N   UNL A   1      31.707  23.949  22.821  1.00  0.00    -0.327 N 
ATOM     11  C   UNL A   1      30.609  24.796  23.298  1.00  0.00     0.291 C 
ATOM     12  C   UNL A   1      31.981  22.862  23.765  1.00  0.00     0.295 C 
ATOM     13  H   UNL A   1      31.357  23.516  21.965  1.00  0.00     0.348 HD
ATOM     14  C   UNL A   1      30.592  25.086  24.812  1.00  0.00     0.222 C 
ATOM     15  O   UNL A   1      30.755  23.901  25.601  1.00  0.00    -0.366 OA
BRANCH  10  16
ATOM     16  C   UNL A   1      32.878  24.617  22.248  1.00  0.00     0.299 C 
BRANCH  16  17
ATOM     17  C   UNL A   1      33.177  25.979  22.821  1.00  0.00     0.010 A 
ATOM     18  C   UNL A   1      32.553  28.330  22.945  1.00  0.00     0.160 A 
ATOM     19  C   UNL A   1      32.573  27.112  22.263  1.00  0.00     0.060 A 
ATOM     20  C   UNL A   1      33.236  28.421  24.159  1.00  0.00     0.157 A 
ATOM     21  C   UNL A   1      33.968  27.341  24.655  1.00  0.00     0.051 A 
ATOM     22  C   UNL A   1      33.938  26.118  23.989  1.00  0.00     0.013 A 
BRANCH  18  23
ATOM     23  O   UNL A   1      31.819  29.288  22.307  1.00  0.00    -0.493 OA
ATOM     24  C   UNL A   1      30.408  29.163  22.336  1.00  0.00     0.278 C 
ENDBRANCH  18  23
BRANCH  20  25
ATOM     25  O   UNL A   1      33.195  29.533  24.948  1.00  0.00    -0.504 OA
ATOM     26  H   UNL A   1      32.768  29.502  25.781  1.00  0.00     0.293 HD
ENDBRANCH  20  25
ENDBRANCH  16  17
ENDBRANCH  10  16
ENDBRANCH   8   9
ENDBRANCH   5   8
ENDBRANCH   3   4
ENDBRANCH   2   3
ENDBRANCH   1   2
BRANCH   1  27
ATOM     27  C   UNL A   1      37.247  20.967  24.339  1.00  0.00     0.002 C 
BRANCH  27  28
ATOM     28  C   UNL A   1      38.046  19.817  24.963  1.00  0.00     0.021 C 
BRANCH  28  29
ATOM     29  C   UNL A   1      39.155  20.251  25.917  1.00  0.00     0.116 C 
BRANCH  29  30
ATOM     30  N   UNL A   1      40.224  19.267  25.977  1.00  0.00    -0.352 N 
ATOM     31  C   UNL A   1      41.580  19.463  26.033  1.00  0.00     0.251 C 
ATOM     32  H   UNL A   1      39.933  18.326  25.977  1.00  0.00     0.163 HD
ATOM     33  O   UNL A   1      42.345  18.527  25.827  1.00  0.00    -0.269 OA
BRANCH  31  34
ATOM     34  C   UNL A   1      42.115  20.806  26.344  1.00  0.00     0.039 A 
ATOM     35  C   UNL A   1      42.261  21.186  27.680  1.00  0.00     0.014 A 
ATOM     36  C   UNL A   1      42.436  21.699  25.317  1.00  0.00     0.014 A 
ATOM     37  C   UNL A   1      42.761  22.454  27.987  1.00  0.00     0.010 A 
ATOM     38  C   UNL A   1      42.999  22.934  25.625  1.00  0.00     0.010 A 
ATOM     39  C   UNL A   1      43.146  23.333  26.961  1.00  0.00    -0.014 A 
BRANCH  39  40
ATOM     40  C   UNL A   1      43.671  24.688  27.262  1.00  0.00     0.031 A 
ATOM     41  C   UNL A   1      42.742  25.754  27.782  1.00  0.00     0.074 A 
ATOM     42  C   UNL A   1      44.959  24.984  26.996  1.00  0.00     0.049 A 
ATOM     43  N   UNL A   1      42.991  27.010  28.045  1.00  0.00    -0.248 NA
ATOM     44  C   UNL A   1      41.339  25.362  28.008  1.00  0.00     0.031 C 
ATOM     45  C   UNL A   1      45.936  24.060  26.420  1.00  0.00     0.029 A 
ATOM     46  N   UNL A   1      45.656  26.155  27.147  1.00  0.00    -0.354 N 
ATOM     47  C   UNL A   1      41.776  27.567  28.426  1.00  0.00     0.074 A 
ATOM     48  C   UNL A   1      40.782  26.522  28.328  1.00  0.00     0.031 C 
ATOM     49  C   UNL A   1      47.108  24.699  26.267  1.00  0.00     0.029 A 
ATOM     50  C   UNL A   1      46.959  26.081  26.711  1.00  0.00     0.049 A 
ATOM     51  H   UNL A   1      45.263  26.972  27.532  1.00  0.00     0.167 HD
ATOM     52  C   UNL A   1      41.515  28.826  28.851  1.00  0.00     0.034 A 
ATOM     53  C   UNL A   1      47.921  27.024  26.671  1.00  0.00     0.034 A 
ATOM     54  C   UNL A   1      42.517  29.846  29.001  1.00  0.00     0.049 A 
ATOM     55  C   UNL A   1      47.620  28.399  27.205  1.00  0.00     0.074 A 
ATOM     56  C   UNL A   1      42.373  31.126  29.506  1.00  0.00     0.029 A 
ATOM     57  N   UNL A   1      43.849  29.702  28.647  1.00  0.00    -0.354 N 
ATOM     58  N   UNL A   1      46.501  28.861  27.708  1.00  0.00    -0.248 NA
ATOM     59  C   UNL A   1      48.724  29.370  27.203  1.00  0.00     0.031 C 
ATOM     60  C   UNL A   1      43.618  31.761  29.445  1.00  0.00     0.029 A 
ATOM     61  C   UNL A   1      44.540  30.869  28.922  1.00  0.00     0.049 A 
ATOM     62  H   UNL A   1      44.245  28.889  28.258  1.00  0.00     0.167 HD
ATOM     63  C   UNL A   1      46.776  30.160  28.121  1.00  0.00     0.074 A 
ATOM     64  C   UNL A   1      48.172  30.404  27.825  1.00  0.00     0.031 C 
ATOM     65  C   UNL A   1      45.946  31.073  28.680  1.00  0.00     0.034 A 
BRANCH  52  66
ATOM     66  C   UNL A   1      40.097  29.154  29.244  1.00  0.00     0.023 A 
ATOM     67  C   UNL A   1      39.151  29.452  28.242  1.00  0.00     0.012 A 
ATOM     68  C   UNL A   1      39.688  29.114  30.591  1.00  0.00     0.148 A 
ATOM     69  C   UNL A   1      37.828  29.741  28.575  1.00  0.00     0.002 A 
ATOM     70  C   UNL A   1      38.357  29.358  30.912  1.00  0.00     0.091 A 
ATOM     71  F   UNL A   1      40.605  28.849  31.532  1.00  0.00    -0.205 F 
ATOM     72  C   UNL A   1      37.429  29.683  29.907  1.00  0.00     0.022 A 
BRANCH  70  73
ATOM     73  S   UNL A   1      37.725  29.230  32.588  1.00  0.00     0.127 S 
ATOM     74  O   UNL A   1      37.748  27.784  32.803  1.00  0.00    -0.237 OA
ATOM     75  O   UNL A   1      38.727  29.975  33.353  1.00  0.00    -0.237 OA
ATOM     76  O   UNL A   1      36.403  29.839  32.567  1.00  0.00    -0.744 OA
ENDBRANCH  70  73
ENDBRANCH  52  66
BRANCH  53  77
ATOM     77  C   UNL A   1      49.284  26.676  26.178  1.00  0.00     0.023 A 
ATOM     78  C   UNL A   1      50.118  25.866  26.973  1.00  0.00     0.012 A 
ATOM     79  C   UNL A   1      49.749  27.117  24.925  1.00  0.00     0.148 A 
ATOM     80  C   UNL A   1      51.402  25.529  26.545  1.00  0.00     0.002 A 
ATOM     81  C   UNL A   1      51.009  26.734  24.479  1.00  0.00     0.091 A 
ATOM     82  F   UNL A   1      48.946  27.898  24.187  1.00  0.00    -0.205 F 
ATOM     83  C   UNL A   1      51.844  25.955  25.294  1.00  0.00     0.022 A 
BRANCH  81  84
ATOM     84  S   UNL A   1      51.608  27.127  22.832  1.00  0.00     0.127 S 
ATOM     85  O   UNL A   1      52.805  26.296  22.741  1.00  0.00    -0.237 OA
ATOM     86  O   UNL A   1      50.492  26.696  21.991  1.00  0.00    -0.237 OA
ATOM     87  O   UNL A   1      51.833  28.567  22.832  1.00  0.00    -0.744 OA
ENDBRANCH  81  84
ENDBRANCH  53  77
BRANCH  65  88
ATOM     88  C   UNL A   1      46.525  32.411  29.056  1.00  0.00     0.023 A 
ATOM     89  C   UNL A   1      47.107  32.592  30.325  1.00  0.00     0.012 A 
ATOM     90  C   UNL A   1      46.566  33.463  28.119  1.00  0.00     0.148 A 
ATOM     91  C   UNL A   1      47.695  33.809  30.668  1.00  0.00     0.002 A 
ATOM     92  C   UNL A   1      47.196  34.657  28.450  1.00  0.00     0.091 A 
ATOM     93  F   UNL A   1      45.989  33.277  26.923  1.00  0.00    -0.205 F 
ATOM     94  C   UNL A   1      47.749  34.836  29.728  1.00  0.00     0.022 A 
BRANCH  92  95
ATOM     95  S   UNL A   1      47.399  35.994  27.269  1.00  0.00     0.127 S 
ATOM     96  O   UNL A   1      48.235  35.366  26.248  1.00  0.00    -0.237 OA
ATOM     97  O   UNL A   1      46.020  36.254  26.853  1.00  0.00    -0.237 OA
ATOM     98  O   UNL A   1      48.021  37.087  28.006  1.00  0.00    -0.744 OA
ENDBRANCH  92  95
ENDBRANCH  65  88
ENDBRANCH  39  40
ENDBRANCH  31  34
ENDBRANCH  29  30
ENDBRANCH  28  29
ENDBRANCH  27  28
ENDBRANCH   1  27
TORSDOF 21
ENDMDL
MODEL 3
REMARK VINA RESULT:     -10.0      6.064     11.054
REMARK SMILES COc1cc(C[N@@H+]2CCO[C@@H](CC(=O)NCCCCCCNC(=O)c3ccc(-c4c5nc(c(-c6cccc(S(=O)(=O)[O-])c6F)c6ccc([nH]6)c(-c6cccc(S(=O)(=O)[O-])c6F)c6nc(c(-c7cccc(S(=O)(=O)[O-])c7F)c7ccc4[nH]7)C=C6)C=C5)cc3)C2)ccc1O
REMARK SMILES IDX 18 1 17 2 16 3 15 4 13 5 14 6 12 8 11 9 7 10 8 11 88 12 9 14
REMARK SMILES IDX 10 15 6 16 5 17 3 18 4 19 91 20 90 21 89 22 2 23 1 24 92 25
REMARK SMILES IDX 19 27 20 28 21 29 22 30 23 31 24 33 25 34 26 35 87 36 27 37
REMARK SMILES IDX 86 38 28 39 29 40 30 41 80 42 31 43 85 44 79 45 81 46 32 47
REMARK SMILES IDX 84 48 78 49 77 50 33 52 65 53 45 54 64 55 46 56 49 57 63 58
REMARK SMILES IDX 82 59 47 60 48 61 62 63 83 64 50 65 34 66 35 67 43 68 36 69
REMARK SMILES IDX 38 70 44 71 37 72 39 73 40 74 41 75 42 76 66 77 67 78 75 79
REMARK SMILES IDX 68 80 70 81 76 82 69 83 71 84 72 85 73 86 74 87 51 88 52 89
REMARK SMILES IDX 60 90 53 91 55 92 61 93 54 94 56 95 57 96 58 97 59 98
REMARK H PARENT 15 7 7 13 92 26 22 32 81 51 49 62
REMARK Flexibility Score: inf
ROOT
ATOM      1  C   UNL A   1      33.591  30.243  27.039  1.00  0.00     0.002 C 
ENDROOT
BRANCH   1   2
ATOM      2  C   UNL A   1      32.262  30.406  26.306  1.00  0.00     0.021 C 
BRANCH   2   3
ATOM      3  C   UNL A   1      31.966  29.295  25.293  1.00  0.00     0.116 C 
BRANCH   3   4
ATOM      4  N   UNL A   1      31.156  29.809  24.199  1.00  0.00    -0.356 N 
ATOM      5  C   UNL A   1      30.370  29.132  23.312  1.00  0.00     0.222 C 
ATOM      6  O   UNL A   1      29.892  29.745  22.357  1.00  0.00    -0.275 OA
ATOM      7  H   UNL A   1      31.177  30.786  24.083  1.00  0.00     0.163 HD
BRANCH   5   8
ATOM      8  C   UNL A   1      30.104  27.658  23.512  1.00  0.00     0.138 C 
BRANCH   8   9
ATOM      9  C   UNL A   1      31.338  26.764  23.358  1.00  0.00     0.182 C 
ATOM     10  N   UNL A   1      32.126  24.325  23.242  1.00  0.00    -0.327 N 
ATOM     11  C   UNL A   1      32.804  24.706  21.998  1.00  0.00     0.291 C 
ATOM     12  C   UNL A   1      31.044  25.261  23.558  1.00  0.00     0.295 C 
ATOM     13  H   UNL A   1      31.690  23.424  23.042  1.00  0.00     0.348 HD
ATOM     14  C   UNL A   1      33.022  26.217  21.787  1.00  0.00     0.222 C 
ATOM     15  O   UNL A   1      31.836  26.984  22.023  1.00  0.00    -0.366 OA
BRANCH  10  16
ATOM     16  C   UNL A   1      32.964  23.902  24.366  1.00  0.00     0.299 C 
BRANCH  16  17
ATOM     17  C   UNL A   1      33.451  22.477  24.296  1.00  0.00     0.010 A 
ATOM     18  C   UNL A   1      35.095  20.838  25.033  1.00  0.00     0.160 A 
ATOM     19  C   UNL A   1      34.729  22.159  24.772  1.00  0.00     0.060 A 
ATOM     20  C   UNL A   1      34.190  19.824  24.715  1.00  0.00     0.157 A 
ATOM     21  C   UNL A   1      32.971  20.116  24.101  1.00  0.00     0.051 A 
ATOM     22  C   UNL A   1      32.599  21.442  23.892  1.00  0.00     0.013 A 
BRANCH  18  23
ATOM     23  O   UNL A   1      36.331  20.727  25.603  1.00  0.00    -0.493 OA
ATOM     24  C   UNL A   1      37.400  20.305  24.775  1.00  0.00     0.278 C 
ENDBRANCH  18  23
BRANCH  20  25
ATOM     25  O   UNL A   1      34.411  18.513  25.020  1.00  0.00    -0.504 OA
ATOM     26  H   UNL A   1      35.158  18.069  24.671  1.00  0.00     0.293 HD
ENDBRANCH  20  25
ENDBRANCH  16  17
ENDBRANCH  10  16
ENDBRANCH   8   9
ENDBRANCH   5   8
ENDBRANCH   3   4
ENDBRANCH   2   3
ENDBRANCH   1   2
BRANCH   1  27
ATOM     27  C   UNL A   1      34.006  31.460  27.867  1.00  0.00     0.002 C 
BRANCH  27  28
ATOM     28  C   UNL A   1      33.013  32.628  27.861  1.00  0.00     0.021 C 
BRANCH  28  29
ATOM     29  C   UNL A   1      33.652  34.013  27.910  1.00  0.00     0.116 C 
BRANCH  29  30
ATOM     30  N   UNL A   1      33.108  34.814  28.995  1.00  0.00    -0.352 N 
ATOM     31  C   UNL A   1      33.394  34.765  30.336  1.00  0.00     0.251 C 
ATOM     32  H   UNL A   1      32.440  35.487  28.730  1.00  0.00     0.163 HD
ATOM     33  O   UNL A   1      32.666  35.337  31.140  1.00  0.00    -0.269 OA
BRANCH  31  34
ATOM     34  C   UNL A   1      34.584  34.023  30.806  1.00  0.00     0.039 A 
ATOM     35  C   UNL A   1      35.854  34.482  30.453  1.00  0.00     0.014 A 
ATOM     36  C   UNL A   1      34.440  32.856  31.562  1.00  0.00     0.014 A 
ATOM     37  C   UNL A   1      36.985  33.786  30.887  1.00  0.00     0.010 A 
ATOM     38  C   UNL A   1      35.568  32.205  32.051  1.00  0.00     0.010 A 
ATOM     39  C   UNL A   1      36.851  32.649  31.700  1.00  0.00    -0.014 A 
BRANCH  39  40
ATOM     40  C   UNL A   1      38.038  31.890  32.166  1.00  0.00     0.031 A 
ATOM     41  C   UNL A   1      38.698  32.256  33.469  1.00  0.00     0.074 A 
ATOM     42  C   UNL A   1      38.568  30.927  31.386  1.00  0.00     0.049 A 
ATOM     43  N   UNL A   1      39.776  31.760  34.018  1.00  0.00    -0.248 NA
ATOM     44  C   UNL A   1      38.082  33.348  34.244  1.00  0.00     0.031 C 
ATOM     45  C   UNL A   1      38.065  30.533  30.070  1.00  0.00     0.029 A 
ATOM     46  N   UNL A   1      39.666  30.127  31.576  1.00  0.00    -0.354 N 
ATOM     47  C   UNL A   1      39.990  32.500  35.175  1.00  0.00     0.074 A 
ATOM     48  C   UNL A   1      38.951  33.503  35.233  1.00  0.00     0.031 C 
ATOM     49  C   UNL A   1      38.852  29.566  29.570  1.00  0.00     0.029 A 
ATOM     50  C   UNL A   1      39.926  29.288  30.517  1.00  0.00     0.049 A 
ATOM     51  H   UNL A   1      40.216  30.151  32.392  1.00  0.00     0.167 HD
ATOM     52  C   UNL A   1      40.946  32.340  36.121  1.00  0.00     0.034 A 
ATOM     53  C   UNL A   1      40.921  28.398  30.332  1.00  0.00     0.034 A 
ATOM     54  C   UNL A   1      41.943  31.305  36.087  1.00  0.00     0.049 A 
ATOM     55  C   UNL A   1      41.936  28.198  31.427  1.00  0.00     0.074 A 
ATOM     56  C   UNL A   1      42.901  31.001  37.038  1.00  0.00     0.029 A 
ATOM     57  N   UNL A   1      42.110  30.404  35.047  1.00  0.00    -0.354 N 
ATOM     58  N   UNL A   1      42.028  28.803  32.586  1.00  0.00    -0.248 NA
ATOM     59  C   UNL A   1      42.959  27.166  31.206  1.00  0.00     0.031 C 
ATOM     60  C   UNL A   1      43.657  29.923  36.565  1.00  0.00     0.029 A 
ATOM     61  C   UNL A   1      43.156  29.543  35.331  1.00  0.00     0.049 A 
ATOM     62  H   UNL A   1      41.565  30.380  34.227  1.00  0.00     0.167 HD
ATOM     63  C   UNL A   1      43.090  28.198  33.249  1.00  0.00     0.074 A 
ATOM     64  C   UNL A   1      43.598  27.168  32.368  1.00  0.00     0.031 C 
ATOM     65  C   UNL A   1      43.607  28.480  34.470  1.00  0.00     0.034 A 
BRANCH  52  66
ATOM     66  C   UNL A   1      40.921  33.269  37.307  1.00  0.00     0.023 A 
ATOM     67  C   UNL A   1      40.073  32.980  38.396  1.00  0.00     0.012 A 
ATOM     68  C   UNL A   1      41.769  34.391  37.370  1.00  0.00     0.148 A 
ATOM     69  C   UNL A   1      40.043  33.812  39.515  1.00  0.00     0.002 A 
ATOM     70  C   UNL A   1      41.767  35.191  38.509  1.00  0.00     0.091 A 
ATOM     71  F   UNL A   1      42.553  34.663  36.318  1.00  0.00    -0.205 F 
ATOM     72  C   UNL A   1      40.896  34.909  39.576  1.00  0.00     0.022 A 
BRANCH  70  73
ATOM     73  S   UNL A   1      42.884  36.581  38.719  1.00  0.00     0.127 S 
ATOM     74  O   UNL A   1      42.233  37.322  39.799  1.00  0.00    -0.237 OA
ATOM     75  O   UNL A   1      44.133  35.918  39.101  1.00  0.00    -0.237 OA
ATOM     76  O   UNL A   1      42.928  37.259  37.432  1.00  0.00    -0.744 OA
ENDBRANCH  70  73
ENDBRANCH  52  66
BRANCH  53  77
ATOM     77  C   UNL A   1      40.960  27.570  29.093  1.00  0.00     0.023 A 
ATOM     78  C   UNL A   1      40.072  26.485  28.962  1.00  0.00     0.012 A 
ATOM     79  C   UNL A   1      41.845  27.864  28.039  1.00  0.00     0.148 A 
ATOM     80  C   UNL A   1      40.088  25.685  27.819  1.00  0.00     0.002 A 
ATOM     81  C   UNL A   1      41.819  27.098  26.879  1.00  0.00     0.091 A 
ATOM     82  F   UNL A   1      42.690  28.894  28.186  1.00  0.00    -0.205 F 
ATOM     83  C   UNL A   1      40.955  25.997  26.774  1.00  0.00     0.022 A 
BRANCH  81  84
ATOM     84  S   UNL A   1      42.806  27.505  25.434  1.00  0.00     0.127 S 
ATOM     85  O   UNL A   1      42.599  26.333  24.590  1.00  0.00    -0.237 OA
ATOM     86  O   UNL A   1      42.161  28.729  24.960  1.00  0.00    -0.237 OA
ATOM     87  O   UNL A   1      44.162  27.699  25.931  1.00  0.00    -0.744 OA
ENDBRANCH  81  84
ENDBRANCH  53  77
BRANCH  65  88
ATOM     88  C   UNL A   1      44.757  27.637  34.955  1.00  0.00     0.023 A 
ATOM     89  C   UNL A   1      46.077  28.108  34.822  1.00  0.00     0.012 A 
ATOM     90  C   UNL A   1      44.521  26.415  35.617  1.00  0.00     0.148 A 
ATOM     91  C   UNL A   1      47.148  27.363  35.314  1.00  0.00     0.002 A 
ATOM     92  C   UNL A   1      45.588  25.701  36.147  1.00  0.00     0.091 A 
ATOM     93  F   UNL A   1      43.258  25.975  35.716  1.00  0.00    -0.205 F 
ATOM     94  C   UNL A   1      46.903  26.167  35.986  1.00  0.00     0.022 A 
BRANCH  92  95
ATOM     95  S   UNL A   1      45.357  24.204  37.111  1.00  0.00     0.127 S 
ATOM     96  O   UNL A   1      46.734  23.849  37.447  1.00  0.00    -0.237 OA
ATOM     97  O   UNL A   1      44.558  24.681  38.240  1.00  0.00    -0.237 OA
ATOM     98  O   UNL A   1      44.662  23.269  36.236  1.00  0.00    -0.744 OA
ENDBRANCH  92  95
ENDBRANCH  65  88
ENDBRANCH  39  40
ENDBRANCH  31  34
ENDBRANCH  29  30
ENDBRANCH  28  29
ENDBRANCH  27  28
ENDBRANCH   1  27
TORSDOF 21
ENDMDL
