MODEL 1
REMARK VINA RESULT:     -12.7      0.000      0.000
REMARK SMILES Cc1cccc(CNC(=O)N[C@@H](CC2=c3ccccc3=NC2)C(=O)NCCCCCCNC(=O)c2ccc(-c3c4nc(c(-c5cccc(S(=O)(=O)[O-])c5F)c5ccc([nH]5)c(-c5cccc(S(=O)(=O)[O-])c5F)c5nc(c(-c6cccc(S(=O)(=O)[O-])c6F)c6ccc3[nH]6)C=C5)C=C4)cc2)c1
REMARK SMILES IDX 28 1 27 2 26 3 25 4 23 5 24 6 12 8 11 9 8 10 9 11 10 13 7 15
REMARK SMILES IDX 6 16 1 17 2 18 3 19 98 20 4 21 5 22 13 23 14 24 15 25 22 26
REMARK SMILES IDX 16 27 20 28 21 29 17 30 19 31 18 32 29 33 30 34 31 35 32 36
REMARK SMILES IDX 33 37 34 39 35 40 36 41 97 42 37 43 96 44 38 45 39 46 40 47
REMARK SMILES IDX 90 48 41 49 95 50 89 51 91 52 42 53 94 54 88 55 87 56 43 58
REMARK SMILES IDX 75 59 55 60 74 61 56 62 59 63 73 64 92 65 57 66 58 67 72 69
REMARK SMILES IDX 93 70 60 71 44 72 45 73 53 74 46 75 48 76 54 77 47 78 49 79
REMARK SMILES IDX 50 80 51 81 52 82 76 83 77 84 85 85 78 86 80 87 86 88 79 89
REMARK SMILES IDX 81 90 82 91 83 92 84 93 61 94 62 95 70 96 63 97 65 98 71 99
REMARK SMILES IDX 64 100 66 101 67 102 68 103 69 104
REMARK H PARENT 25 7 8 12 11 14 32 38 91 57 59 68
REMARK Flexibility Score: inf
ROOT
ATOM      1  C   UNL A   1      35.860  22.298  24.048  1.00  0.00     0.002 C 
ENDROOT
BRANCH   1   2
ATOM      2  C   UNL A   1      35.199  23.367  24.934  1.00  0.00     0.021 C 
BRANCH   2   3
ATOM      3  C   UNL A   1      34.796  24.693  24.290  1.00  0.00     0.116 C 
BRANCH   3   4
ATOM      4  N   UNL A   1      34.384  24.581  22.906  1.00  0.00    -0.354 N 
ATOM      5  C   UNL A   1      33.167  24.759  22.324  1.00  0.00     0.242 C 
ATOM      6  O   UNL A   1      33.170  24.952  21.100  1.00  0.00    -0.273 OA
ATOM      7  H   UNL A   1      35.105  24.336  22.283  1.00  0.00     0.163 HD
BRANCH   5   8
ATOM      8  C   UNL A   1      31.822  24.817  23.092  1.00  0.00     0.177 C 
BRANCH   8   9
ATOM      9  N   UNL A   1      30.932  25.861  22.591  1.00  0.00    -0.326 N 
ATOM     10  N   UNL A   1      31.669  27.822  23.695  1.00  0.00    -0.334 N 
ATOM     11  C   UNL A   1      31.001  27.195  22.719  1.00  0.00     0.315 C 
ATOM     12  H   UNL A   1      31.977  28.721  23.437  1.00  0.00     0.165 HD
ATOM     13  O   UNL A   1      30.425  27.885  21.878  1.00  0.00    -0.249 OA
ATOM     14  H   UNL A   1      30.158  25.534  22.078  1.00  0.00     0.166 HD
BRANCH  10  15
ATOM     15  C   UNL A   1      32.035  27.463  25.053  1.00  0.00     0.153 C 
BRANCH  15  16
ATOM     16  C   UNL A   1      32.558  28.623  25.870  1.00  0.00    -0.028 A 
ATOM     17  C   UNL A   1      31.429  32.161  26.802  1.00  0.00     0.044 C 
ATOM     18  C   UNL A   1      32.236  30.899  26.721  1.00  0.00    -0.051 A 
ATOM     19  C   UNL A   1      33.470  30.822  27.375  1.00  0.00     0.003 A 
ATOM     20  C   UNL A   1      31.790  29.799  25.972  1.00  0.00     0.009 A 
ATOM     21  C   UNL A   1      34.231  29.657  27.302  1.00  0.00     0.001 A 
ATOM     22  C   UNL A   1      33.774  28.564  26.562  1.00  0.00     0.005 A 
ENDBRANCH  15  16
ENDBRANCH  10  15
ENDBRANCH   8   9
BRANCH   8  23
ATOM     23  C   UNL A   1      31.071  23.499  23.396  1.00  0.00     0.068 C 
BRANCH  23  24
ATOM     24  C   UNL A   1      31.637  22.472  24.321  1.00  0.00    -0.037 C 
ATOM     25  C   UNL A   1      32.100  21.263  24.012  1.00  0.00     0.001 A 
ATOM     26  C   UNL A   1      31.826  22.745  25.785  1.00  0.00     0.174 C 
ATOM     27  C   UNL A   1      32.142  20.473  22.825  1.00  0.00     0.010 A 
ATOM     28  C   UNL A   1      32.550  20.736  25.309  1.00  0.00     0.065 A 
ATOM     29  N   UNL A   1      32.433  21.511  26.344  1.00  0.00    -0.280 NA
ATOM     30  C   UNL A   1      32.517  19.188  22.919  1.00  0.00     0.001 A 
ATOM     31  C   UNL A   1      33.045  19.344  25.313  1.00  0.00     0.028 A 
ATOM     32  C   UNL A   1      32.969  18.625  24.179  1.00  0.00     0.002 A 
ENDBRANCH  23  24
ENDBRANCH   8  23
ENDBRANCH   5   8
ENDBRANCH   3   4
ENDBRANCH   2   3
ENDBRANCH   1   2
BRANCH   1  33
ATOM     33  C   UNL A   1      36.345  20.965  24.641  1.00  0.00     0.002 C 
BRANCH  33  34
ATOM     34  C   UNL A   1      37.756  20.872  25.214  1.00  0.00     0.021 C 
BRANCH  34  35
ATOM     35  C   UNL A   1      38.388  22.197  25.572  1.00  0.00     0.116 C 
BRANCH  35  36
ATOM     36  N   UNL A   1      39.649  22.075  26.278  1.00  0.00    -0.352 N 
ATOM     37  C   UNL A   1      40.550  23.053  26.685  1.00  0.00     0.251 C 
ATOM     38  H   UNL A   1      39.908  21.152  26.506  1.00  0.00     0.163 HD
ATOM     39  O   UNL A   1      41.669  22.721  26.985  1.00  0.00    -0.269 OA
BRANCH  37  40
ATOM     40  C   UNL A   1      40.083  24.460  26.857  1.00  0.00     0.039 A 
ATOM     41  C   UNL A   1      40.681  25.444  26.055  1.00  0.00     0.014 A 
ATOM     42  C   UNL A   1      39.284  24.837  27.926  1.00  0.00     0.014 A 
ATOM     43  C   UNL A   1      40.764  26.754  26.518  1.00  0.00     0.010 A 
ATOM     44  C   UNL A   1      39.417  26.104  28.425  1.00  0.00     0.010 A 
ATOM     45  C   UNL A   1      40.253  27.017  27.778  1.00  0.00    -0.014 A 
BRANCH  45  46
ATOM     46  C   UNL A   1      40.527  28.176  28.599  1.00  0.00     0.031 A 
ATOM     47  C   UNL A   1      39.597  29.312  28.559  1.00  0.00     0.074 A 
ATOM     48  C   UNL A   1      41.297  27.935  29.687  1.00  0.00     0.049 A 
ATOM     49  N   UNL A   1      39.797  30.423  29.172  1.00  0.00    -0.248 NA
ATOM     50  C   UNL A   1      38.314  29.239  27.869  1.00  0.00     0.031 C 
ATOM     51  C   UNL A   1      41.262  28.626  30.969  1.00  0.00     0.029 A 
ATOM     52  N   UNL A   1      42.332  27.006  29.853  1.00  0.00    -0.354 N 
ATOM     53  C   UNL A   1      38.578  31.061  29.237  1.00  0.00     0.074 A 
ATOM     54  C   UNL A   1      37.709  30.331  28.344  1.00  0.00     0.031 C 
ATOM     55  C   UNL A   1      42.373  28.314  31.657  1.00  0.00     0.029 A 
ATOM     56  C   UNL A   1      43.244  27.594  30.746  1.00  0.00     0.049 A 
ATOM     57  H   UNL A   1      42.407  26.122  29.427  1.00  0.00     0.167 HD
ATOM     58  C   UNL A   1      38.381  32.027  30.180  1.00  0.00     0.034 A 
ATOM     59  C   UNL A   1      44.481  28.021  30.344  1.00  0.00     0.034 A 
ATOM     60  C   UNL A   1      39.572  32.179  31.037  1.00  0.00     0.049 A 
ATOM     61  C   UNL A   1      44.619  29.547  30.388  1.00  0.00     0.074 A 
ATOM     62  C   UNL A   1      39.915  31.766  32.317  1.00  0.00     0.029 A 
ATOM     63  N   UNL A   1      40.768  32.547  30.440  1.00  0.00    -0.354 N 
ATOM     64  N   UNL A   1      43.784  30.371  30.969  1.00  0.00    -0.248 NA
ATOM     65  C   UNL A   1      45.679  30.260  29.678  1.00  0.00     0.031 C 
ATOM     66  C   UNL A   1      41.337  31.871  32.459  1.00  0.00     0.029 A 
ATOM     67  C   UNL A   1      41.856  32.381  31.283  1.00  0.00     0.049 A 
ATOM     68  H   UNL A   1      40.836  32.889  29.519  1.00  0.00     0.167 HD
ATOM     69  C   UNL A   1      44.033  31.657  30.543  1.00  0.00     0.074 A 
ATOM     70  C   UNL A   1      45.266  31.533  29.779  1.00  0.00     0.031 C 
ATOM     71  C   UNL A   1      43.180  32.713  30.758  1.00  0.00     0.034 A 
BRANCH  58  72
ATOM     72  C   UNL A   1      37.012  32.600  30.493  1.00  0.00     0.023 A 
ATOM     73  C   UNL A   1      36.343  32.136  31.643  1.00  0.00     0.012 A 
ATOM     74  C   UNL A   1      36.314  33.547  29.704  1.00  0.00     0.148 A 
ATOM     75  C   UNL A   1      35.020  32.493  31.932  1.00  0.00     0.002 A 
ATOM     76  C   UNL A   1      34.965  33.827  29.936  1.00  0.00     0.091 A 
ATOM     77  F   UNL A   1      36.973  34.249  28.773  1.00  0.00    -0.205 F 
ATOM     78  C   UNL A   1      34.313  33.299  31.052  1.00  0.00     0.022 A 
BRANCH  76  79
ATOM     79  S   UNL A   1      33.962  34.738  28.745  1.00  0.00     0.127 S 
ATOM     80  O   UNL A   1      34.456  36.109  28.901  1.00  0.00    -0.237 OA
ATOM     81  O   UNL A   1      34.318  34.108  27.477  1.00  0.00    -0.237 OA
ATOM     82  O   UNL A   1      32.582  34.560  29.185  1.00  0.00    -0.744 OA
ENDBRANCH  76  79
ENDBRANCH  58  72
BRANCH  59  83
ATOM     83  C   UNL A   1      45.082  27.115  29.313  1.00  0.00     0.023 A 
ATOM     84  C   UNL A   1      45.402  25.803  29.739  1.00  0.00     0.012 A 
ATOM     85  C   UNL A   1      44.910  27.356  27.938  1.00  0.00     0.148 A 
ATOM     86  C   UNL A   1      45.360  24.731  28.844  1.00  0.00     0.002 A 
ATOM     87  C   UNL A   1      44.873  26.282  27.051  1.00  0.00     0.091 A 
ATOM     88  F   UNL A   1      44.690  28.609  27.526  1.00  0.00    -0.205 F 
ATOM     89  C   UNL A   1      45.044  24.966  27.510  1.00  0.00     0.022 A 
BRANCH  87  90
ATOM     90  S   UNL A   1      44.466  26.520  25.318  1.00  0.00     0.127 S 
ATOM     91  O   UNL A   1      43.761  27.797  25.356  1.00  0.00    -0.237 OA
ATOM     92  O   UNL A   1      45.783  26.564  24.687  1.00  0.00    -0.237 OA
ATOM     93  O   UNL A   1      43.668  25.357  24.957  1.00  0.00    -0.744 OA
ENDBRANCH  87  90
ENDBRANCH  59  83
BRANCH  71  94
ATOM     94  C   UNL A   1      43.493  34.166  30.386  1.00  0.00     0.023 A 
ATOM     95  C   UNL A   1      43.575  35.171  31.370  1.00  0.00     0.012 A 
ATOM     96  C   UNL A   1      43.606  34.615  29.039  1.00  0.00     0.148 A 
ATOM     97  C   UNL A   1      43.909  36.496  31.060  1.00  0.00     0.002 A 
ATOM     98  C   UNL A   1      43.909  35.937  28.727  1.00  0.00     0.091 A 
ATOM     99  F   UNL A   1      43.364  33.780  28.028  1.00  0.00    -0.205 F 
ATOM    100  C   UNL A   1      44.098  36.875  29.739  1.00  0.00     0.022 A 
BRANCH  98 101
ATOM    101  S   UNL A   1      44.024  36.527  27.029  1.00  0.00     0.127 S 
ATOM    102  O   UNL A   1      42.888  35.846  26.407  1.00  0.00    -0.237 OA
ATOM    103  O   UNL A   1      43.851  37.969  27.201  1.00  0.00    -0.237 OA
ATOM    104  O   UNL A   1      45.333  36.122  26.538  1.00  0.00    -0.744 OA
ENDBRANCH  98 101
ENDBRANCH  71  94
ENDBRANCH  45  46
ENDBRANCH  37  40
ENDBRANCH  35  36
ENDBRANCH  34  35
ENDBRANCH  33  34
ENDBRANCH   1  33
TORSDOF 21
ENDMDL
MODEL 2
REMARK VINA RESULT:     -12.0      3.718      9.121
REMARK SMILES Cc1cccc(CNC(=O)N[C@@H](CC2=c3ccccc3=NC2)C(=O)NCCCCCCNC(=O)c2ccc(-c3c4nc(c(-c5cccc(S(=O)(=O)[O-])c5F)c5ccc([nH]5)c(-c5cccc(S(=O)(=O)[O-])c5F)c5nc(c(-c6cccc(S(=O)(=O)[O-])c6F)c6ccc3[nH]6)C=C5)C=C4)cc2)c1
REMARK SMILES IDX 28 1 27 2 26 3 25 4 23 5 24 6 12 8 11 9 8 10 9 11 10 13 7 15
REMARK SMILES IDX 6 16 1 17 2 18 3 19 98 20 4 21 5 22 13 23 14 24 15 25 22 26
REMARK SMILES IDX 16 27 20 28 21 29 17 30 19 31 18 32 29 33 30 34 31 35 32 36
REMARK SMILES IDX 33 37 34 39 35 40 36 41 97 42 37 43 96 44 38 45 39 46 40 47
REMARK SMILES IDX 90 48 41 49 95 50 89 51 91 52 42 53 94 54 88 55 87 56 43 58
REMARK SMILES IDX 75 59 55 60 74 61 56 62 59 63 73 64 92 65 57 66 58 67 72 69
REMARK SMILES IDX 93 70 60 71 44 72 45 73 53 74 46 75 48 76 54 77 47 78 49 79
REMARK SMILES IDX 50 80 51 81 52 82 76 83 77 84 85 85 78 86 80 87 86 88 79 89
REMARK SMILES IDX 81 90 82 91 83 92 84 93 61 94 62 95 70 96 63 97 65 98 71 99
REMARK SMILES IDX 64 100 66 101 67 102 68 103 69 104
REMARK H PARENT 25 7 8 12 11 14 32 38 91 57 59 68
REMARK Flexibility Score: inf
ROOT
ATOM      1  C   UNL A   1      32.778  30.116  27.417  1.00  0.00     0.002 C 
ENDROOT
BRANCH   1   2
ATOM      2  C   UNL A   1      31.793  30.342  26.258  1.00  0.00     0.021 C 
BRANCH   2   3
ATOM      3  C   UNL A   1      32.240  29.969  24.845  1.00  0.00     0.116 C 
BRANCH   3   4
ATOM      4  N   UNL A   1      31.150  29.755  23.914  1.00  0.00    -0.354 N 
ATOM      5  C   UNL A   1      30.537  28.608  23.513  1.00  0.00     0.242 C 
ATOM      6  O   UNL A   1      29.419  28.741  22.995  1.00  0.00    -0.273 OA
ATOM      7  H   UNL A   1      30.795  30.577  23.505  1.00  0.00     0.163 HD
BRANCH   5   8
ATOM      8  C   UNL A   1      31.101  27.182  23.735  1.00  0.00     0.177 C 
BRANCH   8   9
ATOM      9  N   UNL A   1      30.808  26.662  25.067  1.00  0.00    -0.326 N 
ATOM     10  N   UNL A   1      32.925  26.564  26.124  1.00  0.00    -0.334 N 
ATOM     11  C   UNL A   1      31.587  26.579  26.156  1.00  0.00     0.315 C 
ATOM     12  H   UNL A   1      33.336  26.915  26.946  1.00  0.00     0.165 HD
ATOM     13  O   UNL A   1      31.036  26.525  27.256  1.00  0.00    -0.249 OA
ATOM     14  H   UNL A   1      29.893  26.317  25.186  1.00  0.00     0.166 HD
BRANCH  10  15
ATOM     15  C   UNL A   1      33.901  26.140  25.136  1.00  0.00     0.153 C 
BRANCH  15  16
ATOM     16  C   UNL A   1      34.512  24.787  25.425  1.00  0.00    -0.028 A 
ATOM     17  C   UNL A   1      33.927  21.879  27.845  1.00  0.00     0.044 C 
ATOM     18  C   UNL A   1      34.497  22.720  26.742  1.00  0.00    -0.051 A 
ATOM     19  C   UNL A   1      35.599  22.257  26.016  1.00  0.00     0.003 A 
ATOM     20  C   UNL A   1      33.962  23.982  26.441  1.00  0.00     0.009 A 
ATOM     21  C   UNL A   1      36.140  23.032  24.992  1.00  0.00     0.001 A 
ATOM     22  C   UNL A   1      35.595  24.283  24.694  1.00  0.00     0.005 A 
ENDBRANCH  15  16
ENDBRANCH  10  15
ENDBRANCH   8   9
BRANCH   8  23
ATOM     23  C   UNL A   1      30.906  26.116  22.630  1.00  0.00     0.068 C 
BRANCH  23  24
ATOM     24  C   UNL A   1      31.791  24.917  22.537  1.00  0.00    -0.037 C 
ATOM     25  C   UNL A   1      31.707  23.785  23.232  1.00  0.00     0.001 A 
ATOM     26  C   UNL A   1      32.898  24.827  21.526  1.00  0.00     0.174 C 
ATOM     27  C   UNL A   1      30.905  23.328  24.320  1.00  0.00     0.010 A 
ATOM     28  C   UNL A   1      32.808  22.976  22.688  1.00  0.00     0.065 A 
ATOM     29  N   UNL A   1      33.514  23.492  21.728  1.00  0.00    -0.280 NA
ATOM     30  C   UNL A   1      31.228  22.170  24.916  1.00  0.00     0.001 A 
ATOM     31  C   UNL A   1      33.037  21.666  23.333  1.00  0.00     0.028 A 
ATOM     32  C   UNL A   1      32.306  21.338  24.413  1.00  0.00     0.002 A 
ENDBRANCH  23  24
ENDBRANCH   8  23
ENDBRANCH   5   8
ENDBRANCH   3   4
ENDBRANCH   2   3
ENDBRANCH   1   2
BRANCH   1  33
ATOM     33  C   UNL A   1      34.264  29.825  27.151  1.00  0.00     0.002 C 
BRANCH  33  34
ATOM     34  C   UNL A   1      35.316  30.383  28.104  1.00  0.00     0.021 C 
BRANCH  34  35
ATOM     35  C   UNL A   1      35.775  31.789  27.798  1.00  0.00     0.116 C 
BRANCH  35  36
ATOM     36  N   UNL A   1      34.945  32.821  28.391  1.00  0.00    -0.352 N 
ATOM     37  C   UNL A   1      34.920  33.317  29.690  1.00  0.00     0.251 C 
ATOM     38  H   UNL A   1      34.298  33.237  27.776  1.00  0.00     0.163 HD
ATOM     39  O   UNL A   1      33.961  33.953  30.048  1.00  0.00    -0.269 OA
BRANCH  37  40
ATOM     40  C   UNL A   1      36.119  33.159  30.564  1.00  0.00     0.039 A 
ATOM     41  C   UNL A   1      37.297  33.814  30.172  1.00  0.00     0.014 A 
ATOM     42  C   UNL A   1      36.164  32.212  31.577  1.00  0.00     0.014 A 
ATOM     43  C   UNL A   1      38.533  33.287  30.538  1.00  0.00     0.010 A 
ATOM     44  C   UNL A   1      37.369  31.644  31.887  1.00  0.00     0.010 A 
ATOM     45  C   UNL A   1      38.532  32.112  31.271  1.00  0.00    -0.014 A 
BRANCH  45  46
ATOM     46  C   UNL A   1      39.645  31.209  31.461  1.00  0.00     0.031 A 
ATOM     47  C   UNL A   1      39.665  29.938  30.725  1.00  0.00     0.074 A 
ATOM     48  C   UNL A   1      40.791  31.797  31.881  1.00  0.00     0.049 A 
ATOM     49  N   UNL A   1      40.554  29.026  30.894  1.00  0.00    -0.248 NA
ATOM     50  C   UNL A   1      38.703  29.639  29.670  1.00  0.00     0.031 C 
ATOM     51  C   UNL A   1      42.158  31.380  31.597  1.00  0.00     0.029 A 
ATOM     52  N   UNL A   1      40.963  32.911  32.711  1.00  0.00    -0.354 N 
ATOM     53  C   UNL A   1      40.488  28.204  29.791  1.00  0.00     0.074 A 
ATOM     54  C   UNL A   1      39.272  28.573  29.104  1.00  0.00     0.031 C 
ATOM     55  C   UNL A   1      42.987  32.018  32.439  1.00  0.00     0.029 A 
ATOM     56  C   UNL A   1      42.155  32.688  33.422  1.00  0.00     0.049 A 
ATOM     57  H   UNL A   1      40.368  33.692  32.784  1.00  0.00     0.167 HD
ATOM     58  C   UNL A   1      41.562  27.425  29.476  1.00  0.00     0.034 A 
ATOM     59  C   UNL A   1      42.160  32.420  34.764  1.00  0.00     0.034 A 
ATOM     60  C   UNL A   1      42.680  27.665  30.408  1.00  0.00     0.049 A 
ATOM     61  C   UNL A   1      42.596  30.984  35.076  1.00  0.00     0.074 A 
ATOM     62  C   UNL A   1      43.868  28.379  30.348  1.00  0.00     0.029 A 
ATOM     63  N   UNL A   1      42.478  27.408  31.755  1.00  0.00    -0.354 N 
ATOM     64  N   UNL A   1      43.149  30.155  34.228  1.00  0.00    -0.248 NA
ATOM     65  C   UNL A   1      42.337  30.349  36.367  1.00  0.00     0.031 C 
ATOM     66  C   UNL A   1      44.353  28.564  31.684  1.00  0.00     0.029 A 
ATOM     67  C   UNL A   1      43.482  27.932  32.554  1.00  0.00     0.049 A 
ATOM     68  H   UNL A   1      41.705  26.908  32.106  1.00  0.00     0.167 HD
ATOM     69  C   UNL A   1      43.110  28.877  34.740  1.00  0.00     0.074 A 
ATOM     70  C   UNL A   1      42.641  29.067  36.105  1.00  0.00     0.031 C 
ATOM     71  C   UNL A   1      43.369  27.748  34.000  1.00  0.00     0.034 A 
BRANCH  58  72
ATOM     72  C   UNL A   1      41.681  26.688  28.156  1.00  0.00     0.023 A 
ATOM     73  C   UNL A   1      41.608  27.437  26.965  1.00  0.00     0.012 A 
ATOM     74  C   UNL A   1      41.823  25.287  28.003  1.00  0.00     0.148 A 
ATOM     75  C   UNL A   1      41.557  26.832  25.703  1.00  0.00     0.002 A 
ATOM     76  C   UNL A   1      41.675  24.676  26.755  1.00  0.00     0.091 A 
ATOM     77  F   UNL A   1      42.189  24.539  29.053  1.00  0.00    -0.205 F 
ATOM     78  C   UNL A   1      41.541  25.448  25.600  1.00  0.00     0.022 A 
BRANCH  76  79
ATOM     79  S   UNL A   1      41.490  22.890  26.584  1.00  0.00     0.127 S 
ATOM     80  O   UNL A   1      42.141  22.388  27.796  1.00  0.00    -0.237 OA
ATOM     81  O   UNL A   1      40.040  22.718  26.560  1.00  0.00    -0.237 OA
ATOM     82  O   UNL A   1      42.197  22.544  25.354  1.00  0.00    -0.744 OA
ENDBRANCH  76  79
ENDBRANCH  58  72
BRANCH  59  83
ATOM     83  C   UNL A   1      41.109  33.197  35.497  1.00  0.00     0.023 A 
ATOM     84  C   UNL A   1      41.420  34.545  35.802  1.00  0.00     0.012 A 
ATOM     85  C   UNL A   1      39.758  32.805  35.471  1.00  0.00     0.148 A 
ATOM     86  C   UNL A   1      40.413  35.509  35.885  1.00  0.00     0.002 A 
ATOM     87  C   UNL A   1      38.759  33.773  35.558  1.00  0.00     0.091 A 
ATOM     88  F   UNL A   1      39.465  31.516  35.266  1.00  0.00    -0.205 F 
ATOM     89  C   UNL A   1      39.086  35.129  35.710  1.00  0.00     0.022 A 
BRANCH  87  90
ATOM     90  S   UNL A   1      37.028  33.346  35.337  1.00  0.00     0.127 S 
ATOM     91  O   UNL A   1      36.628  34.283  34.291  1.00  0.00    -0.237 OA
ATOM     92  O   UNL A   1      37.098  31.949  34.917  1.00  0.00    -0.237 OA
ATOM     93  O   UNL A   1      36.422  33.549  36.646  1.00  0.00    -0.744 OA
ENDBRANCH  87  90
ENDBRANCH  59  83
BRANCH  71  94
ATOM     94  C   UNL A   1      43.435  26.331  34.579  1.00  0.00     0.023 A 
ATOM     95  C   UNL A   1      42.279  25.680  35.050  1.00  0.00     0.012 A 
ATOM     96  C   UNL A   1      44.659  25.633  34.785  1.00  0.00     0.148 A 
ATOM     97  C   UNL A   1      42.306  24.366  35.538  1.00  0.00     0.002 A 
ATOM     98  C   UNL A   1      44.692  24.339  35.297  1.00  0.00     0.091 A 
ATOM     99  F   UNL A   1      45.826  26.233  34.543  1.00  0.00    -0.205 F 
ATOM    100  C   UNL A   1      43.511  23.688  35.641  1.00  0.00     0.022 A 
BRANCH  98 101
ATOM    101  S   UNL A   1      46.233  23.456  35.592  1.00  0.00     0.127 S 
ATOM    102  O   UNL A   1      46.811  24.237  36.687  1.00  0.00    -0.237 OA
ATOM    103  O   UNL A   1      45.750  22.131  35.977  1.00  0.00    -0.237 OA
ATOM    104  O   UNL A   1      46.980  23.495  34.343  1.00  0.00    -0.744 OA
ENDBRANCH  98 101
ENDBRANCH  71  94
ENDBRANCH  45  46
ENDBRANCH  37  40
ENDBRANCH  35  36
ENDBRANCH  34  35
ENDBRANCH  33  34
ENDBRANCH   1  33
TORSDOF 21
ENDMDL
MODEL 3
REMARK VINA RESULT:     -11.9      1.650      2.012
REMARK SMILES Cc1cccc(CNC(=O)N[C@@H](CC2=c3ccccc3=NC2)C(=O)NCCCCCCNC(=O)c2ccc(-c3c4nc(c(-c5cccc(S(=O)(=O)[O-])c5F)c5ccc([nH]5)c(-c5cccc(S(=O)(=O)[O-])c5F)c5nc(c(-c6cccc(S(=O)(=O)[O-])c6F)c6ccc3[nH]6)C=C5)C=C4)cc2)c1
REMARK SMILES IDX 28 1 27 2 26 3 25 4 23 5 24 6 12 8 11 9 8 10 9 11 10 13 7 15
REMARK SMILES IDX 6 16 1 17 2 18 3 19 98 20 4 21 5 22 13 23 14 24 15 25 22 26
REMARK SMILES IDX 16 27 20 28 21 29 17 30 19 31 18 32 29 33 30 34 31 35 32 36
REMARK SMILES IDX 33 37 34 39 35 40 36 41 97 42 37 43 96 44 38 45 39 46 40 47
REMARK SMILES IDX 90 48 41 49 95 50 89 51 91 52 42 53 94 54 88 55 87 56 43 58
REMARK SMILES IDX 75 59 55 60 74 61 56 62 59 63 73 64 92 65 57 66 58 67 72 69
REMARK SMILES IDX 93 70 60 71 44 72 45 73 53 74 46 75 48 76 54 77 47 78 49 79
REMARK SMILES IDX 50 80 51 81 52 82 76 83 77 84 85 85 78 86 80 87 86 88 79 89
REMARK SMILES IDX 81 90 82 91 83 92 84 93 61 94 62 95 70 96 63 97 65 98 71 99
REMARK SMILES IDX 64 100 66 101 67 102 68 103 69 104
REMARK H PARENT 25 7 8 12 11 14 32 38 91 57 59 68
REMARK Flexibility Score: inf
ROOT
ATOM      1  C   UNL A   1      35.977  21.763  24.157  1.00  0.00     0.002 C 
ENDROOT
BRANCH   1   2
ATOM      2  C   UNL A   1      36.204  23.284  24.119  1.00  0.00     0.021 C 
BRANCH   2   3
ATOM      3  C   UNL A   1      34.985  24.194  23.975  1.00  0.00     0.116 C 
BRANCH   3   4
ATOM      4  N   UNL A   1      34.434  24.244  22.636  1.00  0.00    -0.354 N 
ATOM      5  C   UNL A   1      33.177  24.535  22.203  1.00  0.00     0.242 C 
ATOM      6  O   UNL A   1      33.071  24.852  21.010  1.00  0.00    -0.273 OA
ATOM      7  H   UNL A   1      35.076  24.031  21.922  1.00  0.00     0.163 HD
BRANCH   5   8
ATOM      8  C   UNL A   1      31.919  24.575  23.108  1.00  0.00     0.177 C 
BRANCH   8   9
ATOM      9  N   UNL A   1      30.994  25.643  22.739  1.00  0.00    -0.326 N 
ATOM     10  N   UNL A   1      32.028  27.607  23.564  1.00  0.00    -0.334 N 
ATOM     11  C   UNL A   1      31.148  26.975  22.777  1.00  0.00     0.315 C 
ATOM     12  H   UNL A   1      32.317  28.475  23.201  1.00  0.00     0.165 HD
ATOM     13  O   UNL A   1      30.445  27.658  22.033  1.00  0.00    -0.249 OA
ATOM     14  H   UNL A   1      30.118  25.337  22.411  1.00  0.00     0.166 HD
BRANCH  10  15
ATOM     15  C   UNL A   1      32.646  27.289  24.838  1.00  0.00     0.153 C 
BRANCH  15  16
ATOM     16  C   UNL A   1      32.931  28.501  25.696  1.00  0.00    -0.028 A 
ATOM     17  C   UNL A   1      31.264  31.853  26.498  1.00  0.00     0.044 C 
ATOM     18  C   UNL A   1      32.233  30.709  26.502  1.00  0.00    -0.051 A 
ATOM     19  C   UNL A   1      33.398  30.788  27.272  1.00  0.00     0.003 A 
ATOM     20  C   UNL A   1      32.010  29.566  25.718  1.00  0.00     0.009 A 
ATOM     21  C   UNL A   1      34.308  29.733  27.279  1.00  0.00     0.001 A 
ATOM     22  C   UNL A   1      34.071  28.596  26.503  1.00  0.00     0.005 A 
ENDBRANCH  15  16
ENDBRANCH  10  15
ENDBRANCH   8   9
BRANCH   8  23
ATOM     23  C   UNL A   1      31.189  23.252  23.439  1.00  0.00     0.068 C 
BRANCH  23  24
ATOM     24  C   UNL A   1      31.822  22.202  24.291  1.00  0.00    -0.037 C 
ATOM     25  C   UNL A   1      32.237  20.992  23.923  1.00  0.00     0.001 A 
ATOM     26  C   UNL A   1      32.150  22.447  25.737  1.00  0.00     0.174 C 
ATOM     27  C   UNL A   1      32.157  20.222  22.724  1.00  0.00     0.010 A 
ATOM     28  C   UNL A   1      32.796  20.437  25.164  1.00  0.00     0.065 A 
ATOM     29  N   UNL A   1      32.786  21.195  26.217  1.00  0.00    -0.280 NA
ATOM     30  C   UNL A   1      32.519  18.930  22.763  1.00  0.00     0.001 A 
ATOM     31  C   UNL A   1      33.268  19.038  25.100  1.00  0.00     0.028 A 
ATOM     32  C   UNL A   1      33.077  18.340  23.966  1.00  0.00     0.002 A 
ENDBRANCH  23  24
ENDBRANCH   8  23
ENDBRANCH   5   8
ENDBRANCH   3   4
ENDBRANCH   2   3
ENDBRANCH   1   2
BRANCH   1  33
ATOM     33  C   UNL A   1      36.690  20.881  25.197  1.00  0.00     0.002 C 
BRANCH  33  34
ATOM     34  C   UNL A   1      38.163  21.131  25.503  1.00  0.00     0.021 C 
BRANCH  34  35
ATOM     35  C   UNL A   1      38.460  22.447  26.183  1.00  0.00     0.116 C 
BRANCH  35  36
ATOM     36  N   UNL A   1      39.648  22.424  27.015  1.00  0.00    -0.352 N 
ATOM     37  C   UNL A   1      40.467  23.464  27.441  1.00  0.00     0.251 C 
ATOM     38  H   UNL A   1      39.917  21.529  27.329  1.00  0.00     0.163 HD
ATOM     39  O   UNL A   1      41.562  23.199  27.871  1.00  0.00    -0.269 OA
BRANCH  37  40
ATOM     40  C   UNL A   1      39.934  24.857  27.473  1.00  0.00     0.039 A 
ATOM     41  C   UNL A   1      40.339  25.728  26.450  1.00  0.00     0.014 A 
ATOM     42  C   UNL A   1      39.277  25.361  28.585  1.00  0.00     0.014 A 
ATOM     43  C   UNL A   1      40.397  27.098  26.695  1.00  0.00     0.010 A 
ATOM     44  C   UNL A   1      39.394  26.695  28.863  1.00  0.00     0.010 A 
ATOM     45  C   UNL A   1      40.061  27.532  27.965  1.00  0.00    -0.014 A 
BRANCH  45  46
ATOM     46  C   UNL A   1      40.370  28.817  28.553  1.00  0.00     0.031 A 
ATOM     47  C   UNL A   1      39.319  29.841  28.622  1.00  0.00     0.074 A 
ATOM     48  C   UNL A   1      41.405  28.810  29.427  1.00  0.00     0.049 A 
ATOM     49  N   UNL A   1      39.514  31.042  29.034  1.00  0.00    -0.248 NA
ATOM     50  C   UNL A   1      37.928  29.545  28.296  1.00  0.00     0.031 C 
ATOM     51  C   UNL A   1      41.590  29.670  30.589  1.00  0.00     0.029 A 
ATOM     52  N   UNL A   1      42.561  28.020  29.427  1.00  0.00    -0.354 N 
ATOM     53  C   UNL A   1      38.275  31.561  29.335  1.00  0.00     0.074 A 
ATOM     54  C   UNL A   1      37.319  30.629  28.782  1.00  0.00     0.031 C 
ATOM     55  C   UNL A   1      42.864  29.569  31.000  1.00  0.00     0.029 A 
ATOM     56  C   UNL A   1      43.576  28.815  29.985  1.00  0.00     0.049 A 
ATOM     57  H   UNL A   1      42.645  27.095  29.099  1.00  0.00     0.167 HD
ATOM     58  C   UNL A   1      38.187  32.627  30.180  1.00  0.00     0.034 A 
ATOM     59  C   UNL A   1      44.614  29.299  29.234  1.00  0.00     0.034 A 
ATOM     60  C   UNL A   1      39.519  33.014  30.682  1.00  0.00     0.049 A 
ATOM     61  C   UNL A   1      44.559  30.821  29.068  1.00  0.00     0.074 A 
ATOM     62  C   UNL A   1      40.211  32.824  31.869  1.00  0.00     0.029 A 
ATOM     63  N   UNL A   1      40.477  33.409  29.761  1.00  0.00    -0.354 N 
ATOM     64  N   UNL A   1      43.789  31.634  29.745  1.00  0.00    -0.248 NA
ATOM     65  C   UNL A   1      45.316  31.525  28.034  1.00  0.00     0.031 C 
ATOM     66  C   UNL A   1      41.599  33.086  31.630  1.00  0.00     0.029 A 
ATOM     67  C   UNL A   1      41.749  33.472  30.311  1.00  0.00     0.049 A 
ATOM     68  H   UNL A   1      40.277  33.621  28.821  1.00  0.00     0.167 HD
ATOM     69  C   UNL A   1      43.759  32.865  29.126  1.00  0.00     0.074 A 
ATOM     70  C   UNL A   1      44.777  32.754  28.091  1.00  0.00     0.031 C 
ATOM     71  C   UNL A   1      42.853  33.853  29.431  1.00  0.00     0.034 A 
BRANCH  58  72
ATOM     72  C   UNL A   1      36.871  33.103  30.766  1.00  0.00     0.023 A 
ATOM     73  C   UNL A   1      36.496  32.625  32.037  1.00  0.00     0.012 A 
ATOM     74  C   UNL A   1      35.949  33.968  30.128  1.00  0.00     0.148 A 
ATOM     75  C   UNL A   1      35.238  32.888  32.593  1.00  0.00     0.002 A 
ATOM     76  C   UNL A   1      34.660  34.151  30.633  1.00  0.00     0.091 A 
ATOM     77  F   UNL A   1      36.340  34.690  29.069  1.00  0.00    -0.205 F 
ATOM     78  C   UNL A   1      34.300  33.610  31.869  1.00  0.00     0.022 A 
BRANCH  76  79
ATOM     79  S   UNL A   1      33.360  34.945  29.667  1.00  0.00     0.127 S 
ATOM     80  O   UNL A   1      32.298  35.129  30.659  1.00  0.00    -0.237 OA
ATOM     81  O   UNL A   1      33.997  36.183  29.228  1.00  0.00    -0.237 OA
ATOM     82  O   UNL A   1      33.020  33.990  28.617  1.00  0.00    -0.744 OA
ENDBRANCH  76  79
ENDBRANCH  58  72
BRANCH  59  83
ATOM     83  C   UNL A   1      45.062  28.318  28.194  1.00  0.00     0.023 A 
ATOM     84  C   UNL A   1      44.293  28.265  27.006  1.00  0.00     0.012 A 
ATOM     85  C   UNL A   1      46.383  27.834  28.166  1.00  0.00     0.148 A 
ATOM     86  C   UNL A   1      44.884  27.923  25.787  1.00  0.00     0.002 A 
ATOM     87  C   UNL A   1      46.963  27.490  26.947  1.00  0.00     0.091 A 
ATOM     88  F   UNL A   1      47.082  27.805  29.305  1.00  0.00    -0.205 F 
ATOM     89  C   UNL A   1      46.233  27.586  25.752  1.00  0.00     0.022 A 
BRANCH  87  90
ATOM     90  S   UNL A   1      48.702  27.051  26.835  1.00  0.00     0.127 S 
ATOM     91  O   UNL A   1      48.856  26.836  25.400  1.00  0.00    -0.237 OA
ATOM     92  O   UNL A   1      49.363  28.246  27.352  1.00  0.00    -0.237 OA
ATOM     93  O   UNL A   1      48.846  25.873  27.680  1.00  0.00    -0.744 OA
ENDBRANCH  87  90
ENDBRANCH  59  83
BRANCH  71  94
ATOM     94  C   UNL A   1      42.876  35.261  28.828  1.00  0.00     0.023 A 
ATOM     95  C   UNL A   1      42.426  35.502  27.516  1.00  0.00     0.012 A 
ATOM     96  C   UNL A   1      43.448  36.381  29.496  1.00  0.00     0.148 A 
ATOM     97  C   UNL A   1      42.390  36.788  26.962  1.00  0.00     0.002 A 
ATOM     98  C   UNL A   1      43.440  37.655  28.936  1.00  0.00     0.091 A 
ATOM     99  F   UNL A   1      44.066  36.224  30.669  1.00  0.00    -0.205 F 
ATOM    100  C   UNL A   1      42.878  37.869  27.680  1.00  0.00     0.022 A 
BRANCH  98 101
ATOM    101  S   UNL A   1      44.187  39.075  29.754  1.00  0.00     0.127 S 
ATOM    102  O   UNL A   1      43.523  39.043  31.057  1.00  0.00    -0.237 OA
ATOM    103  O   UNL A   1      45.599  38.698  29.779  1.00  0.00    -0.237 OA
ATOM    104  O   UNL A   1      43.880  40.237  28.932  1.00  0.00    -0.744 OA
ENDBRANCH  98 101
ENDBRANCH  71  94
ENDBRANCH  45  46
ENDBRANCH  37  40
ENDBRANCH  35  36
ENDBRANCH  34  35
ENDBRANCH  33  34
ENDBRANCH   1  33
TORSDOF 21
ENDMDL
