MODEL 1
REMARK VINA RESULT:     -11.8      0.000      0.000
REMARK SMILES COc1ccccc1[C@@H]1C[N@@H+](Cc2cc3c(cc2C)OCO3)C[C@H]1C(=O)NCCCCCCNC(=O)c1ccc(-c2c3nc(c(-c4cccc(S(=O)(=O)[O-])c4F)c4ccc([nH]4)c(-c4cccc(S(=O)(=O)[O-])c4F)c4nc(c(-c5cccc(S(=O)(=O)[O-])c5F)c5ccc2[nH]5)C=C4)C=C3)cc1
REMARK SMILES IDX 31 1 30 2 29 3 28 4 27 5 25 6 26 7 24 9 9 10 10 11 11 12
REMARK SMILES IDX 23 13 8 15 3 16 4 17 5 18 7 19 6 20 2 21 1 22 12 23 13 24
REMARK SMILES IDX 14 25 18 26 15 27 17 28 19 29 16 30 22 31 20 32 21 33 32 34
REMARK SMILES IDX 33 35 34 36 35 37 36 39 37 40 38 41 99 42 39 43 98 44 40 45
REMARK SMILES IDX 41 46 42 47 92 48 43 49 97 50 91 51 93 52 44 53 96 54 90 55
REMARK SMILES IDX 89 56 45 58 77 59 57 60 76 61 58 62 61 63 75 64 94 65 59 66
REMARK SMILES IDX 60 67 74 69 95 70 62 71 46 72 47 73 55 74 48 75 50 76 56 77
REMARK SMILES IDX 49 78 51 79 52 80 53 81 54 82 78 83 79 84 87 85 80 86 82 87
REMARK SMILES IDX 88 88 81 89 83 90 84 91 85 92 86 93 63 94 64 95 72 96 65 97
REMARK SMILES IDX 67 98 73 99 66 100 68 101 69 102 70 103 71 104
REMARK H PARENT 27 8 11 14 34 38 93 57 61 68
REMARK Flexibility Score: inf
ROOT
ATOM      1  C   UNL A   1      35.777  33.463  27.996  1.00  0.00     0.002 C 
ENDROOT
BRANCH   1   2
ATOM      2  C   UNL A   1      35.570  32.066  28.609  1.00  0.00     0.002 C 
BRANCH   2   3
ATOM      3  C   UNL A   1      35.059  30.944  27.698  1.00  0.00     0.021 C 
BRANCH   3   4
ATOM      4  C   UNL A   1      33.557  30.735  27.290  1.00  0.00     0.116 C 
BRANCH   4   5
ATOM      5  N   UNL A   1      32.996  29.271  27.145  1.00  0.00    -0.356 N 
ATOM      6  C   UNL A   1      32.890  28.038  26.562  1.00  0.00     0.229 C 
ATOM      7  O   UNL A   1      32.174  27.337  27.326  1.00  0.00    -0.275 OA
ATOM      8  H   UNL A   1      32.367  29.206  27.899  1.00  0.00     0.163 HD
BRANCH   6   9
ATOM      9  C   UNL A   1      33.336  27.205  25.229  1.00  0.00     0.146 C 
ATOM     10  C   UNL A   1      32.994  25.679  25.120  1.00  0.00     0.096 C 
ATOM     11  C   UNL A   1      32.983  25.316  23.616  1.00  0.00     0.272 C 
ATOM     12  N   UNL A   1      32.768  26.557  22.872  1.00  0.00    -0.330 N 
ATOM     13  C   UNL A   1      33.305  27.642  23.737  1.00  0.00     0.276 C 
ATOM     14  H   UNL A   1      33.286  26.639  21.997  1.00  0.00     0.348 HD
BRANCH  10  15
ATOM     15  C   UNL A   1      33.601  24.524  25.922  1.00  0.00     0.004 A 
ATOM     16  C   UNL A   1      34.854  23.892  25.816  1.00  0.00     0.122 A 
ATOM     17  C   UNL A   1      35.095  22.705  26.555  1.00  0.00     0.047 A 
ATOM     18  C   UNL A   1      34.125  22.092  27.343  1.00  0.00     0.004 A 
ATOM     19  C   UNL A   1      32.630  23.859  26.737  1.00  0.00     0.008 A 
ATOM     20  C   UNL A   1      32.875  22.666  27.420  1.00  0.00     0.001 A 
BRANCH  16  21
ATOM     21  O   UNL A   1      35.933  24.106  25.011  1.00  0.00    -0.496 OA
ATOM     22  C   UNL A   1      36.266  23.286  23.920  1.00  0.00     0.278 C 
ENDBRANCH  16  21
ENDBRANCH  10  15
BRANCH  12  23
ATOM     23  C   UNL A   1      31.409  26.643  22.245  1.00  0.00     0.299 C 
BRANCH  23  24
ATOM     24  C   UNL A   1      30.510  27.730  22.809  1.00  0.00     0.013 A 
ATOM     25  C   UNL A   1      30.546  29.100  22.458  1.00  0.00     0.060 A 
ATOM     26  C   UNL A   1      29.431  27.279  23.543  1.00  0.00    -0.038 A 
ATOM     27  C   UNL A   1      29.388  29.846  22.620  1.00  0.00     0.166 A 
ATOM     28  C   UNL A   1      28.227  27.898  23.242  1.00  0.00     0.054 A 
ATOM     29  C   UNL A   1      29.628  26.202  24.572  1.00  0.00     0.045 C 
ATOM     30  C   UNL A   1      28.222  29.205  22.881  1.00  0.00     0.166 A 
ATOM     31  O   UNL A   1      29.166  31.179  22.473  1.00  0.00    -0.454 OA
ATOM     32  O   UNL A   1      27.117  29.988  22.841  1.00  0.00    -0.454 OA
ATOM     33  C   UNL A   1      27.769  31.265  22.870  1.00  0.00     0.468 C 
ENDBRANCH  23  24
ENDBRANCH  12  23
ENDBRANCH   6   9
ENDBRANCH   4   5
ENDBRANCH   3   4
ENDBRANCH   2   3
ENDBRANCH   1   2
BRANCH   1  34
ATOM     34  C   UNL A   1      34.713  34.564  28.194  1.00  0.00     0.021 C 
BRANCH  34  35
ATOM     35  C   UNL A   1      33.348  34.185  28.780  1.00  0.00     0.116 C 
BRANCH  35  36
ATOM     36  N   UNL A   1      32.917  35.058  29.859  1.00  0.00    -0.352 N 
ATOM     37  C   UNL A   1      33.349  35.160  31.163  1.00  0.00     0.251 C 
ATOM     38  H   UNL A   1      32.194  35.682  29.617  1.00  0.00     0.163 HD
ATOM     39  O   UNL A   1      32.733  35.857  31.954  1.00  0.00    -0.269 OA
BRANCH  37  40
ATOM     40  C   UNL A   1      34.551  34.424  31.613  1.00  0.00     0.039 A 
ATOM     41  C   UNL A   1      34.409  33.105  32.055  1.00  0.00     0.014 A 
ATOM     42  C   UNL A   1      35.802  35.045  31.642  1.00  0.00     0.014 A 
ATOM     43  C   UNL A   1      35.533  32.387  32.469  1.00  0.00     0.010 A 
ATOM     44  C   UNL A   1      36.931  34.307  32.000  1.00  0.00     0.010 A 
ATOM     45  C   UNL A   1      36.808  32.973  32.419  1.00  0.00    -0.014 A 
BRANCH  45  46
ATOM     46  C   UNL A   1      38.021  32.199  32.793  1.00  0.00     0.031 A 
ATOM     47  C   UNL A   1      38.771  32.523  34.055  1.00  0.00     0.074 A 
ATOM     48  C   UNL A   1      38.486  31.251  31.956  1.00  0.00     0.049 A 
ATOM     49  N   UNL A   1      39.855  31.969  34.535  1.00  0.00    -0.248 NA
ATOM     50  C   UNL A   1      38.252  33.631  34.872  1.00  0.00     0.031 C 
ATOM     51  C   UNL A   1      37.888  30.897  30.666  1.00  0.00     0.029 A 
ATOM     52  N   UNL A   1      39.579  30.426  32.051  1.00  0.00    -0.354 N 
ATOM     53  C   UNL A   1      40.167  32.681  35.687  1.00  0.00     0.074 A 
ATOM     54  C   UNL A   1      39.178  33.730  35.814  1.00  0.00     0.031 C 
ATOM     55  C   UNL A   1      38.614  29.921  30.098  1.00  0.00     0.029 A 
ATOM     56  C   UNL A   1      39.743  29.598  30.965  1.00  0.00     0.049 A 
ATOM     57  H   UNL A   1      40.188  30.425  32.825  1.00  0.00     0.167 HD
ATOM     58  C   UNL A   1      41.168  32.467  36.575  1.00  0.00     0.034 A 
ATOM     59  C   UNL A   1      40.696  28.685  30.695  1.00  0.00     0.034 A 
ATOM     60  C   UNL A   1      42.130  31.404  36.456  1.00  0.00     0.049 A 
ATOM     61  C   UNL A   1      41.781  28.445  31.709  1.00  0.00     0.074 A 
ATOM     62  C   UNL A   1      43.128  31.042  37.344  1.00  0.00     0.029 A 
ATOM     63  N   UNL A   1      42.227  30.542  35.374  1.00  0.00    -0.354 N 
ATOM     64  N   UNL A   1      41.964  29.019  32.873  1.00  0.00    -0.248 NA
ATOM     65  C   UNL A   1      42.770  27.405  31.390  1.00  0.00     0.031 C 
ATOM     66  C   UNL A   1      43.851  29.987  36.780  1.00  0.00     0.029 A 
ATOM     67  C   UNL A   1      43.278  29.662  35.560  1.00  0.00     0.049 A 
ATOM     68  H   UNL A   1      41.634  30.555  34.587  1.00  0.00     0.167 HD
ATOM     69  C   UNL A   1      43.065  28.387  33.443  1.00  0.00     0.074 A 
ATOM     70  C   UNL A   1      43.495  27.373  32.501  1.00  0.00     0.031 C 
ATOM     71  C   UNL A   1      43.669  28.631  34.632  1.00  0.00     0.034 A 
BRANCH  58  72
ATOM     72  C   UNL A   1      41.249  33.384  37.769  1.00  0.00     0.023 A 
ATOM     73  C   UNL A   1      42.202  34.425  37.790  1.00  0.00     0.012 A 
ATOM     74  C   UNL A   1      40.368  33.238  38.857  1.00  0.00     0.148 A 
ATOM     75  C   UNL A   1      42.311  35.270  38.894  1.00  0.00     0.002 A 
ATOM     76  C   UNL A   1      40.449  34.116  39.932  1.00  0.00     0.091 A 
ATOM     77  F   UNL A   1      39.481  32.233  38.833  1.00  0.00    -0.205 F 
ATOM     78  C   UNL A   1      41.429  35.122  39.960  1.00  0.00     0.022 A 
BRANCH  76  79
ATOM     79  S   UNL A   1      39.306  34.059  41.316  1.00  0.00     0.127 S 
ATOM     80  O   UNL A   1      39.768  35.183  42.128  1.00  0.00    -0.237 OA
ATOM     81  O   UNL A   1      38.015  34.273  40.659  1.00  0.00    -0.237 OA
ATOM     82  O   UNL A   1      39.469  32.743  41.918  1.00  0.00    -0.744 OA
ENDBRANCH  76  79
ENDBRANCH  58  72
BRANCH  59  83
ATOM     83  C   UNL A   1      40.621  27.882  29.442  1.00  0.00     0.023 A 
ATOM     84  C   UNL A   1      39.633  26.886  29.317  1.00  0.00     0.012 A 
ATOM     85  C   UNL A   1      41.491  28.126  28.361  1.00  0.00     0.148 A 
ATOM     86  C   UNL A   1      39.530  26.128  28.150  1.00  0.00     0.002 A 
ATOM     87  C   UNL A   1      41.347  27.405  27.180  1.00  0.00     0.091 A 
ATOM     88  F   UNL A   1      42.427  29.073  28.503  1.00  0.00    -0.205 F 
ATOM     89  C   UNL A   1      40.378  26.395  27.079  1.00  0.00     0.022 A 
BRANCH  87  90
ATOM     90  S   UNL A   1      42.305  27.766  25.705  1.00  0.00     0.127 S 
ATOM     91  O   UNL A   1      43.669  27.769  26.227  1.00  0.00    -0.237 OA
ATOM     92  O   UNL A   1      41.975  26.626  24.848  1.00  0.00    -0.237 OA
ATOM     93  O   UNL A   1      41.814  29.048  25.217  1.00  0.00    -0.744 OA
ENDBRANCH  87  90
ENDBRANCH  59  83
BRANCH  71  94
ATOM     94  C   UNL A   1      44.842  27.763  35.010  1.00  0.00     0.023 A 
ATOM     95  C   UNL A   1      46.155  28.192  34.734  1.00  0.00     0.012 A 
ATOM     96  C   UNL A   1      44.641  26.554  35.708  1.00  0.00     0.148 A 
ATOM     97  C   UNL A   1      47.249  27.415  35.118  1.00  0.00     0.002 A 
ATOM     98  C   UNL A   1      45.736  25.814  36.133  1.00  0.00     0.091 A 
ATOM     99  F   UNL A   1      43.383  26.155  35.943  1.00  0.00    -0.205 F 
ATOM    100  C   UNL A   1      47.040  26.235  35.826  1.00  0.00     0.022 A 
BRANCH  98 101
ATOM    101  S   UNL A   1      45.568  24.336  37.139  1.00  0.00     0.127 S 
ATOM    102  O   UNL A   1      44.887  23.425  36.220  1.00  0.00    -0.237 OA
ATOM    103  O   UNL A   1      46.962  23.991  37.419  1.00  0.00    -0.237 OA
ATOM    104  O   UNL A   1      44.796  24.732  38.310  1.00  0.00    -0.744 OA
ENDBRANCH  98 101
ENDBRANCH  71  94
ENDBRANCH  45  46
ENDBRANCH  37  40
ENDBRANCH  35  36
ENDBRANCH  34  35
ENDBRANCH   1  34
TORSDOF 20
ENDMDL
MODEL 2
REMARK VINA RESULT:     -11.7      6.072     10.594
REMARK SMILES COc1ccccc1[C@@H]1C[N@@H+](Cc2cc3c(cc2C)OCO3)C[C@H]1C(=O)NCCCCCCNC(=O)c1ccc(-c2c3nc(c(-c4cccc(S(=O)(=O)[O-])c4F)c4ccc([nH]4)c(-c4cccc(S(=O)(=O)[O-])c4F)c4nc(c(-c5cccc(S(=O)(=O)[O-])c5F)c5ccc2[nH]5)C=C4)C=C3)cc1
REMARK SMILES IDX 31 1 30 2 29 3 28 4 27 5 25 6 26 7 24 9 9 10 10 11 11 12
REMARK SMILES IDX 23 13 8 15 3 16 4 17 5 18 7 19 6 20 2 21 1 22 12 23 13 24
REMARK SMILES IDX 14 25 18 26 15 27 17 28 19 29 16 30 22 31 20 32 21 33 32 34
REMARK SMILES IDX 33 35 34 36 35 37 36 39 37 40 38 41 99 42 39 43 98 44 40 45
REMARK SMILES IDX 41 46 42 47 92 48 43 49 97 50 91 51 93 52 44 53 96 54 90 55
REMARK SMILES IDX 89 56 45 58 77 59 57 60 76 61 58 62 61 63 75 64 94 65 59 66
REMARK SMILES IDX 60 67 74 69 95 70 62 71 46 72 47 73 55 74 48 75 50 76 56 77
REMARK SMILES IDX 49 78 51 79 52 80 53 81 54 82 78 83 79 84 87 85 80 86 82 87
REMARK SMILES IDX 88 88 81 89 83 90 84 91 85 92 86 93 63 94 64 95 72 96 65 97
REMARK SMILES IDX 67 98 73 99 66 100 68 101 69 102 70 103 71 104
REMARK H PARENT 27 8 11 14 34 38 93 57 61 68
REMARK Flexibility Score: inf
ROOT
ATOM      1  C   UNL A   1      36.933  20.133  24.611  1.00  0.00     0.002 C 
ENDROOT
BRANCH   1   2
ATOM      2  C   UNL A   1      36.131  21.137  25.456  1.00  0.00     0.002 C 
BRANCH   2   3
ATOM      3  C   UNL A   1      35.902  22.543  24.889  1.00  0.00     0.021 C 
BRANCH   3   4
ATOM      4  C   UNL A   1      36.178  23.879  25.667  1.00  0.00     0.116 C 
BRANCH   4   5
ATOM      5  N   UNL A   1      35.232  25.115  25.432  1.00  0.00    -0.356 N 
ATOM      6  C   UNL A   1      34.144  25.760  24.909  1.00  0.00     0.229 C 
ATOM      7  O   UNL A   1      34.105  26.898  25.449  1.00  0.00    -0.275 OA
ATOM      8  H   UNL A   1      35.670  25.823  25.956  1.00  0.00     0.163 HD
BRANCH   6   9
ATOM      9  C   UNL A   1      32.936  25.570  23.825  1.00  0.00     0.146 C 
ATOM     10  C   UNL A   1      31.760  24.584  24.144  1.00  0.00     0.096 C 
ATOM     11  C   UNL A   1      30.544  25.028  23.296  1.00  0.00     0.272 C 
ATOM     12  N   UNL A   1      30.750  26.434  22.949  1.00  0.00    -0.330 N 
ATOM     13  C   UNL A   1      32.224  26.636  22.947  1.00  0.00     0.276 C 
ATOM     14  H   UNL A   1      30.447  26.702  22.012  1.00  0.00     0.348 HD
BRANCH  10  15
ATOM     15  C   UNL A   1      31.811  23.054  24.203  1.00  0.00     0.004 A 
ATOM     16  C   UNL A   1      31.955  22.182  25.298  1.00  0.00     0.122 A 
ATOM     17  C   UNL A   1      32.174  20.800  25.058  1.00  0.00     0.047 A 
ATOM     18  C   UNL A   1      32.315  20.265  23.782  1.00  0.00     0.004 A 
ATOM     19  C   UNL A   1      31.969  22.465  22.908  1.00  0.00     0.008 A 
ATOM     20  C   UNL A   1      32.228  21.109  22.696  1.00  0.00     0.001 A 
BRANCH  16  21
ATOM     21  O   UNL A   1      32.063  22.393  26.641  1.00  0.00    -0.496 OA
ATOM     22  C   UNL A   1      33.173  21.996  27.405  1.00  0.00     0.278 C 
ENDBRANCH  16  21
ENDBRANCH  10  15
BRANCH  12  23
ATOM     23  C   UNL A   1      29.823  27.364  23.673  1.00  0.00     0.299 C 
BRANCH  23  24
ATOM     24  C   UNL A   1      29.776  28.780  23.122  1.00  0.00     0.013 A 
ATOM     25  C   UNL A   1      29.140  29.181  21.924  1.00  0.00     0.060 A 
ATOM     26  C   UNL A   1      30.192  29.765  23.995  1.00  0.00    -0.038 A 
ATOM     27  C   UNL A   1      28.721  30.500  21.818  1.00  0.00     0.166 A 
ATOM     28  C   UNL A   1      29.367  30.877  24.047  1.00  0.00     0.054 A 
ATOM     29  C   UNL A   1      31.453  29.573  24.788  1.00  0.00     0.045 C 
ATOM     30  C   UNL A   1      28.723  31.283  22.925  1.00  0.00     0.166 A 
ATOM     31  O   UNL A   1      28.193  31.178  20.764  1.00  0.00    -0.454 OA
ATOM     32  O   UNL A   1      28.129  32.491  22.772  1.00  0.00    -0.454 OA
ATOM     33  C   UNL A   1      28.067  32.509  21.338  1.00  0.00     0.468 C 
ENDBRANCH  23  24
ENDBRANCH  12  23
ENDBRANCH   6   9
ENDBRANCH   4   5
ENDBRANCH   3   4
ENDBRANCH   2   3
ENDBRANCH   1   2
BRANCH   1  34
ATOM     34  C   UNL A   1      38.159  19.413  25.214  1.00  0.00     0.021 C 
BRANCH  34  35
ATOM     35  C   UNL A   1      39.263  20.248  25.873  1.00  0.00     0.116 C 
BRANCH  35  36
ATOM     36  N   UNL A   1      40.509  19.522  26.054  1.00  0.00    -0.352 N 
ATOM     37  C   UNL A   1      41.782  19.970  26.331  1.00  0.00     0.251 C 
ATOM     38  H   UNL A   1      40.430  18.544  25.964  1.00  0.00     0.163 HD
ATOM     39  O   UNL A   1      42.723  19.194  26.282  1.00  0.00    -0.269 OA
BRANCH  37  40
ATOM     40  C   UNL A   1      42.017  21.388  26.680  1.00  0.00     0.039 A 
ATOM     41  C   UNL A   1      42.153  21.739  28.027  1.00  0.00     0.014 A 
ATOM     42  C   UNL A   1      42.056  22.372  25.689  1.00  0.00     0.014 A 
ATOM     43  C   UNL A   1      42.393  23.071  28.376  1.00  0.00     0.010 A 
ATOM     44  C   UNL A   1      42.353  23.690  26.036  1.00  0.00     0.010 A 
ATOM     45  C   UNL A   1      42.522  24.053  27.382  1.00  0.00    -0.014 A 
BRANCH  45  46
ATOM     46  C   UNL A   1      42.842  25.461  27.735  1.00  0.00     0.031 A 
ATOM     47  C   UNL A   1      44.252  25.972  27.624  1.00  0.00     0.074 A 
ATOM     48  C   UNL A   1      41.872  26.258  28.226  1.00  0.00     0.049 A 
ATOM     49  N   UNL A   1      44.722  27.161  27.902  1.00  0.00    -0.248 NA
ATOM     50  C   UNL A   1      45.272  25.016  27.165  1.00  0.00     0.031 C 
ATOM     51  C   UNL A   1      40.483  25.855  28.451  1.00  0.00     0.029 A 
ATOM     52  N   UNL A   1      41.909  27.565  28.643  1.00  0.00    -0.354 N 
ATOM     53  C   UNL A   1      46.094  27.087  27.686  1.00  0.00     0.074 A 
ATOM     54  C   UNL A   1      46.384  25.726  27.290  1.00  0.00     0.031 C 
ATOM     55  C   UNL A   1      39.799  26.894  28.954  1.00  0.00     0.029 A 
ATOM     56  C   UNL A   1      40.703  28.028  29.115  1.00  0.00     0.049 A 
ATOM     57  H   UNL A   1      42.722  28.120  28.609  1.00  0.00     0.167 HD
ATOM     58  C   UNL A   1      47.025  28.066  27.782  1.00  0.00     0.034 A 
ATOM     59  C   UNL A   1      40.364  29.230  29.622  1.00  0.00     0.034 A 
ATOM     60  C   UNL A   1      46.723  29.424  28.151  1.00  0.00     0.049 A 
ATOM     61  C   UNL A   1      41.408  30.311  29.692  1.00  0.00     0.074 A 
ATOM     62  C   UNL A   1      47.573  30.515  28.191  1.00  0.00     0.029 A 
ATOM     63  N   UNL A   1      45.476  29.875  28.559  1.00  0.00    -0.354 N 
ATOM     64  N   UNL A   1      42.666  30.268  29.328  1.00  0.00    -0.248 NA
ATOM     65  C   UNL A   1      40.977  31.618  30.208  1.00  0.00     0.031 C 
ATOM     66  C   UNL A   1      46.849  31.615  28.661  1.00  0.00     0.029 A 
ATOM     67  C   UNL A   1      45.537  31.221  28.872  1.00  0.00     0.049 A 
ATOM     68  H   UNL A   1      44.667  29.317  28.618  1.00  0.00     0.167 HD
ATOM     69  C   UNL A   1      43.169  31.547  29.535  1.00  0.00     0.074 A 
ATOM     70  C   UNL A   1      42.071  32.348  30.040  1.00  0.00     0.031 C 
ATOM     71  C   UNL A   1      44.426  32.015  29.335  1.00  0.00     0.034 A 
BRANCH  58  72
ATOM     72  C   UNL A   1      48.452  27.708  27.453  1.00  0.00     0.023 A 
ATOM     73  C   UNL A   1      49.311  27.242  28.472  1.00  0.00     0.012 A 
ATOM     74  C   UNL A   1      48.938  27.803  26.135  1.00  0.00     0.148 A 
ATOM     75  C   UNL A   1      50.641  26.927  28.194  1.00  0.00     0.002 A 
ATOM     76  C   UNL A   1      50.250  27.439  25.857  1.00  0.00     0.091 A 
ATOM     77  F   UNL A   1      48.117  28.266  25.181  1.00  0.00    -0.205 F 
ATOM     78  C   UNL A   1      51.107  27.017  26.886  1.00  0.00     0.022 A 
BRANCH  76  79
ATOM     79  S   UNL A   1      50.922  27.441  24.191  1.00  0.00     0.127 S 
ATOM     80  O   UNL A   1      51.260  28.852  24.010  1.00  0.00    -0.237 OA
ATOM     81  O   UNL A   1      52.077  26.551  24.324  1.00  0.00    -0.237 OA
ATOM     82  O   UNL A   1      49.863  26.936  23.330  1.00  0.00    -0.744 OA
ENDBRANCH  76  79
ENDBRANCH  58  72
BRANCH  59  83
ATOM     83  C   UNL A   1      38.955  29.491  30.033  1.00  0.00     0.023 A 
ATOM     84  C   UNL A   1      38.537  29.141  31.332  1.00  0.00     0.012 A 
ATOM     85  C   UNL A   1      38.043  30.122  29.165  1.00  0.00     0.148 A 
ATOM     86  C   UNL A   1      37.229  29.387  31.749  1.00  0.00     0.002 A 
ATOM     87  C   UNL A   1      36.757  30.414  29.606  1.00  0.00     0.091 A 
ATOM     88  F   UNL A   1      38.459  30.442  27.932  1.00  0.00    -0.205 F 
ATOM     89  C   UNL A   1      36.343  30.033  30.891  1.00  0.00     0.022 A 
BRANCH  87  90
ATOM     90  S   UNL A   1      35.589  31.358  28.621  1.00  0.00     0.127 S 
ATOM     91  O   UNL A   1      34.637  31.807  29.634  1.00  0.00    -0.237 OA
ATOM     92  O   UNL A   1      36.445  32.410  28.070  1.00  0.00    -0.237 OA
ATOM     93  O   UNL A   1      35.063  30.429  27.630  1.00  0.00    -0.744 OA
ENDBRANCH  87  90
ENDBRANCH  59  83
BRANCH  71  94
ATOM     94  C   UNL A   1      44.684  33.471  29.624  1.00  0.00     0.023 A 
ATOM     95  C   UNL A   1      45.111  33.873  30.905  1.00  0.00     0.012 A 
ATOM     96  C   UNL A   1      44.575  34.433  28.598  1.00  0.00     0.148 A 
ATOM     97  C   UNL A   1      45.393  35.213  31.170  1.00  0.00     0.002 A 
ATOM     98  C   UNL A   1      44.909  35.756  28.856  1.00  0.00     0.091 A 
ATOM     99  F   UNL A   1      44.149  34.033  27.391  1.00  0.00    -0.205 F 
ATOM    100  C   UNL A   1      45.304  36.151  30.145  1.00  0.00     0.022 A 
BRANCH  98 101
ATOM    101  S   UNL A   1      44.923  37.014  27.573  1.00  0.00     0.127 S 
ATOM    102  O   UNL A   1      43.508  37.089  27.215  1.00  0.00    -0.237 OA
ATOM    103  O   UNL A   1      45.435  38.181  28.291  1.00  0.00    -0.237 OA
ATOM    104  O   UNL A   1      45.806  36.512  26.528  1.00  0.00    -0.744 OA
ENDBRANCH  98 101
ENDBRANCH  71  94
ENDBRANCH  45  46
ENDBRANCH  37  40
ENDBRANCH  35  36
ENDBRANCH  34  35
ENDBRANCH   1  34
TORSDOF 20
ENDMDL
MODEL 3
REMARK VINA RESULT:     -11.6      6.210     11.613
REMARK SMILES COc1ccccc1[C@@H]1C[N@@H+](Cc2cc3c(cc2C)OCO3)C[C@H]1C(=O)NCCCCCCNC(=O)c1ccc(-c2c3nc(c(-c4cccc(S(=O)(=O)[O-])c4F)c4ccc([nH]4)c(-c4cccc(S(=O)(=O)[O-])c4F)c4nc(c(-c5cccc(S(=O)(=O)[O-])c5F)c5ccc2[nH]5)C=C4)C=C3)cc1
REMARK SMILES IDX 31 1 30 2 29 3 28 4 27 5 25 6 26 7 24 9 9 10 10 11 11 12
REMARK SMILES IDX 23 13 8 15 3 16 4 17 5 18 7 19 6 20 2 21 1 22 12 23 13 24
REMARK SMILES IDX 14 25 18 26 15 27 17 28 19 29 16 30 22 31 20 32 21 33 32 34
REMARK SMILES IDX 33 35 34 36 35 37 36 39 37 40 38 41 99 42 39 43 98 44 40 45
REMARK SMILES IDX 41 46 42 47 92 48 43 49 97 50 91 51 93 52 44 53 96 54 90 55
REMARK SMILES IDX 89 56 45 58 77 59 57 60 76 61 58 62 61 63 75 64 94 65 59 66
REMARK SMILES IDX 60 67 74 69 95 70 62 71 46 72 47 73 55 74 48 75 50 76 56 77
REMARK SMILES IDX 49 78 51 79 52 80 53 81 54 82 78 83 79 84 87 85 80 86 82 87
REMARK SMILES IDX 88 88 81 89 83 90 84 91 85 92 86 93 63 94 64 95 72 96 65 97
REMARK SMILES IDX 67 98 73 99 66 100 68 101 69 102 70 103 71 104
REMARK H PARENT 27 8 11 14 34 38 93 57 61 68
REMARK Flexibility Score: inf
ROOT
ATOM      1  C   UNL A   1      40.799  21.666  27.943  1.00  0.00     0.002 C 
ENDROOT
BRANCH   1   2
ATOM      2  C   UNL A   1      40.615  22.833  26.957  1.00  0.00     0.002 C 
BRANCH   2   3
ATOM      3  C   UNL A   1      39.187  23.253  26.590  1.00  0.00     0.021 C 
BRANCH   3   4
ATOM      4  C   UNL A   1      38.183  22.379  25.758  1.00  0.00     0.116 C 
BRANCH   4   5
ATOM      5  N   UNL A   1      36.970  23.078  25.037  1.00  0.00    -0.356 N 
ATOM      6  C   UNL A   1      35.711  23.608  24.965  1.00  0.00     0.229 C 
ATOM      7  O   UNL A   1      35.611  24.152  23.832  1.00  0.00    -0.275 OA
ATOM      8  H   UNL A   1      37.308  23.205  24.121  1.00  0.00     0.163 HD
BRANCH   6   9
ATOM      9  C   UNL A   1      34.322  23.739  25.816  1.00  0.00     0.146 C 
ATOM     10  C   UNL A   1      33.154  24.624  25.259  1.00  0.00     0.096 C 
ATOM     11  C   UNL A   1      31.842  24.114  25.902  1.00  0.00     0.272 C 
ATOM     12  N   UNL A   1      32.081  22.739  26.338  1.00  0.00    -0.330 N 
ATOM     13  C   UNL A   1      33.542  22.649  26.603  1.00  0.00     0.276 C 
ATOM     14  H   UNL A   1      31.638  22.477  27.220  1.00  0.00     0.348 HD
BRANCH  10  15
ATOM     15  C   UNL A   1      33.109  26.151  25.145  1.00  0.00     0.004 A 
ATOM     16  C   UNL A   1      32.718  26.981  24.078  1.00  0.00     0.122 A 
ATOM     17  C   UNL A   1      32.962  28.377  24.162  1.00  0.00     0.047 A 
ATOM     18  C   UNL A   1      33.629  28.968  25.230  1.00  0.00     0.004 A 
ATOM     19  C   UNL A   1      33.798  26.797  26.221  1.00  0.00     0.008 A 
ATOM     20  C   UNL A   1      34.066  28.166  26.262  1.00  0.00     0.001 A 
BRANCH  16  21
ATOM     21  O   UNL A   1      32.230  26.718  22.832  1.00  0.00    -0.496 OA
ATOM     22  C   UNL A   1      31.013  27.226  22.349  1.00  0.00     0.278 C 
ENDBRANCH  16  21
ENDBRANCH  10  15
BRANCH  12  23
ATOM     23  C   UNL A   1      31.362  21.721  25.506  1.00  0.00     0.299 C 
BRANCH  23  24
ATOM     24  C   UNL A   1      32.257  20.696  24.831  1.00  0.00     0.013 A 
ATOM     25  C   UNL A   1      32.807  19.545  25.443  1.00  0.00     0.060 A 
ATOM     26  C   UNL A   1      32.333  20.795  23.456  1.00  0.00    -0.038 A 
ATOM     27  C   UNL A   1      33.133  18.467  24.632  1.00  0.00     0.166 A 
ATOM     28  C   UNL A   1      32.215  19.590  22.781  1.00  0.00     0.054 A 
ATOM     29  C   UNL A   1      32.532  22.140  22.816  1.00  0.00     0.045 C 
ATOM     30  C   UNL A   1      32.710  18.460  23.344  1.00  0.00     0.166 A 
ATOM     31  O   UNL A   1      33.765  17.300  24.925  1.00  0.00    -0.454 OA
ATOM     32  O   UNL A   1      32.912  17.295  22.682  1.00  0.00    -0.454 OA
ATOM     33  C   UNL A   1      33.832  16.692  23.605  1.00  0.00     0.468 C 
ENDBRANCH  23  24
ENDBRANCH  12  23
ENDBRANCH   6   9
ENDBRANCH   4   5
ENDBRANCH   3   4
ENDBRANCH   2   3
ENDBRANCH   1   2
BRANCH   1  34
ATOM     34  C   UNL A   1      41.298  20.294  27.440  1.00  0.00     0.021 C 
BRANCH  34  35
ATOM     35  C   UNL A   1      41.322  20.017  25.932  1.00  0.00     0.116 C 
BRANCH  35  36
ATOM     36  N   UNL A   1      42.612  19.553  25.449  1.00  0.00    -0.352 N 
ATOM     37  C   UNL A   1      43.786  20.234  25.215  1.00  0.00     0.251 C 
ATOM     38  H   UNL A   1      42.653  18.588  25.255  1.00  0.00     0.163 HD
ATOM     39  O   UNL A   1      44.711  19.673  24.649  1.00  0.00    -0.269 OA
BRANCH  37  40
ATOM     40  C   UNL A   1      43.929  21.645  25.637  1.00  0.00     0.039 A 
ATOM     41  C   UNL A   1      44.347  21.919  26.943  1.00  0.00     0.014 A 
ATOM     42  C   UNL A   1      43.610  22.689  24.767  1.00  0.00     0.014 A 
ATOM     43  C   UNL A   1      44.506  23.244  27.357  1.00  0.00     0.010 A 
ATOM     44  C   UNL A   1      43.825  24.009  25.163  1.00  0.00     0.010 A 
ATOM     45  C   UNL A   1      44.272  24.300  26.462  1.00  0.00    -0.014 A 
BRANCH  45  46
ATOM     46  C   UNL A   1      44.501  25.712  26.868  1.00  0.00     0.031 A 
ATOM     47  C   UNL A   1      45.872  26.320  26.769  1.00  0.00     0.074 A 
ATOM     48  C   UNL A   1      43.484  26.422  27.395  1.00  0.00     0.049 A 
ATOM     49  N   UNL A   1      46.264  27.526  27.091  1.00  0.00    -0.248 NA
ATOM     50  C   UNL A   1      46.950  25.453  26.267  1.00  0.00     0.031 C 
ATOM     51  C   UNL A   1      42.126  25.918  27.613  1.00  0.00     0.029 A 
ATOM     52  N   UNL A   1      43.437  27.712  27.864  1.00  0.00    -0.354 N 
ATOM     53  C   UNL A   1      47.636  27.553  26.865  1.00  0.00     0.074 A 
ATOM     54  C   UNL A   1      48.013  26.230  26.413  1.00  0.00     0.031 C 
ATOM     55  C   UNL A   1      41.379  26.889  28.161  1.00  0.00     0.029 A 
ATOM     56  C   UNL A   1      42.207  28.074  28.360  1.00  0.00     0.049 A 
ATOM     57  H   UNL A   1      44.211  28.320  27.846  1.00  0.00     0.167 HD
ATOM     58  C   UNL A   1      48.500  28.588  26.994  1.00  0.00     0.034 A 
ATOM     59  C   UNL A   1      41.792  29.229  28.916  1.00  0.00     0.034 A 
ATOM     60  C   UNL A   1      48.111  29.907  27.417  1.00  0.00     0.049 A 
ATOM     61  C   UNL A   1      42.762  30.375  29.022  1.00  0.00     0.074 A 
ATOM     62  C   UNL A   1      48.887  31.050  27.494  1.00  0.00     0.029 A 
ATOM     63  N   UNL A   1      46.841  30.257  27.849  1.00  0.00    -0.354 N 
ATOM     64  N   UNL A   1      44.017  30.430  28.650  1.00  0.00    -0.248 NA
ATOM     65  C   UNL A   1      42.249  31.629  29.591  1.00  0.00     0.031 C 
ATOM     66  C   UNL A   1      48.095  32.080  28.012  1.00  0.00     0.029 A 
ATOM     67  C   UNL A   1      46.814  31.591  28.215  1.00  0.00     0.049 A 
ATOM     68  H   UNL A   1      46.071  29.644  27.891  1.00  0.00     0.167 HD
ATOM     69  C   UNL A   1      44.435  31.732  28.904  1.00  0.00     0.074 A 
ATOM     70  C   UNL A   1      43.291  32.437  29.446  1.00  0.00     0.031 C 
ATOM     71  C   UNL A   1      45.657  32.290  28.715  1.00  0.00     0.034 A 
BRANCH  58  72
ATOM     72  C   UNL A   1      49.945  28.339  26.642  1.00  0.00     0.023 A 
ATOM     73  C   UNL A   1      50.352  28.360  25.291  1.00  0.00     0.012 A 
ATOM     74  C   UNL A   1      50.906  28.112  27.646  1.00  0.00     0.148 A 
ATOM     75  C   UNL A   1      51.679  28.108  24.942  1.00  0.00     0.002 A 
ATOM     76  C   UNL A   1      52.236  27.912  27.293  1.00  0.00     0.091 A 
ATOM     77  F   UNL A   1      50.502  28.075  28.924  1.00  0.00    -0.205 F 
ATOM     78  C   UNL A   1      52.621  27.893  25.943  1.00  0.00     0.022 A 
BRANCH  76  79
ATOM     79  S   UNL A   1      53.540  27.709  28.512  1.00  0.00     0.127 S 
ATOM     80  O   UNL A   1      53.377  26.305  28.888  1.00  0.00    -0.237 OA
ATOM     81  O   UNL A   1      54.742  27.994  27.727  1.00  0.00    -0.237 OA
ATOM     82  O   UNL A   1      53.261  28.675  29.564  1.00  0.00    -0.744 OA
ENDBRANCH  76  79
ENDBRANCH  58  72
BRANCH  59  83
ATOM     83  C   UNL A   1      40.372  29.380  29.345  1.00  0.00     0.023 A 
ATOM     84  C   UNL A   1      39.391  29.704  28.388  1.00  0.00     0.012 A 
ATOM     85  C   UNL A   1      39.983  29.161  30.681  1.00  0.00     0.148 A 
ATOM     86  C   UNL A   1      38.053  29.837  28.758  1.00  0.00     0.002 A 
ATOM     87  C   UNL A   1      38.640  29.240  31.032  1.00  0.00     0.091 A 
ATOM     88  F   UNL A   1      40.933  28.859  31.577  1.00  0.00    -0.205 F 
ATOM     89  C   UNL A   1      37.676  29.595  30.076  1.00  0.00     0.022 A 
BRANCH  87  90
ATOM     90  S   UNL A   1      38.044  28.819  32.672  1.00  0.00     0.127 S 
ATOM     91  O   UNL A   1      38.214  27.367  32.689  1.00  0.00    -0.237 OA
ATOM     92  O   UNL A   1      38.972  29.559  33.528  1.00  0.00    -0.237 OA
ATOM     93  O   UNL A   1      36.667  29.292  32.729  1.00  0.00    -0.744 OA
ENDBRANCH  87  90
ENDBRANCH  59  83
BRANCH  71  94
ATOM     94  C   UNL A   1      45.819  33.748  29.059  1.00  0.00     0.023 A 
ATOM     95  C   UNL A   1      46.319  34.125  30.321  1.00  0.00     0.012 A 
ATOM     96  C   UNL A   1      45.545  34.743  28.098  1.00  0.00     0.148 A 
ATOM     97  C   UNL A   1      46.513  35.470  30.633  1.00  0.00     0.002 A 
ATOM     98  C   UNL A   1      45.791  36.077  28.398  1.00  0.00     0.091 A 
ATOM     99  F   UNL A   1      45.052  34.365  26.910  1.00  0.00    -0.205 F 
ATOM    100  C   UNL A   1      46.261  36.443  29.670  1.00  0.00     0.022 A 
BRANCH  98 101
ATOM    101  S   UNL A   1      45.594  37.389  27.188  1.00  0.00     0.127 S 
ATOM    102  O   UNL A   1      44.173  37.282  26.861  1.00  0.00    -0.237 OA
ATOM    103  O   UNL A   1      45.955  38.579  27.959  1.00  0.00    -0.237 OA
ATOM    104  O   UNL A   1      46.510  37.074  26.099  1.00  0.00    -0.744 OA
ENDBRANCH  98 101
ENDBRANCH  71  94
ENDBRANCH  45  46
ENDBRANCH  37  40
ENDBRANCH  35  36
ENDBRANCH  34  35
ENDBRANCH   1  34
TORSDOF 20
ENDMDL
