MODEL 1
REMARK VINA RESULT:     -10.9      0.000      0.000
REMARK SMILES COc1ccc(OC)c([C@H](C(=O)NCCCCCCNC(=O)c2ccc(-c3c4nc(c(-c5cccc(S(=O)(=O)[O-])c5F)c5ccc([nH]5)c(-c5cccc(S(=O)(=O)[O-])c5F)c5nc(c(-c6cccc(S(=O)(=O)[O-])c6F)c6ccc3[nH]6)C=C5)C=C4)cc2)[NH+]2CC[NH+](Cc3nccn3C)CC2)c1
REMARK SMILES IDX 16 1 15 2 14 3 13 4 11 5 12 6 10 8 9 9 3 10 4 11 99 12 5 13
REMARK SMILES IDX 6 14 2 15 1 16 7 17 8 18 86 19 87 20 98 21 88 23 97 24 89 25
REMARK SMILES IDX 90 27 91 28 92 29 95 30 93 31 94 32 96 33 17 34 18 35 19 36
REMARK SMILES IDX 20 37 21 38 22 40 23 41 24 42 85 43 25 44 84 45 26 46 27 47
REMARK SMILES IDX 28 48 78 49 29 50 83 51 77 52 79 53 30 54 82 55 76 56 75 57
REMARK SMILES IDX 31 59 63 60 43 61 62 62 44 63 47 64 61 65 80 66 45 67 46 68
REMARK SMILES IDX 60 70 81 71 48 72 32 73 33 74 41 75 34 76 36 77 42 78 35 79
REMARK SMILES IDX 37 80 38 81 39 82 40 83 64 84 65 85 73 86 66 87 68 88 74 89
REMARK SMILES IDX 67 90 69 91 70 92 71 93 72 94 49 95 50 96 58 97 51 98 53 99
REMARK SMILES IDX 59 100 52 101 54 102 55 103 56 104 57 105
REMARK H PARENT 13 7 86 22 89 26 20 39 79 58 47 69
REMARK Flexibility Score: inf
ROOT
ATOM      1  C   UNL A   1      32.020  30.014  26.478  1.00  0.00     0.002 C 
ENDROOT
BRANCH   1   2
ATOM      2  C   UNL A   1      31.684  28.683  27.168  1.00  0.00     0.021 C 
BRANCH   2   3
ATOM      3  C   UNL A   1      32.620  27.528  26.815  1.00  0.00     0.116 C 
BRANCH   3   4
ATOM      4  N   UNL A   1      31.959  26.257  27.026  1.00  0.00    -0.351 N 
ATOM      5  C   UNL A   1      31.464  25.343  26.154  1.00  0.00     0.283 C 
ATOM      6  O   UNL A   1      30.816  24.418  26.658  1.00  0.00    -0.268 OA
ATOM      7  H   UNL A   1      31.849  26.013  27.973  1.00  0.00     0.163 HD
BRANCH   5   8
ATOM      8  C   UNL A   1      31.733  25.467  24.631  1.00  0.00     0.309 C 
BRANCH   8   9
ATOM      9  C   UNL A   1      31.194  26.768  24.023  1.00  0.00     0.065 A 
ATOM     10  C   UNL A   1      29.239  28.068  23.263  1.00  0.00     0.119 A 
ATOM     11  C   UNL A   1      30.085  29.083  22.836  1.00  0.00     0.050 A 
ATOM     12  C   UNL A   1      29.796  26.935  23.853  1.00  0.00     0.060 A 
ATOM     13  C   UNL A   1      31.467  28.959  22.996  1.00  0.00     0.051 A 
ATOM     14  C   UNL A   1      32.025  27.815  23.586  1.00  0.00     0.128 A 
BRANCH  10  15
ATOM     15  O   UNL A   1      27.905  28.266  23.034  1.00  0.00    -0.497 OA
ATOM     16  C   UNL A   1      27.461  29.620  23.007  1.00  0.00     0.278 C 
ENDBRANCH  10  15
BRANCH  14  17
ATOM     17  O   UNL A   1      33.393  27.762  23.527  1.00  0.00    -0.496 OA
ATOM     18  C   UNL A   1      33.974  28.352  22.368  1.00  0.00     0.278 C 
ENDBRANCH  14  17
ENDBRANCH   8   9
BRANCH   8  19
ATOM     19  N   UNL A   1      33.154  25.203  24.318  1.00  0.00    -0.311 N 
ATOM     20  C   UNL A   1      34.007  24.689  25.392  1.00  0.00     0.325 C 
ATOM     21  C   UNL A   1      33.391  24.570  23.019  1.00  0.00     0.325 C 
ATOM     22  H   UNL A   1      33.497  26.159  24.225  1.00  0.00     0.349 HD
ATOM     23  C   UNL A   1      34.406  23.196  25.345  1.00  0.00     0.324 C 
ATOM     24  C   UNL A   1      33.719  23.060  23.036  1.00  0.00     0.324 C 
ATOM     25  N   UNL A   1      34.703  22.621  24.026  1.00  0.00    -0.319 N 
ATOM     26  H   UNL A   1      34.587  21.610  24.090  1.00  0.00     0.348 HD
BRANCH  25  27
ATOM     27  C   UNL A   1      36.116  22.712  23.632  1.00  0.00     0.339 C 
BRANCH  27  28
ATOM     28  C   UNL A   1      37.137  22.667  24.728  1.00  0.00     0.164 A 
ATOM     29  N   UNL A   1      37.555  23.714  25.421  1.00  0.00    -0.236 NA
ATOM     30  N   UNL A   1      37.770  21.528  25.177  1.00  0.00    -0.333 N 
ATOM     31  C   UNL A   1      38.565  23.265  26.224  1.00  0.00     0.131 A 
ATOM     32  C   UNL A   1      38.718  21.909  26.091  1.00  0.00     0.107 A 
ATOM     33  C   UNL A   1      37.552  20.160  24.778  1.00  0.00     0.151 C 
ENDBRANCH  27  28
ENDBRANCH  25  27
ENDBRANCH   8  19
ENDBRANCH   5   8
ENDBRANCH   3   4
ENDBRANCH   2   3
ENDBRANCH   1   2
BRANCH   1  34
ATOM     34  C   UNL A   1      32.737  31.048  27.353  1.00  0.00     0.002 C 
BRANCH  34  35
ATOM     35  C   UNL A   1      32.142  32.456  27.316  1.00  0.00     0.021 C 
BRANCH  35  36
ATOM     36  C   UNL A   1      33.168  33.575  27.214  1.00  0.00     0.116 C 
BRANCH  36  37
ATOM     37  N   UNL A   1      32.781  34.745  27.983  1.00  0.00    -0.352 N 
ATOM     38  C   UNL A   1      33.193  35.123  29.233  1.00  0.00     0.251 C 
ATOM     39  H   UNL A   1      32.137  35.347  27.547  1.00  0.00     0.163 HD
ATOM     40  O   UNL A   1      32.623  36.054  29.808  1.00  0.00    -0.269 OA
BRANCH  38  41
ATOM     41  C   UNL A   1      34.300  34.407  29.898  1.00  0.00     0.039 A 
ATOM     42  C   UNL A   1      35.611  34.675  29.498  1.00  0.00     0.014 A 
ATOM     43  C   UNL A   1      34.051  33.466  30.903  1.00  0.00     0.014 A 
ATOM     44  C   UNL A   1      36.673  34.026  30.130  1.00  0.00     0.010 A 
ATOM     45  C   UNL A   1      35.113  32.878  31.584  1.00  0.00     0.010 A 
ATOM     46  C   UNL A   1      36.435  33.136  31.191  1.00  0.00    -0.014 A 
BRANCH  46  47
ATOM     47  C   UNL A   1      37.562  32.469  31.888  1.00  0.00     0.031 A 
ATOM     48  C   UNL A   1      38.312  31.344  31.225  1.00  0.00     0.074 A 
ATOM     49  C   UNL A   1      37.880  32.843  33.142  1.00  0.00     0.049 A 
ATOM     50  N   UNL A   1      39.339  30.666  31.669  1.00  0.00    -0.248 NA
ATOM     51  C   UNL A   1      37.832  30.904  29.905  1.00  0.00     0.031 C 
ATOM     52  C   UNL A   1      37.167  33.853  33.929  1.00  0.00     0.029 A 
ATOM     53  N   UNL A   1      38.873  32.408  33.983  1.00  0.00    -0.354 N 
ATOM     54  C   UNL A   1      39.608  29.705  30.702  1.00  0.00     0.074 A 
ATOM     55  C   UNL A   1      38.613  29.860  29.664  1.00  0.00     0.031 C 
ATOM     56  C   UNL A   1      37.755  33.968  35.131  1.00  0.00     0.029 A 
ATOM     57  C   UNL A   1      38.873  33.034  35.207  1.00  0.00     0.049 A 
ATOM     58  H   UNL A   1      39.523  31.713  33.734  1.00  0.00     0.167 HD
ATOM     59  C   UNL A   1      40.614  28.799  30.661  1.00  0.00     0.034 A 
ATOM     60  C   UNL A   1      39.689  32.880  36.268  1.00  0.00     0.034 A 
ATOM     61  C   UNL A   1      41.631  28.681  31.671  1.00  0.00     0.049 A 
ATOM     62  C   UNL A   1      40.841  31.918  36.168  1.00  0.00     0.074 A 
ATOM     63  C   UNL A   1      42.746  27.861  31.679  1.00  0.00     0.029 A 
ATOM     64  N   UNL A   1      41.655  29.400  32.857  1.00  0.00    -0.354 N 
ATOM     65  N   UNL A   1      41.186  31.143  35.167  1.00  0.00    -0.248 NA
ATOM     66  C   UNL A   1      41.745  31.842  37.324  1.00  0.00     0.031 C 
ATOM     67  C   UNL A   1      43.436  28.073  32.879  1.00  0.00     0.029 A 
ATOM     68  C   UNL A   1      42.761  29.040  33.607  1.00  0.00     0.049 A 
ATOM     69  H   UNL A   1      40.984  30.068  33.126  1.00  0.00     0.167 HD
ATOM     70  C   UNL A   1      42.361  30.513  35.559  1.00  0.00     0.074 A 
ATOM     71  C   UNL A   1      42.684  31.018  36.879  1.00  0.00     0.031 C 
ATOM     72  C   UNL A   1      43.097  29.588  34.896  1.00  0.00     0.034 A 
BRANCH  59  73
ATOM     73  C   UNL A   1      40.702  27.903  29.452  1.00  0.00     0.023 A 
ATOM     74  C   UNL A   1      39.895  26.748  29.386  1.00  0.00     0.012 A 
ATOM     75  C   UNL A   1      41.531  28.229  28.362  1.00  0.00     0.148 A 
ATOM     76  C   UNL A   1      39.938  25.913  28.270  1.00  0.00     0.002 A 
ATOM     77  C   UNL A   1      41.535  27.416  27.234  1.00  0.00     0.091 A 
ATOM     78  F   UNL A   1      42.307  29.319  28.451  1.00  0.00    -0.205 F 
ATOM     79  C   UNL A   1      40.748  26.253  27.191  1.00  0.00     0.022 A 
BRANCH  77  80
ATOM     80  S   UNL A   1      42.486  27.807  25.761  1.00  0.00     0.127 S 
ATOM     81  O   UNL A   1      42.149  26.685  24.886  1.00  0.00    -0.237 OA
ATOM     82  O   UNL A   1      41.912  29.091  25.355  1.00  0.00    -0.237 OA
ATOM     83  O   UNL A   1      43.877  27.872  26.186  1.00  0.00    -0.744 OA
ENDBRANCH  77  80
ENDBRANCH  59  73
BRANCH  60  84
ATOM     84  C   UNL A   1      39.496  33.721  37.482  1.00  0.00     0.023 A 
ATOM     85  C   UNL A   1      40.019  35.028  37.510  1.00  0.00     0.012 A 
ATOM     86  C   UNL A   1      38.768  33.248  38.592  1.00  0.00     0.148 A 
ATOM     87  C   UNL A   1      39.851  35.839  38.633  1.00  0.00     0.002 A 
ATOM     88  C   UNL A   1      38.557  34.081  39.685  1.00  0.00     0.091 A 
ATOM     89  F   UNL A   1      38.288  31.998  38.551  1.00  0.00    -0.205 F 
ATOM     90  C   UNL A   1      39.111  35.369  39.715  1.00  0.00     0.022 A 
BRANCH  88  91
ATOM     91  S   UNL A   1      37.503  33.606  41.061  1.00  0.00     0.127 S 
ATOM     92  O   UNL A   1      37.299  34.886  41.735  1.00  0.00    -0.237 OA
ATOM     93  O   UNL A   1      36.325  33.077  40.372  1.00  0.00    -0.237 OA
ATOM     94  O   UNL A   1      38.258  32.609  41.804  1.00  0.00    -0.744 OA
ENDBRANCH  88  91
ENDBRANCH  60  84
BRANCH  72  95
ATOM     95  C   UNL A   1      44.342  29.076  35.574  1.00  0.00     0.023 A 
ATOM     96  C   UNL A   1      45.568  29.739  35.377  1.00  0.00     0.012 A 
ATOM     97  C   UNL A   1      44.284  27.973  36.449  1.00  0.00     0.148 A 
ATOM     98  C   UNL A   1      46.727  29.291  36.010  1.00  0.00     0.002 A 
ATOM     99  C   UNL A   1      45.433  27.561  37.115  1.00  0.00     0.091 A 
ATOM    100  F   UNL A   1      43.113  27.341  36.609  1.00  0.00    -0.205 F 
ATOM    101  C   UNL A   1      46.658  28.210  36.886  1.00  0.00     0.022 A 
BRANCH  99 102
ATOM    102  S   UNL A   1      45.411  26.241  38.332  1.00  0.00     0.127 S 
ATOM    103  O   UNL A   1      44.420  25.328  37.764  1.00  0.00    -0.237 OA
ATOM    104  O   UNL A   1      46.789  25.749  38.286  1.00  0.00    -0.237 OA
ATOM    105  O   UNL A   1      45.040  26.869  39.592  1.00  0.00    -0.744 OA
ENDBRANCH  99 102
ENDBRANCH  72  95
ENDBRANCH  46  47
ENDBRANCH  38  41
ENDBRANCH  36  37
ENDBRANCH  35  36
ENDBRANCH  34  35
ENDBRANCH   1  34
TORSDOF 22
ENDMDL
MODEL 2
REMARK VINA RESULT:     -10.7      1.904      8.644
REMARK SMILES COc1ccc(OC)c([C@H](C(=O)NCCCCCCNC(=O)c2ccc(-c3c4nc(c(-c5cccc(S(=O)(=O)[O-])c5F)c5ccc([nH]5)c(-c5cccc(S(=O)(=O)[O-])c5F)c5nc(c(-c6cccc(S(=O)(=O)[O-])c6F)c6ccc3[nH]6)C=C5)C=C4)cc2)[NH+]2CC[NH+](Cc3nccn3C)CC2)c1
REMARK SMILES IDX 16 1 15 2 14 3 13 4 11 5 12 6 10 8 9 9 3 10 4 11 99 12 5 13
REMARK SMILES IDX 6 14 2 15 1 16 7 17 8 18 86 19 87 20 98 21 88 23 97 24 89 25
REMARK SMILES IDX 90 27 91 28 92 29 95 30 93 31 94 32 96 33 17 34 18 35 19 36
REMARK SMILES IDX 20 37 21 38 22 40 23 41 24 42 85 43 25 44 84 45 26 46 27 47
REMARK SMILES IDX 28 48 78 49 29 50 83 51 77 52 79 53 30 54 82 55 76 56 75 57
REMARK SMILES IDX 31 59 63 60 43 61 62 62 44 63 47 64 61 65 80 66 45 67 46 68
REMARK SMILES IDX 60 70 81 71 48 72 32 73 33 74 41 75 34 76 36 77 42 78 35 79
REMARK SMILES IDX 37 80 38 81 39 82 40 83 64 84 65 85 73 86 66 87 68 88 74 89
REMARK SMILES IDX 67 90 69 91 70 92 71 93 72 94 49 95 50 96 58 97 51 98 53 99
REMARK SMILES IDX 59 100 52 101 54 102 55 103 56 104 57 105
REMARK H PARENT 13 7 86 22 89 26 20 39 79 58 47 69
REMARK Flexibility Score: inf
ROOT
ATOM      1  C   UNL A   1      33.993  29.740  26.651  1.00  0.00     0.002 C 
ENDROOT
BRANCH   1   2
ATOM      2  C   UNL A   1      33.506  28.435  27.298  1.00  0.00     0.021 C 
BRANCH   2   3
ATOM      3  C   UNL A   1      32.025  28.128  27.074  1.00  0.00     0.116 C 
BRANCH   3   4
ATOM      4  N   UNL A   1      31.795  26.698  27.105  1.00  0.00    -0.351 N 
ATOM      5  C   UNL A   1      32.038  25.726  26.189  1.00  0.00     0.283 C 
ATOM      6  O   UNL A   1      31.584  24.608  26.462  1.00  0.00    -0.268 OA
ATOM      7  H   UNL A   1      31.390  26.373  27.941  1.00  0.00     0.163 HD
BRANCH   5   8
ATOM      8  C   UNL A   1      32.856  26.027  24.906  1.00  0.00     0.309 C 
BRANCH   8   9
ATOM      9  C   UNL A   1      33.723  24.846  24.449  1.00  0.00     0.065 A 
ATOM     10  C   UNL A   1      35.903  23.693  24.543  1.00  0.00     0.119 A 
ATOM     11  C   UNL A   1      35.446  22.765  23.617  1.00  0.00     0.050 A 
ATOM     12  C   UNL A   1      35.042  24.711  24.951  1.00  0.00     0.060 A 
ATOM     13  C   UNL A   1      34.149  22.860  23.108  1.00  0.00     0.051 A 
ATOM     14  C   UNL A   1      33.287  23.888  23.516  1.00  0.00     0.128 A 
BRANCH  10  15
ATOM     15  O   UNL A   1      37.196  23.536  24.959  1.00  0.00    -0.497 OA
ATOM     16  C   UNL A   1      37.516  24.061  26.245  1.00  0.00     0.278 C 
ENDBRANCH  10  15
BRANCH  14  17
ATOM     17  O   UNL A   1      32.113  23.950  22.814  1.00  0.00    -0.496 OA
ATOM     18  C   UNL A   1      31.054  23.149  23.331  1.00  0.00     0.278 C 
ENDBRANCH  14  17
ENDBRANCH   8   9
BRANCH   8  19
ATOM     19  N   UNL A   1      31.994  26.585  23.842  1.00  0.00    -0.311 N 
ATOM     20  C   UNL A   1      30.689  27.124  24.232  1.00  0.00     0.325 C 
ATOM     21  C   UNL A   1      32.694  27.393  22.842  1.00  0.00     0.325 C 
ATOM     22  H   UNL A   1      31.725  25.726  23.362  1.00  0.00     0.349 HD
ATOM     23  C   UNL A   1      30.521  28.661  24.256  1.00  0.00     0.324 C 
ATOM     24  C   UNL A   1      32.541  28.926  22.962  1.00  0.00     0.324 C 
ATOM     25  N   UNL A   1      31.185  29.426  23.192  1.00  0.00    -0.319 N 
ATOM     26  H   UNL A   1      31.304  30.384  23.520  1.00  0.00     0.348 HD
BRANCH  25  27
ATOM     27  C   UNL A   1      30.356  29.645  21.999  1.00  0.00     0.339 C 
BRANCH  27  28
ATOM     28  C   UNL A   1      29.246  30.648  22.110  1.00  0.00     0.164 A 
ATOM     29  N   UNL A   1      29.350  31.932  21.812  1.00  0.00    -0.236 NA
ATOM     30  N   UNL A   1      27.962  30.366  22.523  1.00  0.00    -0.333 N 
ATOM     31  C   UNL A   1      28.162  32.506  22.169  1.00  0.00     0.131 A 
ATOM     32  C   UNL A   1      27.282  31.552  22.614  1.00  0.00     0.107 A 
ATOM     33  C   UNL A   1      27.380  29.088  22.849  1.00  0.00     0.151 C 
ENDBRANCH  27  28
ENDBRANCH  25  27
ENDBRANCH   8  19
ENDBRANCH   5   8
ENDBRANCH   3   4
ENDBRANCH   2   3
ENDBRANCH   1   2
BRANCH   1  34
ATOM     34  C   UNL A   1      34.321  30.877  27.625  1.00  0.00     0.002 C 
BRANCH  34  35
ATOM     35  C   UNL A   1      33.283  31.998  27.690  1.00  0.00     0.021 C 
BRANCH  35  36
ATOM     36  C   UNL A   1      33.863  33.403  27.618  1.00  0.00     0.116 C 
BRANCH  36  37
ATOM     37  N   UNL A   1      33.279  34.288  28.611  1.00  0.00    -0.352 N 
ATOM     38  C   UNL A   1      33.632  34.456  29.923  1.00  0.00     0.251 C 
ATOM     39  H   UNL A   1      32.528  34.842  28.298  1.00  0.00     0.163 HD
ATOM     40  O   UNL A   1      32.909  35.120  30.670  1.00  0.00    -0.269 OA
BRANCH  38  41
ATOM     41  C   UNL A   1      34.862  33.828  30.446  1.00  0.00     0.039 A 
ATOM     42  C   UNL A   1      34.748  32.703  31.264  1.00  0.00     0.014 A 
ATOM     43  C   UNL A   1      36.125  34.352  30.144  1.00  0.00     0.014 A 
ATOM     44  C   UNL A   1      35.900  32.081  31.750  1.00  0.00     0.010 A 
ATOM     45  C   UNL A   1      37.273  33.687  30.566  1.00  0.00     0.010 A 
ATOM     46  C   UNL A   1      37.172  32.556  31.390  1.00  0.00    -0.014 A 
BRANCH  46  47
ATOM     47  C   UNL A   1      38.400  31.879  31.877  1.00  0.00     0.031 A 
ATOM     48  C   UNL A   1      39.076  32.340  33.141  1.00  0.00     0.074 A 
ATOM     49  C   UNL A   1      38.935  30.878  31.153  1.00  0.00     0.049 A 
ATOM     50  N   UNL A   1      40.136  31.851  33.732  1.00  0.00    -0.248 NA
ATOM     51  C   UNL A   1      38.507  33.518  33.816  1.00  0.00     0.031 C 
ATOM     52  C   UNL A   1      38.429  30.404  29.862  1.00  0.00     0.029 A 
ATOM     53  N   UNL A   1      40.033  30.089  31.388  1.00  0.00    -0.354 N 
ATOM     54  C   UNL A   1      40.377  32.675  34.825  1.00  0.00     0.074 A 
ATOM     55  C   UNL A   1      39.377  33.719  34.795  1.00  0.00     0.031 C 
ATOM     56  C   UNL A   1      39.206  29.398  29.429  1.00  0.00     0.029 A 
ATOM     57  C   UNL A   1      40.271  29.165  30.398  1.00  0.00     0.049 A 
ATOM     58  H   UNL A   1      40.596  30.176  32.190  1.00  0.00     0.167 HD
ATOM     59  C   UNL A   1      41.321  32.553  35.788  1.00  0.00     0.034 A 
ATOM     60  C   UNL A   1      41.235  28.230  30.288  1.00  0.00     0.034 A 
ATOM     61  C   UNL A   1      42.282  31.484  35.842  1.00  0.00     0.049 A 
ATOM     62  C   UNL A   1      42.227  28.071  31.408  1.00  0.00     0.074 A 
ATOM     63  C   UNL A   1      43.220  31.218  36.825  1.00  0.00     0.029 A 
ATOM     64  N   UNL A   1      42.434  30.508  34.869  1.00  0.00    -0.354 N 
ATOM     65  N   UNL A   1      42.327  28.749  32.525  1.00  0.00    -0.248 NA
ATOM     66  C   UNL A   1      43.211  26.987  31.273  1.00  0.00     0.031 C 
ATOM     67  C   UNL A   1      43.950  30.088  36.437  1.00  0.00     0.029 A 
ATOM     68  C   UNL A   1      43.452  29.639  35.223  1.00  0.00     0.049 A 
ATOM     69  H   UNL A   1      41.897  30.442  34.047  1.00  0.00     0.167 HD
ATOM     70  C   UNL A   1      43.361  28.156  33.241  1.00  0.00     0.074 A 
ATOM     71  C   UNL A   1      43.836  27.045  32.441  1.00  0.00     0.031 C 
ATOM     72  C   UNL A   1      43.881  28.509  34.441  1.00  0.00     0.034 A 
BRANCH  59  73
ATOM     73  C   UNL A   1      41.321  33.569  36.901  1.00  0.00     0.023 A 
ATOM     74  C   UNL A   1      42.143  34.710  36.797  1.00  0.00     0.012 A 
ATOM     75  C   UNL A   1      40.473  33.429  38.016  1.00  0.00     0.148 A 
ATOM     76  C   UNL A   1      42.146  35.679  37.800  1.00  0.00     0.002 A 
ATOM     77  C   UNL A   1      40.449  34.421  38.991  1.00  0.00     0.091 A 
ATOM     78  F   UNL A   1      39.715  32.328  38.110  1.00  0.00    -0.205 F 
ATOM     79  C   UNL A   1      41.292  35.540  38.889  1.00  0.00     0.022 A 
BRANCH  77  80
ATOM     80  S   UNL A   1      39.329  34.373  40.395  1.00  0.00     0.127 S 
ATOM     81  O   UNL A   1      38.029  34.280  39.732  1.00  0.00    -0.237 OA
ATOM     82  O   UNL A   1      39.750  33.151  41.083  1.00  0.00    -0.237 OA
ATOM     83  O   UNL A   1      39.566  35.601  41.139  1.00  0.00    -0.744 OA
ENDBRANCH  77  80
ENDBRANCH  59  73
BRANCH  60  84
ATOM     84  C   UNL A   1      41.250  27.314  29.113  1.00  0.00     0.023 A 
ATOM     85  C   UNL A   1      40.394  26.196  29.096  1.00  0.00     0.012 A 
ATOM     86  C   UNL A   1      42.079  27.564  28.002  1.00  0.00     0.148 A 
ATOM     87  C   UNL A   1      40.386  25.323  28.007  1.00  0.00     0.002 A 
ATOM     88  C   UNL A   1      42.025  26.720  26.898  1.00  0.00     0.091 A 
ATOM     89  F   UNL A   1      42.895  28.626  28.043  1.00  0.00    -0.205 F 
ATOM     90  C   UNL A   1      41.194  25.591  26.905  1.00  0.00     0.022 A 
BRANCH  88  91
ATOM     91  S   UNL A   1      42.928  27.068  25.383  1.00  0.00     0.127 S 
ATOM     92  O   UNL A   1      44.284  27.278  25.886  1.00  0.00    -0.237 OA
ATOM     93  O   UNL A   1      42.736  25.831  24.625  1.00  0.00    -0.237 OA
ATOM     94  O   UNL A   1      42.279  28.233  24.801  1.00  0.00    -0.744 OA
ENDBRANCH  88  91
ENDBRANCH  60  84
BRANCH  72  95
ATOM     95  C   UNL A   1      45.011  27.671  34.981  1.00  0.00     0.023 A 
ATOM     96  C   UNL A   1      46.344  28.068  34.762  1.00  0.00     0.012 A 
ATOM     97  C   UNL A   1      44.751  26.522  35.755  1.00  0.00     0.148 A 
ATOM     98  C   UNL A   1      47.402  27.315  35.268  1.00  0.00     0.002 A 
ATOM     99  C   UNL A   1      45.808  25.803  36.298  1.00  0.00     0.091 A 
ATOM    100  F   UNL A   1      43.476  26.147  35.937  1.00  0.00    -0.205 F 
ATOM    101  C   UNL A   1      47.135  26.190  36.045  1.00  0.00     0.022 A 
BRANCH  99 102
ATOM    102  S   UNL A   1      45.550  24.399  37.389  1.00  0.00     0.127 S 
ATOM    103  O   UNL A   1      44.905  23.441  36.493  1.00  0.00    -0.237 OA
ATOM    104  O   UNL A   1      46.917  24.047  37.776  1.00  0.00    -0.237 OA
ATOM    105  O   UNL A   1      44.726  24.893  38.483  1.00  0.00    -0.744 OA
ENDBRANCH  99 102
ENDBRANCH  72  95
ENDBRANCH  46  47
ENDBRANCH  38  41
ENDBRANCH  36  37
ENDBRANCH  35  36
ENDBRANCH  34  35
ENDBRANCH   1  34
TORSDOF 22
ENDMDL
MODEL 3
REMARK VINA RESULT:     -10.4      1.366      7.511
REMARK SMILES COc1ccc(OC)c([C@H](C(=O)NCCCCCCNC(=O)c2ccc(-c3c4nc(c(-c5cccc(S(=O)(=O)[O-])c5F)c5ccc([nH]5)c(-c5cccc(S(=O)(=O)[O-])c5F)c5nc(c(-c6cccc(S(=O)(=O)[O-])c6F)c6ccc3[nH]6)C=C5)C=C4)cc2)[NH+]2CC[NH+](Cc3nccn3C)CC2)c1
REMARK SMILES IDX 16 1 15 2 14 3 13 4 11 5 12 6 10 8 9 9 3 10 4 11 99 12 5 13
REMARK SMILES IDX 6 14 2 15 1 16 7 17 8 18 86 19 87 20 98 21 88 23 97 24 89 25
REMARK SMILES IDX 90 27 91 28 92 29 95 30 93 31 94 32 96 33 17 34 18 35 19 36
REMARK SMILES IDX 20 37 21 38 22 40 23 41 24 42 85 43 25 44 84 45 26 46 27 47
REMARK SMILES IDX 28 48 78 49 29 50 83 51 77 52 79 53 30 54 82 55 76 56 75 57
REMARK SMILES IDX 31 59 63 60 43 61 62 62 44 63 47 64 61 65 80 66 45 67 46 68
REMARK SMILES IDX 60 70 81 71 48 72 32 73 33 74 41 75 34 76 36 77 42 78 35 79
REMARK SMILES IDX 37 80 38 81 39 82 40 83 64 84 65 85 73 86 66 87 68 88 74 89
REMARK SMILES IDX 67 90 69 91 70 92 71 93 72 94 49 95 50 96 58 97 51 98 53 99
REMARK SMILES IDX 59 100 52 101 54 102 55 103 56 104 57 105
REMARK H PARENT 13 7 86 22 89 26 20 39 79 58 47 69
REMARK Flexibility Score: inf
ROOT
ATOM      1  C   UNL A   1      33.813  29.430  26.882  1.00  0.00     0.002 C 
ENDROOT
BRANCH   1   2
ATOM      2  C   UNL A   1      32.571  28.629  27.304  1.00  0.00     0.021 C 
BRANCH   2   3
ATOM      3  C   UNL A   1      31.758  28.057  26.143  1.00  0.00     0.116 C 
BRANCH   3   4
ATOM      4  N   UNL A   1      30.949  26.943  26.593  1.00  0.00    -0.351 N 
ATOM      5  C   UNL A   1      30.223  26.023  25.909  1.00  0.00     0.283 C 
ATOM      6  O   UNL A   1      29.514  25.280  26.599  1.00  0.00    -0.268 OA
ATOM      7  H   UNL A   1      30.921  26.835  27.571  1.00  0.00     0.163 HD
BRANCH   5   8
ATOM      8  C   UNL A   1      30.319  25.919  24.364  1.00  0.00     0.309 C 
BRANCH   8   9
ATOM      9  C   UNL A   1      30.210  27.277  23.657  1.00  0.00     0.065 A 
ATOM     10  C   UNL A   1      28.774  29.147  22.932  1.00  0.00     0.119 A 
ATOM     11  C   UNL A   1      29.866  29.738  22.309  1.00  0.00     0.050 A 
ATOM     12  C   UNL A   1      28.958  27.937  23.599  1.00  0.00     0.060 A 
ATOM     13  C   UNL A   1      31.118  29.121  22.353  1.00  0.00     0.051 A 
ATOM     14  C   UNL A   1      31.298  27.901  23.021  1.00  0.00     0.128 A 
BRANCH  10  15
ATOM     15  O   UNL A   1      27.584  29.809  22.806  1.00  0.00    -0.497 OA
ATOM     16  C   UNL A   1      27.661  31.217  22.599  1.00  0.00     0.278 C 
ENDBRANCH  10  15
BRANCH  14  17
ATOM     17  O   UNL A   1      32.535  27.339  22.842  1.00  0.00    -0.496 OA
ATOM     18  C   UNL A   1      33.632  28.241  22.943  1.00  0.00     0.278 C 
ENDBRANCH  14  17
ENDBRANCH   8   9
BRANCH   8  19
ATOM     19  N   UNL A   1      31.497  25.123  23.956  1.00  0.00    -0.311 N 
ATOM     20  C   UNL A   1      32.388  24.630  25.009  1.00  0.00     0.325 C 
ATOM     21  C   UNL A   1      31.243  24.151  22.890  1.00  0.00     0.325 C 
ATOM     22  H   UNL A   1      32.068  25.854  23.531  1.00  0.00     0.349 HD
ATOM     23  C   UNL A   1      32.322  23.125  25.362  1.00  0.00     0.324 C 
ATOM     24  C   UNL A   1      31.121  22.671  23.320  1.00  0.00     0.324 C 
ATOM     25  N   UNL A   1      32.137  22.182  24.253  1.00  0.00    -0.319 N 
ATOM     26  H   UNL A   1      31.754  21.317  24.635  1.00  0.00     0.348 HD
BRANCH  25  27
ATOM     27  C   UNL A   1      33.389  21.691  23.661  1.00  0.00     0.339 C 
BRANCH  27  28
ATOM     28  C   UNL A   1      34.619  21.748  24.516  1.00  0.00     0.164 A 
ATOM     29  N   UNL A   1      34.931  20.872  25.458  1.00  0.00    -0.236 NA
ATOM     30  N   UNL A   1      35.602  22.709  24.428  1.00  0.00    -0.333 N 
ATOM     31  C   UNL A   1      36.052  21.354  26.073  1.00  0.00     0.131 A 
ATOM     32  C   UNL A   1      36.489  22.496  25.450  1.00  0.00     0.107 A 
ATOM     33  C   UNL A   1      35.722  23.792  23.483  1.00  0.00     0.151 C 
ENDBRANCH  27  28
ENDBRANCH  25  27
ENDBRANCH   8  19
ENDBRANCH   5   8
ENDBRANCH   3   4
ENDBRANCH   2   3
ENDBRANCH   1   2
BRANCH   1  34
ATOM     34  C   UNL A   1      34.083  30.703  27.692  1.00  0.00     0.002 C 
BRANCH  34  35
ATOM     35  C   UNL A   1      32.954  31.733  27.683  1.00  0.00     0.021 C 
BRANCH  35  36
ATOM     36  C   UNL A   1      33.366  33.122  27.220  1.00  0.00     0.116 C 
BRANCH  36  37
ATOM     37  N   UNL A   1      32.859  34.164  28.096  1.00  0.00    -0.352 N 
ATOM     38  C   UNL A   1      33.293  34.520  29.345  1.00  0.00     0.251 C 
ATOM     39  H   UNL A   1      32.102  34.686  27.743  1.00  0.00     0.163 HD
ATOM     40  O   UNL A   1      32.629  35.311  30.020  1.00  0.00    -0.269 OA
BRANCH  38  41
ATOM     41  C   UNL A   1      34.539  33.945  29.889  1.00  0.00     0.039 A 
ATOM     42  C   UNL A   1      34.451  32.954  30.868  1.00  0.00     0.014 A 
ATOM     43  C   UNL A   1      35.791  34.387  29.448  1.00  0.00     0.014 A 
ATOM     44  C   UNL A   1      35.617  32.381  31.379  1.00  0.00     0.010 A 
ATOM     45  C   UNL A   1      36.950  33.762  29.902  1.00  0.00     0.010 A 
ATOM     46  C   UNL A   1      36.876  32.767  30.887  1.00  0.00    -0.014 A 
BRANCH  46  47
ATOM     47  C   UNL A   1      38.116  32.137  31.404  1.00  0.00     0.031 A 
ATOM     48  C   UNL A   1      38.795  32.682  32.632  1.00  0.00     0.074 A 
ATOM     49  C   UNL A   1      38.662  31.102  30.736  1.00  0.00     0.049 A 
ATOM     50  N   UNL A   1      39.867  32.244  33.243  1.00  0.00    -0.248 NA
ATOM     51  C   UNL A   1      38.214  33.890  33.241  1.00  0.00     0.031 C 
ATOM     52  C   UNL A   1      38.153  30.545  29.480  1.00  0.00     0.029 A 
ATOM     53  N   UNL A   1      39.772  30.344  31.009  1.00  0.00    -0.354 N 
ATOM     54  C   UNL A   1      40.104  33.135  34.282  1.00  0.00     0.074 A 
ATOM     55  C   UNL A   1      39.089  34.162  34.199  1.00  0.00     0.031 C 
ATOM     56  C   UNL A   1      38.941  29.526  29.101  1.00  0.00     0.029 A 
ATOM     57  C   UNL A   1      40.017  29.367  30.073  1.00  0.00     0.049 A 
ATOM     58  H   UNL A   1      40.340  30.487  31.800  1.00  0.00     0.167 HD
ATOM     59  C   UNL A   1      41.057  33.085  35.243  1.00  0.00     0.034 A 
ATOM     60  C   UNL A   1      40.993  28.440  30.011  1.00  0.00     0.034 A 
ATOM     61  C   UNL A   1      42.034  32.035  35.352  1.00  0.00     0.049 A 
ATOM     62  C   UNL A   1      41.995  28.362  31.130  1.00  0.00     0.074 A 
ATOM     63  C   UNL A   1      42.983  31.840  36.341  1.00  0.00     0.029 A 
ATOM     64  N   UNL A   1      42.193  31.004  34.438  1.00  0.00    -0.354 N 
ATOM     65  N   UNL A   1      42.094  29.107  32.204  1.00  0.00    -0.248 NA
ATOM     66  C   UNL A   1      42.994  27.286  31.052  1.00  0.00     0.031 C 
ATOM     67  C   UNL A   1      43.726  30.700  36.016  1.00  0.00     0.029 A 
ATOM     68  C   UNL A   1      43.226  30.173  34.835  1.00  0.00     0.049 A 
ATOM     69  H   UNL A   1      41.651  30.882  33.626  1.00  0.00     0.167 HD
ATOM     70  C   UNL A   1      43.142  28.573  32.945  1.00  0.00     0.074 A 
ATOM     71  C   UNL A   1      43.628  27.423  32.209  1.00  0.00     0.031 C 
ATOM     72  C   UNL A   1      43.666  29.004  34.118  1.00  0.00     0.034 A 
BRANCH  59  73
ATOM     73  C   UNL A   1      41.050  34.165  36.294  1.00  0.00     0.023 A 
ATOM     74  C   UNL A   1      41.564  35.440  35.979  1.00  0.00     0.012 A 
ATOM     75  C   UNL A   1      40.488  33.943  37.565  1.00  0.00     0.148 A 
ATOM     76  C   UNL A   1      41.549  36.467  36.923  1.00  0.00     0.002 A 
ATOM     77  C   UNL A   1      40.437  34.983  38.486  1.00  0.00     0.091 A 
ATOM     78  F   UNL A   1      40.025  32.719  37.855  1.00  0.00    -0.205 F 
ATOM     79  C   UNL A   1      40.976  36.242  38.170  1.00  0.00     0.022 A 
BRANCH  77  80
ATOM     80  S   UNL A   1      39.652  34.817  40.093  1.00  0.00     0.127 S 
ATOM     81  O   UNL A   1      39.710  36.190  40.593  1.00  0.00    -0.237 OA
ATOM     82  O   UNL A   1      38.310  34.355  39.735  1.00  0.00    -0.237 OA
ATOM     83  O   UNL A   1      40.450  33.849  40.832  1.00  0.00    -0.744 OA
ENDBRANCH  77  80
ENDBRANCH  59  73
BRANCH  60  84
ATOM     84  C   UNL A   1      41.012  27.456  28.893  1.00  0.00     0.023 A 
ATOM     85  C   UNL A   1      40.075  26.405  28.878  1.00  0.00     0.012 A 
ATOM     86  C   UNL A   1      41.929  27.576  27.830  1.00  0.00     0.148 A 
ATOM     87  C   UNL A   1      40.070  25.471  27.842  1.00  0.00     0.002 A 
ATOM     88  C   UNL A   1      41.881  26.673  26.773  1.00  0.00     0.091 A 
ATOM     89  F   UNL A   1      42.820  28.575  27.868  1.00  0.00    -0.205 F 
ATOM     90  C   UNL A   1      40.965  25.611  26.785  1.00  0.00     0.022 A 
BRANCH  88  91
ATOM     91  S   UNL A   1      42.905  26.860  25.308  1.00  0.00     0.127 S 
ATOM     92  O   UNL A   1      42.616  25.626  24.582  1.00  0.00    -0.237 OA
ATOM     93  O   UNL A   1      42.352  28.074  24.704  1.00  0.00    -0.237 OA
ATOM     94  O   UNL A   1      44.267  27.005  25.800  1.00  0.00    -0.744 OA
ENDBRANCH  88  91
ENDBRANCH  60  84
BRANCH  72  95
ATOM     95  C   UNL A   1      44.812  28.216  34.698  1.00  0.00     0.023 A 
ATOM     96  C   UNL A   1      46.136  28.546  34.350  1.00  0.00     0.012 A 
ATOM     97  C   UNL A   1      44.580  27.186  35.631  1.00  0.00     0.148 A 
ATOM     98  C   UNL A   1      47.210  27.840  34.889  1.00  0.00     0.002 A 
ATOM     99  C   UNL A   1      45.656  26.518  36.203  1.00  0.00     0.091 A 
ATOM    100  F   UNL A   1      43.312  26.870  35.936  1.00  0.00    -0.205 F 
ATOM    101  C   UNL A   1      46.971  26.834  35.823  1.00  0.00     0.022 A 
BRANCH  99 102
ATOM    102  S   UNL A   1      45.440  25.277  37.483  1.00  0.00     0.127 S 
ATOM    103  O   UNL A   1      46.471  24.302  37.130  1.00  0.00    -0.237 OA
ATOM    104  O   UNL A   1      45.713  26.037  38.705  1.00  0.00    -0.237 OA
ATOM    105  O   UNL A   1      44.065  24.814  37.359  1.00  0.00    -0.744 OA
ENDBRANCH  99 102
ENDBRANCH  72  95
ENDBRANCH  46  47
ENDBRANCH  38  41
ENDBRANCH  36  37
ENDBRANCH  35  36
ENDBRANCH  34  35
ENDBRANCH   1  34
TORSDOF 22
ENDMDL
