MODEL 1
REMARK VINA RESULT:     -11.7      0.000      0.000
REMARK SMILES O=C(NCCCCCCNC(=O)[C@H]1CC=CC[C@@H]1C(=O)NC1CCCCC1)c1ccc(-c2c3nc(c(-c4cccc(S(=O)(=O)[O-])c4F)c4ccc([nH]4)c(-c4cccc(S(=O)(=O)[O-])c4F)c4nc(c(-c5cccc(S(=O)(=O)[O-])c5F)c5ccc2[nH]5)C=C4)C=C3)cc1
REMARK SMILES IDX 6 1 5 2 4 3 3 4 1 5 2 6 28 8 29 9 90 10 30 11 89 12 31 13
REMARK SMILES IDX 32 14 33 15 83 16 34 17 88 18 82 19 84 20 35 21 87 22 81 23
REMARK SMILES IDX 80 24 36 26 68 27 48 28 67 29 49 30 52 31 66 32 85 33 50 34
REMARK SMILES IDX 51 35 65 37 86 38 53 39 37 40 38 41 46 42 39 43 41 44 47 45
REMARK SMILES IDX 40 46 42 47 43 48 44 49 45 50 69 51 70 52 78 53 71 54 73 55
REMARK SMILES IDX 79 56 72 57 74 58 75 59 76 60 77 61 54 62 55 63 63 64 56 65
REMARK SMILES IDX 58 66 64 67 57 68 59 69 60 70 61 71 62 72 7 73 8 74 9 75
REMARK SMILES IDX 10 76 11 77 12 79 13 80 14 81 18 82 15 83 17 84 16 85 19 86
REMARK SMILES IDX 20 87 21 88 22 90 23 91 27 92 24 93 26 94 25 95
REMARK H PARENT 3 7 84 25 52 36 10 78 21 89
REMARK Flexibility Score: inf
ROOT
ATOM      1  C   UNL A   1      33.798  23.411  26.699  1.00  0.00     0.002 C 
ENDROOT
BRANCH   1   2
ATOM      2  C   UNL A   1      34.939  22.397  26.772  1.00  0.00     0.021 C 
BRANCH   2   3
ATOM      3  C   UNL A   1      36.254  22.866  26.167  1.00  0.00     0.116 C 
BRANCH   3   4
ATOM      4  N   UNL A   1      37.195  21.781  25.945  1.00  0.00    -0.352 N 
ATOM      5  O   UNL A   1      39.235  20.843  25.707  1.00  0.00    -0.269 OA
ATOM      6  C   UNL A   1      38.566  21.807  26.067  1.00  0.00     0.251 C 
ATOM      7  H   UNL A   1      36.803  20.920  25.674  1.00  0.00     0.163 HD
BRANCH   6   8
ATOM      8  C   UNL A   1      39.221  23.023  26.602  1.00  0.00     0.039 A 
ATOM      9  C   UNL A   1      38.913  24.279  26.075  1.00  0.00     0.014 A 
ATOM     10  C   UNL A   1      40.170  22.903  27.621  1.00  0.00     0.014 A 
ATOM     11  C   UNL A   1      39.651  25.390  26.465  1.00  0.00     0.010 A 
ATOM     12  C   UNL A   1      40.850  24.038  28.075  1.00  0.00     0.010 A 
ATOM     13  C   UNL A   1      40.616  25.287  27.481  1.00  0.00    -0.014 A 
BRANCH  13  14
ATOM     14  C   UNL A   1      41.287  26.526  27.955  1.00  0.00     0.031 A 
ATOM     15  C   UNL A   1      42.717  26.839  27.611  1.00  0.00     0.074 A 
ATOM     16  C   UNL A   1      40.562  27.395  28.688  1.00  0.00     0.049 A 
ATOM     17  N   UNL A   1      43.405  27.917  27.885  1.00  0.00    -0.248 NA
ATOM     18  C   UNL A   1      43.476  25.816  26.874  1.00  0.00     0.031 C 
ATOM     19  C   UNL A   1      39.184  27.167  29.136  1.00  0.00     0.029 A 
ATOM     20  N   UNL A   1      40.865  28.640  29.173  1.00  0.00    -0.354 N 
ATOM     21  C   UNL A   1      44.683  27.696  27.384  1.00  0.00     0.074 A 
ATOM     22  C   UNL A   1      44.678  26.373  26.796  1.00  0.00     0.031 C 
ATOM     23  C   UNL A   1      38.749  28.252  29.792  1.00  0.00     0.029 A 
ATOM     24  C   UNL A   1      39.826  29.232  29.852  1.00  0.00     0.049 A 
ATOM     25  H   UNL A   1      41.742  29.069  29.047  1.00  0.00     0.167 HD
ATOM     26  C   UNL A   1      45.753  28.529  27.395  1.00  0.00     0.034 A 
ATOM     27  C   UNL A   1      39.746  30.430  30.461  1.00  0.00     0.034 A 
ATOM     28  C   UNL A   1      45.740  29.857  27.952  1.00  0.00     0.049 A 
ATOM     29  C   UNL A   1      40.929  31.350  30.407  1.00  0.00     0.074 A 
ATOM     30  C   UNL A   1      46.762  30.791  27.975  1.00  0.00     0.029 A 
ATOM     31  N   UNL A   1      44.653  30.444  28.583  1.00  0.00    -0.354 N 
ATOM     32  N   UNL A   1      42.086  31.168  29.816  1.00  0.00    -0.248 NA
ATOM     33  C   UNL A   1      40.789  32.650  31.075  1.00  0.00     0.031 C 
ATOM     34  C   UNL A   1      46.294  31.940  28.623  1.00  0.00     0.029 A 
ATOM     35  C   UNL A   1      44.978  31.726  28.996  1.00  0.00     0.049 A 
ATOM     36  H   UNL A   1      43.778  30.013  28.716  1.00  0.00     0.167 HD
ATOM     37  C   UNL A   1      42.810  32.332  30.036  1.00  0.00     0.074 A 
ATOM     38  C   UNL A   1      41.943  33.230  30.773  1.00  0.00     0.031 C 
ATOM     39  C   UNL A   1      44.089  32.620  29.691  1.00  0.00     0.034 A 
BRANCH  26  40
ATOM     40  C   UNL A   1      47.022  28.059  26.734  1.00  0.00     0.023 A 
ATOM     41  C   UNL A   1      48.047  27.507  27.529  1.00  0.00     0.012 A 
ATOM     42  C   UNL A   1      47.166  28.071  25.332  1.00  0.00     0.148 A 
ATOM     43  C   UNL A   1      49.202  26.990  26.943  1.00  0.00     0.002 A 
ATOM     44  C   UNL A   1      48.307  27.522  24.753  1.00  0.00     0.091 A 
ATOM     45  F   UNL A   1      46.189  28.615  24.593  1.00  0.00    -0.205 F 
ATOM     46  C   UNL A   1      49.326  26.987  25.557  1.00  0.00     0.022 A 
BRANCH  44  47
ATOM     47  S   UNL A   1      48.535  27.406  22.974  1.00  0.00     0.127 S 
ATOM     48  O   UNL A   1      48.368  25.970  22.748  1.00  0.00    -0.237 OA
ATOM     49  O   UNL A   1      47.439  28.233  22.467  1.00  0.00    -0.237 OA
ATOM     50  O   UNL A   1      49.867  27.930  22.704  1.00  0.00    -0.744 OA
ENDBRANCH  44  47
ENDBRANCH  26  40
BRANCH  27  51
ATOM     51  C   UNL A   1      38.474  30.835  31.123  1.00  0.00     0.023 A 
ATOM     52  C   UNL A   1      38.320  30.648  32.509  1.00  0.00     0.012 A 
ATOM     53  C   UNL A   1      37.442  31.459  30.397  1.00  0.00     0.148 A 
ATOM     54  C   UNL A   1      37.152  31.053  33.155  1.00  0.00     0.002 A 
ATOM     55  C   UNL A   1      36.309  31.919  31.057  1.00  0.00     0.091 A 
ATOM     56  F   UNL A   1      37.592  31.611  29.073  1.00  0.00    -0.205 F 
ATOM     57  C   UNL A   1      36.153  31.703  32.433  1.00  0.00     0.022 A 
BRANCH  55  58
ATOM     58  S   UNL A   1      35.072  32.906  30.207  1.00  0.00     0.127 S 
ATOM     59  O   UNL A   1      34.553  31.961  29.224  1.00  0.00    -0.237 OA
ATOM     60  O   UNL A   1      34.143  33.245  31.286  1.00  0.00    -0.237 OA
ATOM     61  O   UNL A   1      35.807  34.050  29.680  1.00  0.00    -0.744 OA
ENDBRANCH  55  58
ENDBRANCH  27  51
BRANCH  39  62
ATOM     62  C   UNL A   1      44.624  33.960  30.117  1.00  0.00     0.023 A 
ATOM     63  C   UNL A   1      45.326  34.067  31.333  1.00  0.00     0.012 A 
ATOM     64  C   UNL A   1      44.467  35.099  29.305  1.00  0.00     0.148 A 
ATOM     65  C   UNL A   1      45.833  35.295  31.755  1.00  0.00     0.002 A 
ATOM     66  C   UNL A   1      45.012  36.313  29.711  1.00  0.00     0.091 A 
ATOM     67  F   UNL A   1      43.775  34.984  28.162  1.00  0.00    -0.205 F 
ATOM     68  C   UNL A   1      45.685  36.415  30.940  1.00  0.00     0.022 A 
BRANCH  66  69
ATOM     69  S   UNL A   1      44.932  37.782  28.682  1.00  0.00     0.127 S 
ATOM     70  O   UNL A   1      45.655  38.758  29.496  1.00  0.00    -0.237 OA
ATOM     71  O   UNL A   1      45.635  37.359  27.470  1.00  0.00    -0.237 OA
ATOM     72  O   UNL A   1      43.512  38.047  28.488  1.00  0.00    -0.744 OA
ENDBRANCH  66  69
ENDBRANCH  39  62
ENDBRANCH  13  14
ENDBRANCH   6   8
ENDBRANCH   3   4
ENDBRANCH   2   3
ENDBRANCH   1   2
BRANCH   1  73
ATOM     73  C   UNL A   1      32.427  22.895  27.146  1.00  0.00     0.002 C 
BRANCH  73  74
ATOM     74  C   UNL A   1      31.212  23.541  26.463  1.00  0.00     0.021 C 
BRANCH  74  75
ATOM     75  C   UNL A   1      31.444  24.949  25.916  1.00  0.00     0.116 C 
BRANCH  75  76
ATOM     76  N   UNL A   1      31.188  25.959  26.925  1.00  0.00    -0.356 N 
ATOM     77  C   UNL A   1      31.386  27.304  26.894  1.00  0.00     0.224 C 
ATOM     78  H   UNL A   1      30.809  25.616  27.766  1.00  0.00     0.163 HD
ATOM     79  O   UNL A   1      31.170  27.930  27.934  1.00  0.00    -0.275 OA
BRANCH  77  80
ATOM     80  C   UNL A   1      31.870  27.973  25.610  1.00  0.00     0.095 C 
ATOM     81  C   UNL A   1      31.748  29.504  25.707  1.00  0.00     0.041 C 
ATOM     82  C   UNL A   1      33.309  27.506  25.287  1.00  0.00     0.095 C 
ATOM     83  C   UNL A   1      32.884  30.161  26.430  1.00  0.00    -0.030 C 
ATOM     84  C   UNL A   1      34.384  28.180  26.160  1.00  0.00     0.041 C 
ATOM     85  C   UNL A   1      34.056  29.557  26.649  1.00  0.00    -0.030 C 
BRANCH  82  86
ATOM     86  C   UNL A   1      33.609  27.658  23.797  1.00  0.00     0.224 C 
ATOM     87  O   UNL A   1      33.909  28.736  23.284  1.00  0.00    -0.275 OA
ATOM     88  N   UNL A   1      33.533  26.565  22.981  1.00  0.00    -0.353 N 
ATOM     89  H   UNL A   1      33.782  26.725  22.041  1.00  0.00     0.163 HD
BRANCH  88  90
ATOM     90  C   UNL A   1      33.138  25.199  23.296  1.00  0.00     0.082 C 
ATOM     91  C   UNL A   1      31.878  24.784  22.529  1.00  0.00     0.025 C 
ATOM     92  C   UNL A   1      34.287  24.231  22.984  1.00  0.00     0.025 C 
ATOM     93  C   UNL A   1      31.473  23.357  22.895  1.00  0.00     0.002 C 
ATOM     94  C   UNL A   1      33.905  22.789  23.313  1.00  0.00     0.002 C 
ATOM     95  C   UNL A   1      32.606  22.370  22.628  1.00  0.00     0.000 C 
ENDBRANCH  88  90
ENDBRANCH  82  86
ENDBRANCH  77  80
ENDBRANCH  75  76
ENDBRANCH  74  75
ENDBRANCH  73  74
ENDBRANCH   1  73
TORSDOF 18
ENDMDL
MODEL 2
REMARK VINA RESULT:     -11.6      1.557      2.687
REMARK SMILES O=C(NCCCCCCNC(=O)[C@H]1CC=CC[C@@H]1C(=O)NC1CCCCC1)c1ccc(-c2c3nc(c(-c4cccc(S(=O)(=O)[O-])c4F)c4ccc([nH]4)c(-c4cccc(S(=O)(=O)[O-])c4F)c4nc(c(-c5cccc(S(=O)(=O)[O-])c5F)c5ccc2[nH]5)C=C4)C=C3)cc1
REMARK SMILES IDX 6 1 5 2 4 3 3 4 1 5 2 6 28 8 29 9 90 10 30 11 89 12 31 13
REMARK SMILES IDX 32 14 33 15 83 16 34 17 88 18 82 19 84 20 35 21 87 22 81 23
REMARK SMILES IDX 80 24 36 26 68 27 48 28 67 29 49 30 52 31 66 32 85 33 50 34
REMARK SMILES IDX 51 35 65 37 86 38 53 39 37 40 38 41 46 42 39 43 41 44 47 45
REMARK SMILES IDX 40 46 42 47 43 48 44 49 45 50 69 51 70 52 78 53 71 54 73 55
REMARK SMILES IDX 79 56 72 57 74 58 75 59 76 60 77 61 54 62 55 63 63 64 56 65
REMARK SMILES IDX 58 66 64 67 57 68 59 69 60 70 61 71 62 72 7 73 8 74 9 75
REMARK SMILES IDX 10 76 11 77 12 79 13 80 14 81 18 82 15 83 17 84 16 85 19 86
REMARK SMILES IDX 20 87 21 88 22 90 23 91 27 92 24 93 26 94 25 95
REMARK H PARENT 3 7 84 25 52 36 10 78 21 89
REMARK Flexibility Score: inf
ROOT
ATOM      1  C   UNL A   1      34.331  23.172  26.698  1.00  0.00     0.002 C 
ENDROOT
BRANCH   1   2
ATOM      2  C   UNL A   1      35.227  22.204  25.926  1.00  0.00     0.021 C 
BRANCH   2   3
ATOM      3  C   UNL A   1      36.682  22.632  25.807  1.00  0.00     0.116 C 
BRANCH   3   4
ATOM      4  N   UNL A   1      37.608  21.513  25.847  1.00  0.00    -0.352 N 
ATOM      5  O   UNL A   1      39.627  20.519  26.025  1.00  0.00    -0.269 OA
ATOM      6  C   UNL A   1      38.945  21.528  26.175  1.00  0.00     0.251 C 
ATOM      7  H   UNL A   1      37.233  20.635  25.610  1.00  0.00     0.163 HD
BRANCH   6   8
ATOM      8  C   UNL A   1      39.553  22.782  26.675  1.00  0.00     0.039 A 
ATOM      9  C   UNL A   1      39.167  24.014  26.141  1.00  0.00     0.014 A 
ATOM     10  C   UNL A   1      40.535  22.725  27.668  1.00  0.00     0.014 A 
ATOM     11  C   UNL A   1      39.860  25.166  26.495  1.00  0.00     0.010 A 
ATOM     12  C   UNL A   1      41.169  23.899  28.088  1.00  0.00     0.010 A 
ATOM     13  C   UNL A   1      40.857  25.126  27.484  1.00  0.00    -0.014 A 
BRANCH  13  14
ATOM     14  C   UNL A   1      41.477  26.403  27.923  1.00  0.00     0.031 A 
ATOM     15  C   UNL A   1      42.894  26.762  27.572  1.00  0.00     0.074 A 
ATOM     16  C   UNL A   1      40.717  27.265  28.629  1.00  0.00     0.049 A 
ATOM     17  N   UNL A   1      43.540  27.874  27.815  1.00  0.00    -0.248 NA
ATOM     18  C   UNL A   1      43.695  25.749  26.865  1.00  0.00     0.031 C 
ATOM     19  C   UNL A   1      39.348  26.996  29.082  1.00  0.00     0.029 A 
ATOM     20  N   UNL A   1      40.970  28.534  29.078  1.00  0.00    -0.354 N 
ATOM     21  C   UNL A   1      44.826  27.689  27.321  1.00  0.00     0.074 A 
ATOM     22  C   UNL A   1      44.874  26.350  26.772  1.00  0.00     0.031 C 
ATOM     23  C   UNL A   1      38.870  28.081  29.706  1.00  0.00     0.029 A 
ATOM     24  C   UNL A   1      39.907  29.104  29.739  1.00  0.00     0.049 A 
ATOM     25  H   UNL A   1      41.830  28.993  28.941  1.00  0.00     0.167 HD
ATOM     26  C   UNL A   1      45.862  28.563  27.310  1.00  0.00     0.034 A 
ATOM     27  C   UNL A   1      39.779  30.315  30.313  1.00  0.00     0.034 A 
ATOM     28  C   UNL A   1      45.796  29.905  27.828  1.00  0.00     0.049 A 
ATOM     29  C   UNL A   1      40.926  31.279  30.233  1.00  0.00     0.074 A 
ATOM     30  C   UNL A   1      46.781  30.879  27.824  1.00  0.00     0.029 A 
ATOM     31  N   UNL A   1      44.686  30.467  28.440  1.00  0.00    -0.354 N 
ATOM     32  N   UNL A   1      42.090  31.125  29.649  1.00  0.00    -0.248 NA
ATOM     33  C   UNL A   1      40.733  32.591  30.863  1.00  0.00     0.031 C 
ATOM     34  C   UNL A   1      46.267  32.027  28.438  1.00  0.00     0.029 A 
ATOM     35  C   UNL A   1      44.959  31.772  28.816  1.00  0.00     0.049 A 
ATOM     36  H   UNL A   1      43.829  30.006  28.584  1.00  0.00     0.167 HD
ATOM     37  C   UNL A   1      42.768  32.323  29.836  1.00  0.00     0.074 A 
ATOM     38  C   UNL A   1      41.864  33.207  30.545  1.00  0.00     0.031 C 
ATOM     39  C   UNL A   1      44.035  32.651  29.484  1.00  0.00     0.034 A 
BRANCH  26  40
ATOM     40  C   UNL A   1      47.150  28.124  26.663  1.00  0.00     0.023 A 
ATOM     41  C   UNL A   1      48.220  27.705  27.480  1.00  0.00     0.012 A 
ATOM     42  C   UNL A   1      47.274  28.033  25.262  1.00  0.00     0.148 A 
ATOM     43  C   UNL A   1      49.399  27.217  26.915  1.00  0.00     0.002 A 
ATOM     44  C   UNL A   1      48.440  27.514  24.707  1.00  0.00     0.091 A 
ATOM     45  F   UNL A   1      46.254  28.452  24.501  1.00  0.00    -0.205 F 
ATOM     46  C   UNL A   1      49.504  27.112  25.532  1.00  0.00     0.022 A 
BRANCH  44  47
ATOM     47  S   UNL A   1      48.651  27.271  22.939  1.00  0.00     0.127 S 
ATOM     48  O   UNL A   1      48.289  25.861  22.790  1.00  0.00    -0.237 OA
ATOM     49  O   UNL A   1      47.679  28.211  22.379  1.00  0.00    -0.237 OA
ATOM     50  O   UNL A   1      50.042  27.592  22.652  1.00  0.00    -0.744 OA
ENDBRANCH  44  47
ENDBRANCH  26  40
BRANCH  27  51
ATOM     51  C   UNL A   1      38.491  30.689  30.961  1.00  0.00     0.023 A 
ATOM     52  C   UNL A   1      38.299  30.427  32.330  1.00  0.00     0.012 A 
ATOM     53  C   UNL A   1      37.480  31.356  30.242  1.00  0.00     0.148 A 
ATOM     54  C   UNL A   1      37.114  30.802  32.966  1.00  0.00     0.002 A 
ATOM     55  C   UNL A   1      36.332  31.784  30.896  1.00  0.00     0.091 A 
ATOM     56  F   UNL A   1      37.667  31.579  28.933  1.00  0.00    -0.205 F 
ATOM     57  C   UNL A   1      36.138  31.494  32.254  1.00  0.00     0.022 A 
BRANCH  55  58
ATOM     58  S   UNL A   1      35.121  32.821  30.068  1.00  0.00     0.127 S 
ATOM     59  O   UNL A   1      34.595  31.918  29.049  1.00  0.00    -0.237 OA
ATOM     60  O   UNL A   1      34.187  33.141  31.149  1.00  0.00    -0.237 OA
ATOM     61  O   UNL A   1      35.881  33.968  29.586  1.00  0.00    -0.744 OA
ENDBRANCH  55  58
ENDBRANCH  27  51
BRANCH  39  62
ATOM     62  C   UNL A   1      44.516  34.023  29.871  1.00  0.00     0.023 A 
ATOM     63  C   UNL A   1      45.226  34.189  31.076  1.00  0.00     0.012 A 
ATOM     64  C   UNL A   1      44.301  35.134  29.034  1.00  0.00     0.148 A 
ATOM     65  C   UNL A   1      45.684  35.447  31.462  1.00  0.00     0.002 A 
ATOM     66  C   UNL A   1      44.797  36.379  29.405  1.00  0.00     0.091 A 
ATOM     67  F   UNL A   1      43.602  34.961  27.902  1.00  0.00    -0.205 F 
ATOM     68  C   UNL A   1      45.478  36.540  30.622  1.00  0.00     0.022 A 
BRANCH  66  69
ATOM     69  S   UNL A   1      44.642  37.818  28.341  1.00  0.00     0.127 S 
ATOM     70  O   UNL A   1      43.273  38.249  28.619  1.00  0.00    -0.237 OA
ATOM     71  O   UNL A   1      45.679  38.710  28.861  1.00  0.00    -0.237 OA
ATOM     72  O   UNL A   1      44.891  37.334  26.989  1.00  0.00    -0.744 OA
ENDBRANCH  66  69
ENDBRANCH  39  62
ENDBRANCH  13  14
ENDBRANCH   6   8
ENDBRANCH   3   4
ENDBRANCH   2   3
ENDBRANCH   1   2
BRANCH   1  73
ATOM     73  C   UNL A   1      33.245  22.520  27.560  1.00  0.00     0.002 C 
BRANCH  73  74
ATOM     74  C   UNL A   1      31.805  22.669  27.049  1.00  0.00     0.021 C 
BRANCH  74  75
ATOM     75  C   UNL A   1      31.399  24.086  26.646  1.00  0.00     0.116 C 
BRANCH  75  76
ATOM     76  N   UNL A   1      30.672  24.092  25.391  1.00  0.00    -0.356 N 
ATOM     77  C   UNL A   1      30.740  24.952  24.338  1.00  0.00     0.224 C 
ATOM     78  H   UNL A   1      30.026  23.357  25.283  1.00  0.00     0.163 HD
ATOM     79  O   UNL A   1      29.934  24.784  23.421  1.00  0.00    -0.275 OA
BRANCH  77  80
ATOM     80  C   UNL A   1      31.775  26.073  24.337  1.00  0.00     0.095 C 
ATOM     81  C   UNL A   1      33.170  25.534  23.973  1.00  0.00     0.041 C 
ATOM     82  C   UNL A   1      31.311  27.214  23.401  1.00  0.00     0.095 C 
ATOM     83  C   UNL A   1      33.397  25.377  22.502  1.00  0.00    -0.030 C 
ATOM     84  C   UNL A   1      31.507  26.899  21.905  1.00  0.00     0.041 C 
ATOM     85  C   UNL A   1      32.637  25.973  21.578  1.00  0.00    -0.030 C 
BRANCH  82  86
ATOM     86  C   UNL A   1      31.962  28.538  23.793  1.00  0.00     0.224 C 
ATOM     87  O   UNL A   1      33.118  28.616  24.208  1.00  0.00    -0.275 OA
ATOM     88  N   UNL A   1      31.243  29.696  23.698  1.00  0.00    -0.353 N 
ATOM     89  H   UNL A   1      31.737  30.517  23.924  1.00  0.00     0.163 HD
BRANCH  88  90
ATOM     90  C   UNL A   1      29.852  29.893  23.312  1.00  0.00     0.082 C 
ATOM     91  C   UNL A   1      29.235  31.102  24.022  1.00  0.00     0.025 C 
ATOM     92  C   UNL A   1      29.744  30.064  21.791  1.00  0.00     0.025 C 
ATOM     93  C   UNL A   1      27.771  31.272  23.617  1.00  0.00     0.002 C 
ATOM     94  C   UNL A   1      28.295  30.264  21.354  1.00  0.00     0.002 C 
ATOM     95  C   UNL A   1      27.623  31.412  22.105  1.00  0.00     0.000 C 
ENDBRANCH  88  90
ENDBRANCH  82  86
ENDBRANCH  77  80
ENDBRANCH  75  76
ENDBRANCH  74  75
ENDBRANCH  73  74
ENDBRANCH   1  73
TORSDOF 18
ENDMDL
MODEL 3
REMARK VINA RESULT:     -11.5      5.277     10.314
REMARK SMILES O=C(NCCCCCCNC(=O)[C@H]1CC=CC[C@@H]1C(=O)NC1CCCCC1)c1ccc(-c2c3nc(c(-c4cccc(S(=O)(=O)[O-])c4F)c4ccc([nH]4)c(-c4cccc(S(=O)(=O)[O-])c4F)c4nc(c(-c5cccc(S(=O)(=O)[O-])c5F)c5ccc2[nH]5)C=C4)C=C3)cc1
REMARK SMILES IDX 6 1 5 2 4 3 3 4 1 5 2 6 28 8 29 9 90 10 30 11 89 12 31 13
REMARK SMILES IDX 32 14 33 15 83 16 34 17 88 18 82 19 84 20 35 21 87 22 81 23
REMARK SMILES IDX 80 24 36 26 68 27 48 28 67 29 49 30 52 31 66 32 85 33 50 34
REMARK SMILES IDX 51 35 65 37 86 38 53 39 37 40 38 41 46 42 39 43 41 44 47 45
REMARK SMILES IDX 40 46 42 47 43 48 44 49 45 50 69 51 70 52 78 53 71 54 73 55
REMARK SMILES IDX 79 56 72 57 74 58 75 59 76 60 77 61 54 62 55 63 63 64 56 65
REMARK SMILES IDX 58 66 64 67 57 68 59 69 60 70 61 71 62 72 7 73 8 74 9 75
REMARK SMILES IDX 10 76 11 77 12 79 13 80 14 81 18 82 15 83 17 84 16 85 19 86
REMARK SMILES IDX 20 87 21 88 22 90 23 91 27 92 24 93 26 94 25 95
REMARK H PARENT 3 7 84 25 52 36 10 78 21 89
REMARK Flexibility Score: inf
ROOT
ATOM      1  C   UNL A   1      31.465  30.582  26.195  1.00  0.00     0.002 C 
ENDROOT
BRANCH   1   2
ATOM      2  C   UNL A   1      31.386  32.078  26.499  1.00  0.00     0.021 C 
BRANCH   2   3
ATOM      3  C   UNL A   1      32.645  32.676  27.108  1.00  0.00     0.116 C 
BRANCH   3   4
ATOM      4  N   UNL A   1      32.432  34.002  27.663  1.00  0.00    -0.352 N 
ATOM      5  O   UNL A   1      32.746  35.698  29.121  1.00  0.00    -0.269 OA
ATOM      6  C   UNL A   1      33.138  34.627  28.666  1.00  0.00     0.251 C 
ATOM      7  H   UNL A   1      31.691  34.519  27.272  1.00  0.00     0.163 HD
BRANCH   6   8
ATOM      8  C   UNL A   1      34.351  33.975  29.211  1.00  0.00     0.039 A 
ATOM      9  C   UNL A   1      34.240  32.831  30.004  1.00  0.00     0.014 A 
ATOM     10  C   UNL A   1      35.608  34.526  28.947  1.00  0.00     0.014 A 
ATOM     11  C   UNL A   1      35.364  32.326  30.647  1.00  0.00     0.010 A 
ATOM     12  C   UNL A   1      36.750  33.962  29.525  1.00  0.00     0.010 A 
ATOM     13  C   UNL A   1      36.634  32.873  30.402  1.00  0.00    -0.014 A 
BRANCH  13  14
ATOM     14  C   UNL A   1      37.822  32.217  31.009  1.00  0.00     0.031 A 
ATOM     15  C   UNL A   1      38.257  32.506  32.419  1.00  0.00     0.074 A 
ATOM     16  C   UNL A   1      38.495  31.317  30.264  1.00  0.00     0.049 A 
ATOM     17  N   UNL A   1      39.221  31.948  33.107  1.00  0.00    -0.248 NA
ATOM     18  C   UNL A   1      37.528  33.552  33.153  1.00  0.00     0.031 C 
ATOM     19  C   UNL A   1      38.202  31.003  28.862  1.00  0.00     0.029 A 
ATOM     20  N   UNL A   1      39.545  30.493  30.574  1.00  0.00    -0.354 N 
ATOM     21  C   UNL A   1      39.237  32.592  34.339  1.00  0.00     0.074 A 
ATOM     22  C   UNL A   1      38.191  33.591  34.302  1.00  0.00     0.031 C 
ATOM     23  C   UNL A   1      39.022  30.029  28.448  1.00  0.00     0.029 A 
ATOM     24  C   UNL A   1      39.929  29.680  29.534  1.00  0.00     0.049 A 
ATOM     25  H   UNL A   1      39.983  30.486  31.456  1.00  0.00     0.167 HD
ATOM     26  C   UNL A   1      40.038  32.355  35.407  1.00  0.00     0.034 A 
ATOM     27  C   UNL A   1      40.904  28.755  29.458  1.00  0.00     0.034 A 
ATOM     28  C   UNL A   1      41.055  31.335  35.447  1.00  0.00     0.049 A 
ATOM     29  C   UNL A   1      41.736  28.478  30.676  1.00  0.00     0.074 A 
ATOM     30  C   UNL A   1      41.889  30.993  36.498  1.00  0.00     0.029 A 
ATOM     31  N   UNL A   1      41.378  30.493  34.394  1.00  0.00    -0.354 N 
ATOM     32  N   UNL A   1      41.648  29.013  31.870  1.00  0.00    -0.248 NA
ATOM     33  C   UNL A   1      42.778  27.452  30.547  1.00  0.00     0.031 C 
ATOM     34  C   UNL A   1      42.718  29.946  36.079  1.00  0.00     0.029 A 
ATOM     35  C   UNL A   1      42.395  29.630  34.769  1.00  0.00     0.049 A 
ATOM     36  H   UNL A   1      40.946  30.505  33.510  1.00  0.00     0.167 HD
ATOM     37  C   UNL A   1      42.620  28.385  32.638  1.00  0.00     0.074 A 
ATOM     38  C   UNL A   1      43.251  27.396  31.785  1.00  0.00     0.031 C 
ATOM     39  C   UNL A   1      42.982  28.626  33.921  1.00  0.00     0.034 A 
BRANCH  26  40
ATOM     40  C   UNL A   1      39.814  33.171  36.653  1.00  0.00     0.023 A 
ATOM     41  C   UNL A   1      40.371  34.464  36.736  1.00  0.00     0.012 A 
ATOM     42  C   UNL A   1      38.983  32.709  37.694  1.00  0.00     0.148 A 
ATOM     43  C   UNL A   1      40.119  35.278  37.840  1.00  0.00     0.002 A 
ATOM     44  C   UNL A   1      38.709  33.540  38.776  1.00  0.00     0.091 A 
ATOM     45  F   UNL A   1      38.477  31.471  37.605  1.00  0.00    -0.205 F 
ATOM     46  C   UNL A   1      39.280  34.821  38.853  1.00  0.00     0.022 A 
BRANCH  44  47
ATOM     47  S   UNL A   1      37.587  33.074  40.100  1.00  0.00     0.127 S 
ATOM     48  O   UNL A   1      36.339  32.859  39.367  1.00  0.00    -0.237 OA
ATOM     49  O   UNL A   1      38.207  31.853  40.616  1.00  0.00    -0.237 OA
ATOM     50  O   UNL A   1      37.579  34.193  41.032  1.00  0.00    -0.744 OA
ENDBRANCH  44  47
ENDBRANCH  26  40
BRANCH  27  51
ATOM     51  C   UNL A   1      41.100  27.993  28.193  1.00  0.00     0.023 A 
ATOM     52  C   UNL A   1      41.657  28.636  27.072  1.00  0.00     0.012 A 
ATOM     53  C   UNL A   1      40.791  26.622  28.113  1.00  0.00     0.148 A 
ATOM     54  C   UNL A   1      41.881  27.933  25.888  1.00  0.00     0.002 A 
ATOM     55  C   UNL A   1      41.077  25.913  26.954  1.00  0.00     0.091 A 
ATOM     56  F   UNL A   1      40.239  26.027  29.181  1.00  0.00    -0.205 F 
ATOM     57  C   UNL A   1      41.607  26.568  25.833  1.00  0.00     0.022 A 
BRANCH  55  58
ATOM     58  S   UNL A   1      40.899  24.126  26.886  1.00  0.00     0.127 S 
ATOM     59  O   UNL A   1      39.474  23.974  26.611  1.00  0.00    -0.237 OA
ATOM     60  O   UNL A   1      41.782  23.762  25.777  1.00  0.00    -0.237 OA
ATOM     61  O   UNL A   1      41.361  23.657  28.187  1.00  0.00    -0.744 OA
ENDBRANCH  55  58
ENDBRANCH  27  51
BRANCH  39  62
ATOM     62  C   UNL A   1      44.119  27.811  34.473  1.00  0.00     0.023 A 
ATOM     63  C   UNL A   1      45.433  28.312  34.385  1.00  0.00     0.012 A 
ATOM     64  C   UNL A   1      43.890  26.575  35.107  1.00  0.00     0.148 A 
ATOM     65  C   UNL A   1      46.508  27.579  34.887  1.00  0.00     0.002 A 
ATOM     66  C   UNL A   1      44.962  25.868  35.642  1.00  0.00     0.091 A 
ATOM     67  F   UNL A   1      42.636  26.102  35.160  1.00  0.00    -0.205 F 
ATOM     68  C   UNL A   1      46.271  26.363  35.524  1.00  0.00     0.022 A 
BRANCH  66  69
ATOM     69  S   UNL A   1      44.731  24.334  36.546  1.00  0.00     0.127 S 
ATOM     70  O   UNL A   1      44.166  24.812  37.808  1.00  0.00    -0.237 OA
ATOM     71  O   UNL A   1      43.792  23.602  35.696  1.00  0.00    -0.237 OA
ATOM     72  O   UNL A   1      46.054  23.729  36.635  1.00  0.00    -0.744 OA
ENDBRANCH  66  69
ENDBRANCH  39  62
ENDBRANCH  13  14
ENDBRANCH   6   8
ENDBRANCH   3   4
ENDBRANCH   2   3
ENDBRANCH   1   2
BRANCH   1  73
ATOM     73  C   UNL A   1      32.154  29.728  27.263  1.00  0.00     0.002 C 
BRANCH  73  74
ATOM     74  C   UNL A   1      33.680  29.599  27.137  1.00  0.00     0.021 C 
BRANCH  74  75
ATOM     75  C   UNL A   1      34.168  28.377  26.359  1.00  0.00     0.116 C 
BRANCH  75  76
ATOM     76  N   UNL A   1      34.193  28.633  24.932  1.00  0.00    -0.356 N 
ATOM     77  C   UNL A   1      33.571  27.984  23.910  1.00  0.00     0.224 C 
ATOM     78  H   UNL A   1      34.749  29.398  24.658  1.00  0.00     0.163 HD
ATOM     79  O   UNL A   1      33.838  28.350  22.765  1.00  0.00    -0.275 OA
BRANCH  77  80
ATOM     80  C   UNL A   1      32.599  26.846  24.212  1.00  0.00     0.095 C 
ATOM     81  C   UNL A   1      31.297  27.384  24.831  1.00  0.00     0.041 C 
ATOM     82  C   UNL A   1      32.354  26.014  22.931  1.00  0.00     0.095 C 
ATOM     83  C   UNL A   1      30.314  27.904  23.827  1.00  0.00    -0.030 C 
ATOM     84  C   UNL A   1      31.401  26.694  21.930  1.00  0.00     0.041 C 
ATOM     85  C   UNL A   1      30.376  27.609  22.525  1.00  0.00    -0.030 C 
BRANCH  82  86
ATOM     86  C   UNL A   1      31.897  24.599  23.281  1.00  0.00     0.224 C 
ATOM     87  O   UNL A   1      30.720  24.244  23.218  1.00  0.00    -0.275 OA
ATOM     88  N   UNL A   1      32.816  23.678  23.696  1.00  0.00    -0.353 N 
ATOM     89  H   UNL A   1      32.460  22.775  23.862  1.00  0.00     0.163 HD
BRANCH  88  90
ATOM     90  C   UNL A   1      34.245  23.836  23.930  1.00  0.00     0.082 C 
ATOM     91  C   UNL A   1      34.603  23.629  25.405  1.00  0.00     0.025 C 
ATOM     92  C   UNL A   1      35.036  22.855  23.054  1.00  0.00     0.025 C 
ATOM     93  C   UNL A   1      36.102  23.822  25.626  1.00  0.00     0.002 C 
ATOM     94  C   UNL A   1      36.540  23.003  23.270  1.00  0.00     0.002 C 
ATOM     95  C   UNL A   1      36.922  22.884  24.744  1.00  0.00     0.000 C 
ENDBRANCH  88  90
ENDBRANCH  82  86
ENDBRANCH  77  80
ENDBRANCH  75  76
ENDBRANCH  74  75
ENDBRANCH  73  74
ENDBRANCH   1  73
TORSDOF 18
ENDMDL
