MODEL 1
REMARK VINA RESULT:     -11.1      0.000      0.000
REMARK SMILES CC/C(=C/C(=O)[C@H](Cc1ccc(Cl)cc1Cl)C(=O)NCCCCCCNC(=O)c1ccc(-c2c3nc(c(-c4cccc(S(=O)(=O)[O-])c4F)c4ccc([nH]4)c(-c4cccc(S(=O)(=O)[O-])c4F)c4nc(c(-c5cccc(S(=O)(=O)[O-])c5F)c5ccc2[nH]5)C=C4)C=C3)cc1)N(C)C
REMARK SMILES IDX 22 1 21 2 20 3 19 4 17 5 18 6 7 8 5 9 6 10 4 11 3 12 2 13
REMARK SMILES IDX 1 14 92 15 93 16 94 17 8 18 9 19 10 20 15 21 11 22 14 23
REMARK SMILES IDX 16 24 12 25 13 26 23 27 24 28 25 29 26 30 27 31 28 33 29 34
REMARK SMILES IDX 30 35 91 36 31 37 90 38 32 39 33 40 34 41 84 42 35 43 89 44
REMARK SMILES IDX 83 45 85 46 36 47 88 48 82 49 81 50 37 52 69 53 49 54 68 55
REMARK SMILES IDX 50 56 53 57 67 58 86 59 51 60 52 61 66 63 87 64 54 65 38 66
REMARK SMILES IDX 39 67 47 68 40 69 42 70 48 71 41 72 43 73 44 74 45 75 46 76
REMARK SMILES IDX 70 77 71 78 79 79 72 80 74 81 80 82 73 83 75 84 76 85 77 86
REMARK SMILES IDX 78 87 55 88 56 89 64 90 57 91 59 92 65 93 58 94 60 95 61 96
REMARK SMILES IDX 62 97 63 98
REMARK H PARENT 19 7 26 32 85 51 53 62
REMARK Flexibility Score: inf
ROOT
ATOM      1  C   UNL A   1      32.224  29.877  27.083  1.00  0.00     0.002 C 
ENDROOT
BRANCH   1   2
ATOM      2  C   UNL A   1      31.815  28.401  26.992  1.00  0.00     0.021 C 
BRANCH   2   3
ATOM      3  C   UNL A   1      32.903  27.548  26.378  1.00  0.00     0.116 C 
BRANCH   3   4
ATOM      4  N   UNL A   1      33.528  28.230  25.264  1.00  0.00    -0.355 N 
ATOM      5  C   UNL A   1      33.942  27.753  24.067  1.00  0.00     0.231 C 
ATOM      6  O   UNL A   1      34.461  28.552  23.279  1.00  0.00    -0.274 OA
ATOM      7  H   UNL A   1      33.677  29.193  25.398  1.00  0.00     0.163 HD
BRANCH   5   8
ATOM      8  C   UNL A   1      33.885  26.293  23.722  1.00  0.00     0.154 C 
BRANCH   8   9
ATOM      9  C   UNL A   1      32.616  25.776  23.052  1.00  0.00     0.170 C 
ATOM     10  O   UNL A   1      32.717  25.214  21.949  1.00  0.00    -0.294 OA
BRANCH   9  11
ATOM     11  C   UNL A   1      31.206  25.851  23.603  1.00  0.00     0.069 C 
ATOM     12  C   UNL A   1      30.107  26.649  23.665  1.00  0.00     0.016 C 
BRANCH  12  13
ATOM     13  C   UNL A   1      29.017  26.157  24.649  1.00  0.00     0.050 C 
ATOM     14  C   UNL A   1      29.586  25.514  25.915  1.00  0.00     0.010 C 
ENDBRANCH  12  13
BRANCH  12  15
ATOM     15  N   UNL A   1      29.801  27.850  23.000  1.00  0.00    -0.381 N 
ATOM     16  C   UNL A   1      30.815  28.730  22.388  1.00  0.00     0.143 C 
ATOM     17  C   UNL A   1      28.470  28.452  22.963  1.00  0.00     0.143 C 
ENDBRANCH  12  15
ENDBRANCH   9  11
ENDBRANCH   8   9
BRANCH   8  18
ATOM     18  C   UNL A   1      34.390  25.382  24.916  1.00  0.00     0.059 C 
BRANCH  18  19
ATOM     19  C   UNL A   1      34.743  23.944  24.529  1.00  0.00    -0.028 A 
ATOM     20  C   UNL A   1      35.841  23.700  23.690  1.00  0.00     0.007 A 
ATOM     21  C   UNL A   1      34.173  22.844  25.189  1.00  0.00     0.045 A 
ATOM     22  C   UNL A   1      36.497  22.466  23.730  1.00  0.00     0.021 A 
ATOM     23  C   UNL A   1      34.893  21.657  25.334  1.00  0.00     0.041 A 
ATOM     24  Cl  UNL A   1      32.551  22.892  25.778  1.00  0.00    -0.084 Cl
ATOM     25  C   UNL A   1      36.082  21.494  24.637  1.00  0.00     0.042 A 
ATOM     26  Cl  UNL A   1      37.043  20.090  24.892  1.00  0.00    -0.084 Cl
ENDBRANCH  18  19
ENDBRANCH   8  18
ENDBRANCH   5   8
ENDBRANCH   3   4
ENDBRANCH   2   3
ENDBRANCH   1   2
BRANCH   1  27
ATOM     27  C   UNL A   1      31.473  30.803  26.130  1.00  0.00     0.002 C 
BRANCH  27  28
ATOM     28  C   UNL A   1      31.379  32.256  26.580  1.00  0.00     0.021 C 
BRANCH  28  29
ATOM     29  C   UNL A   1      32.632  32.758  27.276  1.00  0.00     0.116 C 
BRANCH  29  30
ATOM     30  N   UNL A   1      32.487  34.150  27.668  1.00  0.00    -0.352 N 
ATOM     31  C   UNL A   1      33.124  34.787  28.711  1.00  0.00     0.251 C 
ATOM     32  H   UNL A   1      31.867  34.696  27.131  1.00  0.00     0.163 HD
ATOM     33  O   UNL A   1      32.751  35.859  29.129  1.00  0.00    -0.269 OA
BRANCH  31  34
ATOM     34  C   UNL A   1      34.283  34.085  29.300  1.00  0.00     0.039 A 
ATOM     35  C   UNL A   1      35.573  34.443  28.912  1.00  0.00     0.014 A 
ATOM     36  C   UNL A   1      34.063  33.165  30.330  1.00  0.00     0.014 A 
ATOM     37  C   UNL A   1      36.660  33.887  29.587  1.00  0.00     0.010 A 
ATOM     38  C   UNL A   1      35.143  32.687  31.057  1.00  0.00     0.010 A 
ATOM     39  C   UNL A   1      36.452  33.019  30.675  1.00  0.00    -0.014 A 
BRANCH  39  40
ATOM     40  C   UNL A   1      37.588  32.399  31.398  1.00  0.00     0.031 A 
ATOM     41  C   UNL A   1      38.326  31.253  30.760  1.00  0.00     0.074 A 
ATOM     42  C   UNL A   1      37.900  32.805  32.643  1.00  0.00     0.049 A 
ATOM     43  N   UNL A   1      39.305  30.533  31.238  1.00  0.00    -0.248 NA
ATOM     44  C   UNL A   1      37.879  30.836  29.418  1.00  0.00     0.031 C 
ATOM     45  C   UNL A   1      37.201  33.847  33.399  1.00  0.00     0.029 A 
ATOM     46  N   UNL A   1      38.876  32.371  33.505  1.00  0.00    -0.354 N 
ATOM     47  C   UNL A   1      39.562  29.560  30.280  1.00  0.00     0.074 A 
ATOM     48  C   UNL A   1      38.603  29.748  29.215  1.00  0.00     0.031 C 
ATOM     49  C   UNL A   1      37.777  33.979  34.606  1.00  0.00     0.029 A 
ATOM     50  C   UNL A   1      38.870  33.017  34.719  1.00  0.00     0.049 A 
ATOM     51  H   UNL A   1      39.522  31.664  33.275  1.00  0.00     0.167 HD
ATOM     52  C   UNL A   1      40.533  28.619  30.265  1.00  0.00     0.034 A 
ATOM     53  C   UNL A   1      39.660  32.851  35.798  1.00  0.00     0.034 A 
ATOM     54  C   UNL A   1      41.521  28.480  31.299  1.00  0.00     0.049 A 
ATOM     55  C   UNL A   1      40.772  31.838  35.733  1.00  0.00     0.074 A 
ATOM     56  C   UNL A   1      42.605  27.622  31.343  1.00  0.00     0.029 A 
ATOM     57  N   UNL A   1      41.543  29.220  32.471  1.00  0.00    -0.354 N 
ATOM     58  N   UNL A   1      41.100  31.035  34.750  1.00  0.00    -0.248 NA
ATOM     59  C   UNL A   1      41.648  31.736  36.909  1.00  0.00     0.031 C 
ATOM     60  C   UNL A   1      43.276  27.835  32.552  1.00  0.00     0.029 A 
ATOM     61  C   UNL A   1      42.622  28.839  33.248  1.00  0.00     0.049 A 
ATOM     62  H   UNL A   1      40.889  29.913  32.714  1.00  0.00     0.167 HD
ATOM     63  C   UNL A   1      42.241  30.361  35.171  1.00  0.00     0.074 A 
ATOM     64  C   UNL A   1      42.559  30.866  36.492  1.00  0.00     0.031 C 
ATOM     65  C   UNL A   1      42.953  29.400  34.532  1.00  0.00     0.034 A 
BRANCH  52  66
ATOM     66  C   UNL A   1      40.613  27.717  29.062  1.00  0.00     0.023 A 
ATOM     67  C   UNL A   1      39.727  26.625  28.952  1.00  0.00     0.012 A 
ATOM     68  C   UNL A   1      41.533  27.966  28.026  1.00  0.00     0.148 A 
ATOM     69  C   UNL A   1      39.780  25.773  27.851  1.00  0.00     0.002 A 
ATOM     70  C   UNL A   1      41.548  27.139  26.908  1.00  0.00     0.091 A 
ATOM     71  F   UNL A   1      42.383  28.993  28.158  1.00  0.00    -0.205 F 
ATOM     72  C   UNL A   1      40.682  26.036  26.826  1.00  0.00     0.022 A 
BRANCH  70  73
ATOM     73  S   UNL A   1      42.616  27.438  25.495  1.00  0.00     0.127 S 
ATOM     74  O   UNL A   1      43.911  27.640  26.142  1.00  0.00    -0.237 OA
ATOM     75  O   UNL A   1      42.496  26.185  24.748  1.00  0.00    -0.237 OA
ATOM     76  O   UNL A   1      42.068  28.603  24.816  1.00  0.00    -0.744 OA
ENDBRANCH  70  73
ENDBRANCH  52  66
BRANCH  53  77
ATOM     77  C   UNL A   1      39.482  33.720  36.997  1.00  0.00     0.023 A 
ATOM     78  C   UNL A   1      39.934  35.054  36.954  1.00  0.00     0.012 A 
ATOM     79  C   UNL A   1      38.855  33.247  38.166  1.00  0.00     0.148 A 
ATOM     80  C   UNL A   1      39.796  35.890  38.062  1.00  0.00     0.002 A 
ATOM     81  C   UNL A   1      38.671  34.101  39.248  1.00  0.00     0.091 A 
ATOM     82  F   UNL A   1      38.442  31.973  38.193  1.00  0.00    -0.205 F 
ATOM     83  C   UNL A   1      39.157  35.418  39.205  1.00  0.00     0.022 A 
BRANCH  81  84
ATOM     84  S   UNL A   1      37.744  33.619  40.709  1.00  0.00     0.127 S 
ATOM     85  O   UNL A   1      36.480  33.177  40.129  1.00  0.00    -0.237 OA
ATOM     86  O   UNL A   1      38.579  32.550  41.258  1.00  0.00    -0.237 OA
ATOM     87  O   UNL A   1      37.680  34.813  41.542  1.00  0.00    -0.744 OA
ENDBRANCH  81  84
ENDBRANCH  53  77
BRANCH  65  88
ATOM     88  C   UNL A   1      44.172  28.855  35.228  1.00  0.00     0.023 A 
ATOM     89  C   UNL A   1      45.436  29.424  34.977  1.00  0.00     0.012 A 
ATOM     90  C   UNL A   1      44.050  27.838  36.196  1.00  0.00     0.148 A 
ATOM     91  C   UNL A   1      46.564  28.969  35.657  1.00  0.00     0.002 A 
ATOM     92  C   UNL A   1      45.170  27.424  36.904  1.00  0.00     0.091 A 
ATOM     93  F   UNL A   1      42.841  27.297  36.406  1.00  0.00    -0.205 F 
ATOM     94  C   UNL A   1      46.429  27.980  36.628  1.00  0.00     0.022 A 
BRANCH  92  95
ATOM     95  S   UNL A   1      45.074  26.229  38.241  1.00  0.00     0.127 S 
ATOM     96  O   UNL A   1      44.614  25.032  37.538  1.00  0.00    -0.237 OA
ATOM     97  O   UNL A   1      46.460  26.168  38.705  1.00  0.00    -0.237 OA
ATOM     98  O   UNL A   1      44.137  26.785  39.209  1.00  0.00    -0.744 OA
ENDBRANCH  92  95
ENDBRANCH  65  88
ENDBRANCH  39  40
ENDBRANCH  31  34
ENDBRANCH  29  30
ENDBRANCH  28  29
ENDBRANCH  27  28
ENDBRANCH   1  27
TORSDOF 22
ENDMDL
MODEL 2
REMARK VINA RESULT:     -10.7      2.437      8.048
REMARK SMILES CC/C(=C/C(=O)[C@H](Cc1ccc(Cl)cc1Cl)C(=O)NCCCCCCNC(=O)c1ccc(-c2c3nc(c(-c4cccc(S(=O)(=O)[O-])c4F)c4ccc([nH]4)c(-c4cccc(S(=O)(=O)[O-])c4F)c4nc(c(-c5cccc(S(=O)(=O)[O-])c5F)c5ccc2[nH]5)C=C4)C=C3)cc1)N(C)C
REMARK SMILES IDX 22 1 21 2 20 3 19 4 17 5 18 6 7 8 5 9 6 10 4 11 3 12 2 13
REMARK SMILES IDX 1 14 92 15 93 16 94 17 8 18 9 19 10 20 15 21 11 22 14 23
REMARK SMILES IDX 16 24 12 25 13 26 23 27 24 28 25 29 26 30 27 31 28 33 29 34
REMARK SMILES IDX 30 35 91 36 31 37 90 38 32 39 33 40 34 41 84 42 35 43 89 44
REMARK SMILES IDX 83 45 85 46 36 47 88 48 82 49 81 50 37 52 69 53 49 54 68 55
REMARK SMILES IDX 50 56 53 57 67 58 86 59 51 60 52 61 66 63 87 64 54 65 38 66
REMARK SMILES IDX 39 67 47 68 40 69 42 70 48 71 41 72 43 73 44 74 45 75 46 76
REMARK SMILES IDX 70 77 71 78 79 79 72 80 74 81 80 82 73 83 75 84 76 85 77 86
REMARK SMILES IDX 78 87 55 88 56 89 64 90 57 91 59 92 65 93 58 94 60 95 61 96
REMARK SMILES IDX 62 97 63 98
REMARK H PARENT 19 7 26 32 85 51 53 62
REMARK Flexibility Score: inf
ROOT
ATOM      1  C   UNL A   1      33.808  27.643  25.257  1.00  0.00     0.002 C 
ENDROOT
BRANCH   1   2
ATOM      2  C   UNL A   1      33.710  26.832  23.958  1.00  0.00     0.021 C 
BRANCH   2   3
ATOM      3  C   UNL A   1      33.794  27.713  22.732  1.00  0.00     0.116 C 
BRANCH   3   4
ATOM      4  N   UNL A   1      32.790  27.341  21.756  1.00  0.00    -0.355 N 
ATOM      5  C   UNL A   1      32.010  26.238  21.680  1.00  0.00     0.231 C 
ATOM      6  O   UNL A   1      31.226  26.154  20.728  1.00  0.00    -0.274 OA
ATOM      7  H   UNL A   1      32.653  27.995  21.034  1.00  0.00     0.163 HD
BRANCH   5   8
ATOM      8  C   UNL A   1      32.148  25.091  22.637  1.00  0.00     0.154 C 
BRANCH   8   9
ATOM      9  C   UNL A   1      33.014  23.912  22.204  1.00  0.00     0.170 C 
ATOM     10  O   UNL A   1      33.418  23.874  21.030  1.00  0.00    -0.294 OA
BRANCH   9  11
ATOM     11  C   UNL A   1      33.472  22.757  23.073  1.00  0.00     0.069 C 
ATOM     12  C   UNL A   1      34.496  22.330  23.857  1.00  0.00     0.016 C 
BRANCH  12  13
ATOM     13  C   UNL A   1      34.390  20.848  24.294  1.00  0.00     0.050 C 
ATOM     14  C   UNL A   1      34.536  20.646  25.803  1.00  0.00     0.010 C 
ENDBRANCH  12  13
BRANCH  12  15
ATOM     15  N   UNL A   1      35.641  23.000  24.324  1.00  0.00    -0.381 N 
ATOM     16  C   UNL A   1      35.597  24.226  25.145  1.00  0.00     0.143 C 
ATOM     17  C   UNL A   1      37.008  22.660  23.935  1.00  0.00     0.143 C 
ENDBRANCH  12  15
ENDBRANCH   9  11
ENDBRANCH   8   9
BRANCH   8  18
ATOM     18  C   UNL A   1      30.754  24.661  23.255  1.00  0.00     0.059 C 
BRANCH  18  19
ATOM     19  C   UNL A   1      30.818  24.114  24.683  1.00  0.00    -0.028 A 
ATOM     20  C   UNL A   1      30.832  22.727  24.894  1.00  0.00     0.007 A 
ATOM     21  C   UNL A   1      31.130  24.941  25.773  1.00  0.00     0.045 A 
ATOM     22  C   UNL A   1      31.394  22.198  26.061  1.00  0.00     0.021 A 
ATOM     23  C   UNL A   1      31.808  24.425  26.879  1.00  0.00     0.041 A 
ATOM     24  Cl  UNL A   1      30.629  26.592  25.820  1.00  0.00    -0.084 Cl
ATOM     25  C   UNL A   1      31.978  23.053  26.992  1.00  0.00     0.042 A 
ATOM     26  Cl  UNL A   1      32.912  22.405  28.284  1.00  0.00    -0.084 Cl
ENDBRANCH  18  19
ENDBRANCH   8  18
ENDBRANCH   5   8
ENDBRANCH   3   4
ENDBRANCH   2   3
ENDBRANCH   1   2
BRANCH   1  27
ATOM     27  C   UNL A   1      33.692  29.153  25.071  1.00  0.00     0.002 C 
BRANCH  27  28
ATOM     28  C   UNL A   1      32.360  29.757  25.501  1.00  0.00     0.021 C 
BRANCH  28  29
ATOM     29  C   UNL A   1      32.390  30.367  26.892  1.00  0.00     0.116 C 
BRANCH  29  30
ATOM     30  N   UNL A   1      32.347  31.818  26.823  1.00  0.00    -0.352 N 
ATOM     31  C   UNL A   1      33.208  32.702  27.438  1.00  0.00     0.251 C 
ATOM     32  H   UNL A   1      31.627  32.212  26.279  1.00  0.00     0.163 HD
ATOM     33  O   UNL A   1      32.946  33.878  27.547  1.00  0.00    -0.269 OA
BRANCH  31  34
ATOM     34  C   UNL A   1      34.465  32.134  27.968  1.00  0.00     0.039 A 
ATOM     35  C   UNL A   1      35.579  32.957  28.121  1.00  0.00     0.014 A 
ATOM     36  C   UNL A   1      34.469  30.812  28.424  1.00  0.00     0.014 A 
ATOM     37  C   UNL A   1      36.708  32.451  28.767  1.00  0.00     0.010 A 
ATOM     38  C   UNL A   1      35.557  30.345  29.146  1.00  0.00     0.010 A 
ATOM     39  C   UNL A   1      36.698  31.149  29.299  1.00  0.00    -0.014 A 
BRANCH  39  40
ATOM     40  C   UNL A   1      37.889  30.580  29.974  1.00  0.00     0.031 A 
ATOM     41  C   UNL A   1      38.224  31.028  31.371  1.00  0.00     0.074 A 
ATOM     42  C   UNL A   1      38.703  29.735  29.312  1.00  0.00     0.049 A 
ATOM     43  N   UNL A   1      39.244  30.703  32.120  1.00  0.00    -0.248 NA
ATOM     44  C   UNL A   1      37.310  32.000  31.998  1.00  0.00     0.031 C 
ATOM     45  C   UNL A   1      38.529  29.298  27.925  1.00  0.00     0.029 A 
ATOM     46  N   UNL A   1      39.857  29.111  29.713  1.00  0.00    -0.354 N 
ATOM     47  C   UNL A   1      39.116  31.456  33.280  1.00  0.00     0.074 A 
ATOM     48  C   UNL A   1      37.949  32.292  33.119  1.00  0.00     0.031 C 
ATOM     49  C   UNL A   1      39.533  28.468  27.595  1.00  0.00     0.029 A 
ATOM     50  C   UNL A   1      40.434  28.333  28.737  1.00  0.00     0.049 A 
ATOM     51  H   UNL A   1      40.237  29.210  30.616  1.00  0.00     0.167 HD
ATOM     52  C   UNL A   1      39.876  31.427  34.399  1.00  0.00     0.034 A 
ATOM     53  C   UNL A   1      41.560  27.593  28.764  1.00  0.00     0.034 A 
ATOM     54  C   UNL A   1      40.998  30.547  34.575  1.00  0.00     0.049 A 
ATOM     55  C   UNL A   1      42.355  27.531  30.042  1.00  0.00     0.074 A 
ATOM     56  C   UNL A   1      41.782  30.368  35.700  1.00  0.00     0.029 A 
ATOM     57  N   UNL A   1      41.493  29.698  33.598  1.00  0.00    -0.354 N 
ATOM     58  N   UNL A   1      42.126  28.128  31.186  1.00  0.00    -0.248 NA
ATOM     59  C   UNL A   1      43.540  26.662  30.045  1.00  0.00     0.031 C 
ATOM     60  C   UNL A   1      42.763  29.419  35.397  1.00  0.00     0.029 A 
ATOM     61  C   UNL A   1      42.575  28.992  34.092  1.00  0.00     0.049 A 
ATOM     62  H   UNL A   1      41.130  29.611  32.688  1.00  0.00     0.167 HD
ATOM     63  C   UNL A   1      43.113  27.679  32.056  1.00  0.00     0.074 A 
ATOM     64  C   UNL A   1      43.930  26.742  31.310  1.00  0.00     0.031 C 
ATOM     65  C   UNL A   1      43.335  28.020  33.350  1.00  0.00     0.034 A 
BRANCH  52  66
ATOM     66  C   UNL A   1      39.474  32.323  35.540  1.00  0.00     0.023 A 
ATOM     67  C   UNL A   1      38.649  31.815  36.565  1.00  0.00     0.012 A 
ATOM     68  C   UNL A   1      39.938  33.650  35.621  1.00  0.00     0.148 A 
ATOM     69  C   UNL A   1      38.260  32.623  37.632  1.00  0.00     0.002 A 
ATOM     70  C   UNL A   1      39.583  34.436  36.713  1.00  0.00     0.091 A 
ATOM     71  F   UNL A   1      40.700  34.124  34.627  1.00  0.00    -0.205 F 
ATOM     72  C   UNL A   1      38.734  33.929  37.711  1.00  0.00     0.022 A 
BRANCH  70  73
ATOM     73  S   UNL A   1      40.207  36.104  36.951  1.00  0.00     0.127 S 
ATOM     74  O   UNL A   1      41.640  35.862  37.108  1.00  0.00    -0.237 OA
ATOM     75  O   UNL A   1      39.832  36.753  35.694  1.00  0.00    -0.237 OA
ATOM     76  O   UNL A   1      39.527  36.623  38.128  1.00  0.00    -0.744 OA
ENDBRANCH  70  73
ENDBRANCH  52  66
BRANCH  53  77
ATOM     77  C   UNL A   1      41.955  26.787  27.574  1.00  0.00     0.023 A 
ATOM     78  C   UNL A   1      42.609  27.421  26.498  1.00  0.00     0.012 A 
ATOM     79  C   UNL A   1      41.711  25.402  27.505  1.00  0.00     0.148 A 
ATOM     80  C   UNL A   1      42.980  26.699  25.364  1.00  0.00     0.002 A 
ATOM     81  C   UNL A   1      42.132  24.677  26.395  1.00  0.00     0.091 A 
ATOM     82  F   UNL A   1      41.079  24.817  28.532  1.00  0.00    -0.205 F 
ATOM     83  C   UNL A   1      42.751  25.327  25.315  1.00  0.00     0.022 A 
BRANCH  81  84
ATOM     84  S   UNL A   1      41.997  22.888  26.304  1.00  0.00     0.127 S 
ATOM     85  O   UNL A   1      42.604  22.608  25.007  1.00  0.00    -0.237 OA
ATOM     86  O   UNL A   1      42.788  22.466  27.460  1.00  0.00    -0.237 OA
ATOM     87  O   UNL A   1      40.573  22.599  26.417  1.00  0.00    -0.744 OA
ENDBRANCH  81  84
ENDBRANCH  53  77
BRANCH  65  88
ATOM     88  C   UNL A   1      44.481  27.351  34.062  1.00  0.00     0.023 A 
ATOM     89  C   UNL A   1      45.748  27.965  34.080  1.00  0.00     0.012 A 
ATOM     90  C   UNL A   1      44.276  26.160  34.786  1.00  0.00     0.148 A 
ATOM     91  C   UNL A   1      46.804  27.387  34.783  1.00  0.00     0.002 A 
ATOM     92  C   UNL A   1      45.319  25.617  35.525  1.00  0.00     0.091 A 
ATOM     93  F   UNL A   1      43.066  25.583  34.741  1.00  0.00    -0.205 F 
ATOM     94  C   UNL A   1      46.586  26.222  35.515  1.00  0.00     0.022 A 
BRANCH  92  95
ATOM     95  S   UNL A   1      45.103  24.177  36.576  1.00  0.00     0.127 S 
ATOM     96  O   UNL A   1      46.489  23.821  36.882  1.00  0.00    -0.237 OA
ATOM     97  O   UNL A   1      44.351  24.726  37.706  1.00  0.00    -0.237 OA
ATOM     98  O   UNL A   1      44.370  23.204  35.779  1.00  0.00    -0.744 OA
ENDBRANCH  92  95
ENDBRANCH  65  88
ENDBRANCH  39  40
ENDBRANCH  31  34
ENDBRANCH  29  30
ENDBRANCH  28  29
ENDBRANCH  27  28
ENDBRANCH   1  27
TORSDOF 22
ENDMDL
MODEL 3
REMARK VINA RESULT:     -10.6      5.310      8.617
REMARK SMILES CC/C(=C/C(=O)[C@H](Cc1ccc(Cl)cc1Cl)C(=O)NCCCCCCNC(=O)c1ccc(-c2c3nc(c(-c4cccc(S(=O)(=O)[O-])c4F)c4ccc([nH]4)c(-c4cccc(S(=O)(=O)[O-])c4F)c4nc(c(-c5cccc(S(=O)(=O)[O-])c5F)c5ccc2[nH]5)C=C4)C=C3)cc1)N(C)C
REMARK SMILES IDX 22 1 21 2 20 3 19 4 17 5 18 6 7 8 5 9 6 10 4 11 3 12 2 13
REMARK SMILES IDX 1 14 92 15 93 16 94 17 8 18 9 19 10 20 15 21 11 22 14 23
REMARK SMILES IDX 16 24 12 25 13 26 23 27 24 28 25 29 26 30 27 31 28 33 29 34
REMARK SMILES IDX 30 35 91 36 31 37 90 38 32 39 33 40 34 41 84 42 35 43 89 44
REMARK SMILES IDX 83 45 85 46 36 47 88 48 82 49 81 50 37 52 69 53 49 54 68 55
REMARK SMILES IDX 50 56 53 57 67 58 86 59 51 60 52 61 66 63 87 64 54 65 38 66
REMARK SMILES IDX 39 67 47 68 40 69 42 70 48 71 41 72 43 73 44 74 45 75 46 76
REMARK SMILES IDX 70 77 71 78 79 79 72 80 74 81 80 82 73 83 75 84 76 85 77 86
REMARK SMILES IDX 78 87 55 88 56 89 64 90 57 91 59 92 65 93 58 94 60 95 61 96
REMARK SMILES IDX 62 97 63 98
REMARK H PARENT 19 7 26 32 85 51 53 62
REMARK Flexibility Score: inf
ROOT
ATOM      1  C   UNL A   1      33.577  21.168  24.520  1.00  0.00     0.002 C 
ENDROOT
BRANCH   1   2
ATOM      2  C   UNL A   1      32.898  20.840  25.856  1.00  0.00     0.021 C 
BRANCH   2   3
ATOM      3  C   UNL A   1      32.905  22.020  26.801  1.00  0.00     0.116 C 
BRANCH   3   4
ATOM      4  N   UNL A   1      31.566  22.318  27.267  1.00  0.00    -0.355 N 
ATOM      5  C   UNL A   1      30.704  23.291  26.891  1.00  0.00     0.231 C 
ATOM      6  O   UNL A   1      29.607  23.337  27.458  1.00  0.00    -0.274 OA
ATOM      7  H   UNL A   1      31.229  21.717  27.970  1.00  0.00     0.163 HD
BRANCH   5   8
ATOM      8  C   UNL A   1      31.080  24.357  25.904  1.00  0.00     0.154 C 
BRANCH   8   9
ATOM      9  C   UNL A   1      31.041  23.992  24.423  1.00  0.00     0.170 C 
ATOM     10  O   UNL A   1      30.730  22.831  24.109  1.00  0.00    -0.294 OA
BRANCH   9  11
ATOM     11  C   UNL A   1      31.326  24.914  23.255  1.00  0.00     0.069 C 
ATOM     12  C   UNL A   1      31.008  26.125  22.727  1.00  0.00     0.016 C 
BRANCH  12  13
ATOM     13  C   UNL A   1      31.544  26.356  21.292  1.00  0.00     0.050 C 
ATOM     14  C   UNL A   1      32.828  25.583  20.990  1.00  0.00     0.010 C 
ENDBRANCH  12  13
BRANCH  12  15
ATOM     15  N   UNL A   1      30.262  27.194  23.255  1.00  0.00    -0.381 N 
ATOM     16  C   UNL A   1      28.878  27.062  23.752  1.00  0.00     0.143 C 
ATOM     17  C   UNL A   1      30.699  28.588  23.240  1.00  0.00     0.143 C 
ENDBRANCH  12  15
ENDBRANCH   9  11
ENDBRANCH   8   9
BRANCH   8  18
ATOM     18  C   UNL A   1      32.397  25.127  26.333  1.00  0.00     0.059 C 
BRANCH  18  19
ATOM     19  C   UNL A   1      32.331  26.650  26.197  1.00  0.00    -0.028 A 
ATOM     20  C   UNL A   1      31.408  27.376  26.965  1.00  0.00     0.007 A 
ATOM     21  C   UNL A   1      33.334  27.372  25.532  1.00  0.00     0.045 A 
ATOM     22  C   UNL A   1      31.647  28.720  27.266  1.00  0.00     0.021 A 
ATOM     23  C   UNL A   1      33.650  28.672  25.930  1.00  0.00     0.041 A 
ATOM     24  Cl  UNL A   1      34.156  26.714  24.164  1.00  0.00    -0.084 Cl
ATOM     25  C   UNL A   1      32.826  29.324  26.836  1.00  0.00     0.042 A 
ATOM     26  Cl  UNL A   1      33.261  30.879  27.429  1.00  0.00    -0.084 Cl
ENDBRANCH  18  19
ENDBRANCH   8  18
ENDBRANCH   5   8
ENDBRANCH   3   4
ENDBRANCH   2   3
ENDBRANCH   1   2
BRANCH   1  27
ATOM     27  C   UNL A   1      35.093  21.323  24.601  1.00  0.00     0.002 C 
BRANCH  27  28
ATOM     28  C   UNL A   1      35.592  22.761  24.688  1.00  0.00     0.021 C 
BRANCH  28  29
ATOM     29  C   UNL A   1      36.673  22.967  25.735  1.00  0.00     0.116 C 
BRANCH  29  30
ATOM     30  N   UNL A   1      37.389  21.728  25.992  1.00  0.00    -0.352 N 
ATOM     31  C   UNL A   1      38.746  21.581  26.186  1.00  0.00     0.251 C 
ATOM     32  H   UNL A   1      36.847  20.907  26.034  1.00  0.00     0.163 HD
ATOM     33  O   UNL A   1      39.287  20.500  26.127  1.00  0.00    -0.269 OA
BRANCH  31  34
ATOM     34  C   UNL A   1      39.509  22.817  26.456  1.00  0.00     0.039 A 
ATOM     35  C   UNL A   1      39.236  23.968  25.719  1.00  0.00     0.014 A 
ATOM     36  C   UNL A   1      40.401  22.839  27.533  1.00  0.00     0.014 A 
ATOM     37  C   UNL A   1      39.849  25.167  26.086  1.00  0.00     0.010 A 
ATOM     38  C   UNL A   1      40.934  24.049  27.950  1.00  0.00     0.010 A 
ATOM     39  C   UNL A   1      40.687  25.218  27.214  1.00  0.00    -0.014 A 
BRANCH  39  40
ATOM     40  C   UNL A   1      41.365  26.474  27.617  1.00  0.00     0.031 A 
ATOM     41  C   UNL A   1      42.809  26.679  27.243  1.00  0.00     0.074 A 
ATOM     42  C   UNL A   1      40.720  27.379  28.376  1.00  0.00     0.049 A 
ATOM     43  N   UNL A   1      43.605  27.671  27.541  1.00  0.00    -0.248 NA
ATOM     44  C   UNL A   1      43.455  25.610  26.460  1.00  0.00     0.031 C 
ATOM     45  C   UNL A   1      39.348  27.248  28.874  1.00  0.00     0.029 A 
ATOM     46  N   UNL A   1      41.142  28.582  28.884  1.00  0.00    -0.354 N 
ATOM     47  C   UNL A   1      44.847  27.328  27.020  1.00  0.00     0.074 A 
ATOM     48  C   UNL A   1      44.714  26.014  26.432  1.00  0.00     0.031 C 
ATOM     49  C   UNL A   1      39.040  28.332  29.605  1.00  0.00     0.029 A 
ATOM     50  C   UNL A   1      40.196  29.223  29.649  1.00  0.00     0.049 A 
ATOM     51  H   UNL A   1      42.039  28.951  28.716  1.00  0.00     0.167 HD
ATOM     52  C   UNL A   1      45.987  28.054  26.996  1.00  0.00     0.034 A 
ATOM     53  C   UNL A   1      40.257  30.398  30.306  1.00  0.00     0.034 A 
ATOM     54  C   UNL A   1      46.094  29.384  27.528  1.00  0.00     0.049 A 
ATOM     55  C   UNL A   1      41.519  31.215  30.213  1.00  0.00     0.074 A 
ATOM     56  C   UNL A   1      47.173  30.248  27.476  1.00  0.00     0.029 A 
ATOM     57  N   UNL A   1      45.082  30.043  28.209  1.00  0.00    -0.354 N 
ATOM     58  N   UNL A   1      42.633  30.944  29.578  1.00  0.00    -0.248 NA
ATOM     59  C   UNL A   1      41.518  32.518  30.893  1.00  0.00     0.031 C 
ATOM     60  C   UNL A   1      46.817  31.426  28.141  1.00  0.00     0.029 A 
ATOM     61  C   UNL A   1      45.510  31.303  28.586  1.00  0.00     0.049 A 
ATOM     62  H   UNL A   1      44.192  29.669  28.397  1.00  0.00     0.167 HD
ATOM     63  C   UNL A   1      43.450  32.055  29.747  1.00  0.00     0.074 A 
ATOM     64  C   UNL A   1      42.694  33.013  30.529  1.00  0.00     0.031 C 
ATOM     65  C   UNL A   1      44.718  32.262  29.310  1.00  0.00     0.034 A 
BRANCH  52  66
ATOM     66  C   UNL A   1      47.186  27.451  26.312  1.00  0.00     0.023 A 
ATOM     67  C   UNL A   1      47.359  27.635  24.924  1.00  0.00     0.012 A 
ATOM     68  C   UNL A   1      48.157  26.738  27.040  1.00  0.00     0.148 A 
ATOM     69  C   UNL A   1      48.457  27.086  24.265  1.00  0.00     0.002 A 
ATOM     70  C   UNL A   1      49.275  26.234  26.383  1.00  0.00     0.091 A 
ATOM     71  F   UNL A   1      47.964  26.553  28.353  1.00  0.00    -0.205 F 
ATOM     72  C   UNL A   1      49.419  26.395  24.995  1.00  0.00     0.022 A 
BRANCH  70  73
ATOM     73  S   UNL A   1      50.612  25.399  27.246  1.00  0.00     0.127 S 
ATOM     74  O   UNL A   1      51.008  26.411  28.223  1.00  0.00    -0.237 OA
ATOM     75  O   UNL A   1      49.930  24.235  27.814  1.00  0.00    -0.237 OA
ATOM     76  O   UNL A   1      51.608  25.084  26.233  1.00  0.00    -0.744 OA
ENDBRANCH  70  73
ENDBRANCH  52  66
BRANCH  53  77
ATOM     77  C   UNL A   1      39.063  30.910  31.038  1.00  0.00     0.023 A 
ATOM     78  C   UNL A   1      38.912  30.607  32.406  1.00  0.00     0.012 A 
ATOM     79  C   UNL A   1      38.092  31.707  30.401  1.00  0.00     0.148 A 
ATOM     80  C   UNL A   1      37.800  31.059  33.117  1.00  0.00     0.002 A 
ATOM     81  C   UNL A   1      37.014  32.199  31.129  1.00  0.00     0.091 A 
ATOM     82  F   UNL A   1      38.247  31.974  29.097  1.00  0.00    -0.205 F 
ATOM     83  C   UNL A   1      36.856  31.862  32.483  1.00  0.00     0.022 A 
BRANCH  81  84
ATOM     84  S   UNL A   1      35.822  33.346  30.427  1.00  0.00     0.127 S 
ATOM     85  O   UNL A   1      35.504  34.187  31.577  1.00  0.00    -0.237 OA
ATOM     86  O   UNL A   1      36.611  34.000  29.382  1.00  0.00    -0.237 OA
ATOM     87  O   UNL A   1      34.734  32.518  29.924  1.00  0.00    -0.744 OA
ENDBRANCH  81  84
ENDBRANCH  53  77
BRANCH  65  88
ATOM     88  C   UNL A   1      45.359  33.586  29.628  1.00  0.00     0.023 A 
ATOM     89  C   UNL A   1      46.111  33.735  30.810  1.00  0.00     0.012 A 
ATOM     90  C   UNL A   1      45.289  34.654  28.712  1.00  0.00     0.148 A 
ATOM     91  C   UNL A   1      46.759  34.937  31.090  1.00  0.00     0.002 A 
ATOM     92  C   UNL A   1      45.978  35.832  28.974  1.00  0.00     0.091 A 
ATOM     93  F   UNL A   1      44.553  34.497  27.601  1.00  0.00    -0.205 F 
ATOM     94  C   UNL A   1      46.702  35.979  30.167  1.00  0.00     0.022 A 
BRANCH  92  95
ATOM     95  S   UNL A   1      46.045  37.187  27.797  1.00  0.00     0.127 S 
ATOM     96  O   UNL A   1      46.703  38.230  28.583  1.00  0.00    -0.237 OA
ATOM     97  O   UNL A   1      46.864  36.625  26.722  1.00  0.00    -0.237 OA
ATOM     98  O   UNL A   1      44.665  37.463  27.424  1.00  0.00    -0.744 OA
ENDBRANCH  92  95
ENDBRANCH  65  88
ENDBRANCH  39  40
ENDBRANCH  31  34
ENDBRANCH  29  30
ENDBRANCH  28  29
ENDBRANCH  27  28
ENDBRANCH   1  27
TORSDOF 22
ENDMDL
