MODEL 1
REMARK VINA RESULT:      -8.3      0.000      0.000
REMARK SMILES CS(=O)(=O)c1ccc(C2=NN(c3ccc(C(=O)NCCCCCCNC(=O)c4ccc(-c5c6nc(c(-c7cccc(S(=O)(=O)[O-])c7F)c7ccc([nH]7)c(-c7cccc(S(=O)(=O)[O-])c7F)c7nc(c(-c8cccc(S(=O)(=O)[O-])c8F)c8ccc5[nH]8)C=C7)C=C6)cc4)cc3)[C@H](c3cccs3)C2)cc1
REMARK SMILES IDX 21 1 20 2 19 3 18 4 16 5 17 6 15 8 12 9 13 10 92 11 14 12
REMARK SMILES IDX 91 13 11 14 9 15 10 16 99 17 93 18 8 19 5 20 6 21 101 22
REMARK SMILES IDX 7 23 100 24 2 25 1 26 3 27 4 28 94 29 95 30 98 31 96 32
REMARK SMILES IDX 97 33 22 34 23 35 24 36 25 37 26 38 27 40 28 41 29 42 90 43
REMARK SMILES IDX 30 44 89 45 31 46 32 47 33 48 83 49 34 50 88 51 82 52 84 53
REMARK SMILES IDX 35 54 87 55 81 56 80 57 36 59 68 60 48 61 67 62 49 63 52 64
REMARK SMILES IDX 66 65 85 66 50 67 51 68 65 70 86 71 53 72 37 73 38 74 46 75
REMARK SMILES IDX 39 76 41 77 47 78 40 79 42 80 43 81 44 82 45 83 69 84 70 85
REMARK SMILES IDX 78 86 71 87 73 88 79 89 72 90 74 91 75 92 76 93 77 94 54 95
REMARK SMILES IDX 55 96 63 97 56 98 58 99 64 100 57 101 59 102 60 103 61 104
REMARK SMILES IDX 62 105
REMARK H PARENT 18 7 25 39 84 58 52 69
REMARK Flexibility Score: inf
ROOT
ATOM      1  C   UNL A   1      44.003  44.186  31.816  1.00  0.00     0.002 C 
ENDROOT
BRANCH   1   2
ATOM      2  C   UNL A   1      42.965  43.416  30.990  1.00  0.00     0.021 C 
BRANCH   2   3
ATOM      3  C   UNL A   1      43.501  42.094  30.439  1.00  0.00     0.116 C 
BRANCH   3   4
ATOM      4  N   UNL A   1      43.876  42.259  29.045  1.00  0.00    -0.352 N 
ATOM      5  C   UNL A   1      44.032  41.351  28.032  1.00  0.00     0.251 C 
ATOM      6  O   UNL A   1      44.362  41.764  26.921  1.00  0.00    -0.269 OA
ATOM      7  H   UNL A   1      44.048  43.192  28.781  1.00  0.00     0.163 HD
BRANCH   5   8
ATOM      8  C   UNL A   1      43.726  39.908  28.211  1.00  0.00     0.039 A 
ATOM      9  C   UNL A   1      42.899  37.265  28.714  1.00  0.00     0.060 A 
ATOM     10  C   UNL A   1      42.049  38.163  28.064  1.00  0.00     0.029 A 
ATOM     11  C   UNL A   1      44.200  37.675  29.016  1.00  0.00     0.029 A 
ATOM     12  C   UNL A   1      42.455  39.475  27.815  1.00  0.00     0.016 A 
ATOM     13  C   UNL A   1      44.621  38.979  28.746  1.00  0.00     0.016 A 
BRANCH   9  14
ATOM     14  N   UNL A   1      42.458  36.000  29.039  1.00  0.00    -0.257 N 
ATOM     15  C   UNL A   1      41.062  34.544  29.654  1.00  0.00     0.071 C 
ATOM     16  N   UNL A   1      41.163  35.803  29.364  1.00  0.00    -0.176 NA
ATOM     17  C   UNL A   1      42.345  33.756  29.603  1.00  0.00     0.091 C 
ATOM     18  C   UNL A   1      43.235  34.770  28.862  1.00  0.00     0.154 C 
BRANCH  15  19
ATOM     19  C   UNL A   1      39.785  33.944  30.056  1.00  0.00    -0.002 A 
ATOM     20  C   UNL A   1      37.310  32.812  30.618  1.00  0.00     0.067 A 
ATOM     21  C   UNL A   1      38.275  32.064  29.936  1.00  0.00     0.021 A 
ATOM     22  C   UNL A   1      37.581  34.121  31.033  1.00  0.00     0.021 A 
ATOM     23  C   UNL A   1      39.511  32.637  29.644  1.00  0.00     0.011 A 
ATOM     24  C   UNL A   1      38.830  34.687  30.756  1.00  0.00     0.011 A 
BRANCH  20  25
ATOM     25  S   UNL A   1      35.741  32.030  30.907  1.00  0.00     0.175 S 
ATOM     26  C   UNL A   1      34.678  32.466  29.563  1.00  0.00     0.163 C 
ATOM     27  O   UNL A   1      35.187  32.640  32.102  1.00  0.00    -0.224 OA
ATOM     28  O   UNL A   1      35.972  30.601  30.829  1.00  0.00    -0.224 OA
ENDBRANCH  20  25
ENDBRANCH  15  19
BRANCH  18  29
ATOM     29  C   UNL A   1      43.605  34.420  27.427  1.00  0.00     0.030 A 
ATOM     30  C   UNL A   1      44.496  33.434  27.030  1.00  0.00     0.017 A 
ATOM     31  S   UNL A   1      42.983  35.251  26.059  1.00  0.00    -0.147 S 
ATOM     32  C   UNL A   1      44.643  33.351  25.617  1.00  0.00     0.012 A 
ATOM     33  C   UNL A   1      43.850  34.266  24.966  1.00  0.00     0.065 A 
ENDBRANCH  18  29
ENDBRANCH   9  14
ENDBRANCH   5   8
ENDBRANCH   3   4
ENDBRANCH   2   3
ENDBRANCH   1   2
BRANCH   1  34
ATOM     34  C   UNL A   1      43.444  44.851  33.079  1.00  0.00     0.002 C 
BRANCH  34  35
ATOM     35  C   UNL A   1      42.175  44.202  33.637  1.00  0.00     0.021 C 
BRANCH  35  36
ATOM     36  C   UNL A   1      42.426  43.209  34.767  1.00  0.00     0.116 C 
BRANCH  36  37
ATOM     37  N   UNL A   1      43.787  43.309  35.273  1.00  0.00    -0.352 N 
ATOM     38  C   UNL A   1      44.686  42.312  35.550  1.00  0.00     0.251 C 
ATOM     39  H   UNL A   1      44.108  44.225  35.441  1.00  0.00     0.163 HD
ATOM     40  O   UNL A   1      45.696  42.561  36.201  1.00  0.00    -0.269 OA
BRANCH  38  41
ATOM     41  C   UNL A   1      44.433  40.937  35.068  1.00  0.00     0.039 A 
ATOM     42  C   UNL A   1      43.957  40.753  33.767  1.00  0.00     0.014 A 
ATOM     43  C   UNL A   1      44.645  39.836  35.902  1.00  0.00     0.014 A 
ATOM     44  C   UNL A   1      43.736  39.460  33.291  1.00  0.00     0.010 A 
ATOM     45  C   UNL A   1      44.499  38.547  35.399  1.00  0.00     0.010 A 
ATOM     46  C   UNL A   1      44.030  38.345  34.093  1.00  0.00    -0.014 A 
BRANCH  46  47
ATOM     47  C   UNL A   1      43.863  36.964  33.570  1.00  0.00     0.031 A 
ATOM     48  C   UNL A   1      42.637  36.161  33.907  1.00  0.00     0.074 A 
ATOM     49  C   UNL A   1      44.857  36.406  32.851  1.00  0.00     0.049 A 
ATOM     50  N   UNL A   1      42.329  34.940  33.551  1.00  0.00    -0.248 NA
ATOM     51  C   UNL A   1      41.638  36.798  34.781  1.00  0.00     0.031 C 
ATOM     52  C   UNL A   1      46.136  37.047  32.538  1.00  0.00     0.029 A 
ATOM     53  N   UNL A   1      44.959  35.163  32.276  1.00  0.00    -0.354 N 
ATOM     54  C   UNL A   1      41.126  34.650  34.184  1.00  0.00     0.074 A 
ATOM     55  C   UNL A   1      40.776  35.810  34.973  1.00  0.00     0.031 C 
ATOM     56  C   UNL A   1      46.890  36.198  31.824  1.00  0.00     0.029 A 
ATOM     57  C   UNL A   1      46.164  34.943  31.654  1.00  0.00     0.049 A 
ATOM     58  H   UNL A   1      44.237  34.495  32.307  1.00  0.00     0.167 HD
ATOM     59  C   UNL A   1      40.369  33.530  34.097  1.00  0.00     0.034 A 
ATOM     60  C   UNL A   1      46.638  33.850  31.024  1.00  0.00     0.034 A 
ATOM     61  C   UNL A   1      40.705  32.394  33.282  1.00  0.00     0.049 A 
ATOM     62  C   UNL A   1      45.756  32.641  30.892  1.00  0.00     0.074 A 
ATOM     63  C   UNL A   1      39.954  31.256  33.042  1.00  0.00     0.029 A 
ATOM     64  N   UNL A   1      41.896  32.238  32.591  1.00  0.00    -0.354 N 
ATOM     65  N   UNL A   1      44.542  32.453  31.349  1.00  0.00    -0.248 NA
ATOM     66  C   UNL A   1      46.290  31.508  30.125  1.00  0.00     0.031 C 
ATOM     67  C   UNL A   1      40.709  30.397  32.235  1.00  0.00     0.029 A 
ATOM     68  C   UNL A   1      41.912  31.016  31.940  1.00  0.00     0.049 A 
ATOM     69  H   UNL A   1      42.625  32.900  32.567  1.00  0.00     0.167 HD
ATOM     70  C   UNL A   1      44.154  31.196  30.900  1.00  0.00     0.074 A 
ATOM     71  C   UNL A   1      45.256  30.679  30.114  1.00  0.00     0.031 C 
ATOM     72  C   UNL A   1      42.998  30.525  31.130  1.00  0.00     0.034 A 
BRANCH  59  73
ATOM     73  C   UNL A   1      39.080  33.493  34.879  1.00  0.00     0.023 A 
ATOM     74  C   UNL A   1      37.936  34.149  34.379  1.00  0.00     0.012 A 
ATOM     75  C   UNL A   1      38.988  32.769  36.084  1.00  0.00     0.148 A 
ATOM     76  C   UNL A   1      36.734  34.118  35.084  1.00  0.00     0.002 A 
ATOM     77  C   UNL A   1      37.772  32.701  36.755  1.00  0.00     0.091 A 
ATOM     78  F   UNL A   1      40.090  32.169  36.556  1.00  0.00    -0.205 F 
ATOM     79  C   UNL A   1      36.649  33.387  36.265  1.00  0.00     0.022 A 
BRANCH  77  80
ATOM     80  S   UNL A   1      37.540  31.716  38.239  1.00  0.00     0.127 S 
ATOM     81  O   UNL A   1      38.730  32.065  39.014  1.00  0.00    -0.237 OA
ATOM     82  O   UNL A   1      36.287  32.254  38.771  1.00  0.00    -0.237 OA
ATOM     83  O   UNL A   1      37.467  30.332  37.795  1.00  0.00    -0.744 OA
ENDBRANCH  77  80
ENDBRANCH  59  73
BRANCH  60  84
ATOM     84  C   UNL A   1      48.002  33.880  30.424  1.00  0.00     0.023 A 
ATOM     85  C   UNL A   1      49.103  33.415  31.170  1.00  0.00     0.012 A 
ATOM     86  C   UNL A   1      48.205  34.323  29.103  1.00  0.00     0.148 A 
ATOM     87  C   UNL A   1      50.386  33.420  30.621  1.00  0.00     0.002 A 
ATOM     88  C   UNL A   1      49.474  34.270  28.542  1.00  0.00     0.091 A 
ATOM     89  F   UNL A   1      47.144  34.768  28.414  1.00  0.00    -0.205 F 
ATOM     90  C   UNL A   1      50.569  33.835  29.304  1.00  0.00     0.022 A 
BRANCH  88  91
ATOM     91  S   UNL A   1      49.780  34.653  26.813  1.00  0.00     0.127 S 
ATOM     92  O   UNL A   1      48.903  33.702  26.135  1.00  0.00    -0.237 OA
ATOM     93  O   UNL A   1      49.352  36.050  26.735  1.00  0.00    -0.237 OA
ATOM     94  O   UNL A   1      51.208  34.452  26.609  1.00  0.00    -0.744 OA
ENDBRANCH  88  91
ENDBRANCH  60  84
BRANCH  72  95
ATOM     95  C   UNL A   1      42.845  29.164  30.499  1.00  0.00     0.023 A 
ATOM     96  C   UNL A   1      43.169  28.006  31.234  1.00  0.00     0.012 A 
ATOM     97  C   UNL A   1      42.324  29.032  29.197  1.00  0.00     0.148 A 
ATOM     98  C   UNL A   1      43.016  26.741  30.668  1.00  0.00     0.002 A 
ATOM     99  C   UNL A   1      42.123  27.767  28.660  1.00  0.00     0.091 A 
ATOM    100  F   UNL A   1      42.039  30.146  28.506  1.00  0.00    -0.205 F 
ATOM    101  C   UNL A   1      42.482  26.621  29.387  1.00  0.00     0.022 A 
BRANCH  99 102
ATOM    102  S   UNL A   1      41.351  27.514  27.058  1.00  0.00     0.127 S 
ATOM    103  O   UNL A   1      40.579  28.746  26.900  1.00  0.00    -0.237 OA
ATOM    104  O   UNL A   1      42.510  27.402  26.170  1.00  0.00    -0.237 OA
ATOM    105  O   UNL A   1      40.564  26.294  27.179  1.00  0.00    -0.744 OA
ENDBRANCH  99 102
ENDBRANCH  72  95
ENDBRANCH  46  47
ENDBRANCH  38  41
ENDBRANCH  36  37
ENDBRANCH  35  36
ENDBRANCH  34  35
ENDBRANCH   1  34
TORSDOF 20
ENDMDL
MODEL 2
REMARK VINA RESULT:      -8.1      1.834      2.460
REMARK SMILES CS(=O)(=O)c1ccc(C2=NN(c3ccc(C(=O)NCCCCCCNC(=O)c4ccc(-c5c6nc(c(-c7cccc(S(=O)(=O)[O-])c7F)c7ccc([nH]7)c(-c7cccc(S(=O)(=O)[O-])c7F)c7nc(c(-c8cccc(S(=O)(=O)[O-])c8F)c8ccc5[nH]8)C=C7)C=C6)cc4)cc3)[C@H](c3cccs3)C2)cc1
REMARK SMILES IDX 21 1 20 2 19 3 18 4 16 5 17 6 15 8 12 9 13 10 92 11 14 12
REMARK SMILES IDX 91 13 11 14 9 15 10 16 99 17 93 18 8 19 5 20 6 21 101 22
REMARK SMILES IDX 7 23 100 24 2 25 1 26 3 27 4 28 94 29 95 30 98 31 96 32
REMARK SMILES IDX 97 33 22 34 23 35 24 36 25 37 26 38 27 40 28 41 29 42 90 43
REMARK SMILES IDX 30 44 89 45 31 46 32 47 33 48 83 49 34 50 88 51 82 52 84 53
REMARK SMILES IDX 35 54 87 55 81 56 80 57 36 59 68 60 48 61 67 62 49 63 52 64
REMARK SMILES IDX 66 65 85 66 50 67 51 68 65 70 86 71 53 72 37 73 38 74 46 75
REMARK SMILES IDX 39 76 41 77 47 78 40 79 42 80 43 81 44 82 45 83 69 84 70 85
REMARK SMILES IDX 78 86 71 87 73 88 79 89 72 90 74 91 75 92 76 93 77 94 54 95
REMARK SMILES IDX 55 96 63 97 56 98 58 99 64 100 57 101 59 102 60 103 61 104
REMARK SMILES IDX 62 105
REMARK H PARENT 18 7 25 39 84 58 52 69
REMARK Flexibility Score: inf
ROOT
ATOM      1  C   UNL A   1      45.206  42.891  30.197  1.00  0.00     0.002 C 
ENDROOT
BRANCH   1   2
ATOM      2  C   UNL A   1      44.734  41.803  29.225  1.00  0.00     0.021 C 
BRANCH   2   3
ATOM      3  C   UNL A   1      45.595  41.712  27.964  1.00  0.00     0.116 C 
BRANCH   3   4
ATOM      4  N   UNL A   1      44.766  41.907  26.788  1.00  0.00    -0.352 N 
ATOM      5  C   UNL A   1      43.918  41.062  26.123  1.00  0.00     0.251 C 
ATOM      6  O   UNL A   1      43.323  41.489  25.134  1.00  0.00    -0.269 OA
ATOM      7  H   UNL A   1      44.823  42.810  26.400  1.00  0.00     0.163 HD
BRANCH   5   8
ATOM      8  C   UNL A   1      43.627  39.690  26.612  1.00  0.00     0.039 A 
ATOM      9  C   UNL A   1      42.900  37.223  27.757  1.00  0.00     0.060 A 
ATOM     10  C   UNL A   1      41.922  38.101  27.282  1.00  0.00     0.029 A 
ATOM     11  C   UNL A   1      44.244  37.550  27.559  1.00  0.00     0.029 A 
ATOM     12  C   UNL A   1      42.279  39.326  26.716  1.00  0.00     0.016 A 
ATOM     13  C   UNL A   1      44.608  38.763  26.971  1.00  0.00     0.016 A 
BRANCH   9  14
ATOM     14  N   UNL A   1      42.538  36.058  28.398  1.00  0.00    -0.257 N 
ATOM     15  C   UNL A   1      41.240  34.734  29.403  1.00  0.00     0.071 C 
ATOM     16  N   UNL A   1      41.264  35.886  28.810  1.00  0.00    -0.176 NA
ATOM     17  C   UNL A   1      42.563  34.019  29.498  1.00  0.00     0.091 C 
ATOM     18  C   UNL A   1      43.377  34.860  28.498  1.00  0.00     0.154 C 
BRANCH  15  19
ATOM     19  C   UNL A   1      40.008  34.192  29.988  1.00  0.00    -0.002 A 
ATOM     20  C   UNL A   1      37.608  33.361  31.115  1.00  0.00     0.067 A 
ATOM     21  C   UNL A   1      37.618  33.895  29.822  1.00  0.00     0.021 A 
ATOM     22  C   UNL A   1      38.795  33.228  31.844  1.00  0.00     0.021 A 
ATOM     23  C   UNL A   1      38.820  34.323  29.264  1.00  0.00     0.011 A 
ATOM     24  C   UNL A   1      40.005  33.640  31.272  1.00  0.00     0.011 A 
BRANCH  20  25
ATOM     25  S   UNL A   1      36.029  32.887  31.778  1.00  0.00     0.175 S 
ATOM     26  C   UNL A   1      36.199  32.797  33.535  1.00  0.00     0.163 C 
ATOM     27  O   UNL A   1      35.770  31.539  31.306  1.00  0.00    -0.224 OA
ATOM     28  O   UNL A   1      35.116  33.975  31.487  1.00  0.00    -0.224 OA
ENDBRANCH  20  25
ENDBRANCH  15  19
BRANCH  18  29
ATOM     29  C   UNL A   1      43.729  34.186  27.179  1.00  0.00     0.030 A 
ATOM     30  C   UNL A   1      43.400  34.646  25.912  1.00  0.00     0.017 A 
ATOM     31  S   UNL A   1      44.573  32.695  27.073  1.00  0.00    -0.147 S 
ATOM     32  C   UNL A   1      43.858  33.792  24.871  1.00  0.00     0.012 A 
ATOM     33  C   UNL A   1      44.541  32.706  25.365  1.00  0.00     0.065 A 
ENDBRANCH  18  29
ENDBRANCH   9  14
ENDBRANCH   5   8
ENDBRANCH   3   4
ENDBRANCH   2   3
ENDBRANCH   1   2
BRANCH   1  34
ATOM     34  C   UNL A   1      44.633  44.285  29.918  1.00  0.00     0.002 C 
BRANCH  34  35
ATOM     35  C   UNL A   1      43.925  44.937  31.108  1.00  0.00     0.021 C 
BRANCH  35  36
ATOM     36  C   UNL A   1      44.577  44.651  32.456  1.00  0.00     0.116 C 
BRANCH  36  37
ATOM     37  N   UNL A   1      43.607  44.697  33.540  1.00  0.00    -0.352 N 
ATOM     38  C   UNL A   1      42.835  43.690  34.058  1.00  0.00     0.251 C 
ATOM     39  H   UNL A   1      43.487  45.579  33.961  1.00  0.00     0.163 HD
ATOM     40  O   UNL A   1      41.895  43.958  34.801  1.00  0.00    -0.269 OA
BRANCH  38  41
ATOM     41  C   UNL A   1      43.133  42.283  33.716  1.00  0.00     0.039 A 
ATOM     42  C   UNL A   1      43.978  41.548  34.552  1.00  0.00     0.014 A 
ATOM     43  C   UNL A   1      42.598  41.697  32.566  1.00  0.00     0.014 A 
ATOM     44  C   UNL A   1      44.249  40.211  34.254  1.00  0.00     0.010 A 
ATOM     45  C   UNL A   1      42.807  40.344  32.315  1.00  0.00     0.010 A 
ATOM     46  C   UNL A   1      43.645  39.590  33.149  1.00  0.00    -0.014 A 
BRANCH  46  47
ATOM     47  C   UNL A   1      43.875  38.151  32.864  1.00  0.00     0.031 A 
ATOM     48  C   UNL A   1      43.093  37.091  33.591  1.00  0.00     0.074 A 
ATOM     49  C   UNL A   1      44.846  37.795  31.999  1.00  0.00     0.049 A 
ATOM     50  N   UNL A   1      43.170  35.790  33.480  1.00  0.00    -0.248 NA
ATOM     51  C   UNL A   1      42.119  37.548  34.595  1.00  0.00     0.031 C 
ATOM     52  C   UNL A   1      45.737  38.726  31.302  1.00  0.00     0.029 A 
ATOM     53  N   UNL A   1      45.265  36.557  31.580  1.00  0.00    -0.354 N 
ATOM     54  C   UNL A   1      42.286  35.274  34.421  1.00  0.00     0.074 A 
ATOM     55  C   UNL A   1      41.709  36.402  35.117  1.00  0.00     0.031 C 
ATOM     56  C   UNL A   1      46.591  38.028  30.538  1.00  0.00     0.029 A 
ATOM     57  C   UNL A   1      46.331  36.602  30.713  1.00  0.00     0.049 A 
ATOM     58  H   UNL A   1      44.842  35.718  31.871  1.00  0.00     0.167 HD
ATOM     59  C   UNL A   1      41.966  33.981  34.665  1.00  0.00     0.034 A 
ATOM     60  C   UNL A   1      47.029  35.608  30.130  1.00  0.00     0.034 A 
ATOM     61  C   UNL A   1      42.517  32.865  33.945  1.00  0.00     0.049 A 
ATOM     62  C   UNL A   1      46.616  34.184  30.374  1.00  0.00     0.074 A 
ATOM     63  C   UNL A   1      42.179  31.527  34.043  1.00  0.00     0.029 A 
ATOM     64  N   UNL A   1      43.534  32.952  33.008  1.00  0.00    -0.354 N 
ATOM     65  N   UNL A   1      45.653  33.724  31.136  1.00  0.00    -0.248 NA
ATOM     66  C   UNL A   1      47.357  33.143  29.650  1.00  0.00     0.031 C 
ATOM     67  C   UNL A   1      43.021  30.800  33.192  1.00  0.00     0.029 A 
ATOM     68  C   UNL A   1      43.853  31.690  32.534  1.00  0.00     0.049 A 
ATOM     69  H   UNL A   1      43.968  33.788  32.721  1.00  0.00     0.167 HD
ATOM     70  C   UNL A   1      45.652  32.345  30.960  1.00  0.00     0.074 A 
ATOM     71  C   UNL A   1      46.696  32.048  29.999  1.00  0.00     0.031 C 
ATOM     72  C   UNL A   1      44.868  31.409  31.550  1.00  0.00     0.034 A 
BRANCH  59  73
ATOM     73  C   UNL A   1      40.943  33.704  35.739  1.00  0.00     0.023 A 
ATOM     74  C   UNL A   1      39.583  33.562  35.393  1.00  0.00     0.012 A 
ATOM     75  C   UNL A   1      41.334  33.534  37.081  1.00  0.00     0.148 A 
ATOM     76  C   UNL A   1      38.625  33.297  36.371  1.00  0.00     0.002 A 
ATOM     77  C   UNL A   1      40.380  33.220  38.042  1.00  0.00     0.091 A 
ATOM     78  F   UNL A   1      42.628  33.693  37.396  1.00  0.00    -0.205 F 
ATOM     79  C   UNL A   1      39.024  33.116  37.692  1.00  0.00     0.022 A 
BRANCH  77  80
ATOM     80  S   UNL A   1      40.806  32.885  39.755  1.00  0.00     0.127 S 
ATOM     81  O   UNL A   1      41.133  34.223  40.245  1.00  0.00    -0.237 OA
ATOM     82  O   UNL A   1      39.555  32.334  40.279  1.00  0.00    -0.237 OA
ATOM     83  O   UNL A   1      41.915  31.944  39.717  1.00  0.00    -0.744 OA
ENDBRANCH  77  80
ENDBRANCH  59  73
BRANCH  60  84
ATOM     84  C   UNL A   1      48.157  35.938  29.214  1.00  0.00     0.023 A 
ATOM     85  C   UNL A   1      49.415  36.276  29.751  1.00  0.00     0.012 A 
ATOM     86  C   UNL A   1      48.000  35.875  27.816  1.00  0.00     0.148 A 
ATOM     87  C   UNL A   1      50.488  36.574  28.910  1.00  0.00     0.002 A 
ATOM     88  C   UNL A   1      49.087  36.114  26.986  1.00  0.00     0.091 A 
ATOM     89  F   UNL A   1      46.792  35.559  27.328  1.00  0.00    -0.205 F 
ATOM     90  C   UNL A   1      50.328  36.481  27.531  1.00  0.00     0.022 A 
BRANCH  88  91
ATOM     91  S   UNL A   1      49.010  35.883  25.206  1.00  0.00     0.127 S 
ATOM     92  O   UNL A   1      50.314  35.290  24.924  1.00  0.00    -0.237 OA
ATOM     93  O   UNL A   1      47.874  34.970  25.072  1.00  0.00    -0.237 OA
ATOM     94  O   UNL A   1      48.784  37.207  24.643  1.00  0.00    -0.744 OA
ENDBRANCH  88  91
ENDBRANCH  60  84
BRANCH  72  95
ATOM     95  C   UNL A   1      45.084  29.970  31.155  1.00  0.00     0.023 A 
ATOM     96  C   UNL A   1      45.997  29.170  31.872  1.00  0.00     0.012 A 
ATOM     97  C   UNL A   1      44.337  29.394  30.108  1.00  0.00     0.148 A 
ATOM     98  C   UNL A   1      46.193  27.833  31.527  1.00  0.00     0.002 A 
ATOM     99  C   UNL A   1      44.497  28.048  29.806  1.00  0.00     0.091 A 
ATOM    100  F   UNL A   1      43.486  30.174  29.425  1.00  0.00    -0.205 F 
ATOM    101  C   UNL A   1      45.435  27.270  30.503  1.00  0.00     0.022 A 
BRANCH  99 102
ATOM    102  S   UNL A   1      43.496  27.214  28.570  1.00  0.00     0.127 S 
ATOM    103  O   UNL A   1      44.022  25.850  28.630  1.00  0.00    -0.237 OA
ATOM    104  O   UNL A   1      42.144  27.370  29.109  1.00  0.00    -0.237 OA
ATOM    105  O   UNL A   1      43.732  27.920  27.318  1.00  0.00    -0.744 OA
ENDBRANCH  99 102
ENDBRANCH  72  95
ENDBRANCH  46  47
ENDBRANCH  38  41
ENDBRANCH  36  37
ENDBRANCH  35  36
ENDBRANCH  34  35
ENDBRANCH   1  34
TORSDOF 20
ENDMDL
MODEL 3
REMARK VINA RESULT:      -8.1      1.409      1.773
REMARK SMILES CS(=O)(=O)c1ccc(C2=NN(c3ccc(C(=O)NCCCCCCNC(=O)c4ccc(-c5c6nc(c(-c7cccc(S(=O)(=O)[O-])c7F)c7ccc([nH]7)c(-c7cccc(S(=O)(=O)[O-])c7F)c7nc(c(-c8cccc(S(=O)(=O)[O-])c8F)c8ccc5[nH]8)C=C7)C=C6)cc4)cc3)[C@H](c3cccs3)C2)cc1
REMARK SMILES IDX 21 1 20 2 19 3 18 4 16 5 17 6 15 8 12 9 13 10 92 11 14 12
REMARK SMILES IDX 91 13 11 14 9 15 10 16 99 17 93 18 8 19 5 20 6 21 101 22
REMARK SMILES IDX 7 23 100 24 2 25 1 26 3 27 4 28 94 29 95 30 98 31 96 32
REMARK SMILES IDX 97 33 22 34 23 35 24 36 25 37 26 38 27 40 28 41 29 42 90 43
REMARK SMILES IDX 30 44 89 45 31 46 32 47 33 48 83 49 34 50 88 51 82 52 84 53
REMARK SMILES IDX 35 54 87 55 81 56 80 57 36 59 68 60 48 61 67 62 49 63 52 64
REMARK SMILES IDX 66 65 85 66 50 67 51 68 65 70 86 71 53 72 37 73 38 74 46 75
REMARK SMILES IDX 39 76 41 77 47 78 40 79 42 80 43 81 44 82 45 83 69 84 70 85
REMARK SMILES IDX 78 86 71 87 73 88 79 89 72 90 74 91 75 92 76 93 77 94 54 95
REMARK SMILES IDX 55 96 63 97 56 98 58 99 64 100 57 101 59 102 60 103 61 104
REMARK SMILES IDX 62 105
REMARK H PARENT 18 7 25 39 84 58 52 69
REMARK Flexibility Score: inf
ROOT
ATOM      1  C   UNL A   1      43.649  44.109  32.163  1.00  0.00     0.002 C 
ENDROOT
BRANCH   1   2
ATOM      2  C   UNL A   1      42.583  43.360  31.353  1.00  0.00     0.021 C 
BRANCH   2   3
ATOM      3  C   UNL A   1      43.090  42.038  30.773  1.00  0.00     0.116 C 
BRANCH   3   4
ATOM      4  N   UNL A   1      43.734  42.279  29.494  1.00  0.00    -0.352 N 
ATOM      5  C   UNL A   1      44.107  41.425  28.489  1.00  0.00     0.251 C 
ATOM      6  O   UNL A   1      44.645  41.899  27.489  1.00  0.00    -0.269 OA
ATOM      7  H   UNL A   1      43.939  43.225  29.317  1.00  0.00     0.163 HD
BRANCH   5   8
ATOM      8  C   UNL A   1      43.796  39.973  28.532  1.00  0.00     0.039 A 
ATOM      9  C   UNL A   1      42.942  37.300  28.749  1.00  0.00     0.060 A 
ATOM     10  C   UNL A   1      42.168  38.239  28.063  1.00  0.00     0.029 A 
ATOM     11  C   UNL A   1      44.193  37.692  29.235  1.00  0.00     0.029 A 
ATOM     12  C   UNL A   1      42.588  39.566  27.955  1.00  0.00     0.016 A 
ATOM     13  C   UNL A   1      44.629  39.012  29.108  1.00  0.00     0.016 A 
BRANCH   9  14
ATOM     14  N   UNL A   1      42.478  36.015  28.932  1.00  0.00    -0.257 N 
ATOM     15  C   UNL A   1      41.050  34.523  29.361  1.00  0.00     0.071 C 
ATOM     16  N   UNL A   1      41.173  35.804  29.205  1.00  0.00    -0.176 NA
ATOM     17  C   UNL A   1      42.324  33.727  29.258  1.00  0.00     0.091 C 
ATOM     18  C   UNL A   1      43.245  34.798  28.647  1.00  0.00     0.154 C 
BRANCH  15  19
ATOM     19  C   UNL A   1      39.756  33.904  29.670  1.00  0.00    -0.002 A 
ATOM     20  C   UNL A   1      37.334  32.607  30.088  1.00  0.00     0.067 A 
ATOM     21  C   UNL A   1      38.534  31.927  30.322  1.00  0.00     0.021 A 
ATOM     22  C   UNL A   1      37.339  33.939  29.658  1.00  0.00     0.021 A 
ATOM     23  C   UNL A   1      39.747  32.574  30.099  1.00  0.00     0.011 A 
ATOM     24  C   UNL A   1      38.560  34.593  29.455  1.00  0.00     0.011 A 
BRANCH  20  25
ATOM     25  S   UNL A   1      35.830  31.698  30.345  1.00  0.00     0.175 S 
ATOM     26  C   UNL A   1      35.212  31.238  28.753  1.00  0.00     0.163 C 
ATOM     27  O   UNL A   1      34.876  32.629  30.919  1.00  0.00    -0.224 OA
ATOM     28  O   UNL A   1      36.198  30.477  31.034  1.00  0.00    -0.224 OA
ENDBRANCH  20  25
ENDBRANCH  15  19
BRANCH  18  29
ATOM     29  C   UNL A   1      43.645  34.593  27.192  1.00  0.00     0.030 A 
ATOM     30  C   UNL A   1      42.898  34.954  26.080  1.00  0.00     0.017 A 
ATOM     31  S   UNL A   1      45.103  33.826  26.710  1.00  0.00    -0.147 S 
ATOM     32  C   UNL A   1      43.532  34.623  24.850  1.00  0.00     0.012 A 
ATOM     33  C   UNL A   1      44.756  34.030  25.050  1.00  0.00     0.065 A 
ENDBRANCH  18  29
ENDBRANCH   9  14
ENDBRANCH   5   8
ENDBRANCH   3   4
ENDBRANCH   2   3
ENDBRANCH   1   2
BRANCH   1  34
ATOM     34  C   UNL A   1      43.170  44.619  33.526  1.00  0.00     0.002 C 
BRANCH  34  35
ATOM     35  C   UNL A   1      42.144  43.722  34.222  1.00  0.00     0.021 C 
BRANCH  35  36
ATOM     36  C   UNL A   1      42.749  42.728  35.207  1.00  0.00     0.116 C 
BRANCH  36  37
ATOM     37  N   UNL A   1      44.157  43.005  35.448  1.00  0.00    -0.352 N 
ATOM     38  C   UNL A   1      45.226  42.146  35.436  1.00  0.00     0.251 C 
ATOM     39  H   UNL A   1      44.374  43.945  35.648  1.00  0.00     0.163 HD
ATOM     40  O   UNL A   1      46.304  42.503  35.902  1.00  0.00    -0.269 OA
BRANCH  38  41
ATOM     41  C   UNL A   1      45.075  40.790  34.868  1.00  0.00     0.039 A 
ATOM     42  C   UNL A   1      44.514  40.648  33.595  1.00  0.00     0.014 A 
ATOM     43  C   UNL A   1      45.465  39.661  35.594  1.00  0.00     0.014 A 
ATOM     44  C   UNL A   1      44.387  39.376  33.036  1.00  0.00     0.010 A 
ATOM     45  C   UNL A   1      45.410  38.403  35.002  1.00  0.00     0.010 A 
ATOM     46  C   UNL A   1      44.858  38.245  33.723  1.00  0.00    -0.014 A 
BRANCH  46  47
ATOM     47  C   UNL A   1      44.789  36.895  33.107  1.00  0.00     0.031 A 
ATOM     48  C   UNL A   1      43.706  35.928  33.500  1.00  0.00     0.074 A 
ATOM     49  C   UNL A   1      45.752  36.512  32.245  1.00  0.00     0.049 A 
ATOM     50  N   UNL A   1      43.498  34.707  33.077  1.00  0.00    -0.248 NA
ATOM     51  C   UNL A   1      42.746  36.376  34.522  1.00  0.00     0.031 C 
ATOM     52  C   UNL A   1      46.908  37.324  31.857  1.00  0.00     0.029 A 
ATOM     53  N   UNL A   1      45.927  35.335  31.561  1.00  0.00    -0.354 N 
ATOM     54  C   UNL A   1      42.414  34.231  33.803  1.00  0.00     0.074 A 
ATOM     55  C   UNL A   1      42.026  35.281  34.718  1.00  0.00     0.031 C 
ATOM     56  C   UNL A   1      47.668  36.624  31.001  1.00  0.00     0.029 A 
ATOM     57  C   UNL A   1      47.073  35.306  30.802  1.00  0.00     0.049 A 
ATOM     58  H   UNL A   1      45.294  34.584  31.610  1.00  0.00     0.167 HD
ATOM     59  C   UNL A   1      41.782  33.037  33.701  1.00  0.00     0.034 A 
ATOM     60  C   UNL A   1      47.593  34.326  30.038  1.00  0.00     0.034 A 
ATOM     61  C   UNL A   1      42.150  32.010  32.764  1.00  0.00     0.049 A 
ATOM     62  C   UNL A   1      46.842  33.032  29.897  1.00  0.00     0.074 A 
ATOM     63  C   UNL A   1      41.509  30.810  32.508  1.00  0.00     0.029 A 
ATOM     64  N   UNL A   1      43.266  32.048  31.944  1.00  0.00    -0.354 N 
ATOM     65  N   UNL A   1      45.716  32.667  30.459  1.00  0.00    -0.248 NA
ATOM     66  C   UNL A   1      47.411  32.029  28.987  1.00  0.00     0.031 C 
ATOM     67  C   UNL A   1      42.261  30.107  31.559  1.00  0.00     0.029 A 
ATOM     68  C   UNL A   1      43.346  30.886  31.195  1.00  0.00     0.049 A 
ATOM     69  H   UNL A   1      43.909  32.792  31.900  1.00  0.00     0.167 HD
ATOM     70  C   UNL A   1      45.424  31.408  29.949  1.00  0.00     0.074 A 
ATOM     71  C   UNL A   1      46.482  31.084  29.013  1.00  0.00     0.031 C 
ATOM     72  C   UNL A   1      44.383  30.588  30.239  1.00  0.00     0.034 A 
BRANCH  59  73
ATOM     73  C   UNL A   1      40.601  32.789  34.605  1.00  0.00     0.023 A 
ATOM     74  C   UNL A   1      40.795  32.183  35.864  1.00  0.00     0.012 A 
ATOM     75  C   UNL A   1      39.307  33.202  34.232  1.00  0.00     0.148 A 
ATOM     76  C   UNL A   1      39.716  31.954  36.717  1.00  0.00     0.002 A 
ATOM     77  C   UNL A   1      38.245  33.017  35.109  1.00  0.00     0.091 A 
ATOM     78  F   UNL A   1      39.137  33.758  33.024  1.00  0.00    -0.205 F 
ATOM     79  C   UNL A   1      38.445  32.380  36.345  1.00  0.00     0.022 A 
BRANCH  77  80
ATOM     80  S   UNL A   1      36.585  33.606  34.758  1.00  0.00     0.127 S 
ATOM     81  O   UNL A   1      36.024  33.729  36.103  1.00  0.00    -0.237 OA
ATOM     82  O   UNL A   1      36.849  34.882  34.089  1.00  0.00    -0.237 OA
ATOM     83  O   UNL A   1      35.970  32.594  33.913  1.00  0.00    -0.744 OA
ENDBRANCH  77  80
ENDBRANCH  59  73
BRANCH  60  84
ATOM     84  C   UNL A   1      48.869  34.562  29.305  1.00  0.00     0.023 A 
ATOM     85  C   UNL A   1      50.094  34.205  29.904  1.00  0.00     0.012 A 
ATOM     86  C   UNL A   1      48.871  35.095  28.002  1.00  0.00     0.148 A 
ATOM     87  C   UNL A   1      51.298  34.404  29.228  1.00  0.00     0.002 A 
ATOM     88  C   UNL A   1      50.068  35.235  27.312  1.00  0.00     0.091 A 
ATOM     89  F   UNL A   1      47.694  35.435  27.455  1.00  0.00    -0.205 F 
ATOM     90  C   UNL A   1      51.285  34.906  27.930  1.00  0.00     0.022 A 
BRANCH  88  91
ATOM     91  S   UNL A   1      50.134  35.743  25.590  1.00  0.00     0.127 S 
ATOM     92  O   UNL A   1      49.846  37.171  25.687  1.00  0.00    -0.237 OA
ATOM     93  O   UNL A   1      51.515  35.415  25.234  1.00  0.00    -0.237 OA
ATOM     94  O   UNL A   1      49.132  34.942  24.901  1.00  0.00    -0.744 OA
ENDBRANCH  88  91
ENDBRANCH  60  84
BRANCH  72  95
ATOM     95  C   UNL A   1      44.314  29.267  29.516  1.00  0.00     0.023 A 
ATOM     96  C   UNL A   1      44.843  28.106  30.115  1.00  0.00     0.012 A 
ATOM     97  C   UNL A   1      43.671  29.166  28.266  1.00  0.00     0.148 A 
ATOM     98  C   UNL A   1      44.770  26.875  29.464  1.00  0.00     0.002 A 
ATOM     99  C   UNL A   1      43.554  27.928  27.649  1.00  0.00     0.091 A 
ATOM    100  F   UNL A   1      43.190  30.284  27.702  1.00  0.00    -0.205 F 
ATOM    101  C   UNL A   1      44.116  26.784  28.238  1.00  0.00     0.022 A 
BRANCH  99 102
ATOM    102  S   UNL A   1      42.644  27.699  26.117  1.00  0.00     0.127 S 
ATOM    103  O   UNL A   1      42.506  29.075  25.643  1.00  0.00    -0.237 OA
ATOM    104  O   UNL A   1      43.562  26.872  25.332  1.00  0.00    -0.237 OA
ATOM    105  O   UNL A   1      41.400  27.036  26.484  1.00  0.00    -0.744 OA
ENDBRANCH  99 102
ENDBRANCH  72  95
ENDBRANCH  46  47
ENDBRANCH  38  41
ENDBRANCH  36  37
ENDBRANCH  35  36
ENDBRANCH  34  35
ENDBRANCH   1  34
TORSDOF 20
ENDMDL
