MODEL 1
REMARK VINA RESULT:     -10.4      0.000      0.000
REMARK SMILES CC(C)C[N@@H+](C[C@@H](C)C(=O)NCCCCCCNC(=O)c1ccc(-c2c3nc(c(-c4cccc(S(=O)(=O)[O-])c4F)c4ccc([nH]4)c(-c4cccc(S(=O)(=O)[O-])c4F)c4nc(c(-c5cccc(S(=O)(=O)[O-])c5F)c5ccc2[nH]5)C=C4)C=C3)cc1)C1CCCC1
REMARK SMILES IDX 14 1 13 2 12 3 11 4 9 5 10 6 7 8 8 9 6 10 5 11 4 13 2 14
REMARK SMILES IDX 1 15 3 16 84 17 85 18 88 19 86 20 87 21 15 22 16 23 17 24
REMARK SMILES IDX 18 25 19 26 20 28 21 29 22 30 83 31 23 32 82 33 24 34 25 35
REMARK SMILES IDX 26 36 76 37 27 38 81 39 75 40 77 41 28 42 80 43 74 44 73 45
REMARK SMILES IDX 29 47 61 48 41 49 60 50 42 51 45 52 59 53 78 54 43 55 44 56
REMARK SMILES IDX 58 58 79 59 46 60 30 61 31 62 39 63 32 64 34 65 40 66 33 67
REMARK SMILES IDX 35 68 36 69 37 70 38 71 62 72 63 73 71 74 64 75 66 76 72 77
REMARK SMILES IDX 65 78 67 79 68 80 69 81 70 82 47 83 48 84 56 85 49 86 51 87
REMARK SMILES IDX 57 88 50 89 52 90 53 91 54 92 55 93
REMARK H PARENT 11 7 5 12 18 27 77 46 45 57
REMARK Flexibility Score: inf
ROOT
ATOM      1  C   UNL A   1      33.934  23.244  26.220  1.00  0.00     0.002 C 
ENDROOT
BRANCH   1   2
ATOM      2  C   UNL A   1      33.271  24.625  26.215  1.00  0.00     0.021 C 
BRANCH   2   3
ATOM      3  C   UNL A   1      34.008  25.629  25.333  1.00  0.00     0.116 C 
BRANCH   3   4
ATOM      4  N   UNL A   1      34.082  26.921  25.985  1.00  0.00    -0.356 N 
ATOM      5  C   UNL A   1      33.791  28.164  25.517  1.00  0.00     0.228 C 
ATOM      6  O   UNL A   1      34.041  29.121  26.255  1.00  0.00    -0.275 OA
ATOM      7  H   UNL A   1      34.391  26.894  26.919  1.00  0.00     0.163 HD
BRANCH   5   8
ATOM      8  C   UNL A   1      33.106  28.382  24.169  1.00  0.00     0.130 C 
ATOM      9  C   UNL A   1      34.174  28.688  23.121  1.00  0.00     0.024 C 
BRANCH   8  10
ATOM     10  C   UNL A   1      31.871  29.315  24.265  1.00  0.00     0.275 C 
BRANCH  10  11
ATOM     11  N   UNL A   1      30.560  28.860  23.749  1.00  0.00    -0.332 N 
ATOM     12  H   UNL A   1      29.990  28.627  24.562  1.00  0.00     0.348 HD
BRANCH  11  13
ATOM     13  C   UNL A   1      30.725  27.615  22.967  1.00  0.00     0.265 C 
BRANCH  13  14
ATOM     14  C   UNL A   1      30.135  26.276  23.473  1.00  0.00     0.038 C 
ATOM     15  C   UNL A   1      31.006  25.058  23.143  1.00  0.00     0.013 C 
ATOM     16  C   UNL A   1      30.004  26.341  25.004  1.00  0.00     0.013 C 
ENDBRANCH  13  14
ENDBRANCH  11  13
BRANCH  11  17
ATOM     17  C   UNL A   1      29.691  29.888  23.165  1.00  0.00     0.184 C 
ATOM     18  C   UNL A   1      29.782  29.939  21.629  1.00  0.00     0.065 C 
ATOM     19  C   UNL A   1      28.158  29.760  23.285  1.00  0.00     0.065 C 
ATOM     20  C   UNL A   1      28.714  30.962  21.252  1.00  0.00     0.006 C 
ATOM     21  C   UNL A   1      27.604  30.767  22.279  1.00  0.00     0.006 C 
ENDBRANCH  11  17
ENDBRANCH  10  11
ENDBRANCH   8  10
ENDBRANCH   5   8
ENDBRANCH   3   4
ENDBRANCH   2   3
ENDBRANCH   1   2
BRANCH   1  22
ATOM     22  C   UNL A   1      35.453  23.275  26.012  1.00  0.00     0.002 C 
BRANCH  22  23
ATOM     23  C   UNL A   1      36.077  21.915  25.685  1.00  0.00     0.021 C 
BRANCH  23  24
ATOM     24  C   UNL A   1      37.507  22.002  25.167  1.00  0.00     0.116 C 
BRANCH  24  25
ATOM     25  N   UNL A   1      38.360  20.993  25.779  1.00  0.00    -0.352 N 
ATOM     26  C   UNL A   1      39.558  21.157  26.429  1.00  0.00     0.251 C 
ATOM     27  H   UNL A   1      38.032  20.066  25.719  1.00  0.00     0.163 HD
ATOM     28  O   UNL A   1      40.263  20.190  26.685  1.00  0.00    -0.269 OA
BRANCH  26  29
ATOM     29  C   UNL A   1      39.984  22.520  26.804  1.00  0.00     0.039 A 
ATOM     30  C   UNL A   1      40.939  22.684  27.811  1.00  0.00     0.014 A 
ATOM     31  C   UNL A   1      39.449  23.629  26.143  1.00  0.00     0.014 A 
ATOM     32  C   UNL A   1      41.395  23.966  28.120  1.00  0.00     0.010 A 
ATOM     33  C   UNL A   1      39.964  24.893  26.398  1.00  0.00     0.010 A 
ATOM     34  C   UNL A   1      40.933  25.079  27.397  1.00  0.00    -0.014 A 
BRANCH  34  35
ATOM     35  C   UNL A   1      41.435  26.449  27.668  1.00  0.00     0.031 A 
ATOM     36  C   UNL A   1      42.857  26.804  27.322  1.00  0.00     0.074 A 
ATOM     37  C   UNL A   1      40.651  27.334  28.316  1.00  0.00     0.049 A 
ATOM     38  N   UNL A   1      43.516  27.903  27.576  1.00  0.00    -0.248 NA
ATOM     39  C   UNL A   1      43.651  25.778  26.622  1.00  0.00     0.031 C 
ATOM     40  C   UNL A   1      39.277  27.086  28.761  1.00  0.00     0.029 A 
ATOM     41  N   UNL A   1      40.909  28.614  28.742  1.00  0.00    -0.354 N 
ATOM     42  C   UNL A   1      44.810  27.685  27.117  1.00  0.00     0.074 A 
ATOM     43  C   UNL A   1      44.850  26.342  26.585  1.00  0.00     0.031 C 
ATOM     44  C   UNL A   1      38.818  28.173  29.403  1.00  0.00     0.029 A 
ATOM     45  C   UNL A   1      39.873  29.180  29.451  1.00  0.00     0.049 A 
ATOM     46  H   UNL A   1      41.755  29.082  28.560  1.00  0.00     0.167 HD
ATOM     47  C   UNL A   1      45.862  28.535  27.120  1.00  0.00     0.034 A 
ATOM     48  C   UNL A   1      39.791  30.366  30.084  1.00  0.00     0.034 A 
ATOM     49  C   UNL A   1      45.800  29.888  27.600  1.00  0.00     0.049 A 
ATOM     50  C   UNL A   1      40.972  31.302  30.038  1.00  0.00     0.074 A 
ATOM     51  C   UNL A   1      46.783  30.859  27.551  1.00  0.00     0.029 A 
ATOM     52  N   UNL A   1      44.703  30.457  28.225  1.00  0.00    -0.354 N 
ATOM     53  N   UNL A   1      42.135  31.135  29.456  1.00  0.00    -0.248 NA
ATOM     54  C   UNL A   1      40.818  32.603  30.706  1.00  0.00     0.031 C 
ATOM     55  C   UNL A   1      46.295  32.006  28.182  1.00  0.00     0.029 A 
ATOM     56  C   UNL A   1      44.990  31.762  28.580  1.00  0.00     0.049 A 
ATOM     57  H   UNL A   1      43.847  30.000  28.391  1.00  0.00     0.167 HD
ATOM     58  C   UNL A   1      42.827  32.326  29.643  1.00  0.00     0.074 A 
ATOM     59  C   UNL A   1      41.951  33.210  30.380  1.00  0.00     0.031 C 
ATOM     60  C   UNL A   1      44.081  32.655  29.249  1.00  0.00     0.034 A 
BRANCH  47  61
ATOM     61  C   UNL A   1      47.171  28.053  26.555  1.00  0.00     0.023 A 
ATOM     62  C   UNL A   1      48.155  27.527  27.415  1.00  0.00     0.012 A 
ATOM     63  C   UNL A   1      47.379  28.022  25.162  1.00  0.00     0.148 A 
ATOM     64  C   UNL A   1      49.337  26.997  26.899  1.00  0.00     0.002 A 
ATOM     65  C   UNL A   1      48.537  27.449  24.653  1.00  0.00     0.091 A 
ATOM     66  F   UNL A   1      46.436  28.544  24.365  1.00  0.00    -0.205 F 
ATOM     67  C   UNL A   1      49.521  26.945  25.519  1.00  0.00     0.022 A 
BRANCH  65  68
ATOM     68  S   UNL A   1      48.829  27.252  22.892  1.00  0.00     0.127 S 
ATOM     69  O   UNL A   1      48.274  25.921  22.648  1.00  0.00    -0.237 OA
ATOM     70  O   UNL A   1      48.046  28.351  22.328  1.00  0.00    -0.237 OA
ATOM     71  O   UNL A   1      50.269  27.366  22.704  1.00  0.00    -0.744 OA
ENDBRANCH  65  68
ENDBRANCH  47  61
BRANCH  48  72
ATOM     72  C   UNL A   1      38.539  30.767  30.790  1.00  0.00     0.023 A 
ATOM     73  C   UNL A   1      38.387  30.466  32.158  1.00  0.00     0.012 A 
ATOM     74  C   UNL A   1      37.492  31.420  30.113  1.00  0.00     0.148 A 
ATOM     75  C   UNL A   1      37.196  30.758  32.824  1.00  0.00     0.002 A 
ATOM     76  C   UNL A   1      36.331  31.762  30.796  1.00  0.00     0.091 A 
ATOM     77  F   UNL A   1      37.648  31.689  28.808  1.00  0.00    -0.205 F 
ATOM     78  C   UNL A   1      36.172  31.411  32.145  1.00  0.00     0.022 A 
BRANCH  76  79
ATOM     79  S   UNL A   1      35.015  32.717  30.033  1.00  0.00     0.127 S 
ATOM     80  O   UNL A   1      34.068  32.857  31.136  1.00  0.00    -0.237 OA
ATOM     81  O   UNL A   1      35.711  33.948  29.658  1.00  0.00    -0.237 OA
ATOM     82  O   UNL A   1      34.559  31.919  28.902  1.00  0.00    -0.744 OA
ENDBRANCH  76  79
ENDBRANCH  48  72
BRANCH  60  83
ATOM     83  C   UNL A   1      44.569  34.051  29.531  1.00  0.00     0.023 A 
ATOM     84  C   UNL A   1      45.214  34.346  30.746  1.00  0.00     0.012 A 
ATOM     85  C   UNL A   1      44.470  35.046  28.538  1.00  0.00     0.148 A 
ATOM     86  C   UNL A   1      45.729  35.621  30.982  1.00  0.00     0.002 A 
ATOM     87  C   UNL A   1      45.033  36.296  28.757  1.00  0.00     0.091 A 
ATOM     88  F   UNL A   1      43.837  34.747  27.394  1.00  0.00    -0.205 F 
ATOM     89  C   UNL A   1      45.651  36.590  29.983  1.00  0.00     0.022 A 
BRANCH  87  90
ATOM     90  S   UNL A   1      45.075  37.570  27.492  1.00  0.00     0.127 S 
ATOM     91  O   UNL A   1      45.687  38.685  28.213  1.00  0.00    -0.237 OA
ATOM     92  O   UNL A   1      45.927  36.963  26.470  1.00  0.00    -0.237 OA
ATOM     93  O   UNL A   1      43.693  37.778  27.082  1.00  0.00    -0.744 OA
ENDBRANCH  87  90
ENDBRANCH  60  83
ENDBRANCH  34  35
ENDBRANCH  26  29
ENDBRANCH  24  25
ENDBRANCH  23  24
ENDBRANCH  22  23
ENDBRANCH   1  22
TORSDOF 21
ENDMDL
MODEL 2
REMARK VINA RESULT:     -10.2      1.760      7.989
REMARK SMILES CC(C)C[N@@H+](C[C@@H](C)C(=O)NCCCCCCNC(=O)c1ccc(-c2c3nc(c(-c4cccc(S(=O)(=O)[O-])c4F)c4ccc([nH]4)c(-c4cccc(S(=O)(=O)[O-])c4F)c4nc(c(-c5cccc(S(=O)(=O)[O-])c5F)c5ccc2[nH]5)C=C4)C=C3)cc1)C1CCCC1
REMARK SMILES IDX 14 1 13 2 12 3 11 4 9 5 10 6 7 8 8 9 6 10 5 11 4 13 2 14
REMARK SMILES IDX 1 15 3 16 84 17 85 18 88 19 86 20 87 21 15 22 16 23 17 24
REMARK SMILES IDX 18 25 19 26 20 28 21 29 22 30 83 31 23 32 82 33 24 34 25 35
REMARK SMILES IDX 26 36 76 37 27 38 81 39 75 40 77 41 28 42 80 43 74 44 73 45
REMARK SMILES IDX 29 47 61 48 41 49 60 50 42 51 45 52 59 53 78 54 43 55 44 56
REMARK SMILES IDX 58 58 79 59 46 60 30 61 31 62 39 63 32 64 34 65 40 66 33 67
REMARK SMILES IDX 35 68 36 69 37 70 38 71 62 72 63 73 71 74 64 75 66 76 72 77
REMARK SMILES IDX 65 78 67 79 68 80 69 81 70 82 47 83 48 84 56 85 49 86 51 87
REMARK SMILES IDX 57 88 50 89 52 90 53 91 54 92 55 93
REMARK H PARENT 11 7 5 12 18 27 77 46 45 57
REMARK Flexibility Score: inf
ROOT
ATOM      1  C   UNL A   1      35.986  22.043  24.854  1.00  0.00     0.002 C 
ENDROOT
BRANCH   1   2
ATOM      2  C   UNL A   1      34.821  21.050  24.882  1.00  0.00     0.021 C 
BRANCH   2   3
ATOM      3  C   UNL A   1      33.567  21.592  24.206  1.00  0.00     0.116 C 
BRANCH   3   4
ATOM      4  N   UNL A   1      33.862  22.819  23.493  1.00  0.00    -0.356 N 
ATOM      5  C   UNL A   1      33.102  23.928  23.292  1.00  0.00     0.228 C 
ATOM      6  O   UNL A   1      33.560  24.804  22.552  1.00  0.00    -0.275 OA
ATOM      7  H   UNL A   1      34.759  22.855  23.089  1.00  0.00     0.163 HD
BRANCH   5   8
ATOM      8  C   UNL A   1      31.771  24.139  24.010  1.00  0.00     0.130 C 
ATOM      9  C   UNL A   1      30.647  23.596  23.129  1.00  0.00     0.024 C 
BRANCH   8  10
ATOM     10  C   UNL A   1      31.626  25.564  24.604  1.00  0.00     0.275 C 
BRANCH  10  11
ATOM     11  N   UNL A   1      31.857  26.749  23.747  1.00  0.00    -0.332 N 
ATOM     12  H   UNL A   1      32.333  26.416  22.909  1.00  0.00     0.348 HD
BRANCH  11  13
ATOM     13  C   UNL A   1      32.777  27.692  24.419  1.00  0.00     0.265 C 
BRANCH  13  14
ATOM     14  C   UNL A   1      32.831  27.784  25.963  1.00  0.00     0.038 C 
ATOM     15  C   UNL A   1      34.191  28.242  26.505  1.00  0.00     0.013 C 
ATOM     16  C   UNL A   1      31.785  28.808  26.435  1.00  0.00     0.013 C 
ENDBRANCH  13  14
ENDBRANCH  11  13
BRANCH  11  17
ATOM     17  C   UNL A   1      30.676  27.336  23.104  1.00  0.00     0.184 C 
ATOM     18  C   UNL A   1      29.382  27.087  23.901  1.00  0.00     0.065 C 
ATOM     19  C   UNL A   1      30.553  28.867  22.967  1.00  0.00     0.065 C 
ATOM     20  C   UNL A   1      28.339  27.888  23.126  1.00  0.00     0.006 C 
ATOM     21  C   UNL A   1      29.089  29.109  22.605  1.00  0.00     0.006 C 
ENDBRANCH  11  17
ENDBRANCH  10  11
ENDBRANCH   8  10
ENDBRANCH   5   8
ENDBRANCH   3   4
ENDBRANCH   2   3
ENDBRANCH   1   2
BRANCH   1  22
ATOM     22  C   UNL A   1      37.284  21.475  24.265  1.00  0.00     0.002 C 
BRANCH  22  23
ATOM     23  C   UNL A   1      37.784  20.198  24.945  1.00  0.00     0.021 C 
BRANCH  23  24
ATOM     24  C   UNL A   1      38.788  20.447  26.064  1.00  0.00     0.116 C 
BRANCH  24  25
ATOM     25  N   UNL A   1      39.807  19.409  26.109  1.00  0.00    -0.352 N 
ATOM     26  C   UNL A   1      41.173  19.543  26.151  1.00  0.00     0.251 C 
ATOM     27  H   UNL A   1      39.471  18.483  26.110  1.00  0.00     0.163 HD
ATOM     28  O   UNL A   1      41.898  18.578  25.954  1.00  0.00    -0.269 OA
BRANCH  26  29
ATOM     29  C   UNL A   1      41.749  20.874  26.429  1.00  0.00     0.039 A 
ATOM     30  C   UNL A   1      41.928  21.774  25.375  1.00  0.00     0.014 A 
ATOM     31  C   UNL A   1      42.092  21.232  27.735  1.00  0.00     0.014 A 
ATOM     32  C   UNL A   1      42.407  23.057  25.643  1.00  0.00     0.010 A 
ATOM     33  C   UNL A   1      42.492  22.534  28.007  1.00  0.00     0.010 A 
ATOM     34  C   UNL A   1      42.666  23.457  26.965  1.00  0.00    -0.014 A 
BRANCH  34  35
ATOM     35  C   UNL A   1      43.129  24.830  27.288  1.00  0.00     0.031 A 
ATOM     36  C   UNL A   1      42.193  25.790  27.974  1.00  0.00     0.074 A 
ATOM     37  C   UNL A   1      44.344  25.242  26.875  1.00  0.00     0.049 A 
ATOM     38  N   UNL A   1      42.366  27.057  28.243  1.00  0.00    -0.248 NA
ATOM     39  C   UNL A   1      40.879  25.264  28.387  1.00  0.00     0.031 C 
ATOM     40  C   UNL A   1      45.315  24.424  26.144  1.00  0.00     0.029 A 
ATOM     41  N   UNL A   1      44.958  26.465  26.982  1.00  0.00    -0.354 N 
ATOM     42  C   UNL A   1      41.172  27.491  28.807  1.00  0.00     0.074 A 
ATOM     43  C   UNL A   1      40.274  26.359  28.825  1.00  0.00     0.031 C 
ATOM     44  C   UNL A   1      46.397  25.170  25.862  1.00  0.00     0.029 A 
ATOM     45  C   UNL A   1      46.183  26.526  26.356  1.00  0.00     0.049 A 
ATOM     46  H   UNL A   1      44.560  27.229  27.460  1.00  0.00     0.167 HD
ATOM     47  C   UNL A   1      40.860  28.717  29.285  1.00  0.00     0.034 A 
ATOM     48  C   UNL A   1      47.027  27.562  26.183  1.00  0.00     0.034 A 
ATOM     49  C   UNL A   1      41.776  29.824  29.315  1.00  0.00     0.049 A 
ATOM     50  C   UNL A   1      46.662  28.906  26.758  1.00  0.00     0.074 A 
ATOM     51  C   UNL A   1      41.588  31.076  29.872  1.00  0.00     0.029 A 
ATOM     52  N   UNL A   1      43.043  29.819  28.757  1.00  0.00    -0.354 N 
ATOM     53  N   UNL A   1      45.592  29.253  27.431  1.00  0.00    -0.248 NA
ATOM     54  C   UNL A   1      47.636  29.994  26.581  1.00  0.00     0.031 C 
ATOM     55  C   UNL A   1      42.728  31.842  29.617  1.00  0.00     0.029 A 
ATOM     56  C   UNL A   1      43.644  31.050  28.943  1.00  0.00     0.049 A 
ATOM     57  H   UNL A   1      43.455  29.052  28.296  1.00  0.00     0.167 HD
ATOM     58  C   UNL A   1      45.787  30.578  27.800  1.00  0.00     0.074 A 
ATOM     59  C   UNL A   1      47.083  30.969  27.289  1.00  0.00     0.031 C 
ATOM     60  C   UNL A   1      44.964  31.402  28.492  1.00  0.00     0.034 A 
BRANCH  47  61
ATOM     61  C   UNL A   1      39.484  28.933  29.856  1.00  0.00     0.023 A 
ATOM     62  C   UNL A   1      39.130  28.329  31.078  1.00  0.00     0.012 A 
ATOM     63  C   UNL A   1      38.584  29.820  29.234  1.00  0.00     0.148 A 
ATOM     64  C   UNL A   1      37.891  28.588  31.664  1.00  0.00     0.002 A 
ATOM     65  C   UNL A   1      37.372  30.112  29.847  1.00  0.00     0.091 A 
ATOM     66  F   UNL A   1      38.936  30.368  28.062  1.00  0.00    -0.205 F 
ATOM     67  C   UNL A   1      37.020  29.489  31.055  1.00  0.00     0.022 A 
BRANCH  65  68
ATOM     68  S   UNL A   1      36.220  31.323  29.192  1.00  0.00     0.127 S 
ATOM     69  O   UNL A   1      37.121  32.414  28.820  1.00  0.00    -0.237 OA
ATOM     70  O   UNL A   1      35.633  30.606  28.061  1.00  0.00    -0.237 OA
ATOM     71  O   UNL A   1      35.293  31.628  30.273  1.00  0.00    -0.744 OA
ENDBRANCH  65  68
ENDBRANCH  47  61
BRANCH  48  72
ATOM     72  C   UNL A   1      48.321  27.376  25.464  1.00  0.00     0.023 A 
ATOM     73  C   UNL A   1      49.485  27.069  26.197  1.00  0.00     0.012 A 
ATOM     74  C   UNL A   1      48.412  27.524  24.067  1.00  0.00     0.148 A 
ATOM     75  C   UNL A   1      50.723  26.968  25.561  1.00  0.00     0.002 A 
ATOM     76  C   UNL A   1      49.638  27.363  23.431  1.00  0.00     0.091 A 
ATOM     77  F   UNL A   1      47.298  27.826  23.385  1.00  0.00    -0.205 F 
ATOM     78  C   UNL A   1      50.798  27.108  24.178  1.00  0.00     0.022 A 
BRANCH  76  79
ATOM     79  S   UNL A   1      49.802  27.400  21.643  1.00  0.00     0.127 S 
ATOM     80  O   UNL A   1      51.195  27.000  21.462  1.00  0.00    -0.237 OA
ATOM     81  O   UNL A   1      48.815  26.403  21.226  1.00  0.00    -0.237 OA
ATOM     82  O   UNL A   1      49.477  28.764  21.249  1.00  0.00    -0.744 OA
ENDBRANCH  76  79
ENDBRANCH  48  72
BRANCH  60  83
ATOM     83  C   UNL A   1      45.455  32.788  28.813  1.00  0.00     0.023 A 
ATOM     84  C   UNL A   1      46.225  33.019  29.968  1.00  0.00     0.012 A 
ATOM     85  C   UNL A   1      45.230  33.844  27.907  1.00  0.00     0.148 A 
ATOM     86  C   UNL A   1      46.740  34.288  30.232  1.00  0.00     0.002 A 
ATOM     87  C   UNL A   1      45.792  35.091  28.147  1.00  0.00     0.091 A 
ATOM     88  F   UNL A   1      44.480  33.606  26.821  1.00  0.00    -0.205 F 
ATOM     89  C   UNL A   1      46.536  35.318  29.316  1.00  0.00     0.022 A 
BRANCH  87  90
ATOM     90  S   UNL A   1      45.672  36.446  26.975  1.00  0.00     0.127 S 
ATOM     91  O   UNL A   1      46.284  35.862  25.782  1.00  0.00    -0.237 OA
ATOM     92  O   UNL A   1      44.226  36.647  26.883  1.00  0.00    -0.237 OA
ATOM     93  O   UNL A   1      46.402  37.558  27.567  1.00  0.00    -0.744 OA
ENDBRANCH  87  90
ENDBRANCH  60  83
ENDBRANCH  34  35
ENDBRANCH  26  29
ENDBRANCH  24  25
ENDBRANCH  23  24
ENDBRANCH  22  23
ENDBRANCH   1  22
TORSDOF 21
ENDMDL
MODEL 3
REMARK VINA RESULT:     -10.0      1.303      2.459
REMARK SMILES CC(C)C[N@@H+](C[C@@H](C)C(=O)NCCCCCCNC(=O)c1ccc(-c2c3nc(c(-c4cccc(S(=O)(=O)[O-])c4F)c4ccc([nH]4)c(-c4cccc(S(=O)(=O)[O-])c4F)c4nc(c(-c5cccc(S(=O)(=O)[O-])c5F)c5ccc2[nH]5)C=C4)C=C3)cc1)C1CCCC1
REMARK SMILES IDX 14 1 13 2 12 3 11 4 9 5 10 6 7 8 8 9 6 10 5 11 4 13 2 14
REMARK SMILES IDX 1 15 3 16 84 17 85 18 88 19 86 20 87 21 15 22 16 23 17 24
REMARK SMILES IDX 18 25 19 26 20 28 21 29 22 30 83 31 23 32 82 33 24 34 25 35
REMARK SMILES IDX 26 36 76 37 27 38 81 39 75 40 77 41 28 42 80 43 74 44 73 45
REMARK SMILES IDX 29 47 61 48 41 49 60 50 42 51 45 52 59 53 78 54 43 55 44 56
REMARK SMILES IDX 58 58 79 59 46 60 30 61 31 62 39 63 32 64 34 65 40 66 33 67
REMARK SMILES IDX 35 68 36 69 37 70 38 71 62 72 63 73 71 74 64 75 66 76 72 77
REMARK SMILES IDX 65 78 67 79 68 80 69 81 70 82 47 83 48 84 56 85 49 86 51 87
REMARK SMILES IDX 57 88 50 89 52 90 53 91 54 92 55 93
REMARK H PARENT 11 7 5 12 18 27 77 46 45 57
REMARK Flexibility Score: inf
ROOT
ATOM      1  C   UNL A   1      35.028  22.676  23.660  1.00  0.00     0.002 C 
ENDROOT
BRANCH   1   2
ATOM      2  C   UNL A   1      33.813  23.284  22.953  1.00  0.00     0.021 C 
BRANCH   2   3
ATOM      3  C   UNL A   1      33.934  24.793  22.767  1.00  0.00     0.116 C 
BRANCH   3   4
ATOM      4  N   UNL A   1      32.750  25.323  22.120  1.00  0.00    -0.356 N 
ATOM      5  C   UNL A   1      32.180  26.555  22.195  1.00  0.00     0.228 C 
ATOM      6  O   UNL A   1      31.103  26.718  21.615  1.00  0.00    -0.275 OA
ATOM      7  H   UNL A   1      32.284  24.688  21.530  1.00  0.00     0.163 HD
BRANCH   5   8
ATOM      8  C   UNL A   1      32.870  27.726  22.892  1.00  0.00     0.130 C 
ATOM      9  C   UNL A   1      34.034  28.196  22.023  1.00  0.00     0.024 C 
BRANCH   8  10
ATOM     10  C   UNL A   1      33.126  27.463  24.399  1.00  0.00     0.275 C 
BRANCH  10  11
ATOM     11  N   UNL A   1      31.988  27.427  25.347  1.00  0.00    -0.332 N 
ATOM     12  H   UNL A   1      31.138  27.408  24.784  1.00  0.00     0.348 HD
BRANCH  11  13
ATOM     13  C   UNL A   1      31.950  28.672  26.144  1.00  0.00     0.265 C 
BRANCH  13  14
ATOM     14  C   UNL A   1      31.793  30.050  25.457  1.00  0.00     0.038 C 
ATOM     15  C   UNL A   1      30.636  30.107  24.452  1.00  0.00     0.013 C 
ATOM     16  C   UNL A   1      31.511  31.111  26.535  1.00  0.00     0.013 C 
ENDBRANCH  13  14
ENDBRANCH  11  13
BRANCH  11  17
ATOM     17  C   UNL A   1      31.785  26.173  26.082  1.00  0.00     0.184 C 
ATOM     18  C   UNL A   1      30.688  25.291  25.459  1.00  0.00     0.065 C 
ATOM     19  C   UNL A   1      32.909  25.117  26.129  1.00  0.00     0.065 C 
ATOM     20  C   UNL A   1      30.754  24.016  26.294  1.00  0.00     0.006 C 
ATOM     21  C   UNL A   1      32.228  23.849  26.642  1.00  0.00     0.006 C 
ENDBRANCH  11  17
ENDBRANCH  10  11
ENDBRANCH   8  10
ENDBRANCH   5   8
ENDBRANCH   3   4
ENDBRANCH   2   3
ENDBRANCH   1   2
BRANCH   1  22
ATOM     22  C   UNL A   1      34.676  21.715  24.803  1.00  0.00     0.002 C 
BRANCH  22  23
ATOM     23  C   UNL A   1      35.562  21.852  26.044  1.00  0.00     0.021 C 
BRANCH  23  24
ATOM     24  C   UNL A   1      36.957  22.388  25.749  1.00  0.00     0.116 C 
BRANCH  24  25
ATOM     25  N   UNL A   1      37.981  21.386  26.010  1.00  0.00    -0.352 N 
ATOM     26  C   UNL A   1      39.296  21.569  26.362  1.00  0.00     0.251 C 
ATOM     27  H   UNL A   1      37.692  20.449  25.921  1.00  0.00     0.163 HD
ATOM     28  O   UNL A   1      40.085  20.636  26.320  1.00  0.00    -0.269 OA
BRANCH  26  29
ATOM     29  C   UNL A   1      39.740  22.914  26.781  1.00  0.00     0.039 A 
ATOM     30  C   UNL A   1      40.626  23.036  27.854  1.00  0.00     0.014 A 
ATOM     31  C   UNL A   1      39.290  24.046  26.096  1.00  0.00     0.014 A 
ATOM     32  C   UNL A   1      41.102  24.299  28.209  1.00  0.00     0.010 A 
ATOM     33  C   UNL A   1      39.828  25.290  26.401  1.00  0.00     0.010 A 
ATOM     34  C   UNL A   1      40.730  25.433  27.467  1.00  0.00    -0.014 A 
BRANCH  34  35
ATOM     35  C   UNL A   1      41.257  26.783  27.789  1.00  0.00     0.031 A 
ATOM     36  C   UNL A   1      42.707  27.097  27.531  1.00  0.00     0.074 A 
ATOM     37  C   UNL A   1      40.464  27.684  28.403  1.00  0.00     0.049 A 
ATOM     38  N   UNL A   1      43.384  28.172  27.841  1.00  0.00    -0.248 NA
ATOM     39  C   UNL A   1      43.509  26.057  26.863  1.00  0.00     0.031 C 
ATOM     40  C   UNL A   1      39.060  27.473  28.764  1.00  0.00     0.029 A 
ATOM     41  N   UNL A   1      40.736  28.949  28.863  1.00  0.00    -0.354 N 
ATOM     42  C   UNL A   1      44.695  27.918  27.454  1.00  0.00     0.074 A 
ATOM     43  C   UNL A   1      44.725  26.582  26.904  1.00  0.00     0.031 C 
ATOM     44  C   UNL A   1      38.597  28.566  29.395  1.00  0.00     0.029 A 
ATOM     45  C   UNL A   1      39.679  29.538  29.519  1.00  0.00     0.049 A 
ATOM     46  H   UNL A   1      41.606  29.392  28.738  1.00  0.00     0.167 HD
ATOM     47  C   UNL A   1      45.771  28.734  27.532  1.00  0.00     0.034 A 
ATOM     48  C   UNL A   1      39.596  30.718  30.164  1.00  0.00     0.034 A 
ATOM     49  C   UNL A   1      45.723  30.082  28.027  1.00  0.00     0.049 A 
ATOM     50  C   UNL A   1      40.806  31.615  30.202  1.00  0.00     0.074 A 
ATOM     51  C   UNL A   1      46.737  31.022  28.051  1.00  0.00     0.029 A 
ATOM     52  N   UNL A   1      44.610  30.677  28.597  1.00  0.00    -0.354 N 
ATOM     53  N   UNL A   1      41.996  31.420  29.686  1.00  0.00    -0.248 NA
ATOM     54  C   UNL A   1      40.654  32.912  30.880  1.00  0.00     0.031 C 
ATOM     55  C   UNL A   1      46.248  32.175  28.670  1.00  0.00     0.029 A 
ATOM     56  C   UNL A   1      44.915  31.967  28.988  1.00  0.00     0.049 A 
ATOM     57  H   UNL A   1      43.731  30.245  28.705  1.00  0.00     0.167 HD
ATOM     58  C   UNL A   1      42.713  32.585  29.932  1.00  0.00     0.074 A 
ATOM     59  C   UNL A   1      41.822  33.487  30.630  1.00  0.00     0.031 C 
ATOM     60  C   UNL A   1      43.997  32.879  29.617  1.00  0.00     0.034 A 
BRANCH  47  61
ATOM     61  C   UNL A   1      47.095  28.219  27.036  1.00  0.00     0.023 A 
ATOM     62  C   UNL A   1      48.089  27.837  27.959  1.00  0.00     0.012 A 
ATOM     63  C   UNL A   1      47.312  28.013  25.659  1.00  0.00     0.148 A 
ATOM     64  C   UNL A   1      49.287  27.276  27.518  1.00  0.00     0.002 A 
ATOM     65  C   UNL A   1      48.487  27.409  25.231  1.00  0.00     0.091 A 
ATOM     66  F   UNL A   1      46.360  28.401  24.799  1.00  0.00    -0.205 F 
ATOM     67  C   UNL A   1      49.479  27.050  26.157  1.00  0.00     0.022 A 
BRANCH  65  68
ATOM     68  S   UNL A   1      48.794  26.994  23.511  1.00  0.00     0.127 S 
ATOM     69  O   UNL A   1      47.915  25.839  23.327  1.00  0.00    -0.237 OA
ATOM     70  O   UNL A   1      48.357  28.207  22.822  1.00  0.00    -0.237 OA
ATOM     71  O   UNL A   1      50.218  26.710  23.410  1.00  0.00    -0.744 OA
ENDBRANCH  65  68
ENDBRANCH  47  61
BRANCH  48  72
ATOM     72  C   UNL A   1      38.318  31.148  30.802  1.00  0.00     0.023 A 
ATOM     73  C   UNL A   1      38.098  30.877  32.167  1.00  0.00     0.012 A 
ATOM     74  C   UNL A   1      37.313  31.801  30.064  1.00  0.00     0.148 A 
ATOM     75  C   UNL A   1      36.881  31.196  32.771  1.00  0.00     0.002 A 
ATOM     76  C   UNL A   1      36.126  32.171  30.685  1.00  0.00     0.091 A 
ATOM     77  F   UNL A   1      37.534  32.043  28.763  1.00  0.00    -0.205 F 
ATOM     78  C   UNL A   1      35.899  31.849  32.031  1.00  0.00     0.022 A 
BRANCH  76  79
ATOM     79  S   UNL A   1      34.861  33.128  29.842  1.00  0.00     0.127 S 
ATOM     80  O   UNL A   1      34.245  32.120  28.985  1.00  0.00    -0.237 OA
ATOM     81  O   UNL A   1      34.029  33.580  30.959  1.00  0.00    -0.237 OA
ATOM     82  O   UNL A   1      35.573  34.198  29.156  1.00  0.00    -0.744 OA
ENDBRANCH  76  79
ENDBRANCH  48  72
BRANCH  60  83
ATOM     83  C   UNL A   1      44.510  34.255  29.947  1.00  0.00     0.023 A 
ATOM     84  C   UNL A   1      45.263  34.470  31.117  1.00  0.00     0.012 A 
ATOM     85  C   UNL A   1      44.324  35.316  29.038  1.00  0.00     0.148 A 
ATOM     86  C   UNL A   1      45.799  35.729  31.392  1.00  0.00     0.002 A 
ATOM     87  C   UNL A   1      44.906  36.550  29.290  1.00  0.00     0.091 A 
ATOM     88  F   UNL A   1      43.590  35.092  27.938  1.00  0.00    -0.205 F 
ATOM     89  C   UNL A   1      45.633  36.762  30.473  1.00  0.00     0.022 A 
BRANCH  87  90
ATOM     90  S   UNL A   1      44.836  37.908  28.116  1.00  0.00     0.127 S 
ATOM     91  O   UNL A   1      43.857  38.794  28.744  1.00  0.00    -0.237 OA
ATOM     92  O   UNL A   1      46.211  38.405  28.136  1.00  0.00    -0.237 OA
ATOM     93  O   UNL A   1      44.421  37.324  26.847  1.00  0.00    -0.744 OA
ENDBRANCH  87  90
ENDBRANCH  60  83
ENDBRANCH  34  35
ENDBRANCH  26  29
ENDBRANCH  24  25
ENDBRANCH  23  24
ENDBRANCH  22  23
ENDBRANCH   1  22
TORSDOF 21
ENDMDL
