MODEL 1
REMARK VINA RESULT:     -11.4      0.000      0.000
REMARK SMILES Cc1ccc(N2C(=O)C[C@H](Sc3ccccc3C(=O)NCCCCCCNC(=O)c3ccc(-c4c5nc(c(-c6cccc(S(=O)(=O)[O-])c6F)c6ccc([nH]6)c(-c6cccc(S(=O)(=O)[O-])c6F)c6nc(c(-c7cccc(S(=O)(=O)[O-])c7F)c7ccc4[nH]7)C=C6)C=C5)cc3)C2=O)cc1
REMARK SMILES IDX 23 1 22 2 21 3 20 4 18 5 19 6 17 8 12 9 13 10 14 11 16 12
REMARK SMILES IDX 15 13 11 14 10 15 6 16 7 17 93 18 8 19 9 20 94 21 5 22 1 23
REMARK SMILES IDX 2 24 3 25 96 26 4 27 95 28 24 29 25 30 26 31 27 32 28 33
REMARK SMILES IDX 29 35 30 36 31 37 92 38 32 39 91 40 33 41 34 42 35 43 85 44
REMARK SMILES IDX 36 45 90 46 84 47 86 48 37 49 89 50 83 51 82 52 38 54 70 55
REMARK SMILES IDX 50 56 69 57 51 58 54 59 68 60 87 61 52 62 53 63 67 65 88 66
REMARK SMILES IDX 55 67 39 68 40 69 48 70 41 71 43 72 49 73 42 74 44 75 45 76
REMARK SMILES IDX 46 77 47 78 71 79 72 80 80 81 73 82 75 83 81 84 74 85 76 86
REMARK SMILES IDX 77 87 78 88 79 89 56 90 57 91 65 92 58 93 60 94 66 95 59 96
REMARK SMILES IDX 61 97 62 98 63 99 64 100
REMARK H PARENT 20 7 27 34 86 53 54 64
REMARK Flexibility Score: inf
ROOT
ATOM      1  C   UNL A   1      38.986  23.121  26.467  1.00  0.00     0.002 C 
ENDROOT
BRANCH   1   2
ATOM      2  C   UNL A   1      37.831  23.843  25.766  1.00  0.00     0.021 C 
BRANCH   2   3
ATOM      3  C   UNL A   1      36.460  23.173  25.685  1.00  0.00     0.116 C 
BRANCH   3   4
ATOM      4  N   UNL A   1      35.317  24.006  26.019  1.00  0.00    -0.352 N 
ATOM      5  C   UNL A   1      33.967  23.742  25.934  1.00  0.00     0.252 C 
ATOM      6  O   UNL A   1      33.181  24.525  26.462  1.00  0.00    -0.269 OA
ATOM      7  H   UNL A   1      35.544  24.902  26.360  1.00  0.00     0.163 HD
BRANCH   5   8
ATOM      8  C   UNL A   1      33.461  22.565  25.176  1.00  0.00     0.053 A 
ATOM      9  C   UNL A   1      33.181  22.622  23.791  1.00  0.00     0.021 A 
ATOM     10  C   UNL A   1      32.727  21.453  23.151  1.00  0.00     0.016 A 
ATOM     11  C   UNL A   1      32.531  20.265  23.860  1.00  0.00     0.001 A 
ATOM     12  C   UNL A   1      33.194  21.380  25.887  1.00  0.00     0.015 A 
ATOM     13  C   UNL A   1      32.747  20.234  25.232  1.00  0.00     0.001 A 
BRANCH   9  14
ATOM     14  S   UNL A   1      33.073  24.118  22.801  1.00  0.00    -0.111 SA
BRANCH  14  15
ATOM     15  C   UNL A   1      31.309  24.577  22.793  1.00  0.00     0.151 C 
ATOM     16  N   UNL A   1      30.398  26.594  23.535  1.00  0.00    -0.250 N 
ATOM     17  C   UNL A   1      30.221  25.702  24.569  1.00  0.00     0.235 C 
ATOM     18  C   UNL A   1      31.048  26.022  22.464  1.00  0.00     0.247 C 
ATOM     19  O   UNL A   1      29.752  25.894  25.680  1.00  0.00    -0.274 OA
ATOM     20  C   UNL A   1      30.557  24.329  24.076  1.00  0.00     0.126 C 
ATOM     21  O   UNL A   1      31.394  26.553  21.414  1.00  0.00    -0.273 OA
BRANCH  16  22
ATOM     22  C   UNL A   1      29.891  27.919  23.549  1.00  0.00     0.052 A 
ATOM     23  C   UNL A   1      28.518  32.017  23.321  1.00  0.00     0.044 C 
ATOM     24  C   UNL A   1      28.975  30.593  23.436  1.00  0.00    -0.051 A 
ATOM     25  C   UNL A   1      30.219  30.292  23.997  1.00  0.00     0.005 A 
ATOM     26  C   UNL A   1      28.193  29.551  22.930  1.00  0.00     0.005 A 
ATOM     27  C   UNL A   1      30.661  28.968  24.076  1.00  0.00     0.027 A 
ATOM     28  C   UNL A   1      28.654  28.230  22.973  1.00  0.00     0.027 A 
ENDBRANCH  16  22
ENDBRANCH  14  15
ENDBRANCH   9  14
ENDBRANCH   5   8
ENDBRANCH   3   4
ENDBRANCH   2   3
ENDBRANCH   1   2
BRANCH   1  29
ATOM     29  C   UNL A   1      39.733  23.827  27.605  1.00  0.00     0.002 C 
BRANCH  29  30
ATOM     30  C   UNL A   1      40.146  25.278  27.389  1.00  0.00     0.021 C 
BRANCH  30  31
ATOM     31  C   UNL A   1      39.978  26.198  28.591  1.00  0.00     0.116 C 
BRANCH  31  32
ATOM     32  N   UNL A   1      38.842  27.107  28.484  1.00  0.00    -0.352 N 
ATOM     33  C   UNL A   1      38.834  28.484  28.336  1.00  0.00     0.251 C 
ATOM     34  H   UNL A   1      37.955  26.680  28.522  1.00  0.00     0.163 HD
ATOM     35  O   UNL A   1      37.763  29.087  28.367  1.00  0.00    -0.269 OA
BRANCH  33  36
ATOM     36  C   UNL A   1      40.099  29.187  28.018  1.00  0.00     0.039 A 
ATOM     37  C   UNL A   1      40.676  28.972  26.759  1.00  0.00     0.014 A 
ATOM     38  C   UNL A   1      40.822  29.832  29.016  1.00  0.00     0.014 A 
ATOM     39  C   UNL A   1      42.048  29.146  26.596  1.00  0.00     0.010 A 
ATOM     40  C   UNL A   1      42.191  29.913  28.891  1.00  0.00     0.010 A 
ATOM     41  C   UNL A   1      42.809  29.492  27.708  1.00  0.00    -0.014 A 
BRANCH  41  42
ATOM     42  C   UNL A   1      44.255  29.368  27.793  1.00  0.00     0.031 A 
ATOM     43  C   UNL A   1      45.126  30.455  27.315  1.00  0.00     0.074 A 
ATOM     44  C   UNL A   1      44.785  28.332  28.483  1.00  0.00     0.049 A 
ATOM     45  N   UNL A   1      46.408  30.350  27.236  1.00  0.00    -0.248 NA
ATOM     46  C   UNL A   1      44.616  31.729  26.825  1.00  0.00     0.031 C 
ATOM     47  C   UNL A   1      46.124  28.239  29.056  1.00  0.00     0.029 A 
ATOM     48  N   UNL A   1      44.285  27.031  28.582  1.00  0.00    -0.354 N 
ATOM     49  C   UNL A   1      46.908  31.602  26.978  1.00  0.00     0.074 A 
ATOM     50  C   UNL A   1      45.759  32.382  26.590  1.00  0.00     0.031 C 
ATOM     51  C   UNL A   1      46.455  26.944  29.166  1.00  0.00     0.029 A 
ATOM     52  C   UNL A   1      45.408  26.183  28.512  1.00  0.00     0.049 A 
ATOM     53  H   UNL A   1      43.342  26.763  28.682  1.00  0.00     0.167 HD
ATOM     54  C   UNL A   1      48.218  31.838  27.264  1.00  0.00     0.034 A 
ATOM     55  C   UNL A   1      45.592  25.254  27.529  1.00  0.00     0.034 A 
ATOM     56  C   UNL A   1      48.948  30.577  27.481  1.00  0.00     0.049 A 
ATOM     57  C   UNL A   1      46.889  25.434  26.746  1.00  0.00     0.074 A 
ATOM     58  C   UNL A   1      49.509  29.924  28.566  1.00  0.00     0.029 A 
ATOM     59  N   UNL A   1      48.991  29.672  26.434  1.00  0.00    -0.354 N 
ATOM     60  N   UNL A   1      47.797  26.337  26.999  1.00  0.00    -0.248 NA
ATOM     61  C   UNL A   1      47.206  24.662  25.543  1.00  0.00     0.031 C 
ATOM     62  C   UNL A   1      49.862  28.600  28.152  1.00  0.00     0.029 A 
ATOM     63  C   UNL A   1      49.544  28.465  26.813  1.00  0.00     0.049 A 
ATOM     64  H   UNL A   1      48.664  29.866  25.525  1.00  0.00     0.167 HD
ATOM     65  C   UNL A   1      48.681  26.403  25.950  1.00  0.00     0.074 A 
ATOM     66  C   UNL A   1      48.298  25.299  25.088  1.00  0.00     0.031 C 
ATOM     67  C   UNL A   1      49.609  27.401  25.818  1.00  0.00     0.034 A 
BRANCH  54  68
ATOM     68  C   UNL A   1      48.852  33.201  27.491  1.00  0.00     0.023 A 
ATOM     69  C   UNL A   1      49.318  33.484  28.796  1.00  0.00     0.012 A 
ATOM     70  C   UNL A   1      48.926  34.274  26.569  1.00  0.00     0.148 A 
ATOM     71  C   UNL A   1      49.788  34.747  29.174  1.00  0.00     0.002 A 
ATOM     72  C   UNL A   1      49.437  35.524  26.931  1.00  0.00     0.091 A 
ATOM     73  F   UNL A   1      48.434  34.144  25.338  1.00  0.00    -0.205 F 
ATOM     74  C   UNL A   1      49.854  35.769  28.240  1.00  0.00     0.022 A 
BRANCH  72  75
ATOM     75  S   UNL A   1      49.560  36.891  25.761  1.00  0.00     0.127 S 
ATOM     76  O   UNL A   1      50.297  36.278  24.655  1.00  0.00    -0.237 OA
ATOM     77  O   UNL A   1      48.157  37.183  25.468  1.00  0.00    -0.237 OA
ATOM     78  O   UNL A   1      50.266  37.964  26.451  1.00  0.00    -0.744 OA
ENDBRANCH  72  75
ENDBRANCH  54  68
BRANCH  55  79
ATOM     79  C   UNL A   1      44.313  24.729  26.968  1.00  0.00     0.023 A 
ATOM     80  C   UNL A   1      43.723  25.466  25.912  1.00  0.00     0.012 A 
ATOM     81  C   UNL A   1      43.909  23.398  27.171  1.00  0.00     0.148 A 
ATOM     82  C   UNL A   1      42.858  24.853  25.004  1.00  0.00     0.002 A 
ATOM     83  C   UNL A   1      43.035  22.798  26.268  1.00  0.00     0.091 A 
ATOM     84  F   UNL A   1      44.445  22.712  28.187  1.00  0.00    -0.205 F 
ATOM     85  C   UNL A   1      42.539  23.510  25.165  1.00  0.00     0.022 A 
BRANCH  83  86
ATOM     86  S   UNL A   1      42.616  21.054  26.396  1.00  0.00     0.127 S 
ATOM     87  O   UNL A   1      41.456  20.969  25.515  1.00  0.00    -0.237 OA
ATOM     88  O   UNL A   1      43.825  20.404  25.894  1.00  0.00    -0.237 OA
ATOM     89  O   UNL A   1      42.371  20.838  27.814  1.00  0.00    -0.744 OA
ENDBRANCH  83  86
ENDBRANCH  55  79
BRANCH  67  90
ATOM     90  C   UNL A   1      50.628  27.477  24.691  1.00  0.00     0.023 A 
ATOM     91  C   UNL A   1      52.008  27.360  24.958  1.00  0.00     0.012 A 
ATOM     92  C   UNL A   1      50.265  27.799  23.357  1.00  0.00     0.148 A 
ATOM     93  C   UNL A   1      52.970  27.484  23.948  1.00  0.00     0.002 A 
ATOM     94  C   UNL A   1      51.228  28.000  22.370  1.00  0.00     0.091 A 
ATOM     95  F   UNL A   1      48.974  27.891  23.022  1.00  0.00    -0.205 F 
ATOM     96  C   UNL A   1      52.582  27.815  22.656  1.00  0.00     0.022 A 
BRANCH  94  97
ATOM     97  S   UNL A   1      50.820  28.588  20.718  1.00  0.00     0.127 S 
ATOM     98  O   UNL A   1      50.150  29.855  21.013  1.00  0.00    -0.237 OA
ATOM     99  O   UNL A   1      52.144  28.725  20.113  1.00  0.00    -0.237 OA
ATOM    100  O   UNL A   1      49.964  27.573  20.122  1.00  0.00    -0.744 OA
ENDBRANCH  94  97
ENDBRANCH  67  90
ENDBRANCH  41  42
ENDBRANCH  33  36
ENDBRANCH  31  32
ENDBRANCH  30  31
ENDBRANCH  29  30
ENDBRANCH   1  29
TORSDOF 19
ENDMDL
MODEL 2
REMARK VINA RESULT:     -10.7      3.452      8.483
REMARK SMILES Cc1ccc(N2C(=O)C[C@H](Sc3ccccc3C(=O)NCCCCCCNC(=O)c3ccc(-c4c5nc(c(-c6cccc(S(=O)(=O)[O-])c6F)c6ccc([nH]6)c(-c6cccc(S(=O)(=O)[O-])c6F)c6nc(c(-c7cccc(S(=O)(=O)[O-])c7F)c7ccc4[nH]7)C=C6)C=C5)cc3)C2=O)cc1
REMARK SMILES IDX 23 1 22 2 21 3 20 4 18 5 19 6 17 8 12 9 13 10 14 11 16 12
REMARK SMILES IDX 15 13 11 14 10 15 6 16 7 17 93 18 8 19 9 20 94 21 5 22 1 23
REMARK SMILES IDX 2 24 3 25 96 26 4 27 95 28 24 29 25 30 26 31 27 32 28 33
REMARK SMILES IDX 29 35 30 36 31 37 92 38 32 39 91 40 33 41 34 42 35 43 85 44
REMARK SMILES IDX 36 45 90 46 84 47 86 48 37 49 89 50 83 51 82 52 38 54 70 55
REMARK SMILES IDX 50 56 69 57 51 58 54 59 68 60 87 61 52 62 53 63 67 65 88 66
REMARK SMILES IDX 55 67 39 68 40 69 48 70 41 71 43 72 49 73 42 74 44 75 45 76
REMARK SMILES IDX 46 77 47 78 71 79 72 80 80 81 73 82 75 83 81 84 74 85 76 86
REMARK SMILES IDX 77 87 78 88 79 89 56 90 57 91 65 92 58 93 60 94 66 95 59 96
REMARK SMILES IDX 61 97 62 98 63 99 64 100
REMARK H PARENT 20 7 27 34 86 53 54 64
REMARK Flexibility Score: inf
ROOT
ATOM      1  C   UNL A   1      35.508  21.937  26.336  1.00  0.00     0.002 C 
ENDROOT
BRANCH   1   2
ATOM      2  C   UNL A   1      34.671  22.984  27.077  1.00  0.00     0.021 C 
BRANCH   2   3
ATOM      3  C   UNL A   1      33.965  24.084  26.285  1.00  0.00     0.116 C 
BRANCH   3   4
ATOM      4  N   UNL A   1      32.581  24.344  26.640  1.00  0.00    -0.352 N 
ATOM      5  C   UNL A   1      31.776  25.427  26.355  1.00  0.00     0.252 C 
ATOM      6  O   UNL A   1      30.573  25.341  26.588  1.00  0.00    -0.269 OA
ATOM      7  H   UNL A   1      32.149  23.634  27.168  1.00  0.00     0.163 HD
BRANCH   5   8
ATOM      8  C   UNL A   1      32.353  26.694  25.828  1.00  0.00     0.053 A 
ATOM      9  C   UNL A   1      31.703  27.466  24.837  1.00  0.00     0.021 A 
ATOM     10  C   UNL A   1      32.312  28.662  24.413  1.00  0.00     0.016 A 
ATOM     11  C   UNL A   1      33.541  29.076  24.934  1.00  0.00     0.001 A 
ATOM     12  C   UNL A   1      33.620  27.091  26.292  1.00  0.00     0.015 A 
ATOM     13  C   UNL A   1      34.204  28.281  25.860  1.00  0.00     0.001 A 
BRANCH   9  14
ATOM     14  S   UNL A   1      30.302  26.936  23.843  1.00  0.00    -0.111 SA
BRANCH  14  15
ATOM     15  C   UNL A   1      30.980  25.776  22.612  1.00  0.00     0.151 C 
ATOM     16  N   UNL A   1      32.008  23.728  23.055  1.00  0.00    -0.250 N 
ATOM     17  C   UNL A   1      33.033  24.626  22.861  1.00  0.00     0.235 C 
ATOM     18  C   UNL A   1      30.771  24.325  22.949  1.00  0.00     0.247 C 
ATOM     19  O   UNL A   1      34.239  24.450  22.954  1.00  0.00    -0.274 OA
ATOM     20  C   UNL A   1      32.457  25.902  22.332  1.00  0.00     0.126 C 
ATOM     21  O   UNL A   1      29.666  23.817  23.109  1.00  0.00    -0.273 OA
BRANCH  16  22
ATOM     22  C   UNL A   1      32.211  22.338  23.255  1.00  0.00     0.052 A 
ATOM     23  C   UNL A   1      32.513  18.075  23.937  1.00  0.00     0.044 C 
ATOM     24  C   UNL A   1      32.449  19.555  23.696  1.00  0.00    -0.051 A 
ATOM     25  C   UNL A   1      32.474  20.447  24.771  1.00  0.00     0.005 A 
ATOM     26  C   UNL A   1      32.302  20.059  22.402  1.00  0.00     0.005 A 
ATOM     27  C   UNL A   1      32.381  21.826  24.551  1.00  0.00     0.027 A 
ATOM     28  C   UNL A   1      32.170  21.436  22.186  1.00  0.00     0.027 A 
ENDBRANCH  16  22
ENDBRANCH  14  15
ENDBRANCH   9  14
ENDBRANCH   5   8
ENDBRANCH   3   4
ENDBRANCH   2   3
ENDBRANCH   1   2
BRANCH   1  29
ATOM     29  C   UNL A   1      36.871  22.336  25.758  1.00  0.00     0.002 C 
BRANCH  29  30
ATOM     30  C   UNL A   1      37.631  23.462  26.449  1.00  0.00     0.021 C 
BRANCH  30  31
ATOM     31  C   UNL A   1      39.113  23.563  26.111  1.00  0.00     0.116 C 
BRANCH  31  32
ATOM     32  N   UNL A   1      39.765  22.271  25.928  1.00  0.00    -0.352 N 
ATOM     33  C   UNL A   1      41.091  21.923  26.126  1.00  0.00     0.251 C 
ATOM     34  H   UNL A   1      39.178  21.542  25.620  1.00  0.00     0.163 HD
ATOM     35  O   UNL A   1      41.471  20.796  25.817  1.00  0.00    -0.269 OA
BRANCH  33  36
ATOM     36  C   UNL A   1      41.993  22.871  26.823  1.00  0.00     0.039 A 
ATOM     37  C   UNL A   1      42.031  22.839  28.223  1.00  0.00     0.014 A 
ATOM     38  C   UNL A   1      42.584  23.924  26.132  1.00  0.00     0.014 A 
ATOM     39  C   UNL A   1      42.406  23.983  28.924  1.00  0.00     0.010 A 
ATOM     40  C   UNL A   1      42.863  25.087  26.815  1.00  0.00     0.010 A 
ATOM     41  C   UNL A   1      42.694  25.137  28.204  1.00  0.00    -0.014 A 
BRANCH  41  42
ATOM     42  C   UNL A   1      42.752  26.474  28.771  1.00  0.00     0.031 A 
ATOM     43  C   UNL A   1      41.564  27.344  28.752  1.00  0.00     0.074 A 
ATOM     44  C   UNL A   1      43.846  26.840  29.478  1.00  0.00     0.049 A 
ATOM     45  N   UNL A   1      41.589  28.581  29.112  1.00  0.00    -0.248 NA
ATOM     46  C   UNL A   1      40.262  26.907  28.265  1.00  0.00     0.031 C 
ATOM     47  C   UNL A   1      43.949  27.910  30.465  1.00  0.00     0.029 A 
ATOM     48  N   UNL A   1      45.172  26.465  29.248  1.00  0.00    -0.354 N 
ATOM     49  C   UNL A   1      40.289  29.015  29.189  1.00  0.00     0.074 A 
ATOM     50  C   UNL A   1      39.523  27.993  28.518  1.00  0.00     0.031 C 
ATOM     51  C   UNL A   1      45.227  28.310  30.534  1.00  0.00     0.029 A 
ATOM     52  C   UNL A   1      45.941  27.623  29.475  1.00  0.00     0.049 A 
ATOM     53  H   UNL A   1      45.501  25.575  28.983  1.00  0.00     0.167 HD
ATOM     54  C   UNL A   1      40.027  30.122  29.936  1.00  0.00     0.034 A 
ATOM     55  C   UNL A   1      46.712  28.219  28.517  1.00  0.00     0.034 A 
ATOM     56  C   UNL A   1      41.266  30.856  30.247  1.00  0.00     0.049 A 
ATOM     57  C   UNL A   1      46.355  29.679  28.258  1.00  0.00     0.074 A 
ATOM     58  C   UNL A   1      42.035  31.080  31.375  1.00  0.00     0.029 A 
ATOM     59  N   UNL A   1      42.011  31.337  29.183  1.00  0.00    -0.354 N 
ATOM     60  N   UNL A   1      45.450  30.355  28.912  1.00  0.00    -0.248 NA
ATOM     61  C   UNL A   1      46.931  30.457  27.160  1.00  0.00     0.031 C 
ATOM     62  C   UNL A   1      43.267  31.680  30.961  1.00  0.00     0.029 A 
ATOM     63  C   UNL A   1      43.229  31.846  29.589  1.00  0.00     0.049 A 
ATOM     64  H   UNL A   1      41.708  31.319  28.246  1.00  0.00     0.167 HD
ATOM     65  C   UNL A   1      45.191  31.530  28.250  1.00  0.00     0.074 A 
ATOM     66  C   UNL A   1      46.180  31.570  27.187  1.00  0.00     0.031 C 
ATOM     67  C   UNL A   1      44.136  32.346  28.563  1.00  0.00     0.034 A 
BRANCH  54  68
ATOM     68  C   UNL A   1      38.678  30.506  30.523  1.00  0.00     0.023 A 
ATOM     69  C   UNL A   1      38.304  29.880  31.735  1.00  0.00     0.012 A 
ATOM     70  C   UNL A   1      37.694  31.336  29.933  1.00  0.00     0.148 A 
ATOM     71  C   UNL A   1      37.034  30.034  32.304  1.00  0.00     0.002 A 
ATOM     72  C   UNL A   1      36.440  31.528  30.523  1.00  0.00     0.091 A 
ATOM     73  F   UNL A   1      37.910  31.904  28.747  1.00  0.00    -0.205 F 
ATOM     74  C   UNL A   1      36.101  30.863  31.701  1.00  0.00     0.022 A 
BRANCH  72  75
ATOM     75  S   UNL A   1      35.188  32.602  29.795  1.00  0.00     0.127 S 
ATOM     76  O   UNL A   1      35.964  33.800  29.476  1.00  0.00    -0.237 OA
ATOM     77  O   UNL A   1      34.751  31.833  28.630  1.00  0.00    -0.237 OA
ATOM     78  O   UNL A   1      34.160  32.787  30.813  1.00  0.00    -0.744 OA
ENDBRANCH  72  75
ENDBRANCH  54  68
BRANCH  55  79
ATOM     79  C   UNL A   1      47.218  27.261  27.491  1.00  0.00     0.023 A 
ATOM     80  C   UNL A   1      46.413  27.063  26.342  1.00  0.00     0.012 A 
ATOM     81  C   UNL A   1      48.569  26.877  27.443  1.00  0.00     0.148 A 
ATOM     82  C   UNL A   1      46.972  26.621  25.141  1.00  0.00     0.002 A 
ATOM     83  C   UNL A   1      49.115  26.424  26.245  1.00  0.00     0.091 A 
ATOM     84  F   UNL A   1      49.322  27.036  28.538  1.00  0.00    -0.205 F 
ATOM     85  C   UNL A   1      48.330  26.332  25.085  1.00  0.00     0.022 A 
BRANCH  83  86
ATOM     86  S   UNL A   1      50.872  26.074  26.096  1.00  0.00     0.127 S 
ATOM     87  O   UNL A   1      50.988  24.838  26.862  1.00  0.00    -0.237 OA
ATOM     88  O   UNL A   1      51.041  25.925  24.651  1.00  0.00    -0.237 OA
ATOM     89  O   UNL A   1      51.530  27.246  26.653  1.00  0.00    -0.744 OA
ENDBRANCH  83  86
ENDBRANCH  55  79
BRANCH  67  90
ATOM     90  C   UNL A   1      43.848  33.673  27.876  1.00  0.00     0.023 A 
ATOM     91  C   UNL A   1      43.465  33.715  26.520  1.00  0.00     0.012 A 
ATOM     92  C   UNL A   1      44.077  34.923  28.511  1.00  0.00     0.148 A 
ATOM     93  C   UNL A   1      43.251  34.925  25.849  1.00  0.00     0.002 A 
ATOM     94  C   UNL A   1      43.939  36.124  27.819  1.00  0.00     0.091 A 
ATOM     95  F   UNL A   1      44.408  34.963  29.805  1.00  0.00    -0.205 F 
ATOM     96  C   UNL A   1      43.498  36.130  26.494  1.00  0.00     0.022 A 
BRANCH  94  97
ATOM     97  S   UNL A   1      44.395  37.714  28.530  1.00  0.00     0.127 S 
ATOM     98  O   UNL A   1      43.403  37.855  29.596  1.00  0.00    -0.237 OA
ATOM     99  O   UNL A   1      45.757  37.455  28.994  1.00  0.00    -0.237 OA
ATOM    100  O   UNL A   1      44.278  38.691  27.458  1.00  0.00    -0.744 OA
ENDBRANCH  94  97
ENDBRANCH  67  90
ENDBRANCH  41  42
ENDBRANCH  33  36
ENDBRANCH  31  32
ENDBRANCH  30  31
ENDBRANCH  29  30
ENDBRANCH   1  29
TORSDOF 19
ENDMDL
MODEL 3
REMARK VINA RESULT:     -10.7      5.371      7.365
REMARK SMILES Cc1ccc(N2C(=O)C[C@H](Sc3ccccc3C(=O)NCCCCCCNC(=O)c3ccc(-c4c5nc(c(-c6cccc(S(=O)(=O)[O-])c6F)c6ccc([nH]6)c(-c6cccc(S(=O)(=O)[O-])c6F)c6nc(c(-c7cccc(S(=O)(=O)[O-])c7F)c7ccc4[nH]7)C=C6)C=C5)cc3)C2=O)cc1
REMARK SMILES IDX 23 1 22 2 21 3 20 4 18 5 19 6 17 8 12 9 13 10 14 11 16 12
REMARK SMILES IDX 15 13 11 14 10 15 6 16 7 17 93 18 8 19 9 20 94 21 5 22 1 23
REMARK SMILES IDX 2 24 3 25 96 26 4 27 95 28 24 29 25 30 26 31 27 32 28 33
REMARK SMILES IDX 29 35 30 36 31 37 92 38 32 39 91 40 33 41 34 42 35 43 85 44
REMARK SMILES IDX 36 45 90 46 84 47 86 48 37 49 89 50 83 51 82 52 38 54 70 55
REMARK SMILES IDX 50 56 69 57 51 58 54 59 68 60 87 61 52 62 53 63 67 65 88 66
REMARK SMILES IDX 55 67 39 68 40 69 48 70 41 71 43 72 49 73 42 74 44 75 45 76
REMARK SMILES IDX 46 77 47 78 71 79 72 80 80 81 73 82 75 83 81 84 74 85 76 86
REMARK SMILES IDX 77 87 78 88 79 89 56 90 57 91 65 92 58 93 60 94 66 95 59 96
REMARK SMILES IDX 61 97 62 98 63 99 64 100
REMARK H PARENT 20 7 27 34 86 53 54 64
REMARK Flexibility Score: inf
ROOT
ATOM      1  C   UNL A   1      40.090  21.584  26.026  1.00  0.00     0.002 C 
ENDROOT
BRANCH   1   2
ATOM      2  C   UNL A   1      38.965  20.594  25.710  1.00  0.00     0.021 C 
BRANCH   2   3
ATOM      3  C   UNL A   1      37.711  21.082  24.984  1.00  0.00     0.116 C 
BRANCH   3   4
ATOM      4  N   UNL A   1      36.629  20.121  24.856  1.00  0.00    -0.352 N 
ATOM      5  C   UNL A   1      35.269  20.283  25.020  1.00  0.00     0.252 C 
ATOM      6  O   UNL A   1      34.523  19.376  24.663  1.00  0.00    -0.269 OA
ATOM      7  H   UNL A   1      36.912  19.210  24.612  1.00  0.00     0.163 HD
BRANCH   5   8
ATOM      8  C   UNL A   1      34.714  21.506  25.664  1.00  0.00     0.053 A 
ATOM      9  C   UNL A   1      34.484  22.701  24.945  1.00  0.00     0.021 A 
ATOM     10  C   UNL A   1      33.936  23.801  25.631  1.00  0.00     0.016 A 
ATOM     11  C   UNL A   1      33.646  23.734  26.996  1.00  0.00     0.001 A 
ATOM     12  C   UNL A   1      34.481  21.478  27.051  1.00  0.00     0.015 A 
ATOM     13  C   UNL A   1      33.935  22.579  27.710  1.00  0.00     0.001 A 
BRANCH   9  14
ATOM     14  S   UNL A   1      35.081  23.063  23.288  1.00  0.00    -0.111 SA
BRANCH  14  15
ATOM     15  C   UNL A   1      33.619  23.606  22.345  1.00  0.00     0.151 C 
ATOM     16  N   UNL A   1      32.055  25.206  23.009  1.00  0.00    -0.250 N 
ATOM     17  C   UNL A   1      31.487  23.986  23.300  1.00  0.00     0.235 C 
ATOM     18  C   UNL A   1      33.314  25.074  22.468  1.00  0.00     0.247 C 
ATOM     19  O   UNL A   1      30.422  23.742  23.847  1.00  0.00    -0.274 OA
ATOM     20  C   UNL A   1      32.323  22.910  22.679  1.00  0.00     0.126 C 
ATOM     21  O   UNL A   1      34.097  25.960  22.143  1.00  0.00    -0.273 OA
BRANCH  16  22
ATOM     22  C   UNL A   1      31.379  26.443  23.174  1.00  0.00     0.052 A 
ATOM     23  C   UNL A   1      29.612  30.361  23.679  1.00  0.00     0.044 C 
ATOM     24  C   UNL A   1      30.188  28.986  23.508  1.00  0.00    -0.051 A 
ATOM     25  C   UNL A   1      30.686  28.286  24.610  1.00  0.00     0.005 A 
ATOM     26  C   UNL A   1      30.290  28.409  22.239  1.00  0.00     0.005 A 
ATOM     27  C   UNL A   1      31.253  27.018  24.448  1.00  0.00     0.027 A 
ATOM     28  C   UNL A   1      30.893  27.157  22.073  1.00  0.00     0.027 A 
ENDBRANCH  16  22
ENDBRANCH  14  15
ENDBRANCH   9  14
ENDBRANCH   5   8
ENDBRANCH   3   4
ENDBRANCH   2   3
ENDBRANCH   1   2
BRANCH   1  29
ATOM     29  C   UNL A   1      39.895  22.608  27.150  1.00  0.00     0.002 C 
BRANCH  29  30
ATOM     30  C   UNL A   1      38.849  23.698  26.944  1.00  0.00     0.021 C 
BRANCH  30  31
ATOM     31  C   UNL A   1      39.394  25.082  26.616  1.00  0.00     0.116 C 
BRANCH  31  32
ATOM     32  N   UNL A   1      39.341  26.016  27.735  1.00  0.00    -0.352 N 
ATOM     33  C   UNL A   1      40.347  26.392  28.609  1.00  0.00     0.251 C 
ATOM     34  H   UNL A   1      38.465  26.439  27.891  1.00  0.00     0.163 HD
ATOM     35  O   UNL A   1      40.077  27.123  29.561  1.00  0.00    -0.269 OA
BRANCH  33  36
ATOM     36  C   UNL A   1      41.748  26.013  28.310  1.00  0.00     0.039 A 
ATOM     37  C   UNL A   1      42.265  24.861  28.917  1.00  0.00     0.014 A 
ATOM     38  C   UNL A   1      42.598  26.900  27.657  1.00  0.00     0.014 A 
ATOM     39  C   UNL A   1      43.640  24.748  29.112  1.00  0.00     0.010 A 
ATOM     40  C   UNL A   1      43.947  26.843  27.931  1.00  0.00     0.010 A 
ATOM     41  C   UNL A   1      44.453  25.809  28.728  1.00  0.00    -0.014 A 
BRANCH  41  42
ATOM     42  C   UNL A   1      45.824  26.004  29.170  1.00  0.00     0.031 A 
ATOM     43  C   UNL A   1      46.946  25.500  28.360  1.00  0.00     0.074 A 
ATOM     44  C   UNL A   1      46.064  26.810  30.229  1.00  0.00     0.049 A 
ATOM     45  N   UNL A   1      48.171  25.519  28.761  1.00  0.00    -0.248 NA
ATOM     46  C   UNL A   1      46.772  24.875  27.056  1.00  0.00     0.031 C 
ATOM     47  C   UNL A   1      47.315  27.480  30.570  1.00  0.00     0.029 A 
ATOM     48  N   UNL A   1      45.270  26.980  31.366  1.00  0.00    -0.354 N 
ATOM     49  C   UNL A   1      48.961  25.196  27.687  1.00  0.00     0.074 A 
ATOM     50  C   UNL A   1      48.046  24.668  26.706  1.00  0.00     0.031 C 
ATOM     51  C   UNL A   1      47.329  27.717  31.890  1.00  0.00     0.029 A 
ATOM     52  C   UNL A   1      46.166  27.057  32.450  1.00  0.00     0.049 A 
ATOM     53  H   UNL A   1      44.287  27.035  31.401  1.00  0.00     0.167 HD
ATOM     54  C   UNL A   1      50.275  25.551  27.729  1.00  0.00     0.034 A 
ATOM     55  C   UNL A   1      46.176  26.167  33.487  1.00  0.00     0.034 A 
ATOM     56  C   UNL A   1      50.680  25.920  29.098  1.00  0.00     0.049 A 
ATOM     57  C   UNL A   1      47.515  25.464  33.682  1.00  0.00     0.074 A 
ATOM     58  C   UNL A   1      51.019  27.090  29.755  1.00  0.00     0.029 A 
ATOM     59  N   UNL A   1      50.560  24.955  30.084  1.00  0.00    -0.354 N 
ATOM     60  N   UNL A   1      48.595  25.705  32.990  1.00  0.00    -0.248 NA
ATOM     61  C   UNL A   1      47.702  24.352  34.616  1.00  0.00     0.031 C 
ATOM     62  C   UNL A   1      51.073  26.810  31.158  1.00  0.00     0.029 A 
ATOM     63  C   UNL A   1      50.798  25.467  31.344  1.00  0.00     0.049 A 
ATOM     64  H   UNL A   1      50.333  24.013  29.907  1.00  0.00     0.167 HD
ATOM     65  C   UNL A   1      49.520  24.717  33.227  1.00  0.00     0.074 A 
ATOM     66  C   UNL A   1      48.932  23.922  34.291  1.00  0.00     0.031 C 
ATOM     67  C   UNL A   1      50.661  24.569  32.484  1.00  0.00     0.034 A 
BRANCH  54  68
ATOM     68  C   UNL A   1      51.198  25.710  26.532  1.00  0.00     0.023 A 
ATOM     69  C   UNL A   1      52.467  25.092  26.613  1.00  0.00     0.012 A 
ATOM     70  C   UNL A   1      50.979  26.510  25.383  1.00  0.00     0.148 A 
ATOM     71  C   UNL A   1      53.463  25.280  25.647  1.00  0.00     0.002 A 
ATOM     72  C   UNL A   1      51.955  26.663  24.394  1.00  0.00     0.091 A 
ATOM     73  F   UNL A   1      49.851  27.207  25.249  1.00  0.00    -0.205 F 
ATOM     74  C   UNL A   1      53.206  26.063  24.532  1.00  0.00     0.022 A 
BRANCH  72  75
ATOM     75  S   UNL A   1      51.679  27.658  22.915  1.00  0.00     0.127 S 
ATOM     76  O   UNL A   1      52.975  27.568  22.243  1.00  0.00    -0.237 OA
ATOM     77  O   UNL A   1      50.597  26.936  22.246  1.00  0.00    -0.237 OA
ATOM     78  O   UNL A   1      51.316  28.993  23.377  1.00  0.00    -0.744 OA
ENDBRANCH  72  75
ENDBRANCH  54  68
BRANCH  55  79
ATOM     79  C   UNL A   1      44.838  25.563  33.756  1.00  0.00     0.023 A 
ATOM     80  C   UNL A   1      44.638  24.226  33.332  1.00  0.00     0.012 A 
ATOM     81  C   UNL A   1      43.962  26.107  34.711  1.00  0.00     0.148 A 
ATOM     82  C   UNL A   1      43.678  23.416  33.941  1.00  0.00     0.002 A 
ATOM     83  C   UNL A   1      42.997  25.296  35.303  1.00  0.00     0.091 A 
ATOM     84  F   UNL A   1      44.134  27.380  35.089  1.00  0.00    -0.205 F 
ATOM     85  C   UNL A   1      42.879  23.943  34.949  1.00  0.00     0.022 A 
BRANCH  83  86
ATOM     86  S   UNL A   1      41.962  25.905  36.641  1.00  0.00     0.127 S 
ATOM     87  O   UNL A   1      42.963  26.287  37.631  1.00  0.00    -0.237 OA
ATOM     88  O   UNL A   1      41.258  27.020  36.010  1.00  0.00    -0.237 OA
ATOM     89  O   UNL A   1      41.106  24.780  36.985  1.00  0.00    -0.744 OA
ENDBRANCH  83  86
ENDBRANCH  55  79
BRANCH  67  90
ATOM     90  C   UNL A   1      51.723  23.513  32.749  1.00  0.00     0.023 A 
ATOM     91  C   UNL A   1      51.490  22.159  32.431  1.00  0.00     0.012 A 
ATOM     92  C   UNL A   1      52.929  23.804  33.443  1.00  0.00     0.148 A 
ATOM     93  C   UNL A   1      52.428  21.160  32.718  1.00  0.00     0.002 A 
ATOM     94  C   UNL A   1      53.823  22.797  33.797  1.00  0.00     0.091 A 
ATOM     95  F   UNL A   1      53.234  25.069  33.746  1.00  0.00    -0.205 F 
ATOM     96  C   UNL A   1      53.589  21.476  33.411  1.00  0.00     0.022 A 
BRANCH  94  97
ATOM     97  S   UNL A   1      55.266  23.097  34.832  1.00  0.00     0.127 S 
ATOM     98  O   UNL A   1      56.154  23.797  33.903  1.00  0.00    -0.237 OA
ATOM     99  O   UNL A   1      54.706  23.937  35.889  1.00  0.00    -0.237 OA
ATOM    100  O   UNL A   1      55.742  21.790  35.261  1.00  0.00    -0.744 OA
ENDBRANCH  94  97
ENDBRANCH  67  90
ENDBRANCH  41  42
ENDBRANCH  33  36
ENDBRANCH  31  32
ENDBRANCH  30  31
ENDBRANCH  29  30
ENDBRANCH   1  29
TORSDOF 19
ENDMDL
