MODEL 1
REMARK VINA RESULT:     -12.1      0.000      0.000
REMARK SMILES C#Cc1cc(Cl)cc2c1O[C@H](C(F)(F)F)C(C(=O)NCCCCCCNC(=O)c1ccc(-c3c4nc(c(-c5cccc(S(=O)(=O)[O-])c5F)c5ccc([nH]5)c(-c5cccc(S(=O)(=O)[O-])c5F)c5nc(c(-c6cccc(S(=O)(=O)[O-])c6F)c6ccc3[nH]6)C=C5)C=C4)cc1)=C2
REMARK SMILES IDX 23 1 22 2 21 3 20 4 19 5 17 6 18 7 16 9 3 10 4 11 9 12 5 13
REMARK SMILES IDX 8 14 10 15 6 16 7 17 92 18 11 19 2 20 1 21 12 22 13 23 14 24
REMARK SMILES IDX 15 25 24 26 25 27 26 28 27 29 28 31 29 32 30 33 91 34 31 35
REMARK SMILES IDX 90 36 32 37 33 38 34 39 84 40 35 41 89 42 83 43 85 44 36 45
REMARK SMILES IDX 88 46 82 47 81 48 37 50 69 51 49 52 68 53 50 54 53 55 67 56
REMARK SMILES IDX 86 57 51 58 52 59 66 61 87 62 54 63 38 64 39 65 47 66 40 67
REMARK SMILES IDX 42 68 48 69 41 70 43 71 44 72 45 73 46 74 70 75 71 76 79 77
REMARK SMILES IDX 72 78 74 79 80 80 73 81 75 82 76 83 77 84 78 85 55 86 56 87
REMARK SMILES IDX 64 88 57 89 59 90 65 91 58 92 60 93 61 94 62 95 63 96
REMARK H PARENT 19 8 26 30 85 49 53 60
REMARK Flexibility Score: inf
ROOT
ATOM      1  C   UNL A   1      34.412  21.902  24.038  1.00  0.00     0.002 C 
ENDROOT
BRANCH   1   2
ATOM      2  C   UNL A   1      33.964  20.570  24.655  1.00  0.00     0.002 C 
BRANCH   2   3
ATOM      3  C   UNL A   1      32.499  20.536  25.093  1.00  0.00     0.021 C 
BRANCH   3   4
ATOM      4  C   UNL A   1      31.797  21.875  24.909  1.00  0.00     0.116 C 
BRANCH   4   5
ATOM      5  N   UNL A   1      30.964  22.206  26.053  1.00  0.00    -0.352 N 
ATOM      6  C   UNL A   1      30.491  23.331  26.641  1.00  0.00     0.251 C 
ATOM      7  O   UNL A   1      29.765  23.156  27.625  1.00  0.00    -0.270 OA
ATOM      8  H   UNL A   1      30.664  21.397  26.528  1.00  0.00     0.163 HD
BRANCH   6   9
ATOM      9  C   UNL A   1      30.794  24.720  26.184  1.00  0.00     0.067 C 
ATOM     10  C   UNL A   1      31.414  28.713  25.023  1.00  0.00     0.068 A 
ATOM     11  C   UNL A   1      30.651  29.265  23.998  1.00  0.00     0.041 A 
ATOM     12  C   UNL A   1      31.185  27.389  25.419  1.00  0.00     0.143 A 
ATOM     13  C   UNL A   1      29.663  28.493  23.386  1.00  0.00     0.043 A 
ATOM     14  C   UNL A   1      30.190  26.615  24.814  1.00  0.00     0.020 A 
ATOM     15  O   UNL A   1      31.939  26.918  26.452  1.00  0.00    -0.474 OA
ATOM     16  Cl  UNL A   1      28.711  29.178  22.126  1.00  0.00    -0.084 Cl
ATOM     17  C   UNL A   1      29.426  27.176  23.788  1.00  0.00     0.032 A 
ATOM     18  C   UNL A   1      29.940  25.261  25.297  1.00  0.00     0.025 C 
ATOM     19  C   UNL A   1      31.998  25.490  26.642  1.00  0.00     0.314 C 
BRANCH  10  20
ATOM     20  C   UNL A   1      32.433  29.491  25.666  1.00  0.00    -0.067 C 
ATOM     21  C   UNL A   1      33.343  30.092  26.171  1.00  0.00     0.010 C 
ENDBRANCH  10  20
BRANCH  19  22
ATOM     22  C   UNL A   1      33.310  24.949  26.045  1.00  0.00     0.429 C 
ATOM     23  F   UNL A   1      34.291  25.877  26.124  1.00  0.00    -0.167 F 
ATOM     24  F   UNL A   1      33.766  23.852  26.696  1.00  0.00    -0.167 F 
ATOM     25  F   UNL A   1      33.173  24.599  24.746  1.00  0.00    -0.167 F 
ENDBRANCH  19  22
ENDBRANCH   6   9
ENDBRANCH   4   5
ENDBRANCH   3   4
ENDBRANCH   2   3
ENDBRANCH   1   2
BRANCH   1  26
ATOM     26  C   UNL A   1      35.886  22.250  24.263  1.00  0.00     0.021 C 
BRANCH  26  27
ATOM     27  C   UNL A   1      36.356  22.034  25.696  1.00  0.00     0.116 C 
BRANCH  27  28
ATOM     28  N   UNL A   1      37.330  20.956  25.778  1.00  0.00    -0.352 N 
ATOM     29  C   UNL A   1      38.685  21.032  25.957  1.00  0.00     0.251 C 
ATOM     30  H   UNL A   1      36.963  20.046  25.693  1.00  0.00     0.163 HD
ATOM     31  O   UNL A   1      39.393  20.052  25.752  1.00  0.00    -0.269 OA
BRANCH  29  32
ATOM     32  C   UNL A   1      39.281  22.310  26.393  1.00  0.00     0.039 A 
ATOM     33  C   UNL A   1      40.321  22.292  27.321  1.00  0.00     0.014 A 
ATOM     34  C   UNL A   1      38.815  23.520  25.869  1.00  0.00     0.014 A 
ATOM     35  C   UNL A   1      40.925  23.491  27.695  1.00  0.00     0.010 A 
ATOM     36  C   UNL A   1      39.474  24.704  26.177  1.00  0.00     0.010 A 
ATOM     37  C   UNL A   1      40.524  24.703  27.107  1.00  0.00    -0.014 A 
BRANCH  37  38
ATOM     38  C   UNL A   1      41.180  25.982  27.471  1.00  0.00     0.031 A 
ATOM     39  C   UNL A   1      42.607  26.233  27.071  1.00  0.00     0.074 A 
ATOM     40  C   UNL A   1      40.502  26.895  28.194  1.00  0.00     0.049 A 
ATOM     41  N   UNL A   1      43.355  27.278  27.311  1.00  0.00    -0.248 NA
ATOM     42  C   UNL A   1      43.294  25.169  26.317  1.00  0.00     0.031 C 
ATOM     43  C   UNL A   1      39.131  26.737  28.684  1.00  0.00     0.029 A 
ATOM     44  N   UNL A   1      40.877  28.133  28.652  1.00  0.00    -0.354 N 
ATOM     45  C   UNL A   1      44.596  26.993  26.759  1.00  0.00     0.074 A 
ATOM     46  C   UNL A   1      44.521  25.657  26.209  1.00  0.00     0.031 C 
ATOM     47  C   UNL A   1      38.773  27.843  29.355  1.00  0.00     0.029 A 
ATOM     48  C   UNL A   1      39.899  28.772  29.380  1.00  0.00     0.049 A 
ATOM     49  H   UNL A   1      41.762  28.527  28.478  1.00  0.00     0.167 HD
ATOM     50  C   UNL A   1      45.689  27.785  26.681  1.00  0.00     0.034 A 
ATOM     51  C   UNL A   1      39.911  29.968  30.002  1.00  0.00     0.034 A 
ATOM     52  C   UNL A   1      45.744  29.126  27.198  1.00  0.00     0.049 A 
ATOM     53  C   UNL A   1      41.146  30.824  29.906  1.00  0.00     0.074 A 
ATOM     54  C   UNL A   1      46.787  30.030  27.115  1.00  0.00     0.029 A 
ATOM     55  N   UNL A   1      44.723  29.752  27.894  1.00  0.00    -0.354 N 
ATOM     56  N   UNL A   1      42.264  30.590  29.263  1.00  0.00    -0.248 NA
ATOM     57  C   UNL A   1      41.112  32.124  30.594  1.00  0.00     0.031 C 
ATOM     58  C   UNL A   1      46.413  31.188  27.798  1.00  0.00     0.029 A 
ATOM     59  C   UNL A   1      45.118  31.025  28.264  1.00  0.00     0.049 A 
ATOM     60  H   UNL A   1      43.847  29.350  28.096  1.00  0.00     0.167 HD
ATOM     61  C   UNL A   1      43.052  31.723  29.440  1.00  0.00     0.074 A 
ATOM     62  C   UNL A   1      42.272  32.654  30.228  1.00  0.00     0.031 C 
ATOM     63  C   UNL A   1      44.312  31.962  29.004  1.00  0.00     0.034 A 
BRANCH  50  64
ATOM     64  C   UNL A   1      46.903  27.260  25.962  1.00  0.00     0.023 A 
ATOM     65  C   UNL A   1      47.048  27.495  24.580  1.00  0.00     0.012 A 
ATOM     66  C   UNL A   1      47.954  26.648  26.674  1.00  0.00     0.148 A 
ATOM     67  C   UNL A   1      48.213  27.117  23.913  1.00  0.00     0.002 A 
ATOM     68  C   UNL A   1      49.132  26.322  26.014  1.00  0.00     0.091 A 
ATOM     69  F   UNL A   1      47.788  26.416  27.984  1.00  0.00    -0.205 F 
ATOM     70  C   UNL A   1      49.259  26.547  24.633  1.00  0.00     0.022 A 
BRANCH  68  71
ATOM     71  S   UNL A   1      50.575  25.671  26.863  1.00  0.00     0.127 S 
ATOM     72  O   UNL A   1      50.034  24.457  27.474  1.00  0.00    -0.237 OA
ATOM     73  O   UNL A   1      51.499  25.436  25.755  1.00  0.00    -0.237 OA
ATOM     74  O   UNL A   1      50.992  26.701  27.804  1.00  0.00    -0.744 OA
ENDBRANCH  68  71
ENDBRANCH  50  64
BRANCH  51  75
ATOM     75  C   UNL A   1      38.696  30.450  30.721  1.00  0.00     0.023 A 
ATOM     76  C   UNL A   1      38.577  30.232  32.108  1.00  0.00     0.012 A 
ATOM     77  C   UNL A   1      37.670  31.142  30.047  1.00  0.00     0.148 A 
ATOM     78  C   UNL A   1      37.446  30.663  32.803  1.00  0.00     0.002 A 
ATOM     79  C   UNL A   1      36.575  31.624  30.756  1.00  0.00     0.091 A 
ATOM     80  F   UNL A   1      37.794  31.330  28.725  1.00  0.00    -0.205 F 
ATOM     81  C   UNL A   1      36.452  31.368  32.130  1.00  0.00     0.022 A 
BRANCH  79  82
ATOM     82  S   UNL A   1      35.316  32.659  30.002  1.00  0.00     0.127 S 
ATOM     83  O   UNL A   1      34.403  32.880  31.120  1.00  0.00    -0.237 OA
ATOM     84  O   UNL A   1      36.095  33.830  29.600  1.00  0.00    -0.237 OA
ATOM     85  O   UNL A   1      34.778  31.883  28.894  1.00  0.00    -0.744 OA
ENDBRANCH  79  82
ENDBRANCH  51  75
BRANCH  63  86
ATOM     86  C   UNL A   1      44.939  33.292  29.337  1.00  0.00     0.023 A 
ATOM     87  C   UNL A   1      45.757  33.415  30.478  1.00  0.00     0.012 A 
ATOM     88  C   UNL A   1      44.816  34.385  28.455  1.00  0.00     0.148 A 
ATOM     89  C   UNL A   1      46.421  34.610  30.750  1.00  0.00     0.002 A 
ATOM     90  C   UNL A   1      45.527  35.553  28.700  1.00  0.00     0.091 A 
ATOM     91  F   UNL A   1      44.024  34.252  27.381  1.00  0.00    -0.205 F 
ATOM     92  C   UNL A   1      46.319  35.673  29.853  1.00  0.00     0.022 A 
BRANCH  90  93
ATOM     93  S   UNL A   1      45.551  36.933  27.549  1.00  0.00     0.127 S 
ATOM     94  O   UNL A   1      44.142  37.324  27.527  1.00  0.00    -0.237 OA
ATOM     95  O   UNL A   1      46.437  37.880  28.225  1.00  0.00    -0.237 OA
ATOM     96  O   UNL A   1      46.067  36.405  26.294  1.00  0.00    -0.744 OA
ENDBRANCH  90  93
ENDBRANCH  63  86
ENDBRANCH  37  38
ENDBRANCH  29  32
ENDBRANCH  27  28
ENDBRANCH  26  27
ENDBRANCH   1  26
TORSDOF 18
ENDMDL
MODEL 2
REMARK VINA RESULT:     -11.9      1.831      2.190
REMARK SMILES C#Cc1cc(Cl)cc2c1O[C@H](C(F)(F)F)C(C(=O)NCCCCCCNC(=O)c1ccc(-c3c4nc(c(-c5cccc(S(=O)(=O)[O-])c5F)c5ccc([nH]5)c(-c5cccc(S(=O)(=O)[O-])c5F)c5nc(c(-c6cccc(S(=O)(=O)[O-])c6F)c6ccc3[nH]6)C=C5)C=C4)cc1)=C2
REMARK SMILES IDX 23 1 22 2 21 3 20 4 19 5 17 6 18 7 16 9 3 10 4 11 9 12 5 13
REMARK SMILES IDX 8 14 10 15 6 16 7 17 92 18 11 19 2 20 1 21 12 22 13 23 14 24
REMARK SMILES IDX 15 25 24 26 25 27 26 28 27 29 28 31 29 32 30 33 91 34 31 35
REMARK SMILES IDX 90 36 32 37 33 38 34 39 84 40 35 41 89 42 83 43 85 44 36 45
REMARK SMILES IDX 88 46 82 47 81 48 37 50 69 51 49 52 68 53 50 54 53 55 67 56
REMARK SMILES IDX 86 57 51 58 52 59 66 61 87 62 54 63 38 64 39 65 47 66 40 67
REMARK SMILES IDX 42 68 48 69 41 70 43 71 44 72 45 73 46 74 70 75 71 76 79 77
REMARK SMILES IDX 72 78 74 79 80 80 73 81 75 82 76 83 77 84 78 85 55 86 56 87
REMARK SMILES IDX 64 88 57 89 59 90 65 91 58 92 60 93 61 94 62 95 63 96
REMARK H PARENT 19 8 26 30 85 49 53 60
REMARK Flexibility Score: inf
ROOT
ATOM      1  C   UNL A   1      34.888  22.099  24.195  1.00  0.00     0.002 C 
ENDROOT
BRANCH   1   2
ATOM      2  C   UNL A   1      34.449  20.749  24.781  1.00  0.00     0.002 C 
BRANCH   2   3
ATOM      3  C   UNL A   1      33.257  20.831  25.734  1.00  0.00     0.021 C 
BRANCH   3   4
ATOM      4  C   UNL A   1      33.269  22.093  26.588  1.00  0.00     0.116 C 
BRANCH   4   5
ATOM      5  N   UNL A   1      31.924  22.511  26.946  1.00  0.00    -0.352 N 
ATOM      6  C   UNL A   1      31.145  23.604  26.762  1.00  0.00     0.251 C 
ATOM      7  O   UNL A   1      30.004  23.533  27.230  1.00  0.00    -0.270 OA
ATOM      8  H   UNL A   1      31.452  21.814  27.458  1.00  0.00     0.163 HD
BRANCH   6   9
ATOM      9  C   UNL A   1      31.578  24.847  26.057  1.00  0.00     0.067 C 
ATOM     10  C   UNL A   1      32.997  28.372  24.258  1.00  0.00     0.068 A 
ATOM     11  C   UNL A   1      32.762  29.605  24.862  1.00  0.00     0.041 A 
ATOM     12  C   UNL A   1      32.541  27.200  24.876  1.00  0.00     0.143 A 
ATOM     13  C   UNL A   1      32.082  29.653  26.079  1.00  0.00     0.043 A 
ATOM     14  C   UNL A   1      31.867  27.245  26.100  1.00  0.00     0.020 A 
ATOM     15  O   UNL A   1      32.835  26.024  24.254  1.00  0.00    -0.474 OA
ATOM     16  Cl  UNL A   1      31.800  31.174  26.832  1.00  0.00    -0.084 Cl
ATOM     17  C   UNL A   1      31.635  28.484  26.702  1.00  0.00     0.032 A 
ATOM     18  C   UNL A   1      31.461  25.999  26.742  1.00  0.00     0.025 C 
ATOM     19  C   UNL A   1      32.087  24.855  24.645  1.00  0.00     0.314 C 
BRANCH  10  20
ATOM     20  C   UNL A   1      33.698  28.301  23.009  1.00  0.00    -0.067 C 
ATOM     21  C   UNL A   1      34.210  28.231  21.924  1.00  0.00     0.010 C 
ENDBRANCH  10  20
BRANCH  19  22
ATOM     22  C   UNL A   1      30.976  24.590  23.614  1.00  0.00     0.429 C 
ATOM     23  F   UNL A   1      31.212  25.273  22.469  1.00  0.00    -0.167 F 
ATOM     24  F   UNL A   1      30.885  23.283  23.269  1.00  0.00    -0.167 F 
ATOM     25  F   UNL A   1      29.756  24.955  24.071  1.00  0.00    -0.167 F 
ENDBRANCH  19  22
ENDBRANCH   6   9
ENDBRANCH   4   5
ENDBRANCH   3   4
ENDBRANCH   2   3
ENDBRANCH   1   2
BRANCH   1  26
ATOM     26  C   UNL A   1      36.389  22.385  24.299  1.00  0.00     0.021 C 
BRANCH  26  27
ATOM     27  C   UNL A   1      36.911  22.418  25.730  1.00  0.00     0.116 C 
BRANCH  27  28
ATOM     28  N   UNL A   1      37.915  21.389  25.952  1.00  0.00    -0.352 N 
ATOM     29  C   UNL A   1      39.237  21.532  26.279  1.00  0.00     0.251 C 
ATOM     30  H   UNL A   1      37.601  20.460  25.852  1.00  0.00     0.163 HD
ATOM     31  O   UNL A   1      40.006  20.581  26.183  1.00  0.00    -0.269 OA
BRANCH  29  32
ATOM     32  C   UNL A   1      39.723  22.846  26.742  1.00  0.00     0.039 A 
ATOM     33  C   UNL A   1      40.645  22.899  27.788  1.00  0.00     0.014 A 
ATOM     34  C   UNL A   1      39.274  24.020  26.129  1.00  0.00     0.014 A 
ATOM     35  C   UNL A   1      41.149  24.133  28.192  1.00  0.00     0.010 A 
ATOM     36  C   UNL A   1      39.842  25.240  26.475  1.00  0.00     0.010 A 
ATOM     37  C   UNL A   1      40.772  25.310  27.523  1.00  0.00    -0.014 A 
BRANCH  37  38
ATOM     38  C   UNL A   1      41.326  26.626  27.922  1.00  0.00     0.031 A 
ATOM     39  C   UNL A   1      42.763  26.957  27.624  1.00  0.00     0.074 A 
ATOM     40  C   UNL A   1      40.547  27.503  28.585  1.00  0.00     0.049 A 
ATOM     41  N   UNL A   1      43.430  28.043  27.908  1.00  0.00    -0.248 NA
ATOM     42  C   UNL A   1      43.562  25.929  26.932  1.00  0.00     0.031 C 
ATOM     43  C   UNL A   1      39.156  27.270  28.976  1.00  0.00     0.029 A 
ATOM     44  N   UNL A   1      40.817  28.763  29.058  1.00  0.00    -0.354 N 
ATOM     45  C   UNL A   1      44.723  27.827  27.450  1.00  0.00     0.074 A 
ATOM     46  C   UNL A   1      44.764  26.487  26.909  1.00  0.00     0.031 C 
ATOM     47  C   UNL A   1      38.688  28.357  29.609  1.00  0.00     0.029 A 
ATOM     48  C   UNL A   1      39.754  29.348  29.707  1.00  0.00     0.049 A 
ATOM     49  H   UNL A   1      41.689  29.206  28.945  1.00  0.00     0.167 HD
ATOM     50  C   UNL A   1      45.772  28.680  27.445  1.00  0.00     0.034 A 
ATOM     51  C   UNL A   1      39.653  30.547  30.317  1.00  0.00     0.034 A 
ATOM     52  C   UNL A   1      45.714  30.024  27.951  1.00  0.00     0.049 A 
ATOM     53  C   UNL A   1      40.842  31.471  30.303  1.00  0.00     0.074 A 
ATOM     54  C   UNL A   1      46.707  30.986  27.936  1.00  0.00     0.029 A 
ATOM     55  N   UNL A   1      44.610  30.594  28.566  1.00  0.00    -0.354 N 
ATOM     56  N   UNL A   1      42.015  31.298  29.745  1.00  0.00    -0.248 NA
ATOM     57  C   UNL A   1      40.685  32.770  30.974  1.00  0.00     0.031 C 
ATOM     58  C   UNL A   1      46.219  32.124  28.580  1.00  0.00     0.029 A 
ATOM     59  C   UNL A   1      44.905  31.890  28.952  1.00  0.00     0.049 A 
ATOM     60  H   UNL A   1      43.746  30.144  28.708  1.00  0.00     0.167 HD
ATOM     61  C   UNL A   1      42.723  32.474  29.968  1.00  0.00     0.074 A 
ATOM     62  C   UNL A   1      41.836  33.364  30.689  1.00  0.00     0.031 C 
ATOM     63  C   UNL A   1      43.996  32.783  29.623  1.00  0.00     0.034 A 
BRANCH  50  64
ATOM     64  C   UNL A   1      47.063  28.221  26.821  1.00  0.00     0.023 A 
ATOM     65  C   UNL A   1      48.076  27.679  27.637  1.00  0.00     0.012 A 
ATOM     66  C   UNL A   1      47.225  28.212  25.421  1.00  0.00     0.148 A 
ATOM     67  C   UNL A   1      49.234  27.145  27.074  1.00  0.00     0.002 A 
ATOM     68  C   UNL A   1      48.357  27.631  24.864  1.00  0.00     0.091 A 
ATOM     69  F   UNL A   1      46.258  28.750  24.663  1.00  0.00    -0.205 F 
ATOM     70  C   UNL A   1      49.366  27.107  25.689  1.00  0.00     0.022 A 
BRANCH  68  71
ATOM     71  S   UNL A   1      48.584  27.445  23.092  1.00  0.00     0.127 S 
ATOM     72  O   UNL A   1      49.929  27.990  22.908  1.00  0.00    -0.237 OA
ATOM     73  O   UNL A   1      48.486  25.996  22.924  1.00  0.00    -0.237 OA
ATOM     74  O   UNL A   1      47.517  28.211  22.463  1.00  0.00    -0.744 OA
ENDBRANCH  68  71
ENDBRANCH  50  64
BRANCH  51  75
ATOM     75  C   UNL A   1      38.364  30.962  30.941  1.00  0.00     0.023 A 
ATOM     76  C   UNL A   1      38.126  30.677  32.301  1.00  0.00     0.012 A 
ATOM     77  C   UNL A   1      37.382  31.657  30.206  1.00  0.00     0.148 A 
ATOM     78  C   UNL A   1      36.924  31.045  32.907  1.00  0.00     0.002 A 
ATOM     79  C   UNL A   1      36.214  32.076  30.832  1.00  0.00     0.091 A 
ATOM     80  F   UNL A   1      37.620  31.909  28.912  1.00  0.00    -0.205 F 
ATOM     81  C   UNL A   1      35.974  31.753  32.177  1.00  0.00     0.022 A 
BRANCH  79  82
ATOM     82  S   UNL A   1      34.996  33.111  30.012  1.00  0.00     0.127 S 
ATOM     83  O   UNL A   1      35.833  34.170  29.453  1.00  0.00    -0.237 OA
ATOM     84  O   UNL A   1      34.432  32.186  29.029  1.00  0.00    -0.237 OA
ATOM     85  O   UNL A   1      34.066  33.527  31.052  1.00  0.00    -0.744 OA
ENDBRANCH  79  82
ENDBRANCH  51  75
BRANCH  63  86
ATOM     86  C   UNL A   1      44.521  34.149  29.988  1.00  0.00     0.023 A 
ATOM     87  C   UNL A   1      45.260  34.320  31.175  1.00  0.00     0.012 A 
ATOM     88  C   UNL A   1      44.385  35.232  29.097  1.00  0.00     0.148 A 
ATOM     89  C   UNL A   1      45.834  35.553  31.482  1.00  0.00     0.002 A 
ATOM     90  C   UNL A   1      45.009  36.441  29.380  1.00  0.00     0.091 A 
ATOM     91  F   UNL A   1      43.668  35.052  27.977  1.00  0.00    -0.205 F 
ATOM     92  C   UNL A   1      45.721  36.608  30.578  1.00  0.00     0.022 A 
BRANCH  90  93
ATOM     93  S   UNL A   1      45.019  37.820  28.228  1.00  0.00     0.127 S 
ATOM     94  O   UNL A   1      43.600  38.171  28.174  1.00  0.00    -0.237 OA
ATOM     95  O   UNL A   1      45.862  38.793  28.921  1.00  0.00    -0.237 OA
ATOM     96  O   UNL A   1      45.577  37.306  26.984  1.00  0.00    -0.744 OA
ENDBRANCH  90  93
ENDBRANCH  63  86
ENDBRANCH  37  38
ENDBRANCH  29  32
ENDBRANCH  27  28
ENDBRANCH  26  27
ENDBRANCH   1  26
TORSDOF 18
ENDMDL
MODEL 3
REMARK VINA RESULT:     -11.8      5.789      9.163
REMARK SMILES C#Cc1cc(Cl)cc2c1O[C@H](C(F)(F)F)C(C(=O)NCCCCCCNC(=O)c1ccc(-c3c4nc(c(-c5cccc(S(=O)(=O)[O-])c5F)c5ccc([nH]5)c(-c5cccc(S(=O)(=O)[O-])c5F)c5nc(c(-c6cccc(S(=O)(=O)[O-])c6F)c6ccc3[nH]6)C=C5)C=C4)cc1)=C2
REMARK SMILES IDX 23 1 22 2 21 3 20 4 19 5 17 6 18 7 16 9 3 10 4 11 9 12 5 13
REMARK SMILES IDX 8 14 10 15 6 16 7 17 92 18 11 19 2 20 1 21 12 22 13 23 14 24
REMARK SMILES IDX 15 25 24 26 25 27 26 28 27 29 28 31 29 32 30 33 91 34 31 35
REMARK SMILES IDX 90 36 32 37 33 38 34 39 84 40 35 41 89 42 83 43 85 44 36 45
REMARK SMILES IDX 88 46 82 47 81 48 37 50 69 51 49 52 68 53 50 54 53 55 67 56
REMARK SMILES IDX 86 57 51 58 52 59 66 61 87 62 54 63 38 64 39 65 47 66 40 67
REMARK SMILES IDX 42 68 48 69 41 70 43 71 44 72 45 73 46 74 70 75 71 76 79 77
REMARK SMILES IDX 72 78 74 79 80 80 73 81 75 82 76 83 77 84 78 85 55 86 56 87
REMARK SMILES IDX 64 88 57 89 59 90 65 91 58 92 60 93 61 94 62 95 63 96
REMARK H PARENT 19 8 26 30 85 49 53 60
REMARK Flexibility Score: inf
ROOT
ATOM      1  C   UNL A   1      31.629  30.767  26.110  1.00  0.00     0.002 C 
ENDROOT
BRANCH   1   2
ATOM      2  C   UNL A   1      32.515  29.744  26.835  1.00  0.00     0.002 C 
BRANCH   2   3
ATOM      3  C   UNL A   1      31.748  28.596  27.493  1.00  0.00     0.021 C 
BRANCH   3   4
ATOM      4  C   UNL A   1      31.859  27.290  26.717  1.00  0.00     0.116 C 
BRANCH   4   5
ATOM      5  N   UNL A   1      32.374  27.506  25.375  1.00  0.00    -0.352 N 
ATOM      6  C   UNL A   1      33.019  26.777  24.433  1.00  0.00     0.251 C 
ATOM      7  O   UNL A   1      33.260  27.365  23.373  1.00  0.00    -0.270 OA
ATOM      8  H   UNL A   1      32.210  28.428  25.068  1.00  0.00     0.163 HD
BRANCH   6   9
ATOM      9  C   UNL A   1      33.444  25.356  24.602  1.00  0.00     0.067 C 
ATOM     10  C   UNL A   1      34.688  21.409  25.344  1.00  0.00     0.068 A 
ATOM     11  C   UNL A   1      36.039  21.130  25.534  1.00  0.00     0.041 A 
ATOM     12  C   UNL A   1      34.279  22.731  25.120  1.00  0.00     0.143 A 
ATOM     13  C   UNL A   1      36.965  22.172  25.506  1.00  0.00     0.043 A 
ATOM     14  C   UNL A   1      35.204  23.779  25.101  1.00  0.00     0.020 A 
ATOM     15  O   UNL A   1      32.941  22.944  24.979  1.00  0.00    -0.474 OA
ATOM     16  Cl  UNL A   1      38.633  21.830  25.752  1.00  0.00    -0.084 Cl
ATOM     17  C   UNL A   1      36.558  23.493  25.294  1.00  0.00     0.032 A 
ATOM     18  C   UNL A   1      34.733  25.149  24.926  1.00  0.00     0.025 C 
ATOM     19  C   UNL A   1      32.520  24.192  24.393  1.00  0.00     0.314 C 
BRANCH  10  20
ATOM     20  C   UNL A   1      33.720  20.351  25.372  1.00  0.00    -0.067 C 
ATOM     21  C   UNL A   1      32.937  19.441  25.319  1.00  0.00     0.010 C 
ENDBRANCH  10  20
BRANCH  19  22
ATOM     22  C   UNL A   1      32.174  23.970  22.910  1.00  0.00     0.429 C 
ATOM     23  F   UNL A   1      30.886  24.307  22.663  1.00  0.00    -0.167 F 
ATOM     24  F   UNL A   1      32.933  24.723  22.078  1.00  0.00    -0.167 F 
ATOM     25  F   UNL A   1      32.345  22.683  22.532  1.00  0.00    -0.167 F 
ENDBRANCH  19  22
ENDBRANCH   6   9
ENDBRANCH   4   5
ENDBRANCH   3   4
ENDBRANCH   2   3
ENDBRANCH   1   2
BRANCH   1  26
ATOM     26  C   UNL A   1      31.431  32.088  26.859  1.00  0.00     0.021 C 
BRANCH  26  27
ATOM     27  C   UNL A   1      32.730  32.723  27.338  1.00  0.00     0.116 C 
BRANCH  27  28
ATOM     28  N   UNL A   1      32.549  34.134  27.645  1.00  0.00    -0.352 N 
ATOM     29  C   UNL A   1      33.097  34.871  28.661  1.00  0.00     0.251 C 
ATOM     30  H   UNL A   1      31.950  34.626  27.038  1.00  0.00     0.163 HD
ATOM     31  O   UNL A   1      32.650  35.981  28.931  1.00  0.00    -0.269 OA
BRANCH  29  32
ATOM     32  C   UNL A   1      34.225  34.309  29.428  1.00  0.00     0.039 A 
ATOM     33  C   UNL A   1      33.964  33.611  30.607  1.00  0.00     0.014 A 
ATOM     34  C   UNL A   1      35.537  34.466  28.968  1.00  0.00     0.014 A 
ATOM     35  C   UNL A   1      35.021  33.031  31.306  1.00  0.00     0.010 A 
ATOM     36  C   UNL A   1      36.578  33.815  29.620  1.00  0.00     0.010 A 
ATOM     37  C   UNL A   1      36.332  33.106  30.805  1.00  0.00    -0.014 A 
BRANCH  37  38
ATOM     38  C   UNL A   1      37.461  32.466  31.522  1.00  0.00     0.031 A 
ATOM     39  C   UNL A   1      38.191  31.311  30.893  1.00  0.00     0.074 A 
ATOM     40  C   UNL A   1      37.800  32.901  32.752  1.00  0.00     0.049 A 
ATOM     41  N   UNL A   1      39.187  30.614  31.370  1.00  0.00    -0.248 NA
ATOM     42  C   UNL A   1      37.734  30.868  29.563  1.00  0.00     0.031 C 
ATOM     43  C   UNL A   1      37.128  33.977  33.483  1.00  0.00     0.029 A 
ATOM     44  N   UNL A   1      38.787  32.483  33.610  1.00  0.00    -0.354 N 
ATOM     45  C   UNL A   1      39.465  29.645  30.415  1.00  0.00     0.074 A 
ATOM     46  C   UNL A   1      38.503  29.810  29.348  1.00  0.00     0.031 C 
ATOM     47  C   UNL A   1      37.735  34.149  34.668  1.00  0.00     0.029 A 
ATOM     48  C   UNL A   1      38.810  33.171  34.801  1.00  0.00     0.049 A 
ATOM     49  H   UNL A   1      39.417  31.759  33.394  1.00  0.00     0.167 HD
ATOM     50  C   UNL A   1      40.455  28.725  30.408  1.00  0.00     0.034 A 
ATOM     51  C   UNL A   1      39.605  33.026  35.880  1.00  0.00     0.034 A 
ATOM     52  C   UNL A   1      41.431  28.590  31.455  1.00  0.00     0.049 A 
ATOM     53  C   UNL A   1      40.693  31.986  35.846  1.00  0.00     0.074 A 
ATOM     54  C   UNL A   1      42.510  27.726  31.510  1.00  0.00     0.029 A 
ATOM     55  N   UNL A   1      41.446  29.329  32.627  1.00  0.00    -0.354 N 
ATOM     56  N   UNL A   1      41.024  31.168  34.876  1.00  0.00    -0.248 NA
ATOM     57  C   UNL A   1      41.541  31.867  37.042  1.00  0.00     0.031 C 
ATOM     58  C   UNL A   1      43.153  27.913  32.735  1.00  0.00     0.029 A 
ATOM     59  C   UNL A   1      42.506  28.928  33.421  1.00  0.00     0.049 A 
ATOM     60  H   UNL A   1      40.799  30.034  32.860  1.00  0.00     0.167 HD
ATOM     61  C   UNL A   1      42.133  30.464  35.329  1.00  0.00     0.074 A 
ATOM     62  C   UNL A   1      42.436  30.970  36.652  1.00  0.00     0.031 C 
ATOM     63  C   UNL A   1      42.827  29.476  34.714  1.00  0.00     0.034 A 
BRANCH  50  64
ATOM     64  C   UNL A   1      40.585  27.823  29.209  1.00  0.00     0.023 A 
ATOM     65  C   UNL A   1      39.683  26.752  29.044  1.00  0.00     0.012 A 
ATOM     66  C   UNL A   1      41.513  28.109  28.188  1.00  0.00     0.148 A 
ATOM     67  C   UNL A   1      39.710  25.971  27.889  1.00  0.00     0.002 A 
ATOM     68  C   UNL A   1      41.499  27.360  27.018  1.00  0.00     0.091 A 
ATOM     69  F   UNL A   1      42.375  29.120  28.373  1.00  0.00    -0.205 F 
ATOM     70  C   UNL A   1      40.606  26.286  26.872  1.00  0.00     0.022 A 
BRANCH  68  71
ATOM     71  S   UNL A   1      42.546  27.739  25.608  1.00  0.00     0.127 S 
ATOM     72  O   UNL A   1      42.315  26.577  24.749  1.00  0.00    -0.237 OA
ATOM     73  O   UNL A   1      41.957  28.985  25.118  1.00  0.00    -0.237 OA
ATOM     74  O   UNL A   1      43.900  27.861  26.128  1.00  0.00    -0.744 OA
ENDBRANCH  68  71
ENDBRANCH  50  64
BRANCH  51  75
ATOM     75  C   UNL A   1      39.438  33.925  37.059  1.00  0.00     0.023 A 
ATOM     76  C   UNL A   1      39.844  35.272  36.969  1.00  0.00     0.012 A 
ATOM     77  C   UNL A   1      38.861  33.463  38.258  1.00  0.00     0.148 A 
ATOM     78  C   UNL A   1      39.709  36.131  38.061  1.00  0.00     0.002 A 
ATOM     79  C   UNL A   1      38.671  34.340  39.320  1.00  0.00     0.091 A 
ATOM     80  F   UNL A   1      38.491  32.177  38.330  1.00  0.00    -0.205 F 
ATOM     81  C   UNL A   1      39.113  35.669  39.231  1.00  0.00     0.022 A 
BRANCH  79  82
ATOM     82  S   UNL A   1      37.789  33.872  40.814  1.00  0.00     0.127 S 
ATOM     83  O   UNL A   1      37.666  35.154  41.502  1.00  0.00    -0.237 OA
ATOM     84  O   UNL A   1      36.540  33.342  40.268  1.00  0.00    -0.237 OA
ATOM     85  O   UNL A   1      38.627  32.881  41.473  1.00  0.00    -0.744 OA
ENDBRANCH  79  82
ENDBRANCH  51  75
BRANCH  63  86
ATOM     86  C   UNL A   1      44.007  28.879  35.438  1.00  0.00     0.023 A 
ATOM     87  C   UNL A   1      45.276  29.482  35.326  1.00  0.00     0.012 A 
ATOM     88  C   UNL A   1      43.833  27.796  36.324  1.00  0.00     0.148 A 
ATOM     89  C   UNL A   1      46.357  29.000  36.063  1.00  0.00     0.002 A 
ATOM     90  C   UNL A   1      44.900  27.360  37.099  1.00  0.00     0.091 A 
ATOM     91  F   UNL A   1      42.621  27.228  36.408  1.00  0.00    -0.205 F 
ATOM     92  C   UNL A   1      46.166  27.951  36.959  1.00  0.00     0.022 A 
BRANCH  90  93
ATOM     93  S   UNL A   1      44.727  26.093  38.361  1.00  0.00     0.127 S 
ATOM     94  O   UNL A   1      46.125  25.800  38.681  1.00  0.00    -0.237 OA
ATOM     95  O   UNL A   1      43.998  26.804  39.411  1.00  0.00    -0.237 OA
ATOM     96  O   UNL A   1      43.992  25.000  37.741  1.00  0.00    -0.744 OA
ENDBRANCH  90  93
ENDBRANCH  63  86
ENDBRANCH  37  38
ENDBRANCH  29  32
ENDBRANCH  27  28
ENDBRANCH  26  27
ENDBRANCH   1  26
TORSDOF 18
ENDMDL
