MODEL 1
REMARK VINA RESULT:     -11.3      0.000      0.000
REMARK SMILES O=C(NCCCCCCNC(=O)[C@@H](Cc1ccccc1)NC(=O)c1ccccc1[N+](=O)[O-])c1ccc(-c2c3nc(c(-c4cccc(S(=O)(=O)[O-])c4F)c4ccc([nH]4)c(-c4cccc(S(=O)(=O)[O-])c4F)c4nc(c(-c5cccc(S(=O)(=O)[O-])c5F)c5ccc2[nH]5)C=C4)C=C3)cc1
REMARK SMILES IDX 6 1 5 2 4 3 3 4 1 5 2 6 33 8 34 9 95 10 35 11 94 12 36 13
REMARK SMILES IDX 37 14 38 15 88 16 39 17 93 18 87 19 89 20 40 21 92 22 86 23
REMARK SMILES IDX 85 24 41 26 73 27 53 28 72 29 54 30 57 31 71 32 90 33 55 34
REMARK SMILES IDX 56 35 70 37 91 38 58 39 42 40 43 41 51 42 44 43 46 44 52 45
REMARK SMILES IDX 45 46 47 47 48 48 49 49 50 50 74 51 75 52 83 53 76 54 78 55
REMARK SMILES IDX 84 56 77 57 79 58 80 59 81 60 82 61 59 62 60 63 68 64 61 65
REMARK SMILES IDX 63 66 69 67 62 68 64 69 65 70 66 71 67 72 7 73 8 74 9 75
REMARK SMILES IDX 10 76 11 77 12 79 13 80 14 81 15 82 16 83 20 84 17 85 19 86
REMARK SMILES IDX 18 87 21 88 22 89 23 91 24 92 25 93 29 94 26 95 28 96 27 97
REMARK SMILES IDX 30 98 31 99 32 100
REMARK H PARENT 3 7 89 25 57 36 10 78 21 90
REMARK Flexibility Score: inf
ROOT
ATOM      1  C   UNL A   1      31.020  31.502  26.451  1.00  0.00     0.002 C 
ENDROOT
BRANCH   1   2
ATOM      2  C   UNL A   1      31.547  32.938  26.432  1.00  0.00     0.021 C 
BRANCH   2   3
ATOM      3  C   UNL A   1      32.630  33.226  27.465  1.00  0.00     0.116 C 
BRANCH   3   4
ATOM      4  N   UNL A   1      32.554  34.592  27.961  1.00  0.00    -0.352 N 
ATOM      5  O   UNL A   1      32.854  36.264  29.440  1.00  0.00    -0.269 OA
ATOM      6  C   UNL A   1      33.223  35.179  29.010  1.00  0.00     0.251 C 
ATOM      7  H   UNL A   1      31.935  35.181  27.474  1.00  0.00     0.163 HD
BRANCH   6   8
ATOM      8  C   UNL A   1      34.379  34.481  29.617  1.00  0.00     0.039 A 
ATOM      9  C   UNL A   1      35.655  34.640  29.074  1.00  0.00     0.014 A 
ATOM     10  C   UNL A   1      34.193  33.677  30.744  1.00  0.00     0.014 A 
ATOM     11  C   UNL A   1      36.708  33.877  29.555  1.00  0.00     0.010 A 
ATOM     12  C   UNL A   1      35.281  32.993  31.297  1.00  0.00     0.010 A 
ATOM     13  C   UNL A   1      36.545  33.068  30.692  1.00  0.00    -0.014 A 
BRANCH  13  14
ATOM     14  C   UNL A   1      37.748  32.414  31.269  1.00  0.00     0.031 A 
ATOM     15  C   UNL A   1      38.233  32.718  32.659  1.00  0.00     0.074 A 
ATOM     16  C   UNL A   1      38.383  31.493  30.515  1.00  0.00     0.049 A 
ATOM     17  N   UNL A   1      39.215  32.161  33.321  1.00  0.00    -0.248 NA
ATOM     18  C   UNL A   1      37.541  33.782  33.401  1.00  0.00     0.031 C 
ATOM     19  C   UNL A   1      38.041  31.162  29.128  1.00  0.00     0.029 A 
ATOM     20  N   UNL A   1      39.431  30.658  30.803  1.00  0.00    -0.354 N 
ATOM     21  C   UNL A   1      39.277  32.818  34.543  1.00  0.00     0.074 A 
ATOM     22  C   UNL A   1      38.242  33.830  34.527  1.00  0.00     0.031 C 
ATOM     23  C   UNL A   1      38.830  30.168  28.702  1.00  0.00     0.029 A 
ATOM     24  C   UNL A   1      39.775  29.832  29.757  1.00  0.00     0.049 A 
ATOM     25  H   UNL A   1      39.893  30.649  31.672  1.00  0.00     0.167 HD
ATOM     26  C   UNL A   1      40.109  32.585  35.589  1.00  0.00     0.034 A 
ATOM     27  C   UNL A   1      40.756  28.916  29.649  1.00  0.00     0.034 A 
ATOM     28  C   UNL A   1      41.124  31.563  35.602  1.00  0.00     0.049 A 
ATOM     29  C   UNL A   1      41.638  28.662  30.835  1.00  0.00     0.074 A 
ATOM     30  C   UNL A   1      41.991  31.224  36.627  1.00  0.00     0.029 A 
ATOM     31  N   UNL A   1      41.416  30.716  34.542  1.00  0.00    -0.354 N 
ATOM     32  N   UNL A   1      41.596  29.211  32.024  1.00  0.00    -0.248 NA
ATOM     33  C   UNL A   1      42.679  27.640  30.677  1.00  0.00     0.031 C 
ATOM     34  C   UNL A   1      42.818  30.187  36.182  1.00  0.00     0.029 A 
ATOM     35  C   UNL A   1      42.449  29.860  34.887  1.00  0.00     0.049 A 
ATOM     36  H   UNL A   1      40.955  30.723  33.672  1.00  0.00     0.167 HD
ATOM     37  C   UNL A   1      42.597  28.593  32.761  1.00  0.00     0.074 A 
ATOM     38  C   UNL A   1      43.195  27.594  31.897  1.00  0.00     0.031 C 
ATOM     39  C   UNL A   1      43.007  28.847  34.028  1.00  0.00     0.034 A 
BRANCH  26  40
ATOM     40  C   UNL A   1      39.932  33.417  36.833  1.00  0.00     0.023 A 
ATOM     41  C   UNL A   1      40.499  34.707  36.890  1.00  0.00     0.012 A 
ATOM     42  C   UNL A   1      39.131  32.968  37.904  1.00  0.00     0.148 A 
ATOM     43  C   UNL A   1      40.291  35.528  37.999  1.00  0.00     0.002 A 
ATOM     44  C   UNL A   1      38.896  33.808  38.988  1.00  0.00     0.091 A 
ATOM     45  F   UNL A   1      38.613  31.734  37.839  1.00  0.00    -0.205 F 
ATOM     46  C   UNL A   1      39.481  35.084  39.040  1.00  0.00     0.022 A 
BRANCH  44  47
ATOM     47  S   UNL A   1      37.808  33.364  40.347  1.00  0.00     0.127 S 
ATOM     48  O   UNL A   1      38.548  32.268  40.972  1.00  0.00    -0.237 OA
ATOM     49  O   UNL A   1      37.774  34.600  41.129  1.00  0.00    -0.237 OA
ATOM     50  O   UNL A   1      36.538  32.989  39.742  1.00  0.00    -0.744 OA
ENDBRANCH  44  47
ENDBRANCH  26  40
BRANCH  27  51
ATOM     51  C   UNL A   1      40.933  28.167  28.374  1.00  0.00     0.023 A 
ATOM     52  C   UNL A   1      41.619  28.761  27.298  1.00  0.00     0.012 A 
ATOM     53  C   UNL A   1      40.450  26.851  28.237  1.00  0.00     0.148 A 
ATOM     54  C   UNL A   1      41.788  28.071  26.097  1.00  0.00     0.002 A 
ATOM     55  C   UNL A   1      40.681  26.146  27.063  1.00  0.00     0.091 A 
ATOM     56  F   UNL A   1      39.783  26.307  29.265  1.00  0.00    -0.205 F 
ATOM     57  C   UNL A   1      41.332  26.760  25.983  1.00  0.00     0.022 A 
BRANCH  55  58
ATOM     58  S   UNL A   1      40.263  24.407  26.904  1.00  0.00     0.127 S 
ATOM     59  O   UNL A   1      38.855  24.470  26.525  1.00  0.00    -0.237 OA
ATOM     60  O   UNL A   1      41.170  23.969  25.841  1.00  0.00    -0.237 OA
ATOM     61  O   UNL A   1      40.550  23.821  28.208  1.00  0.00    -0.744 OA
ENDBRANCH  55  58
ENDBRANCH  27  51
BRANCH  39  62
ATOM     62  C   UNL A   1      44.146  28.016  34.556  1.00  0.00     0.023 A 
ATOM     63  C   UNL A   1      45.474  28.452  34.370  1.00  0.00     0.012 A 
ATOM     64  C   UNL A   1      43.905  26.819  35.256  1.00  0.00     0.148 A 
ATOM     65  C   UNL A   1      46.545  27.686  34.829  1.00  0.00     0.002 A 
ATOM     66  C   UNL A   1      44.975  26.086  35.756  1.00  0.00     0.091 A 
ATOM     67  F   UNL A   1      42.637  26.408  35.406  1.00  0.00    -0.205 F 
ATOM     68  C   UNL A   1      46.295  26.509  35.530  1.00  0.00     0.022 A 
BRANCH  66  69
ATOM     69  S   UNL A   1      44.745  24.606  36.747  1.00  0.00     0.127 S 
ATOM     70  O   UNL A   1      44.106  23.703  35.791  1.00  0.00    -0.237 OA
ATOM     71  O   UNL A   1      46.121  24.249  37.098  1.00  0.00    -0.237 OA
ATOM     72  O   UNL A   1      43.920  25.008  37.879  1.00  0.00    -0.744 OA
ENDBRANCH  66  69
ENDBRANCH  39  62
ENDBRANCH  13  14
ENDBRANCH   6   8
ENDBRANCH   3   4
ENDBRANCH   2   3
ENDBRANCH   1   2
BRANCH   1  73
ATOM     73  C   UNL A   1      32.007  30.436  25.963  1.00  0.00     0.002 C 
BRANCH  73  74
ATOM     74  C   UNL A   1      32.754  29.697  27.075  1.00  0.00     0.021 C 
BRANCH  74  75
ATOM     75  C   UNL A   1      33.915  28.832  26.592  1.00  0.00     0.116 C 
BRANCH  75  76
ATOM     76  N   UNL A   1      33.996  28.846  25.148  1.00  0.00    -0.354 N 
ATOM     77  C   UNL A   1      33.821  27.853  24.239  1.00  0.00     0.242 C 
ATOM     78  H   UNL A   1      34.214  29.725  24.759  1.00  0.00     0.163 HD
ATOM     79  O   UNL A   1      34.107  28.116  23.064  1.00  0.00    -0.273 OA
BRANCH  77  80
ATOM     80  C   UNL A   1      33.293  26.443  24.602  1.00  0.00     0.176 C 
BRANCH  80  81
ATOM     81  C   UNL A   1      34.168  25.642  25.599  1.00  0.00     0.070 C 
BRANCH  81  82
ATOM     82  C   UNL A   1      34.827  24.326  25.243  1.00  0.00    -0.045 A 
ATOM     83  C   UNL A   1      35.113  24.053  23.893  1.00  0.00     0.004 A 
ATOM     84  C   UNL A   1      35.072  23.314  26.180  1.00  0.00     0.004 A 
ATOM     85  C   UNL A   1      35.721  22.854  23.512  1.00  0.00     0.000 A 
ATOM     86  C   UNL A   1      35.709  22.126  25.805  1.00  0.00     0.000 A 
ATOM     87  C   UNL A   1      36.045  21.902  24.472  1.00  0.00     0.000 A 
ENDBRANCH  81  82
ENDBRANCH  80  81
BRANCH  80  88
ATOM     88  N   UNL A   1      31.850  26.444  24.855  1.00  0.00    -0.340 N 
ATOM     89  C   UNL A   1      30.923  25.439  24.797  1.00  0.00     0.258 C 
ATOM     90  H   UNL A   1      31.483  27.321  25.112  1.00  0.00     0.164 HD
ATOM     91  O   UNL A   1      29.727  25.712  24.844  1.00  0.00    -0.269 OA
BRANCH  89  92
ATOM     92  C   UNL A   1      31.314  24.031  24.588  1.00  0.00     0.117 A 
ATOM     93  C   UNL A   1      31.557  23.644  23.261  1.00  0.00     0.021 A 
ATOM     94  C   UNL A   1      31.412  23.066  25.592  1.00  0.00     0.282 A 
ATOM     95  C   UNL A   1      31.961  22.339  22.962  1.00  0.00     0.001 A 
ATOM     96  C   UNL A   1      31.853  21.762  25.304  1.00  0.00     0.086 A 
ATOM     97  C   UNL A   1      32.132  21.407  23.985  1.00  0.00     0.007 A 
BRANCH  94  98
ATOM     98  N   UNL A   1      31.015  23.349  26.959  1.00  0.00     0.063 N 
ATOM     99  O   UNL A   1      31.904  23.740  27.728  1.00  0.00    -0.258 OA
ATOM    100  O   UNL A   1      29.833  23.166  27.271  1.00  0.00    -0.258 OA
ENDBRANCH  94  98
ENDBRANCH  89  92
ENDBRANCH  80  88
ENDBRANCH  77  80
ENDBRANCH  75  76
ENDBRANCH  74  75
ENDBRANCH  73  74
ENDBRANCH   1  73
TORSDOF 21
ENDMDL
MODEL 2
REMARK VINA RESULT:     -11.3      1.533      7.577
REMARK SMILES O=C(NCCCCCCNC(=O)[C@@H](Cc1ccccc1)NC(=O)c1ccccc1[N+](=O)[O-])c1ccc(-c2c3nc(c(-c4cccc(S(=O)(=O)[O-])c4F)c4ccc([nH]4)c(-c4cccc(S(=O)(=O)[O-])c4F)c4nc(c(-c5cccc(S(=O)(=O)[O-])c5F)c5ccc2[nH]5)C=C4)C=C3)cc1
REMARK SMILES IDX 6 1 5 2 4 3 3 4 1 5 2 6 33 8 34 9 95 10 35 11 94 12 36 13
REMARK SMILES IDX 37 14 38 15 88 16 39 17 93 18 87 19 89 20 40 21 92 22 86 23
REMARK SMILES IDX 85 24 41 26 73 27 53 28 72 29 54 30 57 31 71 32 90 33 55 34
REMARK SMILES IDX 56 35 70 37 91 38 58 39 42 40 43 41 51 42 44 43 46 44 52 45
REMARK SMILES IDX 45 46 47 47 48 48 49 49 50 50 74 51 75 52 83 53 76 54 78 55
REMARK SMILES IDX 84 56 77 57 79 58 80 59 81 60 82 61 59 62 60 63 68 64 61 65
REMARK SMILES IDX 63 66 69 67 62 68 64 69 65 70 66 71 67 72 7 73 8 74 9 75
REMARK SMILES IDX 10 76 11 77 12 79 13 80 14 81 15 82 16 83 20 84 17 85 19 86
REMARK SMILES IDX 18 87 21 88 22 89 23 91 24 92 25 93 29 94 26 95 28 96 27 97
REMARK SMILES IDX 30 98 31 99 32 100
REMARK H PARENT 3 7 89 25 57 36 10 78 21 90
REMARK Flexibility Score: inf
ROOT
ATOM      1  C   UNL A   1      31.435  31.195  26.200  1.00  0.00     0.002 C 
ENDROOT
BRANCH   1   2
ATOM      2  C   UNL A   1      31.414  32.645  26.687  1.00  0.00     0.021 C 
BRANCH   2   3
ATOM      3  C   UNL A   1      32.727  33.126  27.295  1.00  0.00     0.116 C 
BRANCH   3   4
ATOM      4  N   UNL A   1      32.628  34.495  27.777  1.00  0.00    -0.352 N 
ATOM      5  O   UNL A   1      32.853  36.176  29.259  1.00  0.00    -0.269 OA
ATOM      6  C   UNL A   1      33.241  35.087  28.858  1.00  0.00     0.251 C 
ATOM      7  H   UNL A   1      32.039  35.084  27.254  1.00  0.00     0.163 HD
BRANCH   6   8
ATOM      8  C   UNL A   1      34.359  34.390  29.531  1.00  0.00     0.039 A 
ATOM      9  C   UNL A   1      34.130  33.668  30.703  1.00  0.00     0.014 A 
ATOM     10  C   UNL A   1      35.643  34.441  28.981  1.00  0.00     0.014 A 
ATOM     11  C   UNL A   1      35.200  33.137  31.407  1.00  0.00     0.010 A 
ATOM     12  C   UNL A   1      36.705  33.808  29.636  1.00  0.00     0.010 A 
ATOM     13  C   UNL A   1      36.498  33.171  30.868  1.00  0.00    -0.014 A 
BRANCH  13  14
ATOM     14  C   UNL A   1      37.573  32.430  31.577  1.00  0.00     0.031 A 
ATOM     15  C   UNL A   1      38.306  31.283  30.940  1.00  0.00     0.074 A 
ATOM     16  C   UNL A   1      37.910  32.846  32.815  1.00  0.00     0.049 A 
ATOM     17  N   UNL A   1      39.322  30.602  31.408  1.00  0.00    -0.248 NA
ATOM     18  C   UNL A   1      37.843  30.831  29.619  1.00  0.00     0.031 C 
ATOM     19  C   UNL A   1      37.225  33.909  33.559  1.00  0.00     0.029 A 
ATOM     20  N   UNL A   1      38.912  32.447  33.661  1.00  0.00    -0.354 N 
ATOM     21  C   UNL A   1      39.606  29.631  30.457  1.00  0.00     0.074 A 
ATOM     22  C   UNL A   1      38.643  29.798  29.388  1.00  0.00     0.031 C 
ATOM     23  C   UNL A   1      37.851  34.107  34.725  1.00  0.00     0.029 A 
ATOM     24  C   UNL A   1      38.940  33.149  34.844  1.00  0.00     0.049 A 
ATOM     25  H   UNL A   1      39.550  31.730  33.443  1.00  0.00     0.167 HD
ATOM     26  C   UNL A   1      40.591  28.699  30.466  1.00  0.00     0.034 A 
ATOM     27  C   UNL A   1      39.743  33.024  35.918  1.00  0.00     0.034 A 
ATOM     28  C   UNL A   1      41.557  28.553  31.526  1.00  0.00     0.049 A 
ATOM     29  C   UNL A   1      40.842  32.005  35.882  1.00  0.00     0.074 A 
ATOM     30  C   UNL A   1      42.615  27.664  31.609  1.00  0.00     0.029 A 
ATOM     31  N   UNL A   1      41.582  29.309  32.689  1.00  0.00    -0.354 N 
ATOM     32  N   UNL A   1      41.167  31.180  34.917  1.00  0.00    -0.248 NA
ATOM     33  C   UNL A   1      41.703  31.919  37.067  1.00  0.00     0.031 C 
ATOM     34  C   UNL A   1      43.268  27.869  32.829  1.00  0.00     0.029 A 
ATOM     35  C   UNL A   1      42.634  28.905  33.496  1.00  0.00     0.049 A 
ATOM     36  H   UNL A   1      40.946  30.027  32.909  1.00  0.00     0.167 HD
ATOM     37  C   UNL A   1      42.279  30.485  35.373  1.00  0.00     0.074 A 
ATOM     38  C   UNL A   1      42.599  31.022  36.681  1.00  0.00     0.031 C 
ATOM     39  C   UNL A   1      42.960  29.475  34.778  1.00  0.00     0.034 A 
BRANCH  26  40
ATOM     40  C   UNL A   1      40.713  27.786  29.272  1.00  0.00     0.023 A 
ATOM     41  C   UNL A   1      39.907  26.632  29.198  1.00  0.00     0.012 A 
ATOM     42  C   UNL A   1      41.550  28.114  28.185  1.00  0.00     0.148 A 
ATOM     43  C   UNL A   1      39.946  25.807  28.073  1.00  0.00     0.002 A 
ATOM     44  C   UNL A   1      41.553  27.309  27.051  1.00  0.00     0.091 A 
ATOM     45  F   UNL A   1      42.320  29.207  28.280  1.00  0.00    -0.205 F 
ATOM     46  C   UNL A   1      40.759  26.152  26.997  1.00  0.00     0.022 A 
BRANCH  44  47
ATOM     47  S   UNL A   1      42.505  27.703  25.578  1.00  0.00     0.127 S 
ATOM     48  O   UNL A   1      43.869  27.725  26.106  1.00  0.00    -0.237 OA
ATOM     49  O   UNL A   1      42.208  26.565  24.707  1.00  0.00    -0.237 OA
ATOM     50  O   UNL A   1      42.003  28.983  25.103  1.00  0.00    -0.744 OA
ENDBRANCH  44  47
ENDBRANCH  26  40
BRANCH  27  51
ATOM     51  C   UNL A   1      39.539  33.906  37.101  1.00  0.00     0.023 A 
ATOM     52  C   UNL A   1      39.918  35.261  37.043  1.00  0.00     0.012 A 
ATOM     53  C   UNL A   1      38.939  33.412  38.276  1.00  0.00     0.148 A 
ATOM     54  C   UNL A   1      39.736  36.096  38.146  1.00  0.00     0.002 A 
ATOM     55  C   UNL A   1      38.698  34.265  39.344  1.00  0.00     0.091 A 
ATOM     56  F   UNL A   1      38.600  32.115  38.321  1.00  0.00    -0.205 F 
ATOM     57  C   UNL A   1      39.115  35.604  39.291  1.00  0.00     0.022 A 
BRANCH  55  58
ATOM     58  S   UNL A   1      37.763  33.741  40.784  1.00  0.00     0.127 S 
ATOM     59  O   UNL A   1      37.539  35.008  41.474  1.00  0.00    -0.237 OA
ATOM     60  O   UNL A   1      36.569  33.150  40.176  1.00  0.00    -0.237 OA
ATOM     61  O   UNL A   1      38.618  32.780  41.470  1.00  0.00    -0.744 OA
ENDBRANCH  55  58
ENDBRANCH  27  51
BRANCH  39  62
ATOM     62  C   UNL A   1      44.127  28.899  35.535  1.00  0.00     0.023 A 
ATOM     63  C   UNL A   1      45.418  29.428  35.337  1.00  0.00     0.012 A 
ATOM     64  C   UNL A   1      43.944  27.852  36.458  1.00  0.00     0.148 A 
ATOM     65  C   UNL A   1      46.516  28.894  36.009  1.00  0.00     0.002 A 
ATOM     66  C   UNL A   1      45.035  27.358  37.164  1.00  0.00     0.091 A 
ATOM     67  F   UNL A   1      42.713  27.346  36.619  1.00  0.00    -0.205 F 
ATOM     68  C   UNL A   1      46.323  27.866  36.929  1.00  0.00     0.022 A 
BRANCH  66  69
ATOM     69  S   UNL A   1      44.868  26.097  38.431  1.00  0.00     0.127 S 
ATOM     70  O   UNL A   1      44.066  26.790  39.438  1.00  0.00    -0.237 OA
ATOM     71  O   UNL A   1      44.163  25.030  37.718  1.00  0.00    -0.237 OA
ATOM     72  O   UNL A   1      46.225  25.755  38.836  1.00  0.00    -0.744 OA
ENDBRANCH  66  69
ENDBRANCH  39  62
ENDBRANCH  13  14
ENDBRANCH   6   8
ENDBRANCH   3   4
ENDBRANCH   2   3
ENDBRANCH   1   2
BRANCH   1  73
ATOM     73  C   UNL A   1      32.793  30.490  26.301  1.00  0.00     0.002 C 
BRANCH  73  74
ATOM     74  C   UNL A   1      32.904  29.470  27.436  1.00  0.00     0.021 C 
BRANCH  74  75
ATOM     75  C   UNL A   1      32.456  28.059  27.065  1.00  0.00     0.116 C 
BRANCH  75  76
ATOM     76  N   UNL A   1      32.312  27.930  25.631  1.00  0.00    -0.354 N 
ATOM     77  C   UNL A   1      32.635  26.909  24.795  1.00  0.00     0.242 C 
ATOM     78  H   UNL A   1      31.912  28.713  25.188  1.00  0.00     0.163 HD
ATOM     79  O   UNL A   1      32.544  27.135  23.581  1.00  0.00    -0.273 OA
BRANCH  77  80
ATOM     80  C   UNL A   1      33.099  25.515  25.283  1.00  0.00     0.176 C 
BRANCH  80  81
ATOM     81  C   UNL A   1      34.614  25.389  25.589  1.00  0.00     0.070 C 
BRANCH  81  82
ATOM     82  C   UNL A   1      35.457  24.231  25.101  1.00  0.00    -0.045 A 
ATOM     83  C   UNL A   1      36.347  23.613  25.997  1.00  0.00     0.004 A 
ATOM     84  C   UNL A   1      35.476  23.807  23.765  1.00  0.00     0.004 A 
ATOM     85  C   UNL A   1      37.147  22.539  25.597  1.00  0.00     0.000 A 
ATOM     86  C   UNL A   1      36.254  22.713  23.370  1.00  0.00     0.000 A 
ATOM     87  C   UNL A   1      37.079  22.071  24.289  1.00  0.00     0.000 A 
ENDBRANCH  81  82
ENDBRANCH  80  81
BRANCH  80  88
ATOM     88  N   UNL A   1      32.184  24.947  26.275  1.00  0.00    -0.340 N 
ATOM     89  C   UNL A   1      31.792  23.656  26.504  1.00  0.00     0.258 C 
ATOM     90  H   UNL A   1      31.780  25.608  26.882  1.00  0.00     0.164 HD
ATOM     91  O   UNL A   1      30.847  23.432  27.257  1.00  0.00    -0.269 OA
BRANCH  89  92
ATOM     92  C   UNL A   1      32.414  22.516  25.802  1.00  0.00     0.117 A 
ATOM     93  C   UNL A   1      33.226  21.676  26.579  1.00  0.00     0.021 A 
ATOM     94  C   UNL A   1      32.290  22.248  24.437  1.00  0.00     0.282 A 
ATOM     95  C   UNL A   1      33.836  20.552  26.013  1.00  0.00     0.001 A 
ATOM     96  C   UNL A   1      32.871  21.100  23.870  1.00  0.00     0.086 A 
ATOM     97  C   UNL A   1      33.639  20.252  24.666  1.00  0.00     0.007 A 
BRANCH  94  98
ATOM     98  N   UNL A   1      31.608  23.163  23.542  1.00  0.00     0.063 N 
ATOM     99  O   UNL A   1      32.229  23.519  22.530  1.00  0.00    -0.258 OA
ATOM    100  O   UNL A   1      30.472  23.540  23.850  1.00  0.00    -0.258 OA
ENDBRANCH  94  98
ENDBRANCH  89  92
ENDBRANCH  80  88
ENDBRANCH  77  80
ENDBRANCH  75  76
ENDBRANCH  74  75
ENDBRANCH  73  74
ENDBRANCH   1  73
TORSDOF 21
ENDMDL
MODEL 3
REMARK VINA RESULT:     -11.2      1.283      2.379
REMARK SMILES O=C(NCCCCCCNC(=O)[C@@H](Cc1ccccc1)NC(=O)c1ccccc1[N+](=O)[O-])c1ccc(-c2c3nc(c(-c4cccc(S(=O)(=O)[O-])c4F)c4ccc([nH]4)c(-c4cccc(S(=O)(=O)[O-])c4F)c4nc(c(-c5cccc(S(=O)(=O)[O-])c5F)c5ccc2[nH]5)C=C4)C=C3)cc1
REMARK SMILES IDX 6 1 5 2 4 3 3 4 1 5 2 6 33 8 34 9 95 10 35 11 94 12 36 13
REMARK SMILES IDX 37 14 38 15 88 16 39 17 93 18 87 19 89 20 40 21 92 22 86 23
REMARK SMILES IDX 85 24 41 26 73 27 53 28 72 29 54 30 57 31 71 32 90 33 55 34
REMARK SMILES IDX 56 35 70 37 91 38 58 39 42 40 43 41 51 42 44 43 46 44 52 45
REMARK SMILES IDX 45 46 47 47 48 48 49 49 50 50 74 51 75 52 83 53 76 54 78 55
REMARK SMILES IDX 84 56 77 57 79 58 80 59 81 60 82 61 59 62 60 63 68 64 61 65
REMARK SMILES IDX 63 66 69 67 62 68 64 69 65 70 66 71 67 72 7 73 8 74 9 75
REMARK SMILES IDX 10 76 11 77 12 79 13 80 14 81 15 82 16 83 20 84 17 85 19 86
REMARK SMILES IDX 18 87 21 88 22 89 23 91 24 92 25 93 29 94 26 95 28 96 27 97
REMARK SMILES IDX 30 98 31 99 32 100
REMARK H PARENT 3 7 89 25 57 36 10 78 21 90
REMARK Flexibility Score: inf
ROOT
ATOM      1  C   UNL A   1      31.489  30.515  26.193  1.00  0.00     0.002 C 
ENDROOT
BRANCH   1   2
ATOM      2  C   UNL A   1      31.484  32.012  26.504  1.00  0.00     0.021 C 
BRANCH   2   3
ATOM      3  C   UNL A   1      32.764  32.526  27.153  1.00  0.00     0.116 C 
BRANCH   3   4
ATOM      4  N   UNL A   1      32.588  33.857  27.713  1.00  0.00    -0.352 N 
ATOM      5  O   UNL A   1      32.800  35.486  29.254  1.00  0.00    -0.269 OA
ATOM      6  C   UNL A   1      33.246  34.458  28.762  1.00  0.00     0.251 C 
ATOM      7  H   UNL A   1      31.900  34.409  27.277  1.00  0.00     0.163 HD
BRANCH   6   8
ATOM      8  C   UNL A   1      34.483  33.843  29.292  1.00  0.00     0.039 A 
ATOM      9  C   UNL A   1      34.405  32.779  30.192  1.00  0.00     0.014 A 
ATOM     10  C   UNL A   1      35.730  34.317  28.876  1.00  0.00     0.014 A 
ATOM     11  C   UNL A   1      35.559  32.299  30.795  1.00  0.00     0.010 A 
ATOM     12  C   UNL A   1      36.898  33.755  29.402  1.00  0.00     0.010 A 
ATOM     13  C   UNL A   1      36.822  32.758  30.385  1.00  0.00    -0.014 A 
BRANCH  13  14
ATOM     14  C   UNL A   1      38.027  32.082  30.935  1.00  0.00     0.031 A 
ATOM     15  C   UNL A   1      38.592  32.431  32.283  1.00  0.00     0.074 A 
ATOM     16  C   UNL A   1      38.586  31.101  30.198  1.00  0.00     0.049 A 
ATOM     17  N   UNL A   1      39.584  31.866  32.923  1.00  0.00    -0.248 NA
ATOM     18  C   UNL A   1      37.981  33.558  33.004  1.00  0.00     0.031 C 
ATOM     19  C   UNL A   1      38.161  30.719  28.847  1.00  0.00     0.029 A 
ATOM     20  N   UNL A   1      39.614  30.237  30.475  1.00  0.00    -0.354 N 
ATOM     21  C   UNL A   1      39.734  32.577  34.107  1.00  0.00     0.074 A 
ATOM     22  C   UNL A   1      38.740  33.630  34.091  1.00  0.00     0.031 C 
ATOM     23  C   UNL A   1      38.888  29.674  28.433  1.00  0.00     0.029 A 
ATOM     24  C   UNL A   1      39.871  29.349  29.456  1.00  0.00     0.049 A 
ATOM     25  H   UNL A   1      40.118  30.250  31.321  1.00  0.00     0.167 HD
ATOM     26  C   UNL A   1      40.608  32.360  35.121  1.00  0.00     0.034 A 
ATOM     27  C   UNL A   1      40.809  28.389  29.346  1.00  0.00     0.034 A 
ATOM     28  C   UNL A   1      41.581  31.297  35.136  1.00  0.00     0.049 A 
ATOM     29  C   UNL A   1      41.738  28.154  30.500  1.00  0.00     0.074 A 
ATOM     30  C   UNL A   1      42.484  30.972  36.134  1.00  0.00     0.029 A 
ATOM     31  N   UNL A   1      41.785  30.389  34.107  1.00  0.00    -0.354 N 
ATOM     32  N   UNL A   1      41.779  28.761  31.660  1.00  0.00    -0.248 NA
ATOM     33  C   UNL A   1      42.729  27.083  30.342  1.00  0.00     0.031 C 
ATOM     34  C   UNL A   1      43.246  29.881  35.700  1.00  0.00     0.029 A 
ATOM     35  C   UNL A   1      42.800  29.508  34.443  1.00  0.00     0.049 A 
ATOM     36  H   UNL A   1      41.282  30.374  33.261  1.00  0.00     0.167 HD
ATOM     37  C   UNL A   1      42.790  28.137  32.378  1.00  0.00     0.074 A 
ATOM     38  C   UNL A   1      43.303  27.074  31.536  1.00  0.00     0.031 C 
ATOM     39  C   UNL A   1      43.273  28.433  33.609  1.00  0.00     0.034 A 
BRANCH  26  40
ATOM     40  C   UNL A   1      40.526  33.257  36.330  1.00  0.00     0.023 A 
ATOM     41  C   UNL A   1      41.179  34.506  36.310  1.00  0.00     0.012 A 
ATOM     42  C   UNL A   1      39.733  32.911  37.444  1.00  0.00     0.148 A 
ATOM     43  C   UNL A   1      41.062  35.388  37.385  1.00  0.00     0.002 A 
ATOM     44  C   UNL A   1      39.589  33.813  38.494  1.00  0.00     0.091 A 
ATOM     45  F   UNL A   1      39.132  31.714  37.452  1.00  0.00    -0.205 F 
ATOM     46  C   UNL A   1      40.259  35.046  38.469  1.00  0.00     0.022 A 
BRANCH  44  47
ATOM     47  S   UNL A   1      38.518  33.505  39.903  1.00  0.00     0.127 S 
ATOM     48  O   UNL A   1      38.522  34.808  40.566  1.00  0.00    -0.237 OA
ATOM     49  O   UNL A   1      37.254  33.153  39.257  1.00  0.00    -0.237 OA
ATOM     50  O   UNL A   1      39.141  32.425  40.655  1.00  0.00    -0.744 OA
ENDBRANCH  44  47
ENDBRANCH  26  40
BRANCH  27  51
ATOM     51  C   UNL A   1      40.891  27.573  28.103  1.00  0.00     0.023 A 
ATOM     52  C   UNL A   1      41.510  28.101  26.954  1.00  0.00     0.012 A 
ATOM     53  C   UNL A   1      40.385  26.259  28.066  1.00  0.00     0.148 A 
ATOM     54  C   UNL A   1      41.591  27.349  25.782  1.00  0.00     0.002 A 
ATOM     55  C   UNL A   1      40.529  25.492  26.918  1.00  0.00     0.091 A 
ATOM     56  F   UNL A   1      39.782  25.778  29.163  1.00  0.00    -0.205 F 
ATOM     57  C   UNL A   1      41.113  26.040  25.767  1.00  0.00     0.022 A 
BRANCH  55  58
ATOM     58  S   UNL A   1      40.082  23.753  26.877  1.00  0.00     0.127 S 
ATOM     59  O   UNL A   1      40.482  23.310  28.210  1.00  0.00    -0.237 OA
ATOM     60  O   UNL A   1      38.636  23.813  26.655  1.00  0.00    -0.237 OA
ATOM     61  O   UNL A   1      40.831  23.188  25.762  1.00  0.00    -0.744 OA
ENDBRANCH  55  58
ENDBRANCH  27  51
BRANCH  39  62
ATOM     62  C   UNL A   1      44.404  27.581  34.122  1.00  0.00     0.023 A 
ATOM     63  C   UNL A   1      45.737  27.955  33.854  1.00  0.00     0.012 A 
ATOM     64  C   UNL A   1      44.151  26.427  34.887  1.00  0.00     0.148 A 
ATOM     65  C   UNL A   1      46.798  27.167  34.298  1.00  0.00     0.002 A 
ATOM     66  C   UNL A   1      45.215  25.675  35.371  1.00  0.00     0.091 A 
ATOM     67  F   UNL A   1      42.877  26.075  35.115  1.00  0.00    -0.205 F 
ATOM     68  C   UNL A   1      46.538  26.034  35.063  1.00  0.00     0.022 A 
BRANCH  66  69
ATOM     69  S   UNL A   1      44.977  24.251  36.439  1.00  0.00     0.127 S 
ATOM     70  O   UNL A   1      44.125  23.397  35.613  1.00  0.00    -0.237 OA
ATOM     71  O   UNL A   1      46.345  23.761  36.615  1.00  0.00    -0.237 OA
ATOM     72  O   UNL A   1      44.361  24.764  37.655  1.00  0.00    -0.744 OA
ENDBRANCH  66  69
ENDBRANCH  39  62
ENDBRANCH  13  14
ENDBRANCH   6   8
ENDBRANCH   3   4
ENDBRANCH   2   3
ENDBRANCH   1   2
BRANCH   1  73
ATOM     73  C   UNL A   1      32.729  29.750  26.671  1.00  0.00     0.002 C 
BRANCH  73  74
ATOM     74  C   UNL A   1      32.444  28.362  27.248  1.00  0.00     0.021 C 
BRANCH  74  75
ATOM     75  C   UNL A   1      31.727  27.413  26.292  1.00  0.00     0.116 C 
BRANCH  75  76
ATOM     76  N   UNL A   1      31.399  26.171  26.957  1.00  0.00    -0.354 N 
ATOM     77  C   UNL A   1      31.781  24.895  26.692  1.00  0.00     0.242 C 
ATOM     78  H   UNL A   1      30.799  26.268  27.732  1.00  0.00     0.163 HD
ATOM     79  O   UNL A   1      31.217  24.000  27.336  1.00  0.00    -0.273 OA
BRANCH  77  80
ATOM     80  C   UNL A   1      32.861  24.522  25.647  1.00  0.00     0.176 C 
BRANCH  80  81
ATOM     81  C   UNL A   1      34.247  24.146  26.229  1.00  0.00     0.070 C 
BRANCH  81  82
ATOM     82  C   UNL A   1      35.210  23.216  25.523  1.00  0.00    -0.045 A 
ATOM     83  C   UNL A   1      35.427  21.932  26.053  1.00  0.00     0.004 A 
ATOM     84  C   UNL A   1      35.983  23.607  24.421  1.00  0.00     0.004 A 
ATOM     85  C   UNL A   1      36.305  21.035  25.439  1.00  0.00     0.000 A 
ATOM     86  C   UNL A   1      36.840  22.700  23.787  1.00  0.00     0.000 A 
ATOM     87  C   UNL A   1      36.991  21.410  24.288  1.00  0.00     0.000 A 
ENDBRANCH  81  82
ENDBRANCH  80  81
BRANCH  80  88
ATOM     88  N   UNL A   1      32.333  23.644  24.600  1.00  0.00    -0.340 N 
ATOM     89  C   UNL A   1      31.496  23.897  23.548  1.00  0.00     0.258 C 
ATOM     90  H   UNL A   1      32.632  22.708  24.665  1.00  0.00     0.164 HD
ATOM     91  O   UNL A   1      31.014  22.961  22.915  1.00  0.00    -0.269 OA
BRANCH  89  92
ATOM     92  C   UNL A   1      31.077  25.269  23.198  1.00  0.00     0.117 A 
ATOM     93  C   UNL A   1      29.839  25.689  23.708  1.00  0.00     0.021 A 
ATOM     94  C   UNL A   1      31.791  26.143  22.375  1.00  0.00     0.282 A 
ATOM     95  C   UNL A   1      29.368  26.982  23.458  1.00  0.00     0.001 A 
ATOM     96  C   UNL A   1      31.340  27.455  22.150  1.00  0.00     0.086 A 
ATOM     97  C   UNL A   1      30.129  27.871  22.701  1.00  0.00     0.007 A 
BRANCH  94  98
ATOM     98  N   UNL A   1      32.991  25.720  21.678  1.00  0.00     0.063 N 
ATOM     99  O   UNL A   1      32.939  25.703  20.440  1.00  0.00    -0.258 OA
ATOM    100  O   UNL A   1      33.971  25.389  22.354  1.00  0.00    -0.258 OA
ENDBRANCH  94  98
ENDBRANCH  89  92
ENDBRANCH  80  88
ENDBRANCH  77  80
ENDBRANCH  75  76
ENDBRANCH  74  75
ENDBRANCH  73  74
ENDBRANCH   1  73
TORSDOF 21
ENDMDL
