MODEL 1
REMARK VINA RESULT:     -10.4      0.000      0.000
REMARK SMILES Cc1c(CC(=O)N2CCC(C(=O)NCCCCCCNC(=O)c3ccc(-c4c5nc(c(-c6cccc(S(=O)(=O)[O-])c6F)c6ccc([nH]6)c(-c6cccc(S(=O)(=O)[O-])c6F)c6nc(c(-c7cccc(S(=O)(=O)[O-])c7F)c7ccc4[nH]7)C=C6)C=C5)cc3)(c3ccccc3)CC2)c(=O)oc2c(C)c(O)ccc12
REMARK SMILES IDX 16 1 15 2 14 3 13 4 11 5 12 6 10 8 5 9 6 10 7 11 8 12 93 13
REMARK SMILES IDX 9 14 92 15 4 16 3 17 1 18 2 19 104 20 94 21 97 22 103 23
REMARK SMILES IDX 95 24 96 25 98 26 102 27 99 28 100 29 101 30 86 32 87 33
REMARK SMILES IDX 91 34 88 35 90 36 89 37 17 38 18 39 19 40 20 41 21 42 22 44
REMARK SMILES IDX 23 45 24 46 85 47 25 48 84 49 26 50 27 51 28 52 78 53 29 54
REMARK SMILES IDX 83 55 77 56 79 57 30 58 82 59 76 60 75 61 31 63 63 64 43 65
REMARK SMILES IDX 62 66 44 67 47 68 61 69 80 70 45 71 46 72 60 74 81 75 48 76
REMARK SMILES IDX 32 77 33 78 41 79 34 80 36 81 42 82 35 83 37 84 38 85 39 86
REMARK SMILES IDX 40 87 64 88 65 89 73 90 66 91 68 92 74 93 67 94 69 95 70 96
REMARK SMILES IDX 71 97 72 98 49 99 50 100 58 101 51 102 53 103 59 104 52 105
REMARK SMILES IDX 54 106 55 107 56 108 57 109
REMARK H PARENT 13 7 101 31 20 43 79 62 47 73
REMARK Flexibility Score: inf
ROOT
ATOM      1  C   UNL A   1      52.156  20.159  35.683  1.00  0.00     0.002 C 
ENDROOT
BRANCH   1   2
ATOM      2  C   UNL A   1      50.922  20.006  36.583  1.00  0.00     0.021 C 
BRANCH   2   3
ATOM      3  C   UNL A   1      49.912  21.150  36.487  1.00  0.00     0.116 C 
BRANCH   3   4
ATOM      4  N   UNL A   1      49.715  21.798  37.776  1.00  0.00    -0.355 N 
ATOM      5  C   UNL A   1      48.723  21.752  38.715  1.00  0.00     0.230 C 
ATOM      6  O   UNL A   1      49.025  22.324  39.765  1.00  0.00    -0.274 OA
ATOM      7  H   UNL A   1      50.455  22.397  38.025  1.00  0.00     0.163 HD
BRANCH   5   8
ATOM      8  C   UNL A   1      47.381  20.948  38.505  1.00  0.00     0.077 C 
ATOM      9  C   UNL A   1      45.954  17.718  41.030  1.00  0.00     0.227 C 
ATOM     10  O   UNL A   1      46.569  16.654  40.877  1.00  0.00    -0.275 OA
ATOM     11  N   UNL A   1      46.189  18.785  40.162  1.00  0.00    -0.342 N 
ATOM     12  C   UNL A   1      46.725  18.451  38.843  1.00  0.00     0.121 C 
ATOM     13  C   UNL A   1      45.664  20.128  40.314  1.00  0.00     0.121 C 
ATOM     14  C   UNL A   1      47.718  19.456  38.271  1.00  0.00     0.043 C 
ATOM     15  C   UNL A   1      46.593  21.224  39.814  1.00  0.00     0.043 C 
BRANCH   9  16
ATOM     16  C   UNL A   1      44.832  17.740  42.093  1.00  0.00     0.143 C 
BRANCH  16  17
ATOM     17  C   UNL A   1      44.133  16.464  42.482  1.00  0.00     0.051 A 
ATOM     18  C   UNL A   1      42.732  16.399  40.407  1.00  0.00     0.046 C 
ATOM     19  C   UNL A   1      43.216  15.827  41.718  1.00  0.00    -0.029 A 
ATOM     20  C   UNL A   1      42.728  14.500  42.152  1.00  0.00     0.021 A 
ATOM     21  C   UNL A   1      44.556  15.928  43.806  1.00  0.00     0.340 A 
ATOM     22  C   UNL A   1      43.135  13.993  43.391  1.00  0.00     0.145 A 
ATOM     23  C   UNL A   1      41.913  13.673  41.369  1.00  0.00     0.016 A 
ATOM     24  O   UNL A   1      45.426  16.468  44.482  1.00  0.00    -0.246 OA
ATOM     25  O   UNL A   1      43.974  14.751  44.229  1.00  0.00    -0.422 OA
ATOM     26  C   UNL A   1      42.776  12.716  43.864  1.00  0.00     0.034 A 
ATOM     27  C   UNL A   1      41.564  12.385  41.795  1.00  0.00     0.047 A 
ATOM     28  C   UNL A   1      43.226  12.257  45.221  1.00  0.00     0.052 C 
ATOM     29  C   UNL A   1      41.998  11.914  43.031  1.00  0.00     0.122 A 
BRANCH  29  30
ATOM     30  O   UNL A   1      41.667  10.651  43.431  1.00  0.00    -0.508 OA
ATOM     31  H   UNL A   1      41.842  10.376  44.310  1.00  0.00     0.293 HD
ENDBRANCH  29  30
ENDBRANCH  16  17
ENDBRANCH   9  16
BRANCH   8  32
ATOM     32  C   UNL A   1      46.506  21.410  37.285  1.00  0.00    -0.032 A 
ATOM     33  C   UNL A   1      45.920  22.681  37.180  1.00  0.00     0.005 A 
ATOM     34  C   UNL A   1      46.305  20.552  36.181  1.00  0.00     0.005 A 
ATOM     35  C   UNL A   1      45.117  23.041  36.086  1.00  0.00     0.000 A 
ATOM     36  C   UNL A   1      45.519  20.910  35.081  1.00  0.00     0.000 A 
ATOM     37  C   UNL A   1      44.911  22.153  35.040  1.00  0.00     0.000 A 
ENDBRANCH   8  32
ENDBRANCH   5   8
ENDBRANCH   3   4
ENDBRANCH   2   3
ENDBRANCH   1   2
BRANCH   1  38
ATOM     38  C   UNL A   1      52.029  19.558  34.280  1.00  0.00     0.002 C 
BRANCH  38  39
ATOM     39  C   UNL A   1      53.240  19.767  33.368  1.00  0.00     0.021 C 
BRANCH  39  40
ATOM     40  C   UNL A   1      53.264  21.102  32.632  1.00  0.00     0.116 C 
BRANCH  40  41
ATOM     41  N   UNL A   1      54.165  22.056  33.259  1.00  0.00    -0.352 N 
ATOM     42  C   UNL A   1      53.933  23.375  33.562  1.00  0.00     0.251 C 
ATOM     43  H   UNL A   1      55.056  21.712  33.496  1.00  0.00     0.163 HD
ATOM     44  O   UNL A   1      54.851  24.104  33.926  1.00  0.00    -0.269 OA
BRANCH  42  45
ATOM     45  C   UNL A   1      52.564  23.912  33.426  1.00  0.00     0.039 A 
ATOM     46  C   UNL A   1      51.476  23.057  33.619  1.00  0.00     0.014 A 
ATOM     47  C   UNL A   1      52.365  25.264  33.127  1.00  0.00     0.014 A 
ATOM     48  C   UNL A   1      50.180  23.572  33.560  1.00  0.00     0.010 A 
ATOM     49  C   UNL A   1      51.074  25.783  33.114  1.00  0.00     0.010 A 
ATOM     50  C   UNL A   1      49.972  24.940  33.323  1.00  0.00    -0.014 A 
BRANCH  50  51
ATOM     51  C   UNL A   1      48.603  25.505  33.260  1.00  0.00     0.031 A 
ATOM     52  C   UNL A   1      47.981  25.801  31.926  1.00  0.00     0.074 A 
ATOM     53  C   UNL A   1      47.944  25.797  34.398  1.00  0.00     0.049 A 
ATOM     54  N   UNL A   1      46.812  26.323  31.663  1.00  0.00    -0.248 NA
ATOM     55  C   UNL A   1      48.781  25.483  30.730  1.00  0.00     0.031 C 
ATOM     56  C   UNL A   1      48.464  25.597  35.752  1.00  0.00     0.029 A 
ATOM     57  N   UNL A   1      46.700  26.339  34.595  1.00  0.00    -0.354 N 
ATOM     58  C   UNL A   1      46.742  26.412  30.279  1.00  0.00     0.074 A 
ATOM     59  C   UNL A   1      47.996  25.918  29.754  1.00  0.00     0.031 C 
ATOM     60  C   UNL A   1      47.541  26.003  36.640  1.00  0.00     0.029 A 
ATOM     61  C   UNL A   1      46.374  26.507  35.920  1.00  0.00     0.049 A 
ATOM     62  H   UNL A   1      46.096  26.587  33.857  1.00  0.00     0.167 HD
ATOM     63  C   UNL A   1      45.712  26.834  29.511  1.00  0.00     0.034 A 
ATOM     64  C   UNL A   1      45.257  27.002  36.490  1.00  0.00     0.034 A 
ATOM     65  C   UNL A   1      44.448  27.278  30.029  1.00  0.00     0.049 A 
ATOM     66  C   UNL A   1      44.120  27.452  35.613  1.00  0.00     0.074 A 
ATOM     67  C   UNL A   1      43.323  27.667  29.325  1.00  0.00     0.029 A 
ATOM     68  N   UNL A   1      44.141  27.387  31.374  1.00  0.00    -0.354 N 
ATOM     69  N   UNL A   1      44.030  27.421  34.306  1.00  0.00    -0.248 NA
ATOM     70  C   UNL A   1      42.922  27.977  36.287  1.00  0.00     0.031 C 
ATOM     71  C   UNL A   1      42.331  28.010  30.247  1.00  0.00     0.029 A 
ATOM     72  C   UNL A   1      42.841  27.834  31.523  1.00  0.00     0.049 A 
ATOM     73  H   UNL A   1      44.755  27.178  32.114  1.00  0.00     0.167 HD
ATOM     74  C   UNL A   1      42.759  27.896  34.001  1.00  0.00     0.074 A 
ATOM     75  C   UNL A   1      42.110  28.198  35.259  1.00  0.00     0.031 C 
ATOM     76  C   UNL A   1      42.190  28.076  32.785  1.00  0.00     0.034 A 
BRANCH  63  77
ATOM     77  C   UNL A   1      45.872  26.755  28.021  1.00  0.00     0.023 A 
ATOM     78  C   UNL A   1      46.221  27.922  27.313  1.00  0.00     0.012 A 
ATOM     79  C   UNL A   1      45.767  25.529  27.338  1.00  0.00     0.148 A 
ATOM     80  C   UNL A   1      46.452  27.874  25.941  1.00  0.00     0.002 A 
ATOM     81  C   UNL A   1      46.026  25.485  25.972  1.00  0.00     0.091 A 
ATOM     82  F   UNL A   1      45.420  24.438  28.033  1.00  0.00    -0.205 F 
ATOM     83  C   UNL A   1      46.365  26.656  25.273  1.00  0.00     0.022 A 
BRANCH  81  84
ATOM     84  S   UNL A   1      45.988  23.961  25.022  1.00  0.00     0.127 S 
ATOM     85  O   UNL A   1      46.473  22.990  26.004  1.00  0.00    -0.237 OA
ATOM     86  O   UNL A   1      44.569  23.841  24.695  1.00  0.00    -0.237 OA
ATOM     87  O   UNL A   1      46.866  24.174  23.881  1.00  0.00    -0.744 OA
ENDBRANCH  81  84
ENDBRANCH  63  77
BRANCH  64  88
ATOM     88  C   UNL A   1      45.130  27.009  37.973  1.00  0.00     0.023 A 
ATOM     89  C   UNL A   1      44.694  25.840  38.624  1.00  0.00     0.012 A 
ATOM     90  C   UNL A   1      45.493  28.133  38.739  1.00  0.00     0.148 A 
ATOM     91  C   UNL A   1      44.607  25.793  40.016  1.00  0.00     0.002 A 
ATOM     92  C   UNL A   1      45.444  28.066  40.126  1.00  0.00     0.091 A 
ATOM     93  F   UNL A   1      45.902  29.235  38.094  1.00  0.00    -0.205 F 
ATOM     94  C   UNL A   1      44.990  26.901  40.767  1.00  0.00     0.022 A 
BRANCH  92  95
ATOM     95  S   UNL A   1      46.026  29.397  41.185  1.00  0.00     0.127 S 
ATOM     96  O   UNL A   1      47.408  29.551  40.738  1.00  0.00    -0.237 OA
ATOM     97  O   UNL A   1      45.129  30.489  40.808  1.00  0.00    -0.237 OA
ATOM     98  O   UNL A   1      45.854  28.921  42.550  1.00  0.00    -0.744 OA
ENDBRANCH  92  95
ENDBRANCH  64  88
BRANCH  76  99
ATOM     99  C   UNL A   1      40.788  28.612  32.729  1.00  0.00     0.023 A 
ATOM    100  C   UNL A   1      39.718  27.715  32.548  1.00  0.00     0.012 A 
ATOM    101  C   UNL A   1      40.524  29.969  33.000  1.00  0.00     0.148 A 
ATOM    102  C   UNL A   1      38.400  28.163  32.637  1.00  0.00     0.002 A 
ATOM    103  C   UNL A   1      39.210  30.401  33.119  1.00  0.00     0.091 A 
ATOM    104  F   UNL A   1      41.564  30.800  33.159  1.00  0.00    -0.205 F 
ATOM    105  C   UNL A   1      38.147  29.500  32.934  1.00  0.00     0.022 A 
BRANCH 103 106
ATOM    106  S   UNL A   1      38.780  32.085  33.576  1.00  0.00     0.127 S 
ATOM    107  O   UNL A   1      37.320  32.019  33.612  1.00  0.00    -0.237 OA
ATOM    108  O   UNL A   1      39.419  32.222  34.884  1.00  0.00    -0.237 OA
ATOM    109  O   UNL A   1      39.336  32.940  32.535  1.00  0.00    -0.744 OA
ENDBRANCH 103 106
ENDBRANCH  76  99
ENDBRANCH  50  51
ENDBRANCH  42  45
ENDBRANCH  40  41
ENDBRANCH  39  40
ENDBRANCH  38  39
ENDBRANCH   1  38
TORSDOF 20
ENDMDL
MODEL 2
REMARK VINA RESULT:     -10.3     11.168     20.705
REMARK SMILES Cc1c(CC(=O)N2CCC(C(=O)NCCCCCCNC(=O)c3ccc(-c4c5nc(c(-c6cccc(S(=O)(=O)[O-])c6F)c6ccc([nH]6)c(-c6cccc(S(=O)(=O)[O-])c6F)c6nc(c(-c7cccc(S(=O)(=O)[O-])c7F)c7ccc4[nH]7)C=C6)C=C5)cc3)(c3ccccc3)CC2)c(=O)oc2c(C)c(O)ccc12
REMARK SMILES IDX 16 1 15 2 14 3 13 4 11 5 12 6 10 8 5 9 6 10 7 11 8 12 93 13
REMARK SMILES IDX 9 14 92 15 4 16 3 17 1 18 2 19 104 20 94 21 97 22 103 23
REMARK SMILES IDX 95 24 96 25 98 26 102 27 99 28 100 29 101 30 86 32 87 33
REMARK SMILES IDX 91 34 88 35 90 36 89 37 17 38 18 39 19 40 20 41 21 42 22 44
REMARK SMILES IDX 23 45 24 46 85 47 25 48 84 49 26 50 27 51 28 52 78 53 29 54
REMARK SMILES IDX 83 55 77 56 79 57 30 58 82 59 76 60 75 61 31 63 63 64 43 65
REMARK SMILES IDX 62 66 44 67 47 68 61 69 80 70 45 71 46 72 60 74 81 75 48 76
REMARK SMILES IDX 32 77 33 78 41 79 34 80 36 81 42 82 35 83 37 84 38 85 39 86
REMARK SMILES IDX 40 87 64 88 65 89 73 90 66 91 68 92 74 93 67 94 69 95 70 96
REMARK SMILES IDX 71 97 72 98 49 99 50 100 58 101 51 102 53 103 59 104 52 105
REMARK SMILES IDX 54 106 55 107 56 108 57 109
REMARK H PARENT 13 7 101 31 20 43 79 62 47 73
REMARK Flexibility Score: inf
ROOT
ATOM      1  C   UNL A   1      43.060  43.181  31.067  1.00  0.00     0.002 C 
ENDROOT
BRANCH   1   2
ATOM      2  C   UNL A   1      44.452  42.695  30.644  1.00  0.00     0.021 C 
BRANCH   2   3
ATOM      3  C   UNL A   1      45.097  43.500  29.515  1.00  0.00     0.116 C 
BRANCH   3   4
ATOM      4  N   UNL A   1      46.356  42.905  29.088  1.00  0.00    -0.355 N 
ATOM      5  C   UNL A   1      46.731  42.164  28.003  1.00  0.00     0.230 C 
ATOM      6  O   UNL A   1      47.953  42.001  27.928  1.00  0.00    -0.274 OA
ATOM      7  H   UNL A   1      47.095  43.072  29.716  1.00  0.00     0.163 HD
BRANCH   5   8
ATOM      8  C   UNL A   1      45.709  41.671  26.906  1.00  0.00     0.077 C 
ATOM      9  C   UNL A   1      44.905  43.662  23.132  1.00  0.00     0.227 C 
ATOM     10  O   UNL A   1      44.228  44.693  23.245  1.00  0.00    -0.275 OA
ATOM     11  N   UNL A   1      45.089  42.830  24.237  1.00  0.00    -0.342 N 
ATOM     12  C   UNL A   1      44.083  42.914  25.296  1.00  0.00     0.121 C 
ATOM     13  C   UNL A   1      45.977  41.684  24.295  1.00  0.00     0.121 C 
ATOM     14  C   UNL A   1      44.616  42.750  26.715  1.00  0.00     0.043 C 
ATOM     15  C   UNL A   1      46.606  41.447  25.659  1.00  0.00     0.043 C 
BRANCH   9  16
ATOM     16  C   UNL A   1      45.377  43.276  21.713  1.00  0.00     0.143 C 
BRANCH  16  17
ATOM     17  C   UNL A   1      44.804  43.976  20.508  1.00  0.00     0.051 A 
ATOM     18  C   UNL A   1      42.729  42.575  20.469  1.00  0.00     0.046 C 
ATOM     19  C   UNL A   1      43.599  43.701  19.962  1.00  0.00    -0.029 A 
ATOM     20  C   UNL A   1      43.093  44.573  18.879  1.00  0.00     0.021 A 
ATOM     21  C   UNL A   1      45.687  45.044  19.959  1.00  0.00     0.340 A 
ATOM     22  C   UNL A   1      43.918  45.583  18.373  1.00  0.00     0.145 A 
ATOM     23  C   UNL A   1      41.798  44.494  18.354  1.00  0.00     0.016 A 
ATOM     24  O   UNL A   1      46.758  45.339  20.480  1.00  0.00    -0.246 OA
ATOM     25  O   UNL A   1      45.227  45.746  18.864  1.00  0.00    -0.422 OA
ATOM     26  C   UNL A   1      43.506  46.503  17.389  1.00  0.00     0.034 A 
ATOM     27  C   UNL A   1      41.345  45.413  17.397  1.00  0.00     0.047 A 
ATOM     28  C   UNL A   1      44.464  47.537  16.871  1.00  0.00     0.052 C 
ATOM     29  C   UNL A   1      42.196  46.410  16.926  1.00  0.00     0.122 A 
BRANCH  29  30
ATOM     30  O   UNL A   1      41.742  47.311  16.006  1.00  0.00    -0.508 OA
ATOM     31  H   UNL A   1      41.265  47.016  15.256  1.00  0.00     0.293 HD
ENDBRANCH  29  30
ENDBRANCH  16  17
ENDBRANCH   9  16
BRANCH   8  32
ATOM     32  C   UNL A   1      44.964  40.329  27.237  1.00  0.00    -0.032 A 
ATOM     33  C   UNL A   1      45.374  39.071  26.768  1.00  0.00     0.005 A 
ATOM     34  C   UNL A   1      43.839  40.324  28.091  1.00  0.00     0.005 A 
ATOM     35  C   UNL A   1      44.660  37.899  27.061  1.00  0.00     0.000 A 
ATOM     36  C   UNL A   1      43.131  39.158  28.400  1.00  0.00     0.000 A 
ATOM     37  C   UNL A   1      43.534  37.943  27.872  1.00  0.00     0.000 A 
ENDBRANCH   8  32
ENDBRANCH   5   8
ENDBRANCH   3   4
ENDBRANCH   2   3
ENDBRANCH   1   2
BRANCH   1  38
ATOM     38  C   UNL A   1      42.319  42.282  32.061  1.00  0.00     0.002 C 
BRANCH  38  39
ATOM     39  C   UNL A   1      42.483  42.663  33.535  1.00  0.00     0.021 C 
BRANCH  39  40
ATOM     40  C   UNL A   1      43.182  41.613  34.392  1.00  0.00     0.116 C 
BRANCH  40  41
ATOM     41  N   UNL A   1      44.610  41.867  34.512  1.00  0.00    -0.352 N 
ATOM     42  C   UNL A   1      45.653  41.027  34.214  1.00  0.00     0.251 C 
ATOM     43  H   UNL A   1      44.859  42.756  34.853  1.00  0.00     0.163 HD
ATOM     44  O   UNL A   1      46.801  41.315  34.538  1.00  0.00    -0.269 OA
BRANCH  42  45
ATOM     45  C   UNL A   1      45.373  39.758  33.512  1.00  0.00     0.039 A 
ATOM     46  C   UNL A   1      45.725  38.552  34.122  1.00  0.00     0.014 A 
ATOM     47  C   UNL A   1      44.745  39.768  32.262  1.00  0.00     0.014 A 
ATOM     48  C   UNL A   1      45.402  37.346  33.496  1.00  0.00     0.010 A 
ATOM     49  C   UNL A   1      44.384  38.566  31.663  1.00  0.00     0.010 A 
ATOM     50  C   UNL A   1      44.716  37.346  32.271  1.00  0.00    -0.014 A 
BRANCH  50  51
ATOM     51  C   UNL A   1      44.363  36.076  31.594  1.00  0.00     0.031 A 
ATOM     52  C   UNL A   1      45.183  35.600  30.430  1.00  0.00     0.074 A 
ATOM     53  C   UNL A   1      43.279  35.382  31.992  1.00  0.00     0.049 A 
ATOM     54  N   UNL A   1      45.017  34.536  29.690  1.00  0.00    -0.248 NA
ATOM     55  C   UNL A   1      46.333  36.434  30.037  1.00  0.00     0.031 C 
ATOM     56  C   UNL A   1      42.378  35.769  33.080  1.00  0.00     0.029 A 
ATOM     57  N   UNL A   1      42.742  34.213  31.515  1.00  0.00    -0.354 N 
ATOM     58  C   UNL A   1      46.025  34.580  28.736  1.00  0.00     0.074 A 
ATOM     59  C   UNL A   1      46.783  35.789  28.970  1.00  0.00     0.031 C 
ATOM     60  C   UNL A   1      41.407  34.848  33.193  1.00  0.00     0.029 A 
ATOM     61  C   UNL A   1      41.604  33.817  32.177  1.00  0.00     0.049 A 
ATOM     62  H   UNL A   1      43.135  33.704  30.769  1.00  0.00     0.167 HD
ATOM     63  C   UNL A   1      46.316  33.676  27.773  1.00  0.00     0.034 A 
ATOM     64  C   UNL A   1      40.814  32.740  31.992  1.00  0.00     0.034 A 
ATOM     65  C   UNL A   1      45.594  32.451  27.571  1.00  0.00     0.049 A 
ATOM     66  C   UNL A   1      41.168  31.743  30.922  1.00  0.00     0.074 A 
ATOM     67  C   UNL A   1      45.854  31.445  26.659  1.00  0.00     0.029 A 
ATOM     68  N   UNL A   1      44.479  32.064  28.293  1.00  0.00    -0.354 N 
ATOM     69  N   UNL A   1      42.193  31.746  30.104  1.00  0.00    -0.248 NA
ATOM     70  C   UNL A   1      40.278  30.583  30.767  1.00  0.00     0.031 C 
ATOM     71  C   UNL A   1      44.894  30.445  26.830  1.00  0.00     0.029 A 
ATOM     72  C   UNL A   1      44.038  30.831  27.850  1.00  0.00     0.049 A 
ATOM     73  H   UNL A   1      44.060  32.589  29.013  1.00  0.00     0.167 HD
ATOM     74  C   UNL A   1      42.086  30.578  29.358  1.00  0.00     0.074 A 
ATOM     75  C   UNL A   1      40.904  29.886  29.826  1.00  0.00     0.031 C 
ATOM     76  C   UNL A   1      42.891  30.129  28.364  1.00  0.00     0.034 A 
BRANCH  63  77
ATOM     77  C   UNL A   1      47.520  33.932  26.914  1.00  0.00     0.023 A 
ATOM     78  C   UNL A   1      47.405  34.830  25.834  1.00  0.00     0.012 A 
ATOM     79  C   UNL A   1      48.771  33.364  27.219  1.00  0.00     0.148 A 
ATOM     80  C   UNL A   1      48.517  35.152  25.060  1.00  0.00     0.002 A 
ATOM     81  C   UNL A   1      49.882  33.712  26.459  1.00  0.00     0.091 A 
ATOM     82  F   UNL A   1      48.848  32.503  28.243  1.00  0.00    -0.205 F 
ATOM     83  C   UNL A   1      49.756  34.601  25.378  1.00  0.00     0.022 A 
BRANCH  81  84
ATOM     84  S   UNL A   1      51.533  33.098  26.810  1.00  0.00     0.127 S 
ATOM     85  O   UNL A   1      52.350  33.932  25.928  1.00  0.00    -0.237 OA
ATOM     86  O   UNL A   1      51.673  33.397  28.234  1.00  0.00    -0.237 OA
ATOM     87  O   UNL A   1      51.518  31.681  26.478  1.00  0.00    -0.744 OA
ENDBRANCH  81  84
ENDBRANCH  63  77
BRANCH  64  88
ATOM     88  C   UNL A   1      39.663  32.508  32.905  1.00  0.00     0.023 A 
ATOM     89  C   UNL A   1      39.844  31.684  34.031  1.00  0.00     0.012 A 
ATOM     90  C   UNL A   1      38.421  33.140  32.702  1.00  0.00     0.148 A 
ATOM     91  C   UNL A   1      38.801  31.479  34.937  1.00  0.00     0.002 A 
ATOM     92  C   UNL A   1      37.400  32.966  33.629  1.00  0.00     0.091 A 
ATOM     93  F   UNL A   1      38.275  33.917  31.620  1.00  0.00    -0.205 F 
ATOM     94  C   UNL A   1      37.584  32.126  34.740  1.00  0.00     0.022 A 
BRANCH  92  95
ATOM     95  S   UNL A   1      35.837  33.846  33.530  1.00  0.00     0.127 S 
ATOM     96  O   UNL A   1      35.144  33.107  32.478  1.00  0.00    -0.237 OA
ATOM     97  O   UNL A   1      35.301  33.654  34.877  1.00  0.00    -0.237 OA
ATOM     98  O   UNL A   1      36.178  35.225  33.210  1.00  0.00    -0.744 OA
ENDBRANCH  92  95
ENDBRANCH  64  88
BRANCH  76  99
ATOM     99  C   UNL A   1      42.549  28.821  27.709  1.00  0.00     0.023 A 
ATOM    100  C   UNL A   1      41.768  28.824  26.537  1.00  0.00     0.012 A 
ATOM    101  C   UNL A   1      43.117  27.617  28.166  1.00  0.00     0.148 A 
ATOM    102  C   UNL A   1      41.557  27.643  25.828  1.00  0.00     0.002 A 
ATOM    103  C   UNL A   1      42.929  26.450  27.437  1.00  0.00     0.091 A 
ATOM    104  F   UNL A   1      43.849  27.644  29.290  1.00  0.00    -0.205 F 
ATOM    105  C   UNL A   1      42.146  26.461  26.270  1.00  0.00     0.022 A 
BRANCH 103 106
ATOM    106  S   UNL A   1      43.709  24.893  27.879  1.00  0.00     0.127 S 
ATOM    107  O   UNL A   1      43.141  23.983  26.887  1.00  0.00    -0.237 OA
ATOM    108  O   UNL A   1      45.129  25.195  27.692  1.00  0.00    -0.237 OA
ATOM    109  O   UNL A   1      43.322  24.625  29.259  1.00  0.00    -0.744 OA
ENDBRANCH 103 106
ENDBRANCH  76  99
ENDBRANCH  50  51
ENDBRANCH  42  45
ENDBRANCH  40  41
ENDBRANCH  39  40
ENDBRANCH  38  39
ENDBRANCH   1  38
TORSDOF 20
ENDMDL
MODEL 3
REMARK VINA RESULT:     -10.3     12.850     20.847
REMARK SMILES Cc1c(CC(=O)N2CCC(C(=O)NCCCCCCNC(=O)c3ccc(-c4c5nc(c(-c6cccc(S(=O)(=O)[O-])c6F)c6ccc([nH]6)c(-c6cccc(S(=O)(=O)[O-])c6F)c6nc(c(-c7cccc(S(=O)(=O)[O-])c7F)c7ccc4[nH]7)C=C6)C=C5)cc3)(c3ccccc3)CC2)c(=O)oc2c(C)c(O)ccc12
REMARK SMILES IDX 16 1 15 2 14 3 13 4 11 5 12 6 10 8 5 9 6 10 7 11 8 12 93 13
REMARK SMILES IDX 9 14 92 15 4 16 3 17 1 18 2 19 104 20 94 21 97 22 103 23
REMARK SMILES IDX 95 24 96 25 98 26 102 27 99 28 100 29 101 30 86 32 87 33
REMARK SMILES IDX 91 34 88 35 90 36 89 37 17 38 18 39 19 40 20 41 21 42 22 44
REMARK SMILES IDX 23 45 24 46 85 47 25 48 84 49 26 50 27 51 28 52 78 53 29 54
REMARK SMILES IDX 83 55 77 56 79 57 30 58 82 59 76 60 75 61 31 63 63 64 43 65
REMARK SMILES IDX 62 66 44 67 47 68 61 69 80 70 45 71 46 72 60 74 81 75 48 76
REMARK SMILES IDX 32 77 33 78 41 79 34 80 36 81 42 82 35 83 37 84 38 85 39 86
REMARK SMILES IDX 40 87 64 88 65 89 73 90 66 91 68 92 74 93 67 94 69 95 70 96
REMARK SMILES IDX 71 97 72 98 49 99 50 100 58 101 51 102 53 103 59 104 52 105
REMARK SMILES IDX 54 106 55 107 56 108 57 109
REMARK H PARENT 13 7 101 31 20 43 79 62 47 73
REMARK Flexibility Score: inf
ROOT
ATOM      1  C   UNL A   1      47.711  36.956  28.763  1.00  0.00     0.002 C 
ENDROOT
BRANCH   1   2
ATOM      2  C   UNL A   1      46.588  37.793  28.136  1.00  0.00     0.021 C 
BRANCH   2   3
ATOM      3  C   UNL A   1      45.967  38.834  29.068  1.00  0.00     0.116 C 
BRANCH   3   4
ATOM      4  N   UNL A   1      46.711  40.086  29.040  1.00  0.00    -0.355 N 
ATOM      5  C   UNL A   1      46.550  41.266  28.370  1.00  0.00     0.230 C 
ATOM      6  O   UNL A   1      47.312  42.153  28.766  1.00  0.00    -0.274 OA
ATOM      7  H   UNL A   1      47.500  40.080  29.629  1.00  0.00     0.163 HD
BRANCH   5   8
ATOM      8  C   UNL A   1      45.425  41.491  27.287  1.00  0.00     0.077 C 
ATOM      9  C   UNL A   1      45.774  44.019  23.775  1.00  0.00     0.227 C 
ATOM     10  O   UNL A   1      45.721  45.231  24.024  1.00  0.00    -0.275 OA
ATOM     11  N   UNL A   1      45.499  43.093  24.782  1.00  0.00    -0.342 N 
ATOM     12  C   UNL A   1      44.675  43.560  25.896  1.00  0.00     0.121 C 
ATOM     13  C   UNL A   1      45.673  41.656  24.679  1.00  0.00     0.121 C 
ATOM     14  C   UNL A   1      45.042  42.990  27.261  1.00  0.00     0.043 C 
ATOM     15  C   UNL A   1      46.085  40.981  25.978  1.00  0.00     0.043 C 
BRANCH   9  16
ATOM     16  C   UNL A   1      45.986  43.607  22.301  1.00  0.00     0.143 C 
BRANCH  16  17
ATOM     17  C   UNL A   1      45.051  44.109  21.232  1.00  0.00     0.051 A 
ATOM     18  C   UNL A   1      46.580  45.964  20.528  1.00  0.00     0.046 C 
ATOM     19  C   UNL A   1      45.320  45.141  20.401  1.00  0.00    -0.029 A 
ATOM     20  C   UNL A   1      44.380  45.426  19.294  1.00  0.00     0.021 A 
ATOM     21  C   UNL A   1      43.775  43.345  21.143  1.00  0.00     0.340 A 
ATOM     22  C   UNL A   1      43.188  44.699  19.206  1.00  0.00     0.145 A 
ATOM     23  C   UNL A   1      44.632  46.352  18.275  1.00  0.00     0.016 A 
ATOM     24  O   UNL A   1      43.545  42.373  21.856  1.00  0.00    -0.246 OA
ATOM     25  O   UNL A   1      42.870  43.732  20.177  1.00  0.00    -0.422 OA
ATOM     26  C   UNL A   1      42.261  44.852  18.156  1.00  0.00     0.034 A 
ATOM     27  C   UNL A   1      43.746  46.506  17.199  1.00  0.00     0.047 A 
ATOM     28  C   UNL A   1      40.986  44.059  18.151  1.00  0.00     0.052 C 
ATOM     29  C   UNL A   1      42.575  45.756  17.143  1.00  0.00     0.122 A 
BRANCH  29  30
ATOM     30  O   UNL A   1      41.725  45.901  16.084  1.00  0.00    -0.508 OA
ATOM     31  H   UNL A   1      42.062  46.134  15.241  1.00  0.00     0.293 HD
ENDBRANCH  29  30
ENDBRANCH  16  17
ENDBRANCH   9  16
BRANCH   8  32
ATOM     32  C   UNL A   1      44.095  40.690  27.525  1.00  0.00    -0.032 A 
ATOM     33  C   UNL A   1      43.622  39.685  26.665  1.00  0.00     0.005 A 
ATOM     34  C   UNL A   1      43.315  40.921  28.680  1.00  0.00     0.005 A 
ATOM     35  C   UNL A   1      42.411  39.017  26.898  1.00  0.00     0.000 A 
ATOM     36  C   UNL A   1      42.114  40.248  28.926  1.00  0.00     0.000 A 
ATOM     37  C   UNL A   1      41.652  39.303  28.025  1.00  0.00     0.000 A 
ENDBRANCH   8  32
ENDBRANCH   5   8
ENDBRANCH   3   4
ENDBRANCH   2   3
ENDBRANCH   1   2
BRANCH   1  38
ATOM     38  C   UNL A   1      48.551  36.135  27.780  1.00  0.00     0.002 C 
BRANCH  38  39
ATOM     39  C   UNL A   1      47.959  35.990  26.376  1.00  0.00     0.021 C 
BRANCH  39  40
ATOM     40  C   UNL A   1      47.561  34.569  25.993  1.00  0.00     0.116 C 
BRANCH  40  41
ATOM     41  N   UNL A   1      46.545  34.547  24.952  1.00  0.00    -0.352 N 
ATOM     42  C   UNL A   1      45.185  34.422  25.091  1.00  0.00     0.251 C 
ATOM     43  H   UNL A   1      46.876  34.630  24.029  1.00  0.00     0.163 HD
ATOM     44  O   UNL A   1      44.471  34.238  24.110  1.00  0.00    -0.269 OA
BRANCH  42  45
ATOM     45  C   UNL A   1      44.593  34.494  26.441  1.00  0.00     0.039 A 
ATOM     46  C   UNL A   1      44.665  33.377  27.276  1.00  0.00     0.014 A 
ATOM     47  C   UNL A   1      43.986  35.676  26.882  1.00  0.00     0.014 A 
ATOM     48  C   UNL A   1      44.167  33.459  28.578  1.00  0.00     0.010 A 
ATOM     49  C   UNL A   1      43.534  35.769  28.195  1.00  0.00     0.010 A 
ATOM     50  C   UNL A   1      43.614  34.660  29.050  1.00  0.00    -0.014 A 
BRANCH  50  51
ATOM     51  C   UNL A   1      43.084  34.766  30.430  1.00  0.00     0.031 A 
ATOM     52  C   UNL A   1      43.986  35.225  31.540  1.00  0.00     0.074 A 
ATOM     53  C   UNL A   1      41.814  34.403  30.692  1.00  0.00     0.049 A 
ATOM     54  N   UNL A   1      43.720  35.354  32.812  1.00  0.00    -0.248 NA
ATOM     55  C   UNL A   1      45.371  35.573  31.175  1.00  0.00     0.031 C 
ATOM     56  C   UNL A   1      40.858  33.897  29.704  1.00  0.00     0.029 A 
ATOM     57  N   UNL A   1      41.114  34.389  31.871  1.00  0.00    -0.354 N 
ATOM     58  C   UNL A   1      44.903  35.779  33.403  1.00  0.00     0.074 A 
ATOM     59  C   UNL A   1      45.899  35.859  32.357  1.00  0.00     0.031 C 
ATOM     60  C   UNL A   1      39.693  33.632  30.319  1.00  0.00     0.029 A 
ATOM     61  C   UNL A   1      39.824  33.930  31.743  1.00  0.00     0.049 A 
ATOM     62  H   UNL A   1      41.499  34.679  32.730  1.00  0.00     0.167 HD
ATOM     63  C   UNL A   1      45.131  36.107  34.695  1.00  0.00     0.034 A 
ATOM     64  C   UNL A   1      38.855  33.776  32.667  1.00  0.00     0.034 A 
ATOM     65  C   UNL A   1      44.132  36.074  35.725  1.00  0.00     0.049 A 
ATOM     66  C   UNL A   1      39.131  34.161  34.095  1.00  0.00     0.074 A 
ATOM     67  C   UNL A   1      44.256  36.447  37.051  1.00  0.00     0.029 A 
ATOM     68  N   UNL A   1      42.826  35.651  35.544  1.00  0.00    -0.354 N 
ATOM     69  N   UNL A   1      40.223  34.669  34.611  1.00  0.00    -0.248 NA
ATOM     70  C   UNL A   1      38.036  33.981  35.061  1.00  0.00     0.031 C 
ATOM     71  C   UNL A   1      43.021  36.251  37.675  1.00  0.00     0.029 A 
ATOM     72  C   UNL A   1      42.131  35.756  36.734  1.00  0.00     0.049 A 
ATOM     73  H   UNL A   1      42.449  35.323  34.697  1.00  0.00     0.167 HD
ATOM     74  C   UNL A   1      39.941  34.894  35.954  1.00  0.00     0.074 A 
ATOM     75  C   UNL A   1      38.571  34.477  36.170  1.00  0.00     0.031 C 
ATOM     76  C   UNL A   1      40.751  35.389  36.920  1.00  0.00     0.034 A 
BRANCH  63  77
ATOM     77  C   UNL A   1      46.497  36.614  35.057  1.00  0.00     0.023 A 
ATOM     78  C   UNL A   1      47.495  35.685  35.412  1.00  0.00     0.012 A 
ATOM     79  C   UNL A   1      46.818  37.981  34.962  1.00  0.00     0.148 A 
ATOM     80  C   UNL A   1      48.793  36.110  35.681  1.00  0.00     0.002 A 
ATOM     81  C   UNL A   1      48.123  38.395  35.205  1.00  0.00     0.091 A 
ATOM     82  F   UNL A   1      45.846  38.844  34.635  1.00  0.00    -0.205 F 
ATOM     83  C   UNL A   1      49.109  37.461  35.569  1.00  0.00     0.022 A 
BRANCH  81  84
ATOM     84  S   UNL A   1      48.651  40.103  35.043  1.00  0.00     0.127 S 
ATOM     85  O   UNL A   1      48.305  40.387  33.650  1.00  0.00    -0.237 OA
ATOM     86  O   UNL A   1      47.809  40.778  36.030  1.00  0.00    -0.237 OA
ATOM     87  O   UNL A   1      50.076  40.117  35.339  1.00  0.00    -0.744 OA
ENDBRANCH  81  84
ENDBRANCH  63  77
BRANCH  64  88
ATOM     88  C   UNL A   1      37.503  33.318  32.244  1.00  0.00     0.023 A 
ATOM     89  C   UNL A   1      37.294  31.946  32.009  1.00  0.00     0.012 A 
ATOM     90  C   UNL A   1      36.422  34.212  32.136  1.00  0.00     0.148 A 
ATOM     91  C   UNL A   1      36.030  31.471  31.656  1.00  0.00     0.002 A 
ATOM     92  C   UNL A   1      35.157  33.727  31.825  1.00  0.00     0.091 A 
ATOM     93  F   UNL A   1      36.650  35.513  32.362  1.00  0.00    -0.205 F 
ATOM     94  C   UNL A   1      34.961  32.360  31.573  1.00  0.00     0.022 A 
BRANCH  92  95
ATOM     95  S   UNL A   1      33.694  34.771  31.808  1.00  0.00     0.127 S 
ATOM     96  O   UNL A   1      32.915  34.212  32.910  1.00  0.00    -0.237 OA
ATOM     97  O   UNL A   1      34.268  36.092  32.064  1.00  0.00    -0.237 OA
ATOM     98  O   UNL A   1      33.111  34.616  30.482  1.00  0.00    -0.744 OA
ENDBRANCH  92  95
ENDBRANCH  64  88
BRANCH  76  99
ATOM     99  C   UNL A   1      40.195  35.532  38.309  1.00  0.00     0.023 A 
ATOM    100  C   UNL A   1      39.607  36.753  38.691  1.00  0.00     0.012 A 
ATOM    101  C   UNL A   1      40.125  34.422  39.173  1.00  0.00     0.148 A 
ATOM    102  C   UNL A   1      38.956  36.868  39.918  1.00  0.00     0.002 A 
ATOM    103  C   UNL A   1      39.447  34.535  40.380  1.00  0.00     0.091 A 
ATOM    104  F   UNL A   1      40.701  33.275  38.786  1.00  0.00    -0.205 F 
ATOM    105  C   UNL A   1      38.865  35.758  40.756  1.00  0.00     0.022 A 
BRANCH 103 106
ATOM    106  S   UNL A   1      39.207  33.145  41.492  1.00  0.00     0.127 S 
ATOM    107  O   UNL A   1      38.265  33.699  42.462  1.00  0.00    -0.237 OA
ATOM    108  O   UNL A   1      38.642  32.131  40.601  1.00  0.00    -0.237 OA
ATOM    109  O   UNL A   1      40.525  32.820  42.023  1.00  0.00    -0.744 OA
ENDBRANCH 103 106
ENDBRANCH  76  99
ENDBRANCH  50  51
ENDBRANCH  42  45
ENDBRANCH  40  41
ENDBRANCH  39  40
ENDBRANCH  38  39
ENDBRANCH   1  38
TORSDOF 20
ENDMDL
