MODEL 1
REMARK VINA RESULT:     -11.3      0.000      0.000
REMARK SMILES CC(C)CCNC(=O)[C@@H](C)Oc1ccc(N)cc1C(=O)NCCCCCCNC(=O)c1ccc(-c2c3nc(c(-c4cccc(S(=O)(=O)[O-])c4F)c4ccc([nH]4)c(-c4cccc(S(=O)(=O)[O-])c4F)c4nc(c(-c5cccc(S(=O)(=O)[O-])c5F)c5ccc2[nH]5)C=C4)C=C3)cc1
REMARK SMILES IDX 23 1 22 2 21 3 19 4 20 5 18 7 12 8 13 9 14 10 17 11 15 12
REMARK SMILES IDX 11 13 9 14 10 15 7 16 6 17 8 19 5 20 4 21 2 22 1 23 3 24
REMARK SMILES IDX 16 25 24 28 25 29 26 30 27 31 28 32 29 33 30 35 31 36 32 37
REMARK SMILES IDX 93 38 33 39 92 40 34 41 35 42 36 43 86 44 37 45 91 46 85 47
REMARK SMILES IDX 87 48 38 49 90 50 84 51 83 52 39 54 71 55 51 56 70 57 52 58
REMARK SMILES IDX 55 59 69 60 88 61 53 62 54 63 68 65 89 66 56 67 40 68 41 69
REMARK SMILES IDX 49 70 42 71 44 72 50 73 43 74 45 75 46 76 47 77 48 78 72 79
REMARK SMILES IDX 73 80 81 81 74 82 76 83 82 84 75 85 77 86 78 87 79 88 80 89
REMARK SMILES IDX 57 90 58 91 66 92 59 93 61 94 67 95 60 96 62 97 63 98 64 99
REMARK SMILES IDX 65 100
REMARK H PARENT 21 6 6 18 16 26 16 27 28 34 87 53 55 64
REMARK Flexibility Score: inf
ROOT
ATOM      1  C   UNL A   1      33.411  27.304  22.544  1.00  0.00     0.021 C 
ENDROOT
BRANCH   1   2
ATOM      2  C   UNL A   1      32.307  26.268  22.670  1.00  0.00     0.116 C 
BRANCH   2   3
ATOM      3  N   UNL A   1      32.630  24.969  22.173  1.00  0.00    -0.352 N 
ATOM      4  C   UNL A   1      33.529  24.045  22.638  1.00  0.00     0.255 C 
ATOM      5  O   UNL A   1      33.671  23.066  21.891  1.00  0.00    -0.269 OA
ATOM      6  H   UNL A   1      32.129  24.695  21.371  1.00  0.00     0.163 HD
BRANCH   4   7
ATOM      7  C   UNL A   1      34.301  24.066  23.947  1.00  0.00     0.083 A 
ATOM      8  C   UNL A   1      33.893  24.339  25.267  1.00  0.00     0.133 A 
ATOM      9  C   UNL A   1      34.648  23.818  26.330  1.00  0.00     0.049 A 
ATOM     10  C   UNL A   1      35.931  23.305  26.126  1.00  0.00     0.029 A 
ATOM     11  C   UNL A   1      35.637  23.604  23.786  1.00  0.00     0.043 A 
ATOM     12  C   UNL A   1      36.481  23.308  24.857  1.00  0.00     0.032 A 
BRANCH   8  13
ATOM     13  O   UNL A   1      32.745  24.976  25.623  1.00  0.00    -0.480 OA
BRANCH  13  14
ATOM     14  C   UNL A   1      31.497  24.249  25.628  1.00  0.00     0.258 C 
ATOM     15  C   UNL A   1      30.189  25.074  25.544  1.00  0.00     0.064 C 
BRANCH  14  16
ATOM     16  C   UNL A   1      31.263  22.989  26.502  1.00  0.00     0.260 C 
ATOM     17  N   UNL A   1      31.720  21.759  26.123  1.00  0.00    -0.353 N 
ATOM     18  H   UNL A   1      31.834  21.101  26.847  1.00  0.00     0.163 HD
ATOM     19  O   UNL A   1      30.711  23.078  27.601  1.00  0.00    -0.271 OA
BRANCH  17  20
ATOM     20  C   UNL A   1      32.057  21.303  24.796  1.00  0.00     0.116 C 
BRANCH  20  21
ATOM     21  C   UNL A   1      33.413  20.636  24.680  1.00  0.00     0.024 C 
BRANCH  21  22
ATOM     22  C   UNL A   1      33.365  19.104  24.810  1.00  0.00    -0.016 C 
ATOM     23  C   UNL A   1      32.423  18.454  23.790  1.00  0.00     0.007 C 
ATOM     24  C   UNL A   1      34.777  18.549  24.626  1.00  0.00     0.007 C 
ENDBRANCH  21  22
ENDBRANCH  20  21
ENDBRANCH  17  20
ENDBRANCH  14  16
ENDBRANCH  13  14
ENDBRANCH   8  13
BRANCH  12  25
ATOM     25  N   UNL A   1      37.778  22.869  24.640  1.00  0.00    -0.399 N 
ATOM     26  H   UNL A   1      38.401  22.782  25.397  1.00  0.00     0.156 HD
ATOM     27  H   UNL A   1      38.074  22.643  23.729  1.00  0.00     0.156 HD
ENDBRANCH  12  25
ENDBRANCH   4   7
ENDBRANCH   2   3
ENDBRANCH   1   2
BRANCH   1  28
ATOM     28  C   UNL A   1      33.046  28.705  23.004  1.00  0.00     0.002 C 
BRANCH  28  29
ATOM     29  C   UNL A   1      31.586  28.906  23.422  1.00  0.00     0.002 C 
BRANCH  29  30
ATOM     30  C   UNL A   1      31.321  29.174  24.909  1.00  0.00     0.021 C 
BRANCH  30  31
ATOM     31  C   UNL A   1      32.452  29.835  25.691  1.00  0.00     0.116 C 
BRANCH  31  32
ATOM     32  N   UNL A   1      32.145  31.203  26.072  1.00  0.00    -0.352 N 
ATOM     33  C   UNL A   1      32.730  32.011  27.008  1.00  0.00     0.251 C 
ATOM     34  H   UNL A   1      31.399  31.613  25.577  1.00  0.00     0.163 HD
ATOM     35  O   UNL A   1      32.204  33.090  27.290  1.00  0.00    -0.269 OA
BRANCH  33  36
ATOM     36  C   UNL A   1      33.973  31.597  27.692  1.00  0.00     0.039 A 
ATOM     37  C   UNL A   1      34.917  32.576  28.013  1.00  0.00     0.014 A 
ATOM     38  C   UNL A   1      34.227  30.254  27.988  1.00  0.00     0.014 A 
ATOM     39  C   UNL A   1      36.093  32.217  28.672  1.00  0.00     0.010 A 
ATOM     40  C   UNL A   1      35.369  29.907  28.707  1.00  0.00     0.010 A 
ATOM     41  C   UNL A   1      36.319  30.883  29.049  1.00  0.00    -0.014 A 
BRANCH  41  42
ATOM     42  C   UNL A   1      37.537  30.494  29.805  1.00  0.00     0.031 A 
ATOM     43  C   UNL A   1      38.530  29.535  29.204  1.00  0.00     0.074 A 
ATOM     44  C   UNL A   1      37.710  30.945  31.063  1.00  0.00     0.049 A 
ATOM     45  N   UNL A   1      39.619  29.039  29.731  1.00  0.00    -0.248 NA
ATOM     46  C   UNL A   1      38.253  29.051  27.841  1.00  0.00     0.031 C 
ATOM     47  C   UNL A   1      36.782  31.821  31.782  1.00  0.00     0.029 A 
ATOM     48  N   UNL A   1      38.712  30.707  31.971  1.00  0.00    -0.354 N 
ATOM     49  C   UNL A   1      40.137  28.162  28.785  1.00  0.00     0.074 A 
ATOM     50  C   UNL A   1      39.226  28.170  27.661  1.00  0.00     0.031 C 
ATOM     51  C   UNL A   1      37.258  32.047  33.017  1.00  0.00     0.029 A 
ATOM     52  C   UNL A   1      38.505  31.310  33.190  1.00  0.00     0.049 A 
ATOM     53  H   UNL A   1      39.504  30.159  31.768  1.00  0.00     0.167 HD
ATOM     54  C   UNL A   1      41.280  27.437  28.834  1.00  0.00     0.034 A 
ATOM     55  C   UNL A   1      39.233  31.265  34.323  1.00  0.00     0.034 A 
ATOM     56  C   UNL A   1      42.204  27.464  29.936  1.00  0.00     0.049 A 
ATOM     57  C   UNL A   1      40.517  30.479  34.337  1.00  0.00     0.074 A 
ATOM     58  C   UNL A   1      43.431  26.833  30.046  1.00  0.00     0.029 A 
ATOM     59  N   UNL A   1      42.004  28.156  31.121  1.00  0.00    -0.354 N 
ATOM     60  N   UNL A   1      41.067  29.781  33.374  1.00  0.00    -0.248 NA
ATOM     61  C   UNL A   1      41.298  30.505  35.582  1.00  0.00     0.031 C 
ATOM     62  C   UNL A   1      43.959  27.121  31.308  1.00  0.00     0.029 A 
ATOM     63  C   UNL A   1      43.078  27.958  31.972  1.00  0.00     0.049 A 
ATOM     64  H   UNL A   1      41.213  28.705  31.328  1.00  0.00     0.167 HD
ATOM     65  C   UNL A   1      42.276  29.317  33.882  1.00  0.00     0.074 A 
ATOM     66  C   UNL A   1      42.386  29.832  35.230  1.00  0.00     0.031 C 
ATOM     67  C   UNL A   1      43.203  28.525  33.291  1.00  0.00     0.034 A 
BRANCH  54  68
ATOM     68  C   UNL A   1      41.628  26.590  27.638  1.00  0.00     0.023 A 
ATOM     69  C   UNL A   1      42.260  27.183  26.526  1.00  0.00     0.012 A 
ATOM     70  C   UNL A   1      41.397  25.200  27.639  1.00  0.00     0.148 A 
ATOM     71  C   UNL A   1      42.627  26.416  25.422  1.00  0.00     0.002 A 
ATOM     72  C   UNL A   1      41.807  24.433  26.553  1.00  0.00     0.091 A 
ATOM     73  F   UNL A   1      40.779  24.655  28.697  1.00  0.00    -0.205 F 
ATOM     74  C   UNL A   1      42.410  25.041  25.440  1.00  0.00     0.022 A 
BRANCH  72  75
ATOM     75  S   UNL A   1      41.647  22.645  26.512  1.00  0.00     0.127 S 
ATOM     76  O   UNL A   1      42.296  22.262  27.766  1.00  0.00    -0.237 OA
ATOM     77  O   UNL A   1      40.194  22.466  26.500  1.00  0.00    -0.237 OA
ATOM     78  O   UNL A   1      42.323  22.206  25.301  1.00  0.00    -0.744 OA
ENDBRANCH  72  75
ENDBRANCH  54  68
BRANCH  55  79
ATOM     79  C   UNL A   1      38.799  32.038  35.523  1.00  0.00     0.023 A 
ATOM     80  C   UNL A   1      38.996  33.432  35.555  1.00  0.00     0.012 A 
ATOM     81  C   UNL A   1      38.183  31.406  36.619  1.00  0.00     0.148 A 
ATOM     82  C   UNL A   1      38.624  34.178  36.674  1.00  0.00     0.002 A 
ATOM     83  C   UNL A   1      37.763  32.164  37.708  1.00  0.00     0.091 A 
ATOM     84  F   UNL A   1      38.013  30.078  36.574  1.00  0.00    -0.205 F 
ATOM     85  C   UNL A   1      37.999  33.546  37.745  1.00  0.00     0.022 A 
BRANCH  83  86
ATOM     86  S   UNL A   1      36.836  31.453  39.073  1.00  0.00     0.127 S 
ATOM     87  O   UNL A   1      37.793  31.566  40.174  1.00  0.00    -0.237 OA
ATOM     88  O   UNL A   1      35.688  32.360  39.162  1.00  0.00    -0.237 OA
ATOM     89  O   UNL A   1      36.502  30.102  38.659  1.00  0.00    -0.744 OA
ENDBRANCH  83  86
ENDBRANCH  55  79
BRANCH  67  90
ATOM     90  C   UNL A   1      44.446  28.197  34.075  1.00  0.00     0.023 A 
ATOM     91  C   UNL A   1      45.567  29.048  34.004  1.00  0.00     0.012 A 
ATOM     92  C   UNL A   1      44.476  27.085  34.940  1.00  0.00     0.148 A 
ATOM     93  C   UNL A   1      46.710  28.779  34.756  1.00  0.00     0.002 A 
ATOM     94  C   UNL A   1      45.598  26.853  35.725  1.00  0.00     0.091 A 
ATOM     95  F   UNL A   1      43.406  26.278  34.980  1.00  0.00    -0.205 F 
ATOM     96  C   UNL A   1      46.721  27.690  35.626  1.00  0.00     0.022 A 
BRANCH  94  97
ATOM     97  S   UNL A   1      45.665  25.534  36.943  1.00  0.00     0.127 S 
ATOM     98  O   UNL A   1      44.412  25.733  37.668  1.00  0.00    -0.237 OA
ATOM     99  O   UNL A   1      45.699  24.336  36.101  1.00  0.00    -0.237 OA
ATOM    100  O   UNL A   1      46.878  25.762  37.717  1.00  0.00    -0.744 OA
ENDBRANCH  94  97
ENDBRANCH  67  90
ENDBRANCH  41  42
ENDBRANCH  33  36
ENDBRANCH  31  32
ENDBRANCH  30  31
ENDBRANCH  29  30
ENDBRANCH  28  29
ENDBRANCH   1  28
TORSDOF 23
ENDMDL
MODEL 2
REMARK VINA RESULT:     -11.0      2.674      7.681
REMARK SMILES CC(C)CCNC(=O)[C@@H](C)Oc1ccc(N)cc1C(=O)NCCCCCCNC(=O)c1ccc(-c2c3nc(c(-c4cccc(S(=O)(=O)[O-])c4F)c4ccc([nH]4)c(-c4cccc(S(=O)(=O)[O-])c4F)c4nc(c(-c5cccc(S(=O)(=O)[O-])c5F)c5ccc2[nH]5)C=C4)C=C3)cc1
REMARK SMILES IDX 23 1 22 2 21 3 19 4 20 5 18 7 12 8 13 9 14 10 17 11 15 12
REMARK SMILES IDX 11 13 9 14 10 15 7 16 6 17 8 19 5 20 4 21 2 22 1 23 3 24
REMARK SMILES IDX 16 25 24 28 25 29 26 30 27 31 28 32 29 33 30 35 31 36 32 37
REMARK SMILES IDX 93 38 33 39 92 40 34 41 35 42 36 43 86 44 37 45 91 46 85 47
REMARK SMILES IDX 87 48 38 49 90 50 84 51 83 52 39 54 71 55 51 56 70 57 52 58
REMARK SMILES IDX 55 59 69 60 88 61 53 62 54 63 68 65 89 66 56 67 40 68 41 69
REMARK SMILES IDX 49 70 42 71 44 72 50 73 43 74 45 75 46 76 47 77 48 78 72 79
REMARK SMILES IDX 73 80 81 81 74 82 76 83 82 84 75 85 77 86 78 87 79 88 80 89
REMARK SMILES IDX 57 90 58 91 66 92 59 93 61 94 67 95 60 96 62 97 63 98 64 99
REMARK SMILES IDX 65 100
REMARK H PARENT 21 6 6 18 16 26 16 27 28 34 87 53 55 64
REMARK Flexibility Score: inf
ROOT
ATOM      1  C   UNL A   1      33.577  27.062  22.250  1.00  0.00     0.021 C 
ENDROOT
BRANCH   1   2
ATOM      2  C   UNL A   1      32.241  26.340  22.221  1.00  0.00     0.116 C 
BRANCH   2   3
ATOM      3  N   UNL A   1      32.312  24.938  21.957  1.00  0.00    -0.352 N 
ATOM      4  C   UNL A   1      33.082  23.967  22.542  1.00  0.00     0.255 C 
ATOM      5  O   UNL A   1      33.007  22.864  21.982  1.00  0.00    -0.269 OA
ATOM      6  H   UNL A   1      31.713  24.619  21.243  1.00  0.00     0.163 HD
BRANCH   4   7
ATOM      7  C   UNL A   1      33.944  24.081  23.788  1.00  0.00     0.083 A 
ATOM      8  C   UNL A   1      33.632  24.462  25.108  1.00  0.00     0.133 A 
ATOM      9  C   UNL A   1      34.456  24.017  26.154  1.00  0.00     0.049 A 
ATOM     10  C   UNL A   1      35.718  23.473  25.902  1.00  0.00     0.029 A 
ATOM     11  C   UNL A   1      35.262  23.591  23.572  1.00  0.00     0.043 A 
ATOM     12  C   UNL A   1      36.177  23.370  24.602  1.00  0.00     0.032 A 
BRANCH   8  13
ATOM     13  O   UNL A   1      32.517  25.140  25.492  1.00  0.00    -0.480 OA
BRANCH  13  14
ATOM     14  C   UNL A   1      31.223  24.508  25.378  1.00  0.00     0.258 C 
ATOM     15  C   UNL A   1      30.043  25.379  24.882  1.00  0.00     0.064 C 
BRANCH  14  16
ATOM     16  C   UNL A   1      30.705  23.465  26.403  1.00  0.00     0.260 C 
ATOM     17  N   UNL A   1      31.203  22.194  26.446  1.00  0.00    -0.353 N 
ATOM     18  H   UNL A   1      31.085  21.714  27.298  1.00  0.00     0.163 HD
ATOM     19  O   UNL A   1      29.870  23.779  27.254  1.00  0.00    -0.271 OA
BRANCH  17  20
ATOM     20  C   UNL A   1      31.883  21.467  25.402  1.00  0.00     0.116 C 
BRANCH  20  21
ATOM     21  C   UNL A   1      32.997  20.558  25.882  1.00  0.00     0.024 C 
BRANCH  21  22
ATOM     22  C   UNL A   1      33.487  19.560  24.819  1.00  0.00    -0.016 C 
ATOM     23  C   UNL A   1      35.016  19.485  24.741  1.00  0.00     0.007 C 
ATOM     24  C   UNL A   1      32.923  18.177  25.145  1.00  0.00     0.007 C 
ENDBRANCH  21  22
ENDBRANCH  20  21
ENDBRANCH  17  20
ENDBRANCH  14  16
ENDBRANCH  13  14
ENDBRANCH   8  13
BRANCH  12  25
ATOM     25  N   UNL A   1      37.452  22.899  24.330  1.00  0.00    -0.399 N 
ATOM     26  H   UNL A   1      37.948  23.242  23.552  1.00  0.00     0.156 HD
ATOM     27  H   UNL A   1      37.863  22.223  24.916  1.00  0.00     0.156 HD
ENDBRANCH  12  25
ENDBRANCH   4   7
ENDBRANCH   2   3
ENDBRANCH   1   2
BRANCH   1  28
ATOM     28  C   UNL A   1      33.748  28.073  23.370  1.00  0.00     0.002 C 
BRANCH  28  29
ATOM     29  C   UNL A   1      32.504  28.328  24.227  1.00  0.00     0.002 C 
BRANCH  29  30
ATOM     30  C   UNL A   1      32.711  28.397  25.746  1.00  0.00     0.021 C 
BRANCH  30  31
ATOM     31  C   UNL A   1      33.997  29.064  26.226  1.00  0.00     0.116 C 
BRANCH  31  32
ATOM     32  N   UNL A   1      33.774  30.407  26.733  1.00  0.00    -0.352 N 
ATOM     33  C   UNL A   1      34.453  31.113  27.689  1.00  0.00     0.251 C 
ATOM     34  H   UNL A   1      33.017  30.885  26.323  1.00  0.00     0.163 HD
ATOM     35  O   UNL A   1      33.994  32.185  28.090  1.00  0.00    -0.269 OA
BRANCH  33  36
ATOM     36  C   UNL A   1      35.717  30.597  28.254  1.00  0.00     0.039 A 
ATOM     37  C   UNL A   1      35.657  29.743  29.358  1.00  0.00     0.014 A 
ATOM     38  C   UNL A   1      36.956  30.975  27.726  1.00  0.00     0.014 A 
ATOM     39  C   UNL A   1      36.834  29.229  29.904  1.00  0.00     0.010 A 
ATOM     40  C   UNL A   1      38.125  30.406  28.228  1.00  0.00     0.010 A 
ATOM     41  C   UNL A   1      38.078  29.535  29.328  1.00  0.00    -0.014 A 
BRANCH  41  42
ATOM     42  C   UNL A   1      39.335  28.947  29.859  1.00  0.00     0.031 A 
ATOM     43  C   UNL A   1      40.015  29.561  31.054  1.00  0.00     0.074 A 
ATOM     44  C   UNL A   1      39.905  27.907  29.219  1.00  0.00     0.049 A 
ATOM     45  N   UNL A   1      41.142  29.223  31.625  1.00  0.00    -0.248 NA
ATOM     46  C   UNL A   1      39.355  30.722  31.676  1.00  0.00     0.031 C 
ATOM     47  C   UNL A   1      39.381  27.271  28.007  1.00  0.00     0.029 A 
ATOM     48  N   UNL A   1      41.064  27.220  29.479  1.00  0.00    -0.354 N 
ATOM     49  C   UNL A   1      41.344  30.143  32.646  1.00  0.00     0.074 A 
ATOM     50  C   UNL A   1      40.239  31.075  32.599  1.00  0.00     0.031 C 
ATOM     51  C   UNL A   1      40.214  26.288  27.632  1.00  0.00     0.029 A 
ATOM     52  C   UNL A   1      41.344  26.242  28.553  1.00  0.00     0.049 A 
ATOM     53  H   UNL A   1      41.639  27.407  30.256  1.00  0.00     0.167 HD
ATOM     54  C   UNL A   1      42.344  30.194  33.558  1.00  0.00     0.034 A 
ATOM     55  C   UNL A   1      42.400  25.410  28.451  1.00  0.00     0.034 A 
ATOM     56  C   UNL A   1      43.420  29.241  33.629  1.00  0.00     0.049 A 
ATOM     57  C   UNL A   1      43.479  25.466  29.499  1.00  0.00     0.074 A 
ATOM     58  C   UNL A   1      44.433  29.155  34.566  1.00  0.00     0.029 A 
ATOM     59  N   UNL A   1      43.624  28.210  32.724  1.00  0.00    -0.354 N 
ATOM     60  N   UNL A   1      43.570  26.246  30.548  1.00  0.00    -0.248 NA
ATOM     61  C   UNL A   1      44.581  24.503  29.369  1.00  0.00     0.031 C 
ATOM     62  C   UNL A   1      45.266  28.089  34.213  1.00  0.00     0.029 A 
ATOM     63  C   UNL A   1      44.754  27.490  33.075  1.00  0.00     0.049 A 
ATOM     64  H   UNL A   1      43.052  28.019  31.946  1.00  0.00     0.167 HD
ATOM     65  C   UNL A   1      44.716  25.842  31.225  1.00  0.00     0.074 A 
ATOM     66  C   UNL A   1      45.273  24.735  30.477  1.00  0.00     0.031 C 
ATOM     67  C   UNL A   1      45.265  26.352  32.354  1.00  0.00     0.034 A 
BRANCH  54  68
ATOM     68  C   UNL A   1      42.298  31.287  34.594  1.00  0.00     0.023 A 
ATOM     69  C   UNL A   1      41.700  31.034  35.846  1.00  0.00     0.012 A 
ATOM     70  C   UNL A   1      42.905  32.537  34.360  1.00  0.00     0.148 A 
ATOM     71  C   UNL A   1      41.676  32.016  36.835  1.00  0.00     0.002 A 
ATOM     72  C   UNL A   1      42.917  33.496  35.367  1.00  0.00     0.091 A 
ATOM     73  F   UNL A   1      43.453  32.767  33.158  1.00  0.00    -0.205 F 
ATOM     74  C   UNL A   1      42.294  33.241  36.600  1.00  0.00     0.022 A 
BRANCH  72  75
ATOM     75  S   UNL A   1      43.755  35.075  35.195  1.00  0.00     0.127 S 
ATOM     76  O   UNL A   1      43.328  35.491  33.859  1.00  0.00    -0.237 OA
ATOM     77  O   UNL A   1      43.174  35.853  36.289  1.00  0.00    -0.237 OA
ATOM     78  O   UNL A   1      45.177  34.796  35.335  1.00  0.00    -0.744 OA
ENDBRANCH  72  75
ENDBRANCH  54  68
BRANCH  55  79
ATOM     79  C   UNL A   1      42.459  24.408  27.348  1.00  0.00     0.023 A 
ATOM     80  C   UNL A   1      43.286  24.655  26.234  1.00  0.00     0.012 A 
ATOM     81  C   UNL A   1      41.718  23.213  27.400  1.00  0.00     0.148 A 
ATOM     82  C   UNL A   1      43.342  23.749  25.174  1.00  0.00     0.002 A 
ATOM     83  C   UNL A   1      41.823  22.288  26.366  1.00  0.00     0.091 A 
ATOM     84  F   UNL A   1      40.930  23.000  28.463  1.00  0.00    -0.205 F 
ATOM     85  C   UNL A   1      42.619  22.563  25.245  1.00  0.00     0.022 A 
BRANCH  83  86
ATOM     86  S   UNL A   1      41.027  20.679  26.434  1.00  0.00     0.127 S 
ATOM     87  O   UNL A   1      40.960  20.440  27.876  1.00  0.00    -0.237 OA
ATOM     88  O   UNL A   1      39.736  20.954  25.798  1.00  0.00    -0.237 OA
ATOM     89  O   UNL A   1      41.887  19.783  25.682  1.00  0.00    -0.744 OA
ENDBRANCH  83  86
ENDBRANCH  55  79
BRANCH  67  90
ATOM     90  C   UNL A   1      46.511  25.694  32.886  1.00  0.00     0.023 A 
ATOM     91  C   UNL A   1      47.778  26.223  32.565  1.00  0.00     0.012 A 
ATOM     92  C   UNL A   1      46.423  24.596  33.764  1.00  0.00     0.148 A 
ATOM     93  C   UNL A   1      48.937  25.648  33.083  1.00  0.00     0.002 A 
ATOM     94  C   UNL A   1      47.580  24.062  34.318  1.00  0.00     0.091 A 
ATOM     95  F   UNL A   1      45.210  24.097  34.044  1.00  0.00    -0.205 F 
ATOM     96  C   UNL A   1      48.838  24.577  33.969  1.00  0.00     0.022 A 
BRANCH  94  97
ATOM     97  S   UNL A   1      47.543  22.747  35.542  1.00  0.00     0.127 S 
ATOM     98  O   UNL A   1      46.766  21.718  34.852  1.00  0.00    -0.237 OA
ATOM     99  O   UNL A   1      48.964  22.433  35.702  1.00  0.00    -0.237 OA
ATOM    100  O   UNL A   1      46.914  23.317  36.726  1.00  0.00    -0.744 OA
ENDBRANCH  94  97
ENDBRANCH  67  90
ENDBRANCH  41  42
ENDBRANCH  33  36
ENDBRANCH  31  32
ENDBRANCH  30  31
ENDBRANCH  29  30
ENDBRANCH  28  29
ENDBRANCH   1  28
TORSDOF 23
ENDMDL
MODEL 3
REMARK VINA RESULT:     -10.9      5.464     10.417
REMARK SMILES CC(C)CCNC(=O)[C@@H](C)Oc1ccc(N)cc1C(=O)NCCCCCCNC(=O)c1ccc(-c2c3nc(c(-c4cccc(S(=O)(=O)[O-])c4F)c4ccc([nH]4)c(-c4cccc(S(=O)(=O)[O-])c4F)c4nc(c(-c5cccc(S(=O)(=O)[O-])c5F)c5ccc2[nH]5)C=C4)C=C3)cc1
REMARK SMILES IDX 23 1 22 2 21 3 19 4 20 5 18 7 12 8 13 9 14 10 17 11 15 12
REMARK SMILES IDX 11 13 9 14 10 15 7 16 6 17 8 19 5 20 4 21 2 22 1 23 3 24
REMARK SMILES IDX 16 25 24 28 25 29 26 30 27 31 28 32 29 33 30 35 31 36 32 37
REMARK SMILES IDX 93 38 33 39 92 40 34 41 35 42 36 43 86 44 37 45 91 46 85 47
REMARK SMILES IDX 87 48 38 49 90 50 84 51 83 52 39 54 71 55 51 56 70 57 52 58
REMARK SMILES IDX 55 59 69 60 88 61 53 62 54 63 68 65 89 66 56 67 40 68 41 69
REMARK SMILES IDX 49 70 42 71 44 72 50 73 43 74 45 75 46 76 47 77 48 78 72 79
REMARK SMILES IDX 73 80 81 81 74 82 76 83 82 84 75 85 77 86 78 87 79 88 80 89
REMARK SMILES IDX 57 90 58 91 66 92 59 93 61 94 67 95 60 96 62 97 63 98 64 99
REMARK SMILES IDX 65 100
REMARK H PARENT 21 6 6 18 16 26 16 27 28 34 87 53 55 64
REMARK Flexibility Score: inf
ROOT
ATOM      1  C   UNL A   1      37.030  23.118  25.156  1.00  0.00     0.021 C 
ENDROOT
BRANCH   1   2
ATOM      2  C   UNL A   1      35.784  23.986  25.138  1.00  0.00     0.116 C 
BRANCH   2   3
ATOM      3  N   UNL A   1      35.124  24.079  23.875  1.00  0.00    -0.352 N 
ATOM      4  C   UNL A   1      34.086  24.881  23.478  1.00  0.00     0.255 C 
ATOM      5  O   UNL A   1      33.651  24.614  22.349  1.00  0.00    -0.269 OA
ATOM      6  H   UNL A   1      35.469  23.472  23.180  1.00  0.00     0.163 HD
BRANCH   4   7
ATOM      7  C   UNL A   1      33.469  26.052  24.226  1.00  0.00     0.083 A 
ATOM      8  C   UNL A   1      32.851  26.131  25.489  1.00  0.00     0.133 A 
ATOM      9  C   UNL A   1      32.820  27.368  26.151  1.00  0.00     0.049 A 
ATOM     10  C   UNL A   1      33.107  28.558  25.479  1.00  0.00     0.029 A 
ATOM     11  C   UNL A   1      33.685  27.287  23.555  1.00  0.00     0.043 A 
ATOM     12  C   UNL A   1      33.426  28.531  24.133  1.00  0.00     0.032 A 
BRANCH   8  13
ATOM     13  O   UNL A   1      32.370  25.075  26.201  1.00  0.00    -0.480 OA
BRANCH  13  14
ATOM     14  C   UNL A   1      31.057  24.552  25.904  1.00  0.00     0.258 C 
ATOM     15  C   UNL A   1      29.909  25.572  25.706  1.00  0.00     0.064 C 
BRANCH  14  16
ATOM     16  C   UNL A   1      30.500  23.261  26.559  1.00  0.00     0.260 C 
ATOM     17  N   UNL A   1      30.889  22.020  26.143  1.00  0.00    -0.353 N 
ATOM     18  H   UNL A   1      30.769  21.290  26.793  1.00  0.00     0.163 HD
ATOM     19  O   UNL A   1      29.735  23.324  27.524  1.00  0.00    -0.271 OA
BRANCH  17  20
ATOM     20  C   UNL A   1      31.454  21.644  24.870  1.00  0.00     0.116 C 
BRANCH  20  21
ATOM     21  C   UNL A   1      32.966  21.719  24.800  1.00  0.00     0.024 C 
BRANCH  21  22
ATOM     22  C   UNL A   1      33.681  20.654  25.649  1.00  0.00    -0.016 C 
ATOM     23  C   UNL A   1      33.853  21.082  27.111  1.00  0.00     0.007 C 
ATOM     24  C   UNL A   1      32.878  19.355  25.588  1.00  0.00     0.007 C 
ENDBRANCH  21  22
ENDBRANCH  20  21
ENDBRANCH  17  20
ENDBRANCH  14  16
ENDBRANCH  13  14
ENDBRANCH   8  13
BRANCH  12  25
ATOM     25  N   UNL A   1      33.647  29.702  23.427  1.00  0.00    -0.399 N 
ATOM     26  H   UNL A   1      33.732  30.558  23.908  1.00  0.00     0.156 HD
ATOM     27  H   UNL A   1      33.721  29.679  22.446  1.00  0.00     0.156 HD
ENDBRANCH  12  25
ENDBRANCH   4   7
ENDBRANCH   2   3
ENDBRANCH   1   2
BRANCH   1  28
ATOM     28  C   UNL A   1      37.032  21.958  24.175  1.00  0.00     0.002 C 
BRANCH  28  29
ATOM     29  C   UNL A   1      36.849  20.568  24.791  1.00  0.00     0.002 C 
BRANCH  29  30
ATOM     30  C   UNL A   1      38.104  19.695  24.919  1.00  0.00     0.021 C 
BRANCH  30  31
ATOM     31  C   UNL A   1      39.026  20.001  26.095  1.00  0.00     0.116 C 
BRANCH  31  32
ATOM     32  N   UNL A   1      40.240  19.201  26.078  1.00  0.00    -0.352 N 
ATOM     33  C   UNL A   1      41.551  19.586  26.146  1.00  0.00     0.251 C 
ATOM     34  H   UNL A   1      40.096  18.230  26.006  1.00  0.00     0.163 HD
ATOM     35  O   UNL A   1      42.437  18.753  25.946  1.00  0.00    -0.269 OA
BRANCH  33  36
ATOM     36  C   UNL A   1      41.912  20.989  26.442  1.00  0.00     0.039 A 
ATOM     37  C   UNL A   1      42.276  21.324  27.749  1.00  0.00     0.014 A 
ATOM     38  C   UNL A   1      41.862  21.976  25.452  1.00  0.00     0.014 A 
ATOM     39  C   UNL A   1      42.635  22.638  28.054  1.00  0.00     0.010 A 
ATOM     40  C   UNL A   1      42.288  23.270  25.743  1.00  0.00     0.010 A 
ATOM     41  C   UNL A   1      42.670  23.618  27.049  1.00  0.00    -0.014 A 
BRANCH  41  42
ATOM     42  C   UNL A   1      43.110  25.006  27.345  1.00  0.00     0.031 A 
ATOM     43  C   UNL A   1      42.163  25.980  27.995  1.00  0.00     0.074 A 
ATOM     44  C   UNL A   1      44.336  25.411  26.959  1.00  0.00     0.049 A 
ATOM     45  N   UNL A   1      42.349  27.243  28.280  1.00  0.00    -0.248 NA
ATOM     46  C   UNL A   1      40.825  25.477  28.350  1.00  0.00     0.031 C 
ATOM     47  C   UNL A   1      45.317  24.581  26.256  1.00  0.00     0.029 A 
ATOM     48  N   UNL A   1      44.956  26.629  27.078  1.00  0.00    -0.354 N 
ATOM     49  C   UNL A   1      41.147  27.694  28.813  1.00  0.00     0.074 A 
ATOM     50  C   UNL A   1      40.228  26.577  28.784  1.00  0.00     0.031 C 
ATOM     51  C   UNL A   1      46.415  25.314  26.007  1.00  0.00     0.029 A 
ATOM     52  C   UNL A   1      46.206  26.670  26.503  1.00  0.00     0.049 A 
ATOM     53  H   UNL A   1      44.547  27.401  27.533  1.00  0.00     0.167 HD
ATOM     54  C   UNL A   1      40.844  28.918  29.308  1.00  0.00     0.034 A 
ATOM     55  C   UNL A   1      47.080  27.688  26.380  1.00  0.00     0.034 A 
ATOM     56  C   UNL A   1      41.774  30.014  29.373  1.00  0.00     0.049 A 
ATOM     57  C   UNL A   1      46.729  29.028  26.969  1.00  0.00     0.074 A 
ATOM     58  C   UNL A   1      41.589  31.266  29.933  1.00  0.00     0.029 A 
ATOM     59  N   UNL A   1      43.061  29.991  28.858  1.00  0.00    -0.354 N 
ATOM     60  N   UNL A   1      45.644  29.390  27.609  1.00  0.00    -0.248 NA
ATOM     61  C   UNL A   1      47.738  30.090  26.852  1.00  0.00     0.031 C 
ATOM     62  C   UNL A   1      42.757  32.009  29.733  1.00  0.00     0.029 A 
ATOM     63  C   UNL A   1      43.679  31.210  29.078  1.00  0.00     0.049 A 
ATOM     64  H   UNL A   1      43.474  29.222  28.403  1.00  0.00     0.167 HD
ATOM     65  C   UNL A   1      45.855  30.706  28.006  1.00  0.00     0.074 A 
ATOM     66  C   UNL A   1      47.180  31.070  27.551  1.00  0.00     0.031 C 
ATOM     67  C   UNL A   1      45.021  31.542  28.672  1.00  0.00     0.034 A 
BRANCH  54  68
ATOM     68  C   UNL A   1      39.461  29.127  29.870  1.00  0.00     0.023 A 
ATOM     69  C   UNL A   1      39.193  28.766  31.206  1.00  0.00     0.012 A 
ATOM     70  C   UNL A   1      38.451  29.742  29.105  1.00  0.00     0.148 A 
ATOM     71  C   UNL A   1      37.933  28.983  31.763  1.00  0.00     0.002 A 
ATOM     72  C   UNL A   1      37.210  29.997  29.681  1.00  0.00     0.091 A 
ATOM     73  F   UNL A   1      38.718  30.063  27.831  1.00  0.00    -0.205 F 
ATOM     74  C   UNL A   1      36.947  29.608  31.005  1.00  0.00     0.022 A 
BRANCH  72  75
ATOM     75  S   UNL A   1      35.899  30.868  28.816  1.00  0.00     0.127 S 
ATOM     76  O   UNL A   1      35.299  29.791  28.030  1.00  0.00    -0.237 OA
ATOM     77  O   UNL A   1      35.069  31.350  29.922  1.00  0.00    -0.237 OA
ATOM     78  O   UNL A   1      36.550  31.915  28.044  1.00  0.00    -0.744 OA
ENDBRANCH  72  75
ENDBRANCH  54  68
BRANCH  55  79
ATOM     79  C   UNL A   1      48.399  27.466  25.722  1.00  0.00     0.023 A 
ATOM     80  C   UNL A   1      49.512  27.110  26.510  1.00  0.00     0.012 A 
ATOM     81  C   UNL A   1      48.557  27.592  24.329  1.00  0.00     0.148 A 
ATOM     82  C   UNL A   1      50.766  26.921  25.926  1.00  0.00     0.002 A 
ATOM     83  C   UNL A   1      49.797  27.346  23.748  1.00  0.00     0.091 A 
ATOM     84  F   UNL A   1      47.490  27.941  23.598  1.00  0.00    -0.205 F 
ATOM     85  C   UNL A   1      50.905  27.030  24.547  1.00  0.00     0.022 A 
BRANCH  83  86
ATOM     86  S   UNL A   1      50.038  27.338  21.968  1.00  0.00     0.127 S 
ATOM     87  O   UNL A   1      49.608  28.688  21.603  1.00  0.00    -0.237 OA
ATOM     88  O   UNL A   1      51.481  27.105  21.861  1.00  0.00    -0.237 OA
ATOM     89  O   UNL A   1      49.216  26.253  21.465  1.00  0.00    -0.744 OA
ENDBRANCH  83  86
ENDBRANCH  55  79
BRANCH  67  90
ATOM     90  C   UNL A   1      45.526  32.923  28.996  1.00  0.00     0.023 A 
ATOM     91  C   UNL A   1      46.390  33.116  30.092  1.00  0.00     0.012 A 
ATOM     92  C   UNL A   1      45.204  34.016  28.168  1.00  0.00     0.148 A 
ATOM     93  C   UNL A   1      46.898  34.383  30.379  1.00  0.00     0.002 A 
ATOM     94  C   UNL A   1      45.756  35.264  28.429  1.00  0.00     0.091 A 
ATOM     95  F   UNL A   1      44.367  33.815  27.139  1.00  0.00    -0.205 F 
ATOM     96  C   UNL A   1      46.592  35.453  29.541  1.00  0.00     0.022 A 
BRANCH  94  97
ATOM     97  S   UNL A   1      45.496  36.677  27.350  1.00  0.00     0.127 S 
ATOM     98  O   UNL A   1      45.747  37.796  28.256  1.00  0.00    -0.237 OA
ATOM     99  O   UNL A   1      46.524  36.478  26.326  1.00  0.00    -0.237 OA
ATOM    100  O   UNL A   1      44.129  36.563  26.860  1.00  0.00    -0.744 OA
ENDBRANCH  94  97
ENDBRANCH  67  90
ENDBRANCH  41  42
ENDBRANCH  33  36
ENDBRANCH  31  32
ENDBRANCH  30  31
ENDBRANCH  29  30
ENDBRANCH  28  29
ENDBRANCH   1  28
TORSDOF 23
ENDMDL
