MODEL 1
REMARK VINA RESULT:     -11.3      0.000      0.000
REMARK SMILES C[C@@H]1c2ccccc2-c2ccc(C(=O)NCCCCCCNC(=O)c3ccc(-c4c5nc(c(-c6cccc(S(=O)(=O)[O-])c6F)c6ccc([nH]6)c(-c6cccc(S(=O)(=O)[O-])c6F)c6nc(c(-c7cccc(S(=O)(=O)[O-])c7F)c7ccc4[nH]7)C=C6)C=C5)cc3)cc21
REMARK SMILES IDX 20 1 19 2 18 3 17 4 16 5 15 6 13 7 14 8 12 10 1 11 2 12 3 13
REMARK SMILES IDX 89 14 4 15 8 16 9 17 88 18 5 19 7 20 10 21 6 22 11 23 21 24
REMARK SMILES IDX 22 25 23 26 24 28 25 29 26 30 87 31 27 32 86 33 28 34 29 35
REMARK SMILES IDX 30 36 80 37 31 38 85 39 79 40 81 41 32 42 84 43 78 44 77 45
REMARK SMILES IDX 33 47 65 48 45 49 64 50 46 51 49 52 63 53 82 54 47 55 48 56
REMARK SMILES IDX 62 58 83 59 50 60 34 61 35 62 43 63 36 64 38 65 44 66 37 67
REMARK SMILES IDX 39 68 40 69 41 70 42 71 66 72 67 73 75 74 68 75 70 76 76 77
REMARK SMILES IDX 69 78 71 79 72 80 73 81 74 82 51 83 52 84 60 85 53 86 55 87
REMARK SMILES IDX 61 88 54 89 56 90 57 91 58 92 59 93
REMARK H PARENT 15 9 22 27 81 46 49 57
REMARK Flexibility Score: inf
ROOT
ATOM      1  C   UNL A   1      41.017  19.917  27.001  1.00  0.00     0.021 C 
ENDROOT
BRANCH   1   2
ATOM      2  C   UNL A   1      41.915  19.486  25.837  1.00  0.00     0.002 C 
BRANCH   2   3
ATOM      3  C   UNL A   1      43.377  19.217  26.216  1.00  0.00     0.002 C 
BRANCH   3   4
ATOM      4  C   UNL A   1      44.225  18.602  25.093  1.00  0.00     0.021 C 
BRANCH   4   5
ATOM      5  C   UNL A   1      45.425  19.475  24.712  1.00  0.00     0.116 C 
BRANCH   5   6
ATOM      6  N   UNL A   1      45.002  20.541  23.825  1.00  0.00    -0.352 N 
ATOM      7  C   UNL A   1      44.764  21.878  24.005  1.00  0.00     0.251 C 
ATOM      8  O   UNL A   1      44.385  22.511  23.015  1.00  0.00    -0.269 OA
ATOM      9  H   UNL A   1      44.856  20.241  22.898  1.00  0.00     0.163 HD
BRANCH   7  10
ATOM     10  C   UNL A   1      44.983  22.610  25.290  1.00  0.00     0.040 A 
ATOM     11  C   UNL A   1      42.324  23.620  28.848  1.00  0.00     0.018 C 
ATOM     12  C   UNL A   1      43.785  23.202  28.907  1.00  0.00     0.047 C 
ATOM     13  C   UNL A   1      44.670  24.126  29.731  1.00  0.00    -0.033 A 
ATOM     14  C   UNL A   1      44.487  23.234  27.554  1.00  0.00    -0.032 A 
ATOM     15  C   UNL A   1      44.514  24.516  31.051  1.00  0.00     0.005 A 
ATOM     16  C   UNL A   1      45.780  24.547  28.966  1.00  0.00    -0.014 A 
ATOM     17  C   UNL A   1      45.683  23.973  27.642  1.00  0.00    -0.014 A 
ATOM     18  C   UNL A   1      44.102  22.610  26.374  1.00  0.00     0.018 A 
ATOM     19  C   UNL A   1      45.475  25.363  31.604  1.00  0.00     0.000 A 
ATOM     20  C   UNL A   1      46.733  25.389  29.516  1.00  0.00     0.009 A 
ATOM     21  C   UNL A   1      46.533  24.049  26.556  1.00  0.00     0.010 A 
ATOM     22  C   UNL A   1      46.573  25.799  30.843  1.00  0.00     0.001 A 
ATOM     23  C   UNL A   1      46.188  23.351  25.391  1.00  0.00     0.014 A 
ENDBRANCH   7  10
ENDBRANCH   5   6
ENDBRANCH   4   5
ENDBRANCH   3   4
ENDBRANCH   2   3
ENDBRANCH   1   2
BRANCH   1  24
ATOM     24  C   UNL A   1      40.661  21.400  26.995  1.00  0.00     0.116 C 
BRANCH  24  25
ATOM     25  N   UNL A   1      39.434  21.648  26.252  1.00  0.00    -0.352 N 
ATOM     26  C   UNL A   1      38.667  22.783  26.203  1.00  0.00     0.251 C 
ATOM     27  H   UNL A   1      39.110  20.894  25.708  1.00  0.00     0.163 HD
ATOM     28  O   UNL A   1      37.532  22.739  25.738  1.00  0.00    -0.269 OA
BRANCH  26  29
ATOM     29  C   UNL A   1      39.212  24.057  26.715  1.00  0.00     0.039 A 
ATOM     30  C   UNL A   1      40.015  24.839  25.882  1.00  0.00     0.014 A 
ATOM     31  C   UNL A   1      38.941  24.468  28.025  1.00  0.00     0.014 A 
ATOM     32  C   UNL A   1      40.510  26.059  26.349  1.00  0.00     0.010 A 
ATOM     33  C   UNL A   1      39.373  25.716  28.460  1.00  0.00     0.010 A 
ATOM     34  C   UNL A   1      40.172  26.518  27.632  1.00  0.00    -0.014 A 
BRANCH  34  35
ATOM     35  C   UNL A   1      40.639  27.839  28.125  1.00  0.00     0.031 A 
ATOM     36  C   UNL A   1      42.110  28.143  28.198  1.00  0.00     0.074 A 
ATOM     37  C   UNL A   1      39.740  28.730  28.586  1.00  0.00     0.049 A 
ATOM     38  N   UNL A   1      42.708  29.215  28.650  1.00  0.00    -0.248 NA
ATOM     39  C   UNL A   1      43.033  27.095  27.730  1.00  0.00     0.031 C 
ATOM     40  C   UNL A   1      38.291  28.517  28.642  1.00  0.00     0.029 A 
ATOM     41  N   UNL A   1      39.913  29.981  29.122  1.00  0.00    -0.354 N 
ATOM     42  C   UNL A   1      44.071  28.959  28.554  1.00  0.00     0.074 A 
ATOM     43  C   UNL A   1      44.213  27.616  28.036  1.00  0.00     0.031 C 
ATOM     44  C   UNL A   1      37.709  29.601  29.178  1.00  0.00     0.029 A 
ATOM     45  C   UNL A   1      38.741  30.571  29.533  1.00  0.00     0.049 A 
ATOM     46  H   UNL A   1      40.792  30.414  29.206  1.00  0.00     0.167 HD
ATOM     47  C   UNL A   1      45.111  29.777  28.844  1.00  0.00     0.034 A 
ATOM     48  C   UNL A   1      38.521  31.757  30.135  1.00  0.00     0.034 A 
ATOM     49  C   UNL A   1      44.962  31.125  29.322  1.00  0.00     0.049 A 
ATOM     50  C   UNL A   1      39.691  32.663  30.410  1.00  0.00     0.074 A 
ATOM     51  C   UNL A   1      45.948  32.066  29.558  1.00  0.00     0.029 A 
ATOM     52  N   UNL A   1      43.754  31.722  29.644  1.00  0.00    -0.354 N 
ATOM     53  N   UNL A   1      40.963  32.465  30.162  1.00  0.00    -0.248 NA
ATOM     54  C   UNL A   1      39.391  33.969  31.011  1.00  0.00     0.031 C 
ATOM     55  C   UNL A   1      45.337  33.224  30.051  1.00  0.00     0.029 A 
ATOM     56  C   UNL A   1      43.968  33.016  30.090  1.00  0.00     0.049 A 
ATOM     57  H   UNL A   1      42.873  31.290  29.568  1.00  0.00     0.167 HD
ATOM     58  C   UNL A   1      41.611  33.634  30.544  1.00  0.00     0.074 A 
ATOM     59  C   UNL A   1      40.587  34.542  31.019  1.00  0.00     0.031 C 
ATOM     60  C   UNL A   1      42.935  33.926  30.514  1.00  0.00     0.034 A 
BRANCH  47  61
ATOM     61  C   UNL A   1      46.504  29.251  28.608  1.00  0.00     0.023 A 
ATOM     62  C   UNL A   1      47.341  28.980  29.710  1.00  0.00     0.012 A 
ATOM     63  C   UNL A   1      46.965  28.975  27.306  1.00  0.00     0.148 A 
ATOM     64  C   UNL A   1      48.629  28.478  29.518  1.00  0.00     0.002 A 
ATOM     65  C   UNL A   1      48.231  28.431  27.125  1.00  0.00     0.091 A 
ATOM     66  F   UNL A   1      46.163  29.258  26.270  1.00  0.00    -0.205 F 
ATOM     67  C   UNL A   1      49.068  28.194  28.228  1.00  0.00     0.022 A 
BRANCH  65  68
ATOM     68  S   UNL A   1      48.858  27.952  25.512  1.00  0.00     0.127 S 
ATOM     69  O   UNL A   1      47.782  28.406  24.632  1.00  0.00    -0.237 OA
ATOM     70  O   UNL A   1      50.093  28.732  25.417  1.00  0.00    -0.237 OA
ATOM     71  O   UNL A   1      49.054  26.510  25.567  1.00  0.00    -0.744 OA
ENDBRANCH  65  68
ENDBRANCH  47  61
BRANCH  48  72
ATOM     72  C   UNL A   1      37.129  32.179  30.458  1.00  0.00     0.023 A 
ATOM     73  C   UNL A   1      36.631  31.985  31.762  1.00  0.00     0.012 A 
ATOM     74  C   UNL A   1      36.310  32.801  29.496  1.00  0.00     0.148 A 
ATOM     75  C   UNL A   1      35.332  32.370  32.092  1.00  0.00     0.002 A 
ATOM     76  C   UNL A   1      35.037  33.234  29.847  1.00  0.00     0.091 A 
ATOM     77  F   UNL A   1      36.799  32.969  28.259  1.00  0.00    -0.205 F 
ATOM     78  C   UNL A   1      34.539  33.004  31.139  1.00  0.00     0.022 A 
BRANCH  76  79
ATOM     79  S   UNL A   1      33.997  34.176  28.725  1.00  0.00     0.127 S 
ATOM     80  O   UNL A   1      33.692  33.186  27.697  1.00  0.00    -0.237 OA
ATOM     81  O   UNL A   1      32.872  34.537  29.589  1.00  0.00    -0.237 OA
ATOM     82  O   UNL A   1      34.808  35.308  28.293  1.00  0.00    -0.744 OA
ENDBRANCH  76  79
ENDBRANCH  48  72
BRANCH  60  83
ATOM     83  C   UNL A   1      43.359  35.296  30.973  1.00  0.00     0.023 A 
ATOM     84  C   UNL A   1      43.743  35.501  32.313  1.00  0.00     0.012 A 
ATOM     85  C   UNL A   1      43.450  36.362  30.056  1.00  0.00     0.148 A 
ATOM     86  C   UNL A   1      44.178  36.756  32.741  1.00  0.00     0.002 A 
ATOM     87  C   UNL A   1      43.932  37.595  30.478  1.00  0.00     0.091 A 
ATOM     88  F   UNL A   1      43.062  36.151  28.789  1.00  0.00    -0.205 F 
ATOM     89  C   UNL A   1      44.284  37.797  31.822  1.00  0.00     0.022 A 
BRANCH  87  90
ATOM     90  S   UNL A   1      44.197  38.964  29.345  1.00  0.00     0.127 S 
ATOM     91  O   UNL A   1      42.828  39.292  28.951  1.00  0.00    -0.237 OA
ATOM     92  O   UNL A   1      44.839  39.958  30.206  1.00  0.00    -0.237 OA
ATOM     93  O   UNL A   1      45.047  38.447  28.280  1.00  0.00    -0.744 OA
ENDBRANCH  87  90
ENDBRANCH  60  83
ENDBRANCH  34  35
ENDBRANCH  26  29
ENDBRANCH  24  25
ENDBRANCH   1  24
TORSDOF 16
ENDMDL
MODEL 2
REMARK VINA RESULT:     -11.3      4.760     12.138
REMARK SMILES C[C@@H]1c2ccccc2-c2ccc(C(=O)NCCCCCCNC(=O)c3ccc(-c4c5nc(c(-c6cccc(S(=O)(=O)[O-])c6F)c6ccc([nH]6)c(-c6cccc(S(=O)(=O)[O-])c6F)c6nc(c(-c7cccc(S(=O)(=O)[O-])c7F)c7ccc4[nH]7)C=C6)C=C5)cc3)cc21
REMARK SMILES IDX 20 1 19 2 18 3 17 4 16 5 15 6 13 7 14 8 12 10 1 11 2 12 3 13
REMARK SMILES IDX 89 14 4 15 8 16 9 17 88 18 5 19 7 20 10 21 6 22 11 23 21 24
REMARK SMILES IDX 22 25 23 26 24 28 25 29 26 30 87 31 27 32 86 33 28 34 29 35
REMARK SMILES IDX 30 36 80 37 31 38 85 39 79 40 81 41 32 42 84 43 78 44 77 45
REMARK SMILES IDX 33 47 65 48 45 49 64 50 46 51 49 52 63 53 82 54 47 55 48 56
REMARK SMILES IDX 62 58 83 59 50 60 34 61 35 62 43 63 36 64 38 65 44 66 37 67
REMARK SMILES IDX 39 68 40 69 41 70 42 71 66 72 67 73 75 74 68 75 70 76 76 77
REMARK SMILES IDX 69 78 71 79 72 80 73 81 74 82 51 83 52 84 60 85 53 86 55 87
REMARK SMILES IDX 61 88 54 89 56 90 57 91 58 92 59 93
REMARK H PARENT 15 9 22 27 81 46 49 57
REMARK Flexibility Score: inf
ROOT
ATOM      1  C   UNL A   1      34.588  34.169  29.434  1.00  0.00     0.021 C 
ENDROOT
BRANCH   1   2
ATOM      2  C   UNL A   1      33.497  35.215  29.188  1.00  0.00     0.002 C 
BRANCH   2   3
ATOM      3  C   UNL A   1      33.138  36.071  30.410  1.00  0.00     0.002 C 
BRANCH   3   4
ATOM      4  C   UNL A   1      33.263  35.345  31.758  1.00  0.00     0.021 C 
BRANCH   4   5
ATOM      5  C   UNL A   1      34.316  35.974  32.674  1.00  0.00     0.116 C 
BRANCH   5   6
ATOM      6  N   UNL A   1      34.601  35.086  33.785  1.00  0.00    -0.352 N 
ATOM      7  C   UNL A   1      35.696  34.344  34.142  1.00  0.00     0.251 C 
ATOM      8  O   UNL A   1      35.594  33.664  35.166  1.00  0.00    -0.269 OA
ATOM      9  H   UNL A   1      33.849  34.999  34.416  1.00  0.00     0.163 HD
BRANCH   7  10
ATOM     10  C   UNL A   1      36.998  34.353  33.408  1.00  0.00     0.040 A 
ATOM     11  C   UNL A   1      38.232  33.323  29.145  1.00  0.00     0.018 C 
ATOM     12  C   UNL A   1      38.766  34.475  29.983  1.00  0.00     0.047 C 
ATOM     13  C   UNL A   1      40.284  34.552  30.048  1.00  0.00    -0.033 A 
ATOM     14  C   UNL A   1      38.401  34.379  31.459  1.00  0.00    -0.032 A 
ATOM     15  C   UNL A   1      41.189  34.622  29.002  1.00  0.00     0.005 A 
ATOM     16  C   UNL A   1      40.712  34.591  31.394  1.00  0.00    -0.014 A 
ATOM     17  C   UNL A   1      39.553  34.518  32.257  1.00  0.00    -0.014 A 
ATOM     18  C   UNL A   1      37.139  34.233  32.023  1.00  0.00     0.018 A 
ATOM     19  C   UNL A   1      42.547  34.707  29.311  1.00  0.00     0.000 A 
ATOM     20  C   UNL A   1      42.061  34.675  31.700  1.00  0.00     0.009 A 
ATOM     21  C   UNL A   1      39.444  34.563  33.633  1.00  0.00     0.010 A 
ATOM     22  C   UNL A   1      42.980  34.730  30.648  1.00  0.00     0.001 A 
ATOM     23  C   UNL A   1      38.164  34.500  34.200  1.00  0.00     0.014 A 
ENDBRANCH   7  10
ENDBRANCH   5   6
ENDBRANCH   4   5
ENDBRANCH   3   4
ENDBRANCH   2   3
ENDBRANCH   1   2
BRANCH   1  24
ATOM     24  C   UNL A   1      35.008  33.403  28.184  1.00  0.00     0.116 C 
BRANCH  24  25
ATOM     25  N   UNL A   1      34.048  32.360  27.854  1.00  0.00    -0.352 N 
ATOM     26  C   UNL A   1      34.251  31.010  27.714  1.00  0.00     0.251 C 
ATOM     27  H   UNL A   1      33.123  32.665  27.711  1.00  0.00     0.163 HD
ATOM     28  O   UNL A   1      33.394  30.312  27.181  1.00  0.00    -0.269 OA
BRANCH  26  29
ATOM     29  C   UNL A   1      35.506  30.404  28.205  1.00  0.00     0.039 A 
ATOM     30  C   UNL A   1      36.624  30.381  27.371  1.00  0.00     0.014 A 
ATOM     31  C   UNL A   1      35.567  29.844  29.486  1.00  0.00     0.014 A 
ATOM     32  C   UNL A   1      37.823  29.837  27.838  1.00  0.00     0.010 A 
ATOM     33  C   UNL A   1      36.780  29.372  29.975  1.00  0.00     0.010 A 
ATOM     34  C   UNL A   1      37.916  29.352  29.153  1.00  0.00    -0.014 A 
BRANCH  34  35
ATOM     35  C   UNL A   1      39.196  28.824  29.689  1.00  0.00     0.031 A 
ATOM     36  C   UNL A   1      39.862  29.498  30.858  1.00  0.00     0.074 A 
ATOM     37  C   UNL A   1      39.799  27.790  29.070  1.00  0.00     0.049 A 
ATOM     38  N   UNL A   1      41.005  29.216  31.429  1.00  0.00    -0.248 NA
ATOM     39  C   UNL A   1      39.170  30.658  31.444  1.00  0.00     0.031 C 
ATOM     40  C   UNL A   1      39.291  27.106  27.879  1.00  0.00     0.029 A 
ATOM     41  N   UNL A   1      40.984  27.154  29.338  1.00  0.00    -0.354 N 
ATOM     42  C   UNL A   1      41.186  30.180  32.414  1.00  0.00     0.074 A 
ATOM     43  C   UNL A   1      40.054  31.078  32.339  1.00  0.00     0.031 C 
ATOM     44  C   UNL A   1      40.156  26.144  27.523  1.00  0.00     0.029 A 
ATOM     45  C   UNL A   1      41.293  26.162  28.437  1.00  0.00     0.049 A 
ATOM     46  H   UNL A   1      41.559  27.386  30.103  1.00  0.00     0.167 HD
ATOM     47  C   UNL A   1      42.188  30.293  33.317  1.00  0.00     0.034 A 
ATOM     48  C   UNL A   1      42.374  25.362  28.351  1.00  0.00     0.034 A 
ATOM     49  C   UNL A   1      43.291  29.375  33.412  1.00  0.00     0.049 A 
ATOM     50  C   UNL A   1      43.455  25.483  29.392  1.00  0.00     0.074 A 
ATOM     51  C   UNL A   1      44.308  29.348  34.349  1.00  0.00     0.029 A 
ATOM     52  N   UNL A   1      43.526  28.327  32.536  1.00  0.00    -0.354 N 
ATOM     53  N   UNL A   1      43.527  26.299  30.414  1.00  0.00    -0.248 NA
ATOM     54  C   UNL A   1      44.583  24.546  29.289  1.00  0.00     0.031 C 
ATOM     55  C   UNL A   1      45.175  28.300  34.021  1.00  0.00     0.029 A 
ATOM     56  C   UNL A   1      44.680  27.654  32.900  1.00  0.00     0.049 A 
ATOM     57  H   UNL A   1      42.957  28.097  31.766  1.00  0.00     0.167 HD
ATOM     58  C   UNL A   1      44.688  25.953  31.097  1.00  0.00     0.074 A 
ATOM     59  C   UNL A   1      45.275  24.838  30.382  1.00  0.00     0.031 C 
ATOM     60  C   UNL A   1      45.225  26.514  32.208  1.00  0.00     0.034 A 
BRANCH  47  61
ATOM     61  C   UNL A   1      42.114  31.426  34.309  1.00  0.00     0.023 A 
ATOM     62  C   UNL A   1      42.952  32.549  34.146  1.00  0.00     0.012 A 
ATOM     63  C   UNL A   1      41.183  31.407  35.365  1.00  0.00     0.148 A 
ATOM     64  C   UNL A   1      42.892  33.617  35.042  1.00  0.00     0.002 A 
ATOM     65  C   UNL A   1      41.095  32.496  36.225  1.00  0.00     0.091 A 
ATOM     66  F   UNL A   1      40.409  30.324  35.516  1.00  0.00    -0.205 F 
ATOM     67  C   UNL A   1      41.956  33.595  36.072  1.00  0.00     0.022 A 
BRANCH  65  68
ATOM     68  S   UNL A   1      39.869  32.601  37.533  1.00  0.00     0.127 S 
ATOM     69  O   UNL A   1      40.686  32.355  38.722  1.00  0.00    -0.237 OA
ATOM     70  O   UNL A   1      39.390  33.977  37.397  1.00  0.00    -0.237 OA
ATOM     71  O   UNL A   1      38.876  31.579  37.237  1.00  0.00    -0.744 OA
ENDBRANCH  65  68
ENDBRANCH  47  61
BRANCH  48  72
ATOM     72  C   UNL A   1      42.455  24.334  27.276  1.00  0.00     0.023 A 
ATOM     73  C   UNL A   1      43.136  24.635  26.080  1.00  0.00     0.012 A 
ATOM     74  C   UNL A   1      41.892  23.053  27.443  1.00  0.00     0.148 A 
ATOM     75  C   UNL A   1      43.226  23.692  25.056  1.00  0.00     0.002 A 
ATOM     76  C   UNL A   1      42.035  22.100  26.442  1.00  0.00     0.091 A 
ATOM     77  F   UNL A   1      41.241  22.790  28.584  1.00  0.00    -0.205 F 
ATOM     78  C   UNL A   1      42.685  22.422  25.240  1.00  0.00     0.022 A 
BRANCH  76  79
ATOM     79  S   UNL A   1      41.488  20.401  26.646  1.00  0.00     0.127 S 
ATOM     80  O   UNL A   1      40.040  20.562  26.735  1.00  0.00    -0.237 OA
ATOM     81  O   UNL A   1      41.966  19.780  25.410  1.00  0.00    -0.237 OA
ATOM     82  O   UNL A   1      42.147  19.917  27.853  1.00  0.00    -0.744 OA
ENDBRANCH  76  79
ENDBRANCH  48  72
BRANCH  60  83
ATOM     83  C   UNL A   1      46.496  25.914  32.750  1.00  0.00     0.023 A 
ATOM     84  C   UNL A   1      47.744  26.451  32.376  1.00  0.00     0.012 A 
ATOM     85  C   UNL A   1      46.448  24.865  33.689  1.00  0.00     0.148 A 
ATOM     86  C   UNL A   1      48.925  25.931  32.903  1.00  0.00     0.002 A 
ATOM     87  C   UNL A   1      47.626  24.386  34.249  1.00  0.00     0.091 A 
ATOM     88  F   UNL A   1      45.251  24.354  34.017  1.00  0.00    -0.205 F 
ATOM     89  C   UNL A   1      48.866  24.908  33.848  1.00  0.00     0.022 A 
BRANCH  87  90
ATOM     90  S   UNL A   1      47.640  23.140  35.543  1.00  0.00     0.127 S 
ATOM     91  O   UNL A   1      49.073  22.942  35.750  1.00  0.00    -0.237 OA
ATOM     92  O   UNL A   1      46.954  23.825  36.640  1.00  0.00    -0.237 OA
ATOM     93  O   UNL A   1      46.921  21.993  35.005  1.00  0.00    -0.744 OA
ENDBRANCH  87  90
ENDBRANCH  60  83
ENDBRANCH  34  35
ENDBRANCH  26  29
ENDBRANCH  24  25
ENDBRANCH   1  24
TORSDOF 16
ENDMDL
MODEL 3
REMARK VINA RESULT:     -11.3      5.602     11.358
REMARK SMILES C[C@@H]1c2ccccc2-c2ccc(C(=O)NCCCCCCNC(=O)c3ccc(-c4c5nc(c(-c6cccc(S(=O)(=O)[O-])c6F)c6ccc([nH]6)c(-c6cccc(S(=O)(=O)[O-])c6F)c6nc(c(-c7cccc(S(=O)(=O)[O-])c7F)c7ccc4[nH]7)C=C6)C=C5)cc3)cc21
REMARK SMILES IDX 20 1 19 2 18 3 17 4 16 5 15 6 13 7 14 8 12 10 1 11 2 12 3 13
REMARK SMILES IDX 89 14 4 15 8 16 9 17 88 18 5 19 7 20 10 21 6 22 11 23 21 24
REMARK SMILES IDX 22 25 23 26 24 28 25 29 26 30 87 31 27 32 86 33 28 34 29 35
REMARK SMILES IDX 30 36 80 37 31 38 85 39 79 40 81 41 32 42 84 43 78 44 77 45
REMARK SMILES IDX 33 47 65 48 45 49 64 50 46 51 49 52 63 53 82 54 47 55 48 56
REMARK SMILES IDX 62 58 83 59 50 60 34 61 35 62 43 63 36 64 38 65 44 66 37 67
REMARK SMILES IDX 39 68 40 69 41 70 42 71 66 72 67 73 75 74 68 75 70 76 76 77
REMARK SMILES IDX 69 78 71 79 72 80 73 81 74 82 51 83 52 84 60 85 53 86 55 87
REMARK SMILES IDX 61 88 54 89 56 90 57 91 58 92 59 93
REMARK H PARENT 15 9 22 27 81 46 49 57
REMARK Flexibility Score: inf
ROOT
ATOM      1  C   UNL A   1      33.335  28.837  24.787  1.00  0.00     0.021 C 
ENDROOT
BRANCH   1   2
ATOM      2  C   UNL A   1      31.804  28.898  24.786  1.00  0.00     0.002 C 
BRANCH   2   3
ATOM      3  C   UNL A   1      31.147  28.579  23.437  1.00  0.00     0.002 C 
BRANCH   3   4
ATOM      4  C   UNL A   1      29.777  27.894  23.540  1.00  0.00     0.021 C 
BRANCH   4   5
ATOM      5  C   UNL A   1      29.882  26.368  23.609  1.00  0.00     0.116 C 
BRANCH   5   6
ATOM      6  N   UNL A   1      29.434  25.898  24.906  1.00  0.00    -0.352 N 
ATOM      7  C   UNL A   1      30.014  25.133  25.883  1.00  0.00     0.251 C 
ATOM      8  O   UNL A   1      29.329  24.897  26.881  1.00  0.00    -0.269 OA
ATOM      9  H   UNL A   1      28.521  26.191  25.132  1.00  0.00     0.163 HD
BRANCH   7  10
ATOM     10  C   UNL A   1      31.419  24.624  25.835  1.00  0.00     0.040 A 
ATOM     11  C   UNL A   1      33.269  20.464  25.651  1.00  0.00     0.018 C 
ATOM     12  C   UNL A   1      33.756  21.700  24.908  1.00  0.00     0.047 C 
ATOM     13  C   UNL A   1      35.240  21.988  25.077  1.00  0.00    -0.033 A 
ATOM     14  C   UNL A   1      33.134  22.999  25.406  1.00  0.00    -0.032 A 
ATOM     15  C   UNL A   1      36.315  21.154  24.816  1.00  0.00     0.005 A 
ATOM     16  C   UNL A   1      35.431  23.316  25.521  1.00  0.00    -0.014 A 
ATOM     17  C   UNL A   1      34.138  23.943  25.691  1.00  0.00    -0.014 A 
ATOM     18  C   UNL A   1      31.786  23.309  25.536  1.00  0.00     0.018 A 
ATOM     19  C   UNL A   1      37.601  21.653  25.029  1.00  0.00     0.000 A 
ATOM     20  C   UNL A   1      36.708  23.809  25.734  1.00  0.00     0.009 A 
ATOM     21  C   UNL A   1      33.798  25.230  26.062  1.00  0.00     0.010 A 
ATOM     22  C   UNL A   1      37.797  22.967  25.488  1.00  0.00     0.001 A 
ATOM     23  C   UNL A   1      32.438  25.568  26.113  1.00  0.00     0.014 A 
ENDBRANCH   7  10
ENDBRANCH   5   6
ENDBRANCH   4   5
ENDBRANCH   3   4
ENDBRANCH   2   3
ENDBRANCH   1   2
BRANCH   1  24
ATOM     24  C   UNL A   1      33.960  28.947  26.174  1.00  0.00     0.116 C 
BRANCH  24  25
ATOM     25  N   UNL A   1      33.837  30.297  26.705  1.00  0.00    -0.352 N 
ATOM     26  C   UNL A   1      34.569  30.909  27.691  1.00  0.00     0.251 C 
ATOM     27  H   UNL A   1      33.129  30.848  26.300  1.00  0.00     0.163 HD
ATOM     28  O   UNL A   1      34.168  31.953  28.196  1.00  0.00    -0.269 OA
BRANCH  26  29
ATOM     29  C   UNL A   1      35.839  30.303  28.142  1.00  0.00     0.039 A 
ATOM     30  C   UNL A   1      36.970  30.407  27.330  1.00  0.00     0.014 A 
ATOM     31  C   UNL A   1      35.904  29.618  29.360  1.00  0.00     0.014 A 
ATOM     32  C   UNL A   1      38.181  29.863  27.763  1.00  0.00     0.010 A 
ATOM     33  C   UNL A   1      37.126  29.143  29.821  1.00  0.00     0.010 A 
ATOM     34  C   UNL A   1      38.275  29.250  29.022  1.00  0.00    -0.014 A 
BRANCH  34  35
ATOM     35  C   UNL A   1      39.566  28.718  29.526  1.00  0.00     0.031 A 
ATOM     36  C   UNL A   1      40.294  29.424  30.638  1.00  0.00     0.074 A 
ATOM     37  C   UNL A   1      40.124  27.649  28.925  1.00  0.00     0.049 A 
ATOM     38  N   UNL A   1      41.454  29.142  31.172  1.00  0.00    -0.248 NA
ATOM     39  C   UNL A   1      39.648  30.621  31.204  1.00  0.00     0.031 C 
ATOM     40  C   UNL A   1      39.552  26.928  27.785  1.00  0.00     0.029 A 
ATOM     41  N   UNL A   1      41.307  27.000  29.169  1.00  0.00    -0.354 N 
ATOM     42  C   UNL A   1      41.694  30.141  32.109  1.00  0.00     0.074 A 
ATOM     43  C   UNL A   1      40.576  31.058  32.044  1.00  0.00     0.031 C 
ATOM     44  C   UNL A   1      40.384  25.935  27.432  1.00  0.00     0.029 A 
ATOM     45  C   UNL A   1      41.559  25.967  28.297  1.00  0.00     0.049 A 
ATOM     46  H   UNL A   1      41.918  27.250  29.899  1.00  0.00     0.167 HD
ATOM     47  C   UNL A   1      42.735  30.270  32.965  1.00  0.00     0.034 A 
ATOM     48  C   UNL A   1      42.621  25.142  28.199  1.00  0.00     0.034 A 
ATOM     49  C   UNL A   1      43.824  29.334  33.051  1.00  0.00     0.049 A 
ATOM     50  C   UNL A   1      43.746  25.283  29.188  1.00  0.00     0.074 A 
ATOM     51  C   UNL A   1      44.880  29.324  33.945  1.00  0.00     0.029 A 
ATOM     52  N   UNL A   1      44.002  28.248  32.209  1.00  0.00    -0.354 N 
ATOM     53  N   UNL A   1      43.877  26.138  30.173  1.00  0.00    -0.248 NA
ATOM     54  C   UNL A   1      44.851  24.321  29.076  1.00  0.00     0.031 C 
ATOM     55  C   UNL A   1      45.712  28.247  33.624  1.00  0.00     0.029 A 
ATOM     56  C   UNL A   1      45.158  27.567  32.552  1.00  0.00     0.049 A 
ATOM     57  H   UNL A   1      43.397  27.999  31.473  1.00  0.00     0.167 HD
ATOM     58  C   UNL A   1      45.059  25.796  30.820  1.00  0.00     0.074 A 
ATOM     59  C   UNL A   1      45.594  24.642  30.127  1.00  0.00     0.031 C 
ATOM     60  C   UNL A   1      45.653  26.390  31.884  1.00  0.00     0.034 A 
BRANCH  47  61
ATOM     61  C   UNL A   1      42.724  31.443  33.911  1.00  0.00     0.023 A 
ATOM     62  C   UNL A   1      43.303  32.665  33.512  1.00  0.00     0.012 A 
ATOM     63  C   UNL A   1      42.097  31.355  35.169  1.00  0.00     0.148 A 
ATOM     64  C   UNL A   1      43.292  33.770  34.364  1.00  0.00     0.002 A 
ATOM     65  C   UNL A   1      42.047  32.473  35.994  1.00  0.00     0.091 A 
ATOM     66  F   UNL A   1      41.570  30.179  35.541  1.00  0.00    -0.205 F 
ATOM     67  C   UNL A   1      42.655  33.676  35.598  1.00  0.00     0.022 A 
BRANCH  65  68
ATOM     68  S   UNL A   1      41.180  32.480  37.566  1.00  0.00     0.127 S 
ATOM     69  O   UNL A   1      39.881  31.923  37.188  1.00  0.00    -0.237 OA
ATOM     70  O   UNL A   1      42.010  31.590  38.380  1.00  0.00    -0.237 OA
ATOM     71  O   UNL A   1      41.160  33.866  38.009  1.00  0.00    -0.744 OA
ENDBRANCH  65  68
ENDBRANCH  47  61
BRANCH  48  72
ATOM     72  C   UNL A   1      42.637  24.072  27.164  1.00  0.00     0.023 A 
ATOM     73  C   UNL A   1      43.281  24.307  25.933  1.00  0.00     0.012 A 
ATOM     74  C   UNL A   1      42.049  22.813  27.402  1.00  0.00     0.148 A 
ATOM     75  C   UNL A   1      43.311  23.322  24.945  1.00  0.00     0.002 A 
ATOM     76  C   UNL A   1      42.132  21.818  26.436  1.00  0.00     0.091 A 
ATOM     77  F   UNL A   1      41.434  22.612  28.575  1.00  0.00    -0.205 F 
ATOM     78  C   UNL A   1      42.746  22.075  25.200  1.00  0.00     0.022 A 
BRANCH  76  79
ATOM     79  S   UNL A   1      41.551  20.143  26.727  1.00  0.00     0.127 S 
ATOM     80  O   UNL A   1      40.126  20.357  26.958  1.00  0.00    -0.237 OA
ATOM     81  O   UNL A   1      41.881  19.486  25.462  1.00  0.00    -0.237 OA
ATOM     82  O   UNL A   1      42.311  19.656  27.872  1.00  0.00    -0.744 OA
ENDBRANCH  76  79
ENDBRANCH  48  72
BRANCH  60  83
ATOM     83  C   UNL A   1      46.934  25.785  32.397  1.00  0.00     0.023 A 
ATOM     84  C   UNL A   1      48.168  26.170  31.835  1.00  0.00     0.012 A 
ATOM     85  C   UNL A   1      46.918  24.894  33.487  1.00  0.00     0.148 A 
ATOM     86  C   UNL A   1      49.363  25.649  32.328  1.00  0.00     0.002 A 
ATOM     87  C   UNL A   1      48.116  24.419  34.007  1.00  0.00     0.091 A 
ATOM     88  F   UNL A   1      45.733  24.526  33.996  1.00  0.00    -0.205 F 
ATOM     89  C   UNL A   1      49.339  24.785  33.421  1.00  0.00     0.022 A 
BRANCH  87  90
ATOM     90  S   UNL A   1      48.187  23.381  35.472  1.00  0.00     0.127 S 
ATOM     91  O   UNL A   1      49.624  23.164  35.614  1.00  0.00    -0.237 OA
ATOM     92  O   UNL A   1      47.596  24.248  36.493  1.00  0.00    -0.237 OA
ATOM     93  O   UNL A   1      47.402  22.193  35.161  1.00  0.00    -0.744 OA
ENDBRANCH  87  90
ENDBRANCH  60  83
ENDBRANCH  34  35
ENDBRANCH  26  29
ENDBRANCH  24  25
ENDBRANCH   1  24
TORSDOF 16
ENDMDL
