MODEL 1
REMARK VINA RESULT:      -8.0      0.000      0.000
REMARK SMILES CC(C)c1ccc(C(=O)N2CCC[C@@H](C(=O)NCCCCCCNC(=O)c3ccc(-c4c5nc(c(-c6cccc(S(=O)(=O)[O-])c6F)c6ccc([nH]6)c(-c6cccc(S(=O)(=O)[O-])c6F)c6nc(c(-c7cccc(S(=O)(=O)[O-])c7F)c7ccc4[nH]7)C=C6)C=C5)cc3)C2)cc1
REMARK SMILES IDX 20 1 19 2 18 3 17 4 15 5 16 6 14 8 10 9 11 10 90 11 12 12
REMARK SMILES IDX 13 13 8 14 9 15 7 16 4 17 5 18 92 19 6 20 91 21 2 22 1 23
REMARK SMILES IDX 3 24 21 25 22 26 23 27 24 28 25 29 26 31 27 32 28 33 89 34
REMARK SMILES IDX 29 35 88 36 30 37 31 38 32 39 82 40 33 41 87 42 81 43 83 44
REMARK SMILES IDX 34 45 86 46 80 47 79 48 35 50 67 51 47 52 66 53 48 54 51 55
REMARK SMILES IDX 65 56 84 57 49 58 50 59 64 61 85 62 52 63 36 64 37 65 45 66
REMARK SMILES IDX 38 67 40 68 46 69 39 70 41 71 42 72 43 73 44 74 68 75 69 76
REMARK SMILES IDX 77 77 70 78 72 79 78 80 71 81 73 82 74 83 75 84 76 85 53 86
REMARK SMILES IDX 54 87 62 88 55 89 57 90 63 91 56 92 58 93 59 94 60 95 61 96
REMARK H PARENT 17 7 24 30 83 49 51 60
REMARK Flexibility Score: inf
ROOT
ATOM      1  C   UNL A   1      37.432  33.209  30.541  1.00  0.00     0.002 C 
ENDROOT
BRANCH   1   2
ATOM      2  C   UNL A   1      38.204  33.256  29.216  1.00  0.00     0.021 C 
BRANCH   2   3
ATOM      3  C   UNL A   1      39.372  34.243  29.228  1.00  0.00     0.116 C 
BRANCH   3   4
ATOM      4  N   UNL A   1      39.854  34.469  30.579  1.00  0.00    -0.356 N 
ATOM      5  C   UNL A   1      41.024  34.251  31.221  1.00  0.00     0.224 C 
ATOM      6  O   UNL A   1      41.011  34.509  32.434  1.00  0.00    -0.275 OA
ATOM      7  H   UNL A   1      39.172  34.877  31.162  1.00  0.00     0.163 HD
BRANCH   5   8
ATOM      8  C   UNL A   1      42.324  33.743  30.587  1.00  0.00     0.098 C 
ATOM      9  N   UNL A   1      43.203  31.661  29.491  1.00  0.00    -0.338 N 
ATOM     10  C   UNL A   1      43.751  32.402  28.373  1.00  0.00     0.120 C 
ATOM     11  C   UNL A   1      42.093  32.258  30.230  1.00  0.00     0.133 C 
ATOM     12  C   UNL A   1      44.134  33.802  28.802  1.00  0.00     0.022 C 
ATOM     13  C   UNL A   1      42.922  34.504  29.405  1.00  0.00     0.017 C 
BRANCH   9  14
ATOM     14  C   UNL A   1      43.947  30.614  30.006  1.00  0.00     0.253 C 
ATOM     15  O   UNL A   1      44.459  30.653  31.120  1.00  0.00    -0.269 OA
BRANCH  14  16
ATOM     16  C   UNL A   1      44.298  29.525  29.043  1.00  0.00     0.040 A 
ATOM     17  C   UNL A   1      45.169  27.666  27.085  1.00  0.00    -0.045 A 
ATOM     18  C   UNL A   1      45.966  27.976  28.203  1.00  0.00     0.005 A 
ATOM     19  C   UNL A   1      43.909  28.273  27.000  1.00  0.00     0.005 A 
ATOM     20  C   UNL A   1      45.540  28.899  29.166  1.00  0.00     0.014 A 
ATOM     21  C   UNL A   1      43.481  29.195  27.959  1.00  0.00     0.014 A 
BRANCH  17  22
ATOM     22  C   UNL A   1      45.674  26.681  26.036  1.00  0.00     0.013 C 
ATOM     23  C   UNL A   1      46.335  27.329  24.809  1.00  0.00     0.012 C 
ATOM     24  C   UNL A   1      46.662  25.664  26.627  1.00  0.00     0.012 C 
ENDBRANCH  17  22
ENDBRANCH  14  16
ENDBRANCH   9  14
ENDBRANCH   5   8
ENDBRANCH   3   4
ENDBRANCH   2   3
ENDBRANCH   1   2
BRANCH   1  25
ATOM     25  C   UNL A   1      36.146  34.046  30.571  1.00  0.00     0.002 C 
BRANCH  25  26
ATOM     26  C   UNL A   1      34.910  33.361  29.981  1.00  0.00     0.021 C 
BRANCH  26  27
ATOM     27  C   UNL A   1      34.894  33.303  28.458  1.00  0.00     0.116 C 
BRANCH  27  28
ATOM     28  N   UNL A   1      33.995  32.265  27.973  1.00  0.00    -0.352 N 
ATOM     29  C   UNL A   1      34.250  30.941  27.737  1.00  0.00     0.251 C 
ATOM     30  H   UNL A   1      33.073  32.557  27.790  1.00  0.00     0.163 HD
ATOM     31  O   UNL A   1      33.442  30.265  27.094  1.00  0.00    -0.269 OA
BRANCH  29  32
ATOM     32  C   UNL A   1      35.491  30.325  28.245  1.00  0.00     0.039 A 
ATOM     33  C   UNL A   1      36.624  30.296  27.428  1.00  0.00     0.014 A 
ATOM     34  C   UNL A   1      35.530  29.758  29.523  1.00  0.00     0.014 A 
ATOM     35  C   UNL A   1      37.810  29.741  27.910  1.00  0.00     0.010 A 
ATOM     36  C   UNL A   1      36.732  29.271  30.028  1.00  0.00     0.010 A 
ATOM     37  C   UNL A   1      37.881  29.247  29.224  1.00  0.00    -0.014 A 
BRANCH  37  38
ATOM     38  C   UNL A   1      39.148  28.706  29.775  1.00  0.00     0.031 A 
ATOM     39  C   UNL A   1      39.788  29.347  30.977  1.00  0.00     0.074 A 
ATOM     40  C   UNL A   1      39.767  27.690  29.141  1.00  0.00     0.049 A 
ATOM     41  N   UNL A   1      40.919  29.051  31.565  1.00  0.00    -0.248 NA
ATOM     42  C   UNL A   1      39.080  30.488  31.581  1.00  0.00     0.031 C 
ATOM     43  C   UNL A   1      39.287  27.037  27.921  1.00  0.00     0.029 A 
ATOM     44  N   UNL A   1      40.947  27.046  29.419  1.00  0.00    -0.354 N 
ATOM     45  C   UNL A   1      41.074  29.986  32.581  1.00  0.00     0.074 A 
ATOM     46  C   UNL A   1      39.941  30.881  32.509  1.00  0.00     0.031 C 
ATOM     47  C   UNL A   1      40.162  26.086  27.558  1.00  0.00     0.029 A 
ATOM     48  C   UNL A   1      41.279  26.081  28.498  1.00  0.00     0.049 A 
ATOM     49  H   UNL A   1      41.505  27.258  30.202  1.00  0.00     0.167 HD
ATOM     50  C   UNL A   1      42.057  30.075  33.509  1.00  0.00     0.034 A 
ATOM     51  C   UNL A   1      42.363  25.285  28.413  1.00  0.00     0.034 A 
ATOM     52  C   UNL A   1      43.161  29.157  33.602  1.00  0.00     0.049 A 
ATOM     53  C   UNL A   1      43.421  25.380  29.480  1.00  0.00     0.074 A 
ATOM     54  C   UNL A   1      44.159  29.106  34.559  1.00  0.00     0.029 A 
ATOM     55  N   UNL A   1      43.418  28.134  32.702  1.00  0.00    -0.354 N 
ATOM     56  N   UNL A   1      43.469  26.166  30.527  1.00  0.00    -0.248 NA
ATOM     57  C   UNL A   1      44.555  24.451  29.374  1.00  0.00     0.031 C 
ATOM     58  C   UNL A   1      45.034  28.070  34.221  1.00  0.00     0.029 A 
ATOM     59  C   UNL A   1      44.564  27.454  33.072  1.00  0.00     0.049 A 
ATOM     60  H   UNL A   1      42.865  27.924  31.914  1.00  0.00     0.167 HD
ATOM     61  C   UNL A   1      44.616  25.804  31.224  1.00  0.00     0.074 A 
ATOM     62  C   UNL A   1      45.222  24.712  30.490  1.00  0.00     0.031 C 
ATOM     63  C   UNL A   1      45.128  26.335  32.362  1.00  0.00     0.034 A 
BRANCH  50  64
ATOM     64  C   UNL A   1      41.959  31.177  34.532  1.00  0.00     0.023 A 
ATOM     65  C   UNL A   1      41.081  31.034  35.627  1.00  0.00     0.012 A 
ATOM     66  C   UNL A   1      42.772  32.323  34.445  1.00  0.00     0.148 A 
ATOM     67  C   UNL A   1      40.988  32.029  36.599  1.00  0.00     0.002 A 
ATOM     68  C   UNL A   1      42.708  33.290  35.442  1.00  0.00     0.091 A 
ATOM     69  F   UNL A   1      43.585  32.452  33.388  1.00  0.00    -0.205 F 
ATOM     70  C   UNL A   1      41.808  33.151  36.512  1.00  0.00     0.022 A 
BRANCH  68  71
ATOM     71  S   UNL A   1      43.779  34.732  35.466  1.00  0.00     0.127 S 
ATOM     72  O   UNL A   1      45.089  34.122  35.692  1.00  0.00    -0.237 OA
ATOM     73  O   UNL A   1      43.587  35.279  34.123  1.00  0.00    -0.237 OA
ATOM     74  O   UNL A   1      43.289  35.579  36.544  1.00  0.00    -0.744 OA
ENDBRANCH  68  71
ENDBRANCH  50  64
BRANCH  51  75
ATOM     75  C   UNL A   1      42.472  24.288  27.312  1.00  0.00     0.023 A 
ATOM     76  C   UNL A   1      43.125  24.646  26.116  1.00  0.00     0.012 A 
ATOM     77  C   UNL A   1      41.958  22.985  27.450  1.00  0.00     0.148 A 
ATOM     78  C   UNL A   1      43.235  23.734  25.066  1.00  0.00     0.002 A 
ATOM     79  C   UNL A   1      42.122  22.064  26.423  1.00  0.00     0.091 A 
ATOM     80  F   UNL A   1      41.332  22.667  28.593  1.00  0.00    -0.205 F 
ATOM     81  C   UNL A   1      42.743  22.441  25.222  1.00  0.00     0.022 A 
BRANCH  79  82
ATOM     82  S   UNL A   1      41.640  20.340  26.589  1.00  0.00     0.127 S 
ATOM     83  O   UNL A   1      42.453  19.911  27.724  1.00  0.00    -0.237 OA
ATOM     84  O   UNL A   1      40.207  20.454  26.864  1.00  0.00    -0.237 OA
ATOM     85  O   UNL A   1      41.957  19.719  25.311  1.00  0.00    -0.744 OA
ENDBRANCH  79  82
ENDBRANCH  51  75
BRANCH  63  86
ATOM     86  C   UNL A   1      46.389  25.722  32.914  1.00  0.00     0.023 A 
ATOM     87  C   UNL A   1      46.312  24.749  33.930  1.00  0.00     0.012 A 
ATOM     88  C   UNL A   1      47.644  26.059  32.371  1.00  0.00     0.148 A 
ATOM     89  C   UNL A   1      47.469  24.145  34.420  1.00  0.00     0.002 A 
ATOM     90  C   UNL A   1      48.788  25.416  32.827  1.00  0.00     0.091 A 
ATOM     91  F   UNL A   1      47.698  27.000  31.417  1.00  0.00    -0.205 F 
ATOM     92  C   UNL A   1      48.704  24.468  33.861  1.00  0.00     0.022 A 
BRANCH  90  93
ATOM     93  S   UNL A   1      50.406  25.695  32.100  1.00  0.00     0.127 S 
ATOM     94  O   UNL A   1      50.185  25.279  30.716  1.00  0.00    -0.237 OA
ATOM     95  O   UNL A   1      50.585  27.136  32.282  1.00  0.00    -0.237 OA
ATOM     96  O   UNL A   1      51.336  24.870  32.859  1.00  0.00    -0.744 OA
ENDBRANCH  90  93
ENDBRANCH  63  86
ENDBRANCH  37  38
ENDBRANCH  29  32
ENDBRANCH  27  28
ENDBRANCH  26  27
ENDBRANCH  25  26
ENDBRANCH   1  25
TORSDOF 19
ENDMDL
MODEL 2
REMARK VINA RESULT:      -7.9      5.142     11.063
REMARK SMILES CC(C)c1ccc(C(=O)N2CCC[C@@H](C(=O)NCCCCCCNC(=O)c3ccc(-c4c5nc(c(-c6cccc(S(=O)(=O)[O-])c6F)c6ccc([nH]6)c(-c6cccc(S(=O)(=O)[O-])c6F)c6nc(c(-c7cccc(S(=O)(=O)[O-])c7F)c7ccc4[nH]7)C=C6)C=C5)cc3)C2)cc1
REMARK SMILES IDX 20 1 19 2 18 3 17 4 15 5 16 6 14 8 10 9 11 10 90 11 12 12
REMARK SMILES IDX 13 13 8 14 9 15 7 16 4 17 5 18 92 19 6 20 91 21 2 22 1 23
REMARK SMILES IDX 3 24 21 25 22 26 23 27 24 28 25 29 26 31 27 32 28 33 89 34
REMARK SMILES IDX 29 35 88 36 30 37 31 38 32 39 82 40 33 41 87 42 81 43 83 44
REMARK SMILES IDX 34 45 86 46 80 47 79 48 35 50 67 51 47 52 66 53 48 54 51 55
REMARK SMILES IDX 65 56 84 57 49 58 50 59 64 61 85 62 52 63 36 64 37 65 45 66
REMARK SMILES IDX 38 67 40 68 46 69 39 70 41 71 42 72 43 73 44 74 68 75 69 76
REMARK SMILES IDX 77 77 70 78 72 79 78 80 71 81 73 82 74 83 75 84 76 85 53 86
REMARK SMILES IDX 54 87 62 88 55 89 57 90 63 91 56 92 58 93 59 94 60 95 61 96
REMARK H PARENT 17 7 24 30 83 49 51 60
REMARK Flexibility Score: inf
ROOT
ATOM      1  C   UNL A   1      40.359  22.790  26.743  1.00  0.00     0.002 C 
ENDROOT
BRANCH   1   2
ATOM      2  C   UNL A   1      39.229  23.753  27.130  1.00  0.00     0.021 C 
BRANCH   2   3
ATOM      3  C   UNL A   1      38.024  23.683  26.192  1.00  0.00     0.116 C 
BRANCH   3   4
ATOM      4  N   UNL A   1      37.829  22.336  25.687  1.00  0.00    -0.356 N 
ATOM      5  C   UNL A   1      36.757  21.617  25.282  1.00  0.00     0.224 C 
ATOM      6  O   UNL A   1      36.999  20.435  24.994  1.00  0.00    -0.275 OA
ATOM      7  H   UNL A   1      38.671  21.829  25.623  1.00  0.00     0.163 HD
BRANCH   5   8
ATOM      8  C   UNL A   1      35.321  22.134  25.143  1.00  0.00     0.098 C 
ATOM      9  N   UNL A   1      33.710  22.770  23.324  1.00  0.00    -0.338 N 
ATOM     10  C   UNL A   1      32.643  21.980  23.903  1.00  0.00     0.120 C 
ATOM     11  C   UNL A   1      35.087  22.396  23.638  1.00  0.00     0.133 C 
ATOM     12  C   UNL A   1      32.803  21.891  25.405  1.00  0.00     0.022 C 
ATOM     13  C   UNL A   1      34.175  21.319  25.741  1.00  0.00     0.017 C 
BRANCH   9  14
ATOM     14  C   UNL A   1      33.390  24.007  22.792  1.00  0.00     0.253 C 
ATOM     15  O   UNL A   1      33.678  24.327  21.643  1.00  0.00    -0.269 OA
BRANCH  14  16
ATOM     16  C   UNL A   1      32.886  25.026  23.763  1.00  0.00     0.040 A 
ATOM     17  C   UNL A   1      31.969  27.175  25.372  1.00  0.00    -0.045 A 
ATOM     18  C   UNL A   1      31.157  26.618  24.368  1.00  0.00     0.005 A 
ATOM     19  C   UNL A   1      33.230  26.599  25.581  1.00  0.00     0.005 A 
ATOM     20  C   UNL A   1      31.611  25.562  23.568  1.00  0.00     0.014 A 
ATOM     21  C   UNL A   1      33.686  25.544  24.784  1.00  0.00     0.014 A 
BRANCH  17  22
ATOM     22  C   UNL A   1      31.459  28.346  26.206  1.00  0.00     0.013 C 
ATOM     23  C   UNL A   1      31.828  28.285  27.697  1.00  0.00     0.012 C 
ATOM     24  C   UNL A   1      31.934  29.698  25.654  1.00  0.00     0.012 C 
ENDBRANCH  17  22
ENDBRANCH  14  16
ENDBRANCH   9  14
ENDBRANCH   5   8
ENDBRANCH   3   4
ENDBRANCH   2   3
ENDBRANCH   1   2
BRANCH   1  25
ATOM     25  C   UNL A   1      40.903  21.933  27.895  1.00  0.00     0.002 C 
BRANCH  25  26
ATOM     26  C   UNL A   1      41.160  20.464  27.548  1.00  0.00     0.021 C 
BRANCH  26  27
ATOM     27  C   UNL A   1      40.965  20.126  26.074  1.00  0.00     0.116 C 
BRANCH  27  28
ATOM     28  N   UNL A   1      42.102  19.389  25.541  1.00  0.00    -0.352 N 
ATOM     29  C   UNL A   1      43.332  19.855  25.158  1.00  0.00     0.251 C 
ATOM     30  H   UNL A   1      41.968  18.419  25.441  1.00  0.00     0.163 HD
ATOM     31  O   UNL A   1      44.084  19.132  24.500  1.00  0.00    -0.269 OA
BRANCH  29  32
ATOM     32  C   UNL A   1      43.754  21.218  25.530  1.00  0.00     0.039 A 
ATOM     33  C   UNL A   1      43.493  22.276  24.656  1.00  0.00     0.014 A 
ATOM     34  C   UNL A   1      44.425  21.451  26.736  1.00  0.00     0.014 A 
ATOM     35  C   UNL A   1      43.863  23.574  25.011  1.00  0.00     0.010 A 
ATOM     36  C   UNL A   1      44.727  22.753  27.120  1.00  0.00     0.010 A 
ATOM     37  C   UNL A   1      44.461  23.827  26.257  1.00  0.00    -0.014 A 
BRANCH  37  38
ATOM     38  C   UNL A   1      44.810  25.207  26.679  1.00  0.00     0.031 A 
ATOM     39  C   UNL A   1      43.752  26.119  27.240  1.00  0.00     0.074 A 
ATOM     40  C   UNL A   1      46.060  25.667  26.475  1.00  0.00     0.049 A 
ATOM     41  N   UNL A   1      43.854  27.370  27.608  1.00  0.00    -0.248 NA
ATOM     42  C   UNL A   1      42.396  25.562  27.380  1.00  0.00     0.031 C 
ATOM     43  C   UNL A   1      47.152  24.904  25.865  1.00  0.00     0.029 A 
ATOM     44  N   UNL A   1      46.617  26.894  26.733  1.00  0.00    -0.354 N 
ATOM     45  C   UNL A   1      42.575  27.759  27.989  1.00  0.00     0.074 A 
ATOM     46  C   UNL A   1      41.707  26.623  27.774  1.00  0.00     0.031 C 
ATOM     47  C   UNL A   1      48.246  25.679  25.799  1.00  0.00     0.029 A 
ATOM     48  C   UNL A   1      47.927  27.001  26.331  1.00  0.00     0.049 A 
ATOM     49  H   UNL A   1      46.124  27.630  27.164  1.00  0.00     0.167 HD
ATOM     50  C   UNL A   1      42.166  28.946  28.498  1.00  0.00     0.034 A 
ATOM     51  C   UNL A   1      48.776  28.047  26.378  1.00  0.00     0.034 A 
ATOM     52  C   UNL A   1      43.042  30.059  28.748  1.00  0.00     0.049 A 
ATOM     53  C   UNL A   1      48.305  29.342  26.984  1.00  0.00     0.074 A 
ATOM     54  C   UNL A   1      42.744  31.271  29.345  1.00  0.00     0.029 A 
ATOM     55  N   UNL A   1      44.386  30.100  28.409  1.00  0.00    -0.354 N 
ATOM     56  N   UNL A   1      47.132  29.638  27.487  1.00  0.00    -0.248 NA
ATOM     57  C   UNL A   1      49.286  30.433  27.063  1.00  0.00     0.031 C 
ATOM     58  C   UNL A   1      43.901  32.056  29.341  1.00  0.00     0.029 A 
ATOM     59  C   UNL A   1      44.928  31.320  28.772  1.00  0.00     0.049 A 
ATOM     60  H   UNL A   1      44.881  29.368  27.974  1.00  0.00     0.167 HD
ATOM     61  C   UNL A   1      47.243  30.935  27.975  1.00  0.00     0.074 A 
ATOM     62  C   UNL A   1      48.606  31.359  27.726  1.00  0.00     0.031 C 
ATOM     63  C   UNL A   1      46.300  31.710  28.566  1.00  0.00     0.034 A 
BRANCH  50  64
ATOM     64  C   UNL A   1      40.712  29.087  28.867  1.00  0.00     0.023 A 
ATOM     65  C   UNL A   1      39.755  29.306  27.855  1.00  0.00     0.012 A 
ATOM     66  C   UNL A   1      40.284  28.945  30.202  1.00  0.00     0.148 A 
ATOM     67  C   UNL A   1      38.401  29.418  28.167  1.00  0.00     0.002 A 
ATOM     68  C   UNL A   1      38.928  29.011  30.500  1.00  0.00     0.091 A 
ATOM     69  F   UNL A   1      41.209  28.758  31.153  1.00  0.00    -0.205 F 
ATOM     70  C   UNL A   1      37.987  29.260  29.487  1.00  0.00     0.022 A 
BRANCH  68  71
ATOM     71  S   UNL A   1      38.285  28.742  32.156  1.00  0.00     0.127 S 
ATOM     72  O   UNL A   1      38.946  29.808  32.906  1.00  0.00    -0.237 OA
ATOM     73  O   UNL A   1      36.847  28.935  31.962  1.00  0.00    -0.237 OA
ATOM     74  O   UNL A   1      38.673  27.387  32.522  1.00  0.00    -0.744 OA
ENDBRANCH  68  71
ENDBRANCH  50  64
BRANCH  51  75
ATOM     75  C   UNL A   1      50.176  27.892  25.891  1.00  0.00     0.023 A 
ATOM     76  C   UNL A   1      51.202  27.610  26.813  1.00  0.00     0.012 A 
ATOM     77  C   UNL A   1      50.491  27.996  24.523  1.00  0.00     0.148 A 
ATOM     78  C   UNL A   1      52.522  27.468  26.387  1.00  0.00     0.002 A 
ATOM     79  C   UNL A   1      51.798  27.795  24.097  1.00  0.00     0.091 A 
ATOM     80  F   UNL A   1      49.501  28.273  23.663  1.00  0.00    -0.205 F 
ATOM     81  C   UNL A   1      52.820  27.550  25.029  1.00  0.00     0.022 A 
BRANCH  79  82
ATOM     82  S   UNL A   1      52.248  27.750  22.358  1.00  0.00     0.127 S 
ATOM     83  O   UNL A   1      53.707  27.708  22.427  1.00  0.00    -0.237 OA
ATOM     84  O   UNL A   1      51.616  26.505  21.917  1.00  0.00    -0.237 OA
ATOM     85  O   UNL A   1      51.675  28.953  21.772  1.00  0.00    -0.744 OA
ENDBRANCH  79  82
ENDBRANCH  51  75
BRANCH  63  86
ATOM     86  C   UNL A   1      46.710  33.086  29.022  1.00  0.00     0.023 A 
ATOM     87  C   UNL A   1      47.283  33.262  30.297  1.00  0.00     0.012 A 
ATOM     88  C   UNL A   1      46.596  34.190  28.156  1.00  0.00     0.148 A 
ATOM     89  C   UNL A   1      47.705  34.524  30.715  1.00  0.00     0.002 A 
ATOM     90  C   UNL A   1      47.065  35.435  28.559  1.00  0.00     0.091 A 
ATOM     91  F   UNL A   1      46.031  34.005  26.953  1.00  0.00    -0.205 F 
ATOM     92  C   UNL A   1      47.608  35.606  29.843  1.00  0.00     0.022 A 
BRANCH  90  93
ATOM     93  S   UNL A   1      47.073  36.861  27.468  1.00  0.00     0.127 S 
ATOM     94  O   UNL A   1      47.829  36.356  26.323  1.00  0.00    -0.237 OA
ATOM     95  O   UNL A   1      45.646  37.065  27.213  1.00  0.00    -0.237 OA
ATOM     96  O   UNL A   1      47.712  37.936  28.215  1.00  0.00    -0.744 OA
ENDBRANCH  90  93
ENDBRANCH  63  86
ENDBRANCH  37  38
ENDBRANCH  29  32
ENDBRANCH  27  28
ENDBRANCH  26  27
ENDBRANCH  25  26
ENDBRANCH   1  25
TORSDOF 19
ENDMDL
MODEL 3
REMARK VINA RESULT:      -7.7      4.353     11.396
REMARK SMILES CC(C)c1ccc(C(=O)N2CCC[C@@H](C(=O)NCCCCCCNC(=O)c3ccc(-c4c5nc(c(-c6cccc(S(=O)(=O)[O-])c6F)c6ccc([nH]6)c(-c6cccc(S(=O)(=O)[O-])c6F)c6nc(c(-c7cccc(S(=O)(=O)[O-])c7F)c7ccc4[nH]7)C=C6)C=C5)cc3)C2)cc1
REMARK SMILES IDX 20 1 19 2 18 3 17 4 15 5 16 6 14 8 10 9 11 10 90 11 12 12
REMARK SMILES IDX 13 13 8 14 9 15 7 16 4 17 5 18 92 19 6 20 91 21 2 22 1 23
REMARK SMILES IDX 3 24 21 25 22 26 23 27 24 28 25 29 26 31 27 32 28 33 89 34
REMARK SMILES IDX 29 35 88 36 30 37 31 38 32 39 82 40 33 41 87 42 81 43 83 44
REMARK SMILES IDX 34 45 86 46 80 47 79 48 35 50 67 51 47 52 66 53 48 54 51 55
REMARK SMILES IDX 65 56 84 57 49 58 50 59 64 61 85 62 52 63 36 64 37 65 45 66
REMARK SMILES IDX 38 67 40 68 46 69 39 70 41 71 42 72 43 73 44 74 68 75 69 76
REMARK SMILES IDX 77 77 70 78 72 79 78 80 71 81 73 82 74 83 75 84 76 85 53 86
REMARK SMILES IDX 54 87 62 88 55 89 57 90 63 91 56 92 58 93 59 94 60 95 61 96
REMARK H PARENT 17 7 24 30 83 49 51 60
REMARK Flexibility Score: inf
ROOT
ATOM      1  C   UNL A   1      39.998  22.713  26.387  1.00  0.00     0.002 C 
ENDROOT
BRANCH   1   2
ATOM      2  C   UNL A   1      38.556  23.237  26.399  1.00  0.00     0.021 C 
BRANCH   2   3
ATOM      3  C   UNL A   1      37.603  22.414  25.533  1.00  0.00     0.116 C 
BRANCH   3   4
ATOM      4  N   UNL A   1      36.498  21.893  26.318  1.00  0.00    -0.356 N 
ATOM      5  C   UNL A   1      35.150  21.980  26.239  1.00  0.00     0.224 C 
ATOM      6  O   UNL A   1      34.537  21.451  27.178  1.00  0.00    -0.275 OA
ATOM      7  H   UNL A   1      36.799  21.351  27.083  1.00  0.00     0.163 HD
BRANCH   5   8
ATOM      8  C   UNL A   1      34.350  22.643  25.112  1.00  0.00     0.098 C 
ATOM      9  N   UNL A   1      33.519  24.926  24.475  1.00  0.00    -0.338 N 
ATOM     10  C   UNL A   1      34.019  24.802  23.121  1.00  0.00     0.120 C 
ATOM     11  C   UNL A   1      34.155  24.121  25.516  1.00  0.00     0.133 C 
ATOM     12  C   UNL A   1      34.030  23.351  22.691  1.00  0.00     0.022 C 
ATOM     13  C   UNL A   1      34.856  22.530  23.675  1.00  0.00     0.017 C 
BRANCH   9  14
ATOM     14  C   UNL A   1      32.284  25.522  24.662  1.00  0.00     0.253 C 
ATOM     15  O   UNL A   1      31.274  25.147  24.077  1.00  0.00    -0.269 OA
BRANCH  14  16
ATOM     16  C   UNL A   1      32.287  26.802  25.435  1.00  0.00     0.040 A 
ATOM     17  C   UNL A   1      32.411  29.368  26.638  1.00  0.00    -0.045 A 
ATOM     18  C   UNL A   1      31.404  29.045  25.711  1.00  0.00     0.005 A 
ATOM     19  C   UNL A   1      33.322  28.361  26.983  1.00  0.00     0.005 A 
ATOM     20  C   UNL A   1      31.346  27.782  25.110  1.00  0.00     0.014 A 
ATOM     21  C   UNL A   1      33.268  27.098  26.386  1.00  0.00     0.014 A 
BRANCH  17  22
ATOM     22  C   UNL A   1      32.466  30.765  27.251  1.00  0.00     0.013 C 
ATOM     23  C   UNL A   1      33.876  31.371  27.344  1.00  0.00     0.012 C 
ATOM     24  C   UNL A   1      31.570  31.760  26.501  1.00  0.00     0.012 C 
ENDBRANCH  17  22
ENDBRANCH  14  16
ENDBRANCH   9  14
ENDBRANCH   5   8
ENDBRANCH   3   4
ENDBRANCH   2   3
ENDBRANCH   1   2
BRANCH   1  25
ATOM     25  C   UNL A   1      40.403  21.902  27.626  1.00  0.00     0.002 C 
BRANCH  25  26
ATOM     26  C   UNL A   1      40.806  20.451  27.350  1.00  0.00     0.021 C 
BRANCH  26  27
ATOM     27  C   UNL A   1      40.924  20.104  25.870  1.00  0.00     0.116 C 
BRANCH  27  28
ATOM     28  N   UNL A   1      42.231  19.544  25.556  1.00  0.00    -0.352 N 
ATOM     29  C   UNL A   1      43.426  20.186  25.375  1.00  0.00     0.251 C 
ATOM     30  H   UNL A   1      42.259  18.564  25.460  1.00  0.00     0.163 HD
ATOM     31  O   UNL A   1      44.378  19.582  24.872  1.00  0.00    -0.269 OA
BRANCH  29  32
ATOM     32  C   UNL A   1      43.576  21.598  25.778  1.00  0.00     0.039 A 
ATOM     33  C   UNL A   1      43.922  21.898  27.098  1.00  0.00     0.014 A 
ATOM     34  C   UNL A   1      43.356  22.627  24.856  1.00  0.00     0.014 A 
ATOM     35  C   UNL A   1      44.094  23.229  27.481  1.00  0.00     0.010 A 
ATOM     36  C   UNL A   1      43.598  23.947  25.221  1.00  0.00     0.010 A 
ATOM     37  C   UNL A   1      43.958  24.264  26.540  1.00  0.00    -0.014 A 
BRANCH  37  38
ATOM     38  C   UNL A   1      44.192  25.681  26.914  1.00  0.00     0.031 A 
ATOM     39  C   UNL A   1      45.580  26.261  26.856  1.00  0.00     0.074 A 
ATOM     40  C   UNL A   1      43.170  26.420  27.387  1.00  0.00     0.049 A 
ATOM     41  N   UNL A   1      45.988  27.457  27.196  1.00  0.00    -0.248 NA
ATOM     42  C   UNL A   1      46.655  25.374  26.382  1.00  0.00     0.031 C 
ATOM     43  C   UNL A   1      41.796  25.946  27.565  1.00  0.00     0.029 A 
ATOM     44  N   UNL A   1      43.132  27.718  27.832  1.00  0.00    -0.354 N 
ATOM     45  C   UNL A   1      47.366  27.455  27.011  1.00  0.00     0.074 A 
ATOM     46  C   UNL A   1      47.729  26.129  26.562  1.00  0.00     0.031 C 
ATOM     47  C   UNL A   1      41.051  26.938  28.077  1.00  0.00     0.029 A 
ATOM     48  C   UNL A   1      41.898  28.108  28.294  1.00  0.00     0.049 A 
ATOM     49  H   UNL A   1      43.917  28.314  27.821  1.00  0.00     0.167 HD
ATOM     50  C   UNL A   1      48.244  28.473  27.172  1.00  0.00     0.034 A 
ATOM     51  C   UNL A   1      41.493  29.272  28.838  1.00  0.00     0.034 A 
ATOM     52  C   UNL A   1      47.871  29.801  27.579  1.00  0.00     0.049 A 
ATOM     53  C   UNL A   1      42.483  30.398  28.970  1.00  0.00     0.074 A 
ATOM     54  C   UNL A   1      48.671  30.925  27.684  1.00  0.00     0.029 A 
ATOM     55  N   UNL A   1      46.593  30.183  27.956  1.00  0.00    -0.354 N 
ATOM     56  N   UNL A   1      43.750  30.426  28.637  1.00  0.00    -0.248 NA
ATOM     57  C   UNL A   1      41.977  31.665  29.517  1.00  0.00     0.031 C 
ATOM     58  C   UNL A   1      47.881  31.980  28.152  1.00  0.00     0.029 A 
ATOM     59  C   UNL A   1      46.583  31.522  28.306  1.00  0.00     0.049 A 
ATOM     60  H   UNL A   1      45.807  29.589  27.972  1.00  0.00     0.167 HD
ATOM     61  C   UNL A   1      44.184  31.720  28.899  1.00  0.00     0.074 A 
ATOM     62  C   UNL A   1      43.038  32.452  29.398  1.00  0.00     0.031 C 
ATOM     63  C   UNL A   1      45.423  32.252  28.751  1.00  0.00     0.034 A 
BRANCH  50  64
ATOM     64  C   UNL A   1      49.694  28.204  26.859  1.00  0.00     0.023 A 
ATOM     65  C   UNL A   1      50.145  28.286  25.526  1.00  0.00     0.012 A 
ATOM     66  C   UNL A   1      50.619  27.930  27.886  1.00  0.00     0.148 A 
ATOM     67  C   UNL A   1      51.486  28.063  25.214  1.00  0.00     0.002 A 
ATOM     68  C   UNL A   1      51.962  27.756  27.573  1.00  0.00     0.091 A 
ATOM     69  F   UNL A   1      50.168  27.836  29.145  1.00  0.00    -0.205 F 
ATOM     70  C   UNL A   1      52.395  27.809  26.237  1.00  0.00     0.022 A 
BRANCH  68  71
ATOM     71  S   UNL A   1      53.225  27.503  28.825  1.00  0.00     0.127 S 
ATOM     72  O   UNL A   1      53.144  28.752  29.581  1.00  0.00    -0.237 OA
ATOM     73  O   UNL A   1      52.722  26.328  29.536  1.00  0.00    -0.237 OA
ATOM     74  O   UNL A   1      54.471  27.290  28.102  1.00  0.00    -0.744 OA
ENDBRANCH  68  71
ENDBRANCH  50  64
BRANCH  51  75
ATOM     75  C   UNL A   1      40.069  29.450  29.242  1.00  0.00     0.023 A 
ATOM     76  C   UNL A   1      39.092  29.669  28.253  1.00  0.00     0.012 A 
ATOM     77  C   UNL A   1      39.676  29.377  30.592  1.00  0.00     0.148 A 
ATOM     78  C   UNL A   1      37.753  29.847  28.602  1.00  0.00     0.002 A 
ATOM     79  C   UNL A   1      38.334  29.497  30.929  1.00  0.00     0.091 A 
ATOM     80  F   UNL A   1      40.624  29.177  31.519  1.00  0.00    -0.205 F 
ATOM     81  C   UNL A   1      37.372  29.751  29.938  1.00  0.00     0.022 A 
BRANCH  79  82
ATOM     82  S   UNL A   1      37.737  29.253  32.606  1.00  0.00     0.127 S 
ATOM     83  O   UNL A   1      38.618  30.134  33.368  1.00  0.00    -0.237 OA
ATOM     84  O   UNL A   1      36.350  29.709  32.501  1.00  0.00    -0.237 OA
ATOM     85  O   UNL A   1      37.881  27.829  32.871  1.00  0.00    -0.744 OA
ENDBRANCH  79  82
ENDBRANCH  51  75
BRANCH  63  86
ATOM     86  C   UNL A   1      45.605  33.707  29.096  1.00  0.00     0.023 A 
ATOM     87  C   UNL A   1      46.081  34.075  30.370  1.00  0.00     0.012 A 
ATOM     88  C   UNL A   1      45.374  34.705  28.129  1.00  0.00     0.148 A 
ATOM     89  C   UNL A   1      46.293  35.416  30.687  1.00  0.00     0.002 A 
ATOM     90  C   UNL A   1      45.636  36.035  28.434  1.00  0.00     0.091 A 
ATOM     91  F   UNL A   1      44.904  34.336  26.928  1.00  0.00    -0.205 F 
ATOM     92  C   UNL A   1      46.083  36.394  29.717  1.00  0.00     0.022 A 
BRANCH  90  93
ATOM     93  S   UNL A   1      45.490  37.349  27.219  1.00  0.00     0.127 S 
ATOM     94  O   UNL A   1      46.020  38.495  27.956  1.00  0.00    -0.237 OA
ATOM     95  O   UNL A   1      46.351  36.869  26.137  1.00  0.00    -0.237 OA
ATOM     96  O   UNL A   1      44.076  37.426  26.876  1.00  0.00    -0.744 OA
ENDBRANCH  90  93
ENDBRANCH  63  86
ENDBRANCH  37  38
ENDBRANCH  29  32
ENDBRANCH  27  28
ENDBRANCH  26  27
ENDBRANCH  25  26
ENDBRANCH   1  25
TORSDOF 19
ENDMDL
