MODEL 1
REMARK VINA RESULT:     -11.4      0.000      0.000
REMARK SMILES C[C@H](NC(=O)N1CC[C@@H](C(=O)NCCCCCCNC(=O)c2ccc(-c3c4nc(c(-c5cccc(S(=O)(=O)[O-])c5F)c5ccc([nH]5)c(-c5cccc(S(=O)(=O)[O-])c5F)c5nc(c(-c6cccc(S(=O)(=O)[O-])c6F)c6ccc3[nH]6)C=C5)C=C4)cc2)[C@@H]1C)c1cccc(Cl)c1
REMARK SMILES IDX 15 1 14 2 13 3 12 4 10 5 11 6 9 8 6 9 7 10 85 11 8 12 86 13
REMARK SMILES IDX 4 14 3 15 5 17 2 18 1 19 87 20 88 21 93 22 89 23 91 24 90 25
REMARK SMILES IDX 92 26 16 27 17 28 18 29 19 30 20 31 21 33 22 34 23 35 84 36
REMARK SMILES IDX 24 37 83 38 25 39 26 40 27 41 77 42 28 43 82 44 76 45 78 46
REMARK SMILES IDX 29 47 81 48 75 49 74 50 30 52 62 53 42 54 61 55 43 56 46 57
REMARK SMILES IDX 60 58 79 59 44 60 45 61 59 63 80 64 47 65 31 66 32 67 40 68
REMARK SMILES IDX 33 69 35 70 41 71 34 72 36 73 37 74 38 75 39 76 63 77 64 78
REMARK SMILES IDX 72 79 65 80 67 81 73 82 66 83 68 84 69 85 70 86 71 87 48 88
REMARK SMILES IDX 49 89 57 90 50 91 52 92 58 93 51 94 53 95 54 96 55 97 56 98
REMARK H PARENT 12 7 3 16 19 32 78 51 46 62
REMARK Flexibility Score: inf
ROOT
ATOM      1  C   UNL A   1      31.520  28.132  24.911  1.00  0.00     0.002 C 
ENDROOT
BRANCH   1   2
ATOM      2  C   UNL A   1      30.104  28.022  24.336  1.00  0.00     0.021 C 
BRANCH   2   3
ATOM      3  C   UNL A   1      29.757  26.731  23.586  1.00  0.00     0.116 C 
BRANCH   3   4
ATOM      4  N   UNL A   1      29.946  25.543  24.407  1.00  0.00    -0.356 N 
ATOM      5  C   UNL A   1      31.002  24.696  24.551  1.00  0.00     0.225 C 
ATOM      6  O   UNL A   1      30.862  23.766  25.355  1.00  0.00    -0.275 OA
ATOM      7  H   UNL A   1      29.166  25.310  24.961  1.00  0.00     0.163 HD
BRANCH   5   8
ATOM      8  C   UNL A   1      32.305  24.807  23.766  1.00  0.00     0.102 C 
ATOM      9  N   UNL A   1      34.197  23.369  23.591  1.00  0.00    -0.321 N 
ATOM     10  C   UNL A   1      33.755  23.661  22.241  1.00  0.00     0.122 C 
ATOM     11  C   UNL A   1      33.522  24.257  24.534  1.00  0.00     0.096 C 
ATOM     12  C   UNL A   1      32.319  24.126  22.398  1.00  0.00     0.037 C 
ATOM     13  C   UNL A   1      34.451  25.390  24.986  1.00  0.00     0.032 C 
BRANCH   9  14
ATOM     14  C   UNL A   1      35.415  22.787  23.756  1.00  0.00     0.318 C 
ATOM     15  N   UNL A   1      35.680  21.937  24.760  1.00  0.00    -0.331 N 
ATOM     16  H   UNL A   1      36.620  21.990  25.047  1.00  0.00     0.165 HD
ATOM     17  O   UNL A   1      36.334  23.002  22.962  1.00  0.00    -0.249 OA
BRANCH  15  18
ATOM     18  C   UNL A   1      34.930  20.954  25.536  1.00  0.00     0.111 C 
ATOM     19  C   UNL A   1      34.267  21.409  26.826  1.00  0.00     0.036 C 
BRANCH  18  20
ATOM     20  C   UNL A   1      34.036  20.041  24.713  1.00  0.00    -0.024 A 
ATOM     21  C   UNL A   1      32.831  20.441  24.118  1.00  0.00     0.006 A 
ATOM     22  C   UNL A   1      34.438  18.708  24.541  1.00  0.00     0.026 A 
ATOM     23  C   UNL A   1      32.064  19.546  23.362  1.00  0.00     0.002 A 
ATOM     24  C   UNL A   1      33.685  17.825  23.772  1.00  0.00     0.041 A 
ATOM     25  C   UNL A   1      32.494  18.234  23.183  1.00  0.00     0.020 A 
ATOM     26  Cl  UNL A   1      34.283  16.234  23.557  1.00  0.00    -0.084 Cl
ENDBRANCH  18  20
ENDBRANCH  15  18
ENDBRANCH   9  14
ENDBRANCH   5   8
ENDBRANCH   3   4
ENDBRANCH   2   3
ENDBRANCH   1   2
BRANCH   1  27
ATOM     27  C   UNL A   1      31.688  27.845  26.408  1.00  0.00     0.002 C 
BRANCH  27  28
ATOM     28  C   UNL A   1      33.065  28.119  27.029  1.00  0.00     0.021 C 
BRANCH  28  29
ATOM     29  C   UNL A   1      33.941  29.172  26.342  1.00  0.00     0.116 C 
BRANCH  29  30
ATOM     30  N   UNL A   1      33.725  30.516  26.857  1.00  0.00    -0.352 N 
ATOM     31  C   UNL A   1      34.444  31.250  27.774  1.00  0.00     0.251 C 
ATOM     32  H   UNL A   1      32.937  30.976  26.487  1.00  0.00     0.163 HD
ATOM     33  O   UNL A   1      33.986  32.322  28.167  1.00  0.00    -0.269 OA
BRANCH  31  34
ATOM     34  C   UNL A   1      35.748  30.780  28.313  1.00  0.00     0.039 A 
ATOM     35  C   UNL A   1      35.762  29.755  29.266  1.00  0.00     0.014 A 
ATOM     36  C   UNL A   1      36.953  31.384  27.955  1.00  0.00     0.014 A 
ATOM     37  C   UNL A   1      36.975  29.297  29.804  1.00  0.00     0.010 A 
ATOM     38  C   UNL A   1      38.165  30.890  28.458  1.00  0.00     0.010 A 
ATOM     39  C   UNL A   1      38.201  29.837  29.382  1.00  0.00    -0.014 A 
BRANCH  39  40
ATOM     40  C   UNL A   1      39.512  29.287  29.850  1.00  0.00     0.031 A 
ATOM     41  C   UNL A   1      40.286  29.925  30.984  1.00  0.00     0.074 A 
ATOM     42  C   UNL A   1      40.079  28.258  29.186  1.00  0.00     0.049 A 
ATOM     43  N   UNL A   1      41.438  29.568  31.499  1.00  0.00    -0.248 NA
ATOM     44  C   UNL A   1      39.711  31.131  31.599  1.00  0.00     0.031 C 
ATOM     45  C   UNL A   1      39.522  27.611  27.996  1.00  0.00     0.029 A 
ATOM     46  N   UNL A   1      41.261  27.588  29.401  1.00  0.00    -0.354 N 
ATOM     47  C   UNL A   1      41.742  30.519  32.468  1.00  0.00     0.074 A 
ATOM     48  C   UNL A   1      40.669  31.491  32.443  1.00  0.00     0.031 C 
ATOM     49  C   UNL A   1      40.347  26.628  27.602  1.00  0.00     0.029 A 
ATOM     50  C   UNL A   1      41.501  26.581  28.496  1.00  0.00     0.049 A 
ATOM     51  H   UNL A   1      41.878  27.808  30.137  1.00  0.00     0.167 HD
ATOM     52  C   UNL A   1      42.790  30.567  33.327  1.00  0.00     0.034 A 
ATOM     53  C   UNL A   1      42.522  25.705  28.395  1.00  0.00     0.034 A 
ATOM     54  C   UNL A   1      43.829  29.573  33.409  1.00  0.00     0.049 A 
ATOM     55  C   UNL A   1      43.631  25.726  29.412  1.00  0.00     0.074 A 
ATOM     56  C   UNL A   1      44.858  29.478  34.331  1.00  0.00     0.029 A 
ATOM     57  N   UNL A   1      43.975  28.503  32.542  1.00  0.00    -0.354 N 
ATOM     58  N   UNL A   1      43.785  26.513  30.448  1.00  0.00    -0.248 NA
ATOM     59  C   UNL A   1      44.684  24.708  29.272  1.00  0.00     0.031 C 
ATOM     60  C   UNL A   1      45.630  28.353  34.018  1.00  0.00     0.029 A 
ATOM     61  C   UNL A   1      45.077  27.744  32.905  1.00  0.00     0.049 A 
ATOM     62  H   UNL A   1      43.382  28.309  31.780  1.00  0.00     0.167 HD
ATOM     63  C   UNL A   1      44.929  26.064  31.101  1.00  0.00     0.074 A 
ATOM     64  C   UNL A   1      45.417  24.922  30.357  1.00  0.00     0.031 C 
ATOM     65  C   UNL A   1      45.528  26.569  32.208  1.00  0.00     0.034 A 
BRANCH  52  66
ATOM     66  C   UNL A   1      42.825  31.694  34.330  1.00  0.00     0.023 A 
ATOM     67  C   UNL A   1      43.407  32.923  33.957  1.00  0.00     0.012 A 
ATOM     68  C   UNL A   1      42.217  31.577  35.596  1.00  0.00     0.148 A 
ATOM     69  C   UNL A   1      43.417  34.005  34.836  1.00  0.00     0.002 A 
ATOM     70  C   UNL A   1      42.194  32.673  36.453  1.00  0.00     0.091 A 
ATOM     71  F   UNL A   1      41.679  30.398  35.943  1.00  0.00    -0.205 F 
ATOM     72  C   UNL A   1      42.802  33.883  36.079  1.00  0.00     0.022 A 
BRANCH  70  73
ATOM     73  S   UNL A   1      41.353  32.639  38.042  1.00  0.00     0.127 S 
ATOM     74  O   UNL A   1      41.474  34.032  38.470  1.00  0.00    -0.237 OA
ATOM     75  O   UNL A   1      39.997  32.234  37.670  1.00  0.00    -0.237 OA
ATOM     76  O   UNL A   1      42.073  31.667  38.851  1.00  0.00    -0.744 OA
ENDBRANCH  70  73
ENDBRANCH  52  66
BRANCH  53  77
ATOM     77  C   UNL A   1      42.488  24.650  27.341  1.00  0.00     0.023 A 
ATOM     78  C   UNL A   1      43.338  24.773  26.225  1.00  0.00     0.012 A 
ATOM     79  C   UNL A   1      41.652  23.523  27.448  1.00  0.00     0.148 A 
ATOM     80  C   UNL A   1      43.338  23.807  25.220  1.00  0.00     0.002 A 
ATOM     81  C   UNL A   1      41.695  22.536  26.470  1.00  0.00     0.091 A 
ATOM     82  F   UNL A   1      40.838  23.432  28.510  1.00  0.00    -0.205 F 
ATOM     83  C   UNL A   1      42.526  22.684  25.348  1.00  0.00     0.022 A 
BRANCH  81  84
ATOM     84  S   UNL A   1      40.786  20.995  26.623  1.00  0.00     0.127 S 
ATOM     85  O   UNL A   1      39.456  21.385  26.160  1.00  0.00    -0.237 OA
ATOM     86  O   UNL A   1      41.519  20.114  25.713  1.00  0.00    -0.237 OA
ATOM     87  O   UNL A   1      40.889  20.621  28.026  1.00  0.00    -0.744 OA
ENDBRANCH  81  84
ENDBRANCH  53  77
BRANCH  65  88
ATOM     88  C   UNL A   1      46.770  25.880  32.713  1.00  0.00     0.023 A 
ATOM     89  C   UNL A   1      48.036  26.325  32.285  1.00  0.00     0.012 A 
ATOM     90  C   UNL A   1      46.690  24.844  33.665  1.00  0.00     0.148 A 
ATOM     91  C   UNL A   1      49.200  25.733  32.773  1.00  0.00     0.002 A 
ATOM     92  C   UNL A   1      47.856  24.286  34.180  1.00  0.00     0.091 A 
ATOM     93  F   UNL A   1      45.476  24.417  34.047  1.00  0.00    -0.205 F 
ATOM     94  C   UNL A   1      49.111  24.722  33.727  1.00  0.00     0.022 A 
BRANCH  92  95
ATOM     95  S   UNL A   1      47.834  23.040  35.475  1.00  0.00     0.127 S 
ATOM     96  O   UNL A   1      49.262  22.811  35.694  1.00  0.00    -0.237 OA
ATOM     97  O   UNL A   1      47.154  23.735  36.569  1.00  0.00    -0.237 OA
ATOM     98  O   UNL A   1      47.094  21.911  34.928  1.00  0.00    -0.744 OA
ENDBRANCH  92  95
ENDBRANCH  65  88
ENDBRANCH  39  40
ENDBRANCH  31  34
ENDBRANCH  29  30
ENDBRANCH  28  29
ENDBRANCH  27  28
ENDBRANCH   1  27
TORSDOF 19
ENDMDL
MODEL 2
REMARK VINA RESULT:     -11.1      3.646      8.756
REMARK SMILES C[C@H](NC(=O)N1CC[C@@H](C(=O)NCCCCCCNC(=O)c2ccc(-c3c4nc(c(-c5cccc(S(=O)(=O)[O-])c5F)c5ccc([nH]5)c(-c5cccc(S(=O)(=O)[O-])c5F)c5nc(c(-c6cccc(S(=O)(=O)[O-])c6F)c6ccc3[nH]6)C=C5)C=C4)cc2)[C@@H]1C)c1cccc(Cl)c1
REMARK SMILES IDX 15 1 14 2 13 3 12 4 10 5 11 6 9 8 6 9 7 10 85 11 8 12 86 13
REMARK SMILES IDX 4 14 3 15 5 17 2 18 1 19 87 20 88 21 93 22 89 23 91 24 90 25
REMARK SMILES IDX 92 26 16 27 17 28 18 29 19 30 20 31 21 33 22 34 23 35 84 36
REMARK SMILES IDX 24 37 83 38 25 39 26 40 27 41 77 42 28 43 82 44 76 45 78 46
REMARK SMILES IDX 29 47 81 48 75 49 74 50 30 52 62 53 42 54 61 55 43 56 46 57
REMARK SMILES IDX 60 58 79 59 44 60 45 61 59 63 80 64 47 65 31 66 32 67 40 68
REMARK SMILES IDX 33 69 35 70 41 71 34 72 36 73 37 74 38 75 39 76 63 77 64 78
REMARK SMILES IDX 72 79 65 80 67 81 73 82 66 83 68 84 69 85 70 86 71 87 48 88
REMARK SMILES IDX 49 89 57 90 50 91 52 92 58 93 51 94 53 95 54 96 55 97 56 98
REMARK H PARENT 12 7 3 16 19 32 78 51 46 62
REMARK Flexibility Score: inf
ROOT
ATOM      1  C   UNL A   1      31.752  28.751  27.306  1.00  0.00     0.002 C 
ENDROOT
BRANCH   1   2
ATOM      2  C   UNL A   1      31.943  27.692  26.216  1.00  0.00     0.021 C 
BRANCH   2   3
ATOM      3  C   UNL A   1      30.847  26.629  26.081  1.00  0.00     0.116 C 
BRANCH   3   4
ATOM      4  N   UNL A   1      31.131  25.435  26.866  1.00  0.00    -0.356 N 
ATOM      5  C   UNL A   1      31.721  24.253  26.542  1.00  0.00     0.225 C 
ATOM      6  O   UNL A   1      31.837  23.421  27.450  1.00  0.00    -0.275 OA
ATOM      7  H   UNL A   1      30.843  25.495  27.806  1.00  0.00     0.163 HD
BRANCH   5   8
ATOM      8  C   UNL A   1      32.204  23.890  25.141  1.00  0.00     0.102 C 
ATOM      9  N   UNL A   1      32.641  25.209  23.205  1.00  0.00    -0.321 N 
ATOM     10  C   UNL A   1      33.823  24.405  23.452  1.00  0.00     0.122 C 
ATOM     11  C   UNL A   1      31.539  24.731  24.035  1.00  0.00     0.096 C 
ATOM     12  C   UNL A   1      33.711  23.991  24.907  1.00  0.00     0.037 C 
ATOM     13  C   UNL A   1      30.554  23.889  23.214  1.00  0.00     0.032 C 
BRANCH   9  14
ATOM     14  C   UNL A   1      32.537  25.847  22.009  1.00  0.00     0.318 C 
ATOM     15  N   UNL A   1      31.903  27.022  21.869  1.00  0.00    -0.331 N 
ATOM     16  H   UNL A   1      31.486  27.110  20.982  1.00  0.00     0.165 HD
ATOM     17  O   UNL A   1      33.051  25.377  20.991  1.00  0.00    -0.249 OA
BRANCH  15  18
ATOM     18  C   UNL A   1      31.673  28.201  22.698  1.00  0.00     0.111 C 
ATOM     19  C   UNL A   1      32.815  29.187  22.879  1.00  0.00     0.036 C 
BRANCH  18  20
ATOM     20  C   UNL A   1      30.340  28.893  22.467  1.00  0.00    -0.024 A 
ATOM     21  C   UNL A   1      30.173  30.051  21.694  1.00  0.00     0.006 A 
ATOM     22  C   UNL A   1      29.199  28.341  23.070  1.00  0.00     0.026 A 
ATOM     23  C   UNL A   1      28.910  30.627  21.515  1.00  0.00     0.002 A 
ATOM     24  C   UNL A   1      27.940  28.902  22.874  1.00  0.00     0.041 A 
ATOM     25  C   UNL A   1      27.787  30.049  22.101  1.00  0.00     0.020 A 
ATOM     26  Cl  UNL A   1      26.592  28.125  23.590  1.00  0.00    -0.084 Cl
ENDBRANCH  18  20
ENDBRANCH  15  18
ENDBRANCH   9  14
ENDBRANCH   5   8
ENDBRANCH   3   4
ENDBRANCH   2   3
ENDBRANCH   1   2
BRANCH   1  27
ATOM     27  C   UNL A   1      32.681  29.971  27.263  1.00  0.00     0.002 C 
BRANCH  27  28
ATOM     28  C   UNL A   1      32.024  31.358  27.240  1.00  0.00     0.021 C 
BRANCH  28  29
ATOM     29  C   UNL A   1      32.873  32.521  26.715  1.00  0.00     0.116 C 
BRANCH  29  30
ATOM     30  N   UNL A   1      32.644  33.764  27.435  1.00  0.00    -0.352 N 
ATOM     31  C   UNL A   1      33.225  34.254  28.584  1.00  0.00     0.251 C 
ATOM     32  H   UNL A   1      31.963  34.352  27.035  1.00  0.00     0.163 HD
ATOM     33  O   UNL A   1      32.765  35.274  29.094  1.00  0.00    -0.269 OA
BRANCH  31  34
ATOM     34  C   UNL A   1      34.382  33.580  29.231  1.00  0.00     0.039 A 
ATOM     35  C   UNL A   1      35.665  34.114  29.060  1.00  0.00     0.014 A 
ATOM     36  C   UNL A   1      34.237  32.387  29.938  1.00  0.00     0.014 A 
ATOM     37  C   UNL A   1      36.780  33.495  29.647  1.00  0.00     0.010 A 
ATOM     38  C   UNL A   1      35.347  31.800  30.564  1.00  0.00     0.010 A 
ATOM     39  C   UNL A   1      36.632  32.343  30.437  1.00  0.00    -0.014 A 
BRANCH  39  40
ATOM     40  C   UNL A   1      37.786  31.732  31.170  1.00  0.00     0.031 A 
ATOM     41  C   UNL A   1      38.652  30.661  30.545  1.00  0.00     0.074 A 
ATOM     42  C   UNL A   1      38.007  32.063  32.460  1.00  0.00     0.049 A 
ATOM     43  N   UNL A   1      39.684  30.031  31.055  1.00  0.00    -0.248 NA
ATOM     44  C   UNL A   1      38.302  30.218  29.186  1.00  0.00     0.031 C 
ATOM     45  C   UNL A   1      37.188  32.987  33.248  1.00  0.00     0.029 A 
ATOM     46  N   UNL A   1      38.973  31.646  33.345  1.00  0.00    -0.354 N 
ATOM     47  C   UNL A   1      40.081  29.099  30.102  1.00  0.00     0.074 A 
ATOM     48  C   UNL A   1      39.156  29.220  28.995  1.00  0.00     0.031 C 
ATOM     49  C   UNL A   1      37.697  33.081  34.486  1.00  0.00     0.029 A 
ATOM     50  C   UNL A   1      38.868  32.215  34.593  1.00  0.00     0.049 A 
ATOM     51  H   UNL A   1      39.677  30.998  33.107  1.00  0.00     0.167 HD
ATOM     52  C   UNL A   1      41.136  28.247  30.120  1.00  0.00     0.034 A 
ATOM     53  C   UNL A   1      39.629  32.075  35.698  1.00  0.00     0.034 A 
ATOM     54  C   UNL A   1      42.103  28.163  31.183  1.00  0.00     0.049 A 
ATOM     55  C   UNL A   1      40.843  31.187  35.664  1.00  0.00     0.074 A 
ATOM     56  C   UNL A   1      43.271  27.418  31.227  1.00  0.00     0.029 A 
ATOM     57  N   UNL A   1      42.022  28.842  32.387  1.00  0.00    -0.354 N 
ATOM     58  N   UNL A   1      41.315  30.472  34.673  1.00  0.00    -0.248 NA
ATOM     59  C   UNL A   1      41.656  31.123  36.889  1.00  0.00     0.031 C 
ATOM     60  C   UNL A   1      43.892  27.643  32.462  1.00  0.00     0.029 A 
ATOM     61  C   UNL A   1      43.115  28.533  33.182  1.00  0.00     0.049 A 
ATOM     62  H   UNL A   1      41.294  29.455  32.641  1.00  0.00     0.167 HD
ATOM     63  C   UNL A   1      42.494  29.902  35.142  1.00  0.00     0.074 A 
ATOM     64  C   UNL A   1      42.679  30.373  36.498  1.00  0.00     0.031 C 
ATOM     65  C   UNL A   1      43.337  29.050  34.507  1.00  0.00     0.034 A 
BRANCH  52  66
ATOM     66  C   UNL A   1      41.366  27.389  28.900  1.00  0.00     0.023 A 
ATOM     67  C   UNL A   1      40.573  26.237  28.715  1.00  0.00     0.012 A 
ATOM     68  C   UNL A   1      42.291  27.754  27.902  1.00  0.00     0.148 A 
ATOM     69  C   UNL A   1      40.720  25.444  27.579  1.00  0.00     0.002 A 
ATOM     70  C   UNL A   1      42.404  26.981  26.751  1.00  0.00     0.091 A 
ATOM     71  F   UNL A   1      43.048  28.844  28.097  1.00  0.00    -0.205 F 
ATOM     72  C   UNL A   1      41.628  25.821  26.594  1.00  0.00     0.022 A 
BRANCH  70  73
ATOM     73  S   UNL A   1      43.486  27.430  25.387  1.00  0.00     0.127 S 
ATOM     74  O   UNL A   1      44.127  26.151  25.084  1.00  0.00    -0.237 OA
ATOM     75  O   UNL A   1      42.536  27.889  24.373  1.00  0.00    -0.237 OA
ATOM     76  O   UNL A   1      44.365  28.469  25.904  1.00  0.00    -0.744 OA
ENDBRANCH  70  73
ENDBRANCH  52  66
BRANCH  53  77
ATOM     77  C   UNL A   1      39.323  32.887  36.911  1.00  0.00     0.023 A 
ATOM     78  C   UNL A   1      39.936  34.146  37.060  1.00  0.00     0.012 A 
ATOM     79  C   UNL A   1      38.418  32.443  37.893  1.00  0.00     0.148 A 
ATOM     80  C   UNL A   1      39.674  34.938  38.177  1.00  0.00     0.002 A 
ATOM     81  C   UNL A   1      38.121  33.259  38.977  1.00  0.00     0.091 A 
ATOM     82  F   UNL A   1      37.857  31.234  37.741  1.00  0.00    -0.205 F 
ATOM     83  C   UNL A   1      38.759  34.500  39.130  1.00  0.00     0.022 A 
BRANCH  81  84
ATOM     84  S   UNL A   1      36.854  32.833  40.177  1.00  0.00     0.127 S 
ATOM     85  O   UNL A   1      35.692  32.609  39.320  1.00  0.00    -0.237 OA
ATOM     86  O   UNL A   1      37.407  31.626  40.793  1.00  0.00    -0.237 OA
ATOM     87  O   UNL A   1      36.772  33.976  41.077  1.00  0.00    -0.744 OA
ENDBRANCH  81  84
ENDBRANCH  53  77
BRANCH  65  88
ATOM     88  C   UNL A   1      44.560  28.583  35.252  1.00  0.00     0.023 A 
ATOM     89  C   UNL A   1      45.750  29.333  35.177  1.00  0.00     0.012 A 
ATOM     90  C   UNL A   1      44.515  27.445  36.083  1.00  0.00     0.148 A 
ATOM     91  C   UNL A   1      46.882  28.944  35.893  1.00  0.00     0.002 A 
ATOM     92  C   UNL A   1      45.634  27.087  36.827  1.00  0.00     0.091 A 
ATOM     93  F   UNL A   1      43.380  26.729  36.127  1.00  0.00    -0.205 F 
ATOM     94  C   UNL A   1      46.822  27.829  36.726  1.00  0.00     0.022 A 
BRANCH  92  95
ATOM     95  S   UNL A   1      45.616  25.717  37.991  1.00  0.00     0.127 S 
ATOM     96  O   UNL A   1      45.040  24.644  37.180  1.00  0.00    -0.237 OA
ATOM     97  O   UNL A   1      47.037  25.549  38.300  1.00  0.00    -0.237 OA
ATOM     98  O   UNL A   1      44.804  26.161  39.115  1.00  0.00    -0.744 OA
ENDBRANCH  92  95
ENDBRANCH  65  88
ENDBRANCH  39  40
ENDBRANCH  31  34
ENDBRANCH  29  30
ENDBRANCH  28  29
ENDBRANCH  27  28
ENDBRANCH   1  27
TORSDOF 19
ENDMDL
MODEL 3
REMARK VINA RESULT:     -10.8      3.216      4.858
REMARK SMILES C[C@H](NC(=O)N1CC[C@@H](C(=O)NCCCCCCNC(=O)c2ccc(-c3c4nc(c(-c5cccc(S(=O)(=O)[O-])c5F)c5ccc([nH]5)c(-c5cccc(S(=O)(=O)[O-])c5F)c5nc(c(-c6cccc(S(=O)(=O)[O-])c6F)c6ccc3[nH]6)C=C5)C=C4)cc2)[C@@H]1C)c1cccc(Cl)c1
REMARK SMILES IDX 15 1 14 2 13 3 12 4 10 5 11 6 9 8 6 9 7 10 85 11 8 12 86 13
REMARK SMILES IDX 4 14 3 15 5 17 2 18 1 19 87 20 88 21 93 22 89 23 91 24 90 25
REMARK SMILES IDX 92 26 16 27 17 28 18 29 19 30 20 31 21 33 22 34 23 35 84 36
REMARK SMILES IDX 24 37 83 38 25 39 26 40 27 41 77 42 28 43 82 44 76 45 78 46
REMARK SMILES IDX 29 47 81 48 75 49 74 50 30 52 62 53 42 54 61 55 43 56 46 57
REMARK SMILES IDX 60 58 79 59 44 60 45 61 59 63 80 64 47 65 31 66 32 67 40 68
REMARK SMILES IDX 33 69 35 70 41 71 34 72 36 73 37 74 38 75 39 76 63 77 64 78
REMARK SMILES IDX 72 79 65 80 67 81 73 82 66 83 68 84 69 85 70 86 71 87 48 88
REMARK SMILES IDX 49 89 57 90 50 91 52 92 58 93 51 94 53 95 54 96 55 97 56 98
REMARK H PARENT 12 7 3 16 19 32 78 51 46 62
REMARK Flexibility Score: inf
ROOT
ATOM      1  C   UNL A   1      31.690  28.715  27.352  1.00  0.00     0.002 C 
ENDROOT
BRANCH   1   2
ATOM      2  C   UNL A   1      32.133  27.447  26.615  1.00  0.00     0.021 C 
BRANCH   2   3
ATOM      3  C   UNL A   1      31.039  26.437  26.250  1.00  0.00     0.116 C 
BRANCH   3   4
ATOM      4  N   UNL A   1      31.192  25.173  26.957  1.00  0.00    -0.356 N 
ATOM      5  C   UNL A   1      31.705  23.972  26.572  1.00  0.00     0.225 C 
ATOM      6  O   UNL A   1      31.711  23.073  27.422  1.00  0.00    -0.275 OA
ATOM      7  H   UNL A   1      30.864  25.190  27.885  1.00  0.00     0.163 HD
BRANCH   5   8
ATOM      8  C   UNL A   1      32.226  23.670  25.171  1.00  0.00     0.102 C 
ATOM      9  N   UNL A   1      32.753  25.076  23.320  1.00  0.00    -0.321 N 
ATOM     10  C   UNL A   1      33.910  24.236  23.563  1.00  0.00     0.122 C 
ATOM     11  C   UNL A   1      31.615  24.581  24.089  1.00  0.00     0.096 C 
ATOM     12  C   UNL A   1      33.742  23.752  24.991  1.00  0.00     0.037 C 
ATOM     13  C   UNL A   1      30.641  23.803  23.194  1.00  0.00     0.032 C 
BRANCH   9  14
ATOM     14  C   UNL A   1      32.701  25.776  22.156  1.00  0.00     0.318 C 
ATOM     15  N   UNL A   1      32.062  26.952  22.047  1.00  0.00    -0.331 N 
ATOM     16  H   UNL A   1      31.689  27.085  21.146  1.00  0.00     0.165 HD
ATOM     17  O   UNL A   1      33.269  25.365  21.141  1.00  0.00    -0.249 OA
BRANCH  15  18
ATOM     18  C   UNL A   1      31.780  28.084  22.925  1.00  0.00     0.111 C 
ATOM     19  C   UNL A   1      32.739  29.263  22.910  1.00  0.00     0.036 C 
BRANCH  18  20
ATOM     20  C   UNL A   1      30.325  28.520  22.955  1.00  0.00    -0.024 A 
ATOM     21  C   UNL A   1      29.244  27.651  23.159  1.00  0.00     0.006 A 
ATOM     22  C   UNL A   1      30.041  29.880  22.761  1.00  0.00     0.026 A 
ATOM     23  C   UNL A   1      27.927  28.126  23.186  1.00  0.00     0.002 A 
ATOM     24  C   UNL A   1      28.733  30.355  22.808  1.00  0.00     0.041 A 
ATOM     25  C   UNL A   1      27.669  29.484  23.016  1.00  0.00     0.020 A 
ATOM     26  Cl  UNL A   1      28.482  32.040  22.629  1.00  0.00    -0.084 Cl
ENDBRANCH  18  20
ENDBRANCH  15  18
ENDBRANCH   9  14
ENDBRANCH   5   8
ENDBRANCH   3   4
ENDBRANCH   2   3
ENDBRANCH   1   2
BRANCH   1  27
ATOM     27  C   UNL A   1      32.613  29.936  27.256  1.00  0.00     0.002 C 
BRANCH  27  28
ATOM     28  C   UNL A   1      31.950  31.317  27.168  1.00  0.00     0.021 C 
BRANCH  28  29
ATOM     29  C   UNL A   1      32.825  32.479  26.686  1.00  0.00     0.116 C 
BRANCH  29  30
ATOM     30  N   UNL A   1      32.545  33.728  27.378  1.00  0.00    -0.352 N 
ATOM     31  C   UNL A   1      33.121  34.278  28.502  1.00  0.00     0.251 C 
ATOM     32  H   UNL A   1      31.826  34.269  26.977  1.00  0.00     0.163 HD
ATOM     33  O   UNL A   1      32.618  35.287  28.994  1.00  0.00    -0.269 OA
BRANCH  31  34
ATOM     34  C   UNL A   1      34.324  33.683  29.143  1.00  0.00     0.039 A 
ATOM     35  C   UNL A   1      34.157  32.664  30.089  1.00  0.00     0.014 A 
ATOM     36  C   UNL A   1      35.607  34.164  28.889  1.00  0.00     0.014 A 
ATOM     37  C   UNL A   1      35.271  32.090  30.722  1.00  0.00     0.010 A 
ATOM     38  C   UNL A   1      36.719  33.553  29.488  1.00  0.00     0.010 A 
ATOM     39  C   UNL A   1      36.575  32.505  30.405  1.00  0.00    -0.014 A 
BRANCH  39  40
ATOM     40  C   UNL A   1      37.782  31.829  30.977  1.00  0.00     0.031 A 
ATOM     41  C   UNL A   1      38.331  32.194  32.340  1.00  0.00     0.074 A 
ATOM     42  C   UNL A   1      38.469  30.943  30.226  1.00  0.00     0.049 A 
ATOM     43  N   UNL A   1      39.372  31.702  32.968  1.00  0.00    -0.248 NA
ATOM     44  C   UNL A   1      37.644  33.264  33.079  1.00  0.00     0.031 C 
ATOM     45  C   UNL A   1      38.143  30.573  28.846  1.00  0.00     0.029 A 
ATOM     46  N   UNL A   1      39.595  30.205  30.506  1.00  0.00    -0.354 N 
ATOM     47  C   UNL A   1      39.487  32.423  34.152  1.00  0.00     0.074 A 
ATOM     48  C   UNL A   1      38.430  33.412  34.139  1.00  0.00     0.031 C 
ATOM     49  C   UNL A   1      39.033  29.667  28.411  1.00  0.00     0.029 A 
ATOM     50  C   UNL A   1      40.005  29.400  29.468  1.00  0.00     0.049 A 
ATOM     51  H   UNL A   1      40.066  30.249  31.370  1.00  0.00     0.167 HD
ATOM     52  C   UNL A   1      40.360  32.259  35.178  1.00  0.00     0.034 A 
ATOM     53  C   UNL A   1      41.033  28.533  29.373  1.00  0.00     0.034 A 
ATOM     54  C   UNL A   1      41.373  31.237  35.235  1.00  0.00     0.049 A 
ATOM     55  C   UNL A   1      41.937  28.307  30.554  1.00  0.00     0.074 A 
ATOM     56  C   UNL A   1      42.217  30.922  36.288  1.00  0.00     0.029 A 
ATOM     57  N   UNL A   1      41.683  30.366  34.205  1.00  0.00    -0.354 N 
ATOM     58  N   UNL A   1      41.893  28.858  31.742  1.00  0.00    -0.248 NA
ATOM     59  C   UNL A   1      43.005  27.308  30.397  1.00  0.00     0.031 C 
ATOM     60  C   UNL A   1      43.041  29.862  35.891  1.00  0.00     0.029 A 
ATOM     61  C   UNL A   1      42.705  29.514  34.594  1.00  0.00     0.049 A 
ATOM     62  H   UNL A   1      41.241  30.353  33.325  1.00  0.00     0.167 HD
ATOM     63  C   UNL A   1      42.902  28.249  32.482  1.00  0.00     0.074 A 
ATOM     64  C   UNL A   1      43.525  27.271  31.616  1.00  0.00     0.031 C 
ATOM     65  C   UNL A   1      43.285  28.495  33.759  1.00  0.00     0.034 A 
BRANCH  52  66
ATOM     66  C   UNL A   1      40.203  33.153  36.383  1.00  0.00     0.023 A 
ATOM     67  C   UNL A   1      39.251  32.814  37.367  1.00  0.00     0.012 A 
ATOM     68  C   UNL A   1      41.040  34.268  36.591  1.00  0.00     0.148 A 
ATOM     69  C   UNL A   1      39.108  33.585  38.518  1.00  0.00     0.002 A 
ATOM     70  C   UNL A   1      40.920  35.010  37.762  1.00  0.00     0.091 A 
ATOM     71  F   UNL A   1      41.931  34.588  35.642  1.00  0.00    -0.205 F 
ATOM     72  C   UNL A   1      39.948  34.676  38.720  1.00  0.00     0.022 A 
BRANCH  70  73
ATOM     73  S   UNL A   1      42.012  36.384  38.151  1.00  0.00     0.127 S 
ATOM     74  O   UNL A   1      43.031  35.729  38.971  1.00  0.00    -0.237 OA
ATOM     75  O   UNL A   1      42.473  36.801  36.827  1.00  0.00    -0.237 OA
ATOM     76  O   UNL A   1      41.186  37.365  38.839  1.00  0.00    -0.744 OA
ENDBRANCH  70  73
ENDBRANCH  52  66
BRANCH  53  77
ATOM     77  C   UNL A   1      41.199  27.720  28.133  1.00  0.00     0.023 A 
ATOM     78  C   UNL A   1      41.766  28.322  26.993  1.00  0.00     0.012 A 
ATOM     79  C   UNL A   1      40.834  26.362  28.083  1.00  0.00     0.148 A 
ATOM     80  C   UNL A   1      41.941  27.596  25.816  1.00  0.00     0.002 A 
ATOM     81  C   UNL A   1      41.060  25.629  26.923  1.00  0.00     0.091 A 
ATOM     82  F   UNL A   1      40.281  25.810  29.172  1.00  0.00    -0.205 F 
ATOM     83  C   UNL A   1      41.599  26.248  25.785  1.00  0.00     0.022 A 
BRANCH  81  84
ATOM     84  S   UNL A   1      40.776  23.857  26.840  1.00  0.00     0.127 S 
ATOM     85  O   UNL A   1      39.348  23.796  26.539  1.00  0.00    -0.237 OA
ATOM     86  O   UNL A   1      41.655  23.457  25.739  1.00  0.00    -0.237 OA
ATOM     87  O   UNL A   1      41.177  23.338  28.140  1.00  0.00    -0.744 OA
ENDBRANCH  81  84
ENDBRANCH  53  77
BRANCH  65  88
ATOM     88  C   UNL A   1      44.418  27.678  34.325  1.00  0.00     0.023 A 
ATOM     89  C   UNL A   1      45.744  28.126  34.170  1.00  0.00     0.012 A 
ATOM     90  C   UNL A   1      44.169  26.509  35.072  1.00  0.00     0.148 A 
ATOM     91  C   UNL A   1      46.806  27.410  34.723  1.00  0.00     0.002 A 
ATOM     92  C   UNL A   1      45.229  25.823  35.657  1.00  0.00     0.091 A 
ATOM     93  F   UNL A   1      42.902  26.084  35.193  1.00  0.00    -0.205 F 
ATOM     94  C   UNL A   1      46.548  26.266  35.475  1.00  0.00     0.022 A 
BRANCH  92  95
ATOM     95  S   UNL A   1      44.979  24.390  36.713  1.00  0.00     0.127 S 
ATOM     96  O   UNL A   1      44.381  23.433  35.783  1.00  0.00    -0.237 OA
ATOM     97  O   UNL A   1      46.345  24.063  37.127  1.00  0.00    -0.237 OA
ATOM     98  O   UNL A   1      44.115  24.839  37.795  1.00  0.00    -0.744 OA
ENDBRANCH  92  95
ENDBRANCH  65  88
ENDBRANCH  39  40
ENDBRANCH  31  34
ENDBRANCH  29  30
ENDBRANCH  28  29
ENDBRANCH  27  28
ENDBRANCH   1  27
TORSDOF 19
ENDMDL
