MODEL 1
REMARK VINA RESULT:     -12.9      0.000      0.000
REMARK SMILES O=C(NCCCCCCNC(=O)[C@H]1[C@H]2CC[C@H](C2)[C@@H]1C(=O)Nc1sc2c(c1C(=O)NC1CCCCC1)CCCC2)c1ccc(-c2c3nc(c(-c4cccc(S(=O)(=O)[O-])c4F)c4ccc([nH]4)c(-c4cccc(S(=O)(=O)[O-])c4F)c4nc(c(-c5cccc(S(=O)(=O)[O-])c5F)c5ccc2[nH]5)C=C4)C=C3)cc1
REMARK SMILES IDX 7 1 6 2 5 3 4 4 3 5 1 6 2 7 41 9 42 10 103 11 43 12 102 13
REMARK SMILES IDX 44 14 45 15 46 16 96 17 47 18 101 19 95 20 97 21 48 22
REMARK SMILES IDX 100 23 94 24 93 25 49 27 81 28 61 29 80 30 62 31 65 32 79 33
REMARK SMILES IDX 98 34 63 35 64 36 78 38 99 39 66 40 50 41 51 42 59 43 52 44
REMARK SMILES IDX 54 45 60 46 53 47 55 48 56 49 57 50 58 51 82 52 83 53 91 54
REMARK SMILES IDX 84 55 86 56 92 57 85 58 87 59 88 60 89 61 90 62 67 63 68 64
REMARK SMILES IDX 76 65 69 66 71 67 77 68 70 69 72 70 73 71 74 72 75 73 8 74
REMARK SMILES IDX 9 75 10 76 11 77 12 79 13 80 14 81 19 82 15 83 18 84 17 85
REMARK SMILES IDX 16 86 20 87 21 88 22 89 23 91 24 92 27 93 25 94 26 95 40 96
REMARK SMILES IDX 37 97 39 98 38 99 28 100 29 101 30 102 31 104 32 105 36 106
REMARK SMILES IDX 33 107 35 108 34 109
REMARK H PARENT 3 8 97 26 65 37 10 78 22 90 30 103
REMARK Flexibility Score: inf
ROOT
ATOM      1  C   UNL A   1      32.856  30.269  25.803  1.00  0.00     0.002 C 
ENDROOT
BRANCH   1   2
ATOM      2  C   UNL A   1      31.435  30.817  25.961  1.00  0.00     0.002 C 
BRANCH   2   3
ATOM      3  C   UNL A   1      31.326  32.223  26.551  1.00  0.00     0.021 C 
BRANCH   3   4
ATOM      4  C   UNL A   1      32.652  32.856  26.947  1.00  0.00     0.116 C 
BRANCH   4   5
ATOM      5  N   UNL A   1      32.479  34.150  27.579  1.00  0.00    -0.352 N 
ATOM      6  O   UNL A   1      32.745  35.699  29.198  1.00  0.00    -0.269 OA
ATOM      7  C   UNL A   1      33.140  34.662  28.668  1.00  0.00     0.251 C 
ATOM      8  H   UNL A   1      31.801  34.738  27.175  1.00  0.00     0.163 HD
BRANCH   7   9
ATOM      9  C   UNL A   1      34.316  33.944  29.199  1.00  0.00     0.039 A 
ATOM     10  C   UNL A   1      35.604  34.435  28.957  1.00  0.00     0.014 A 
ATOM     11  C   UNL A   1      34.135  32.776  29.943  1.00  0.00     0.014 A 
ATOM     12  C   UNL A   1      36.711  33.700  29.357  1.00  0.00     0.010 A 
ATOM     13  C   UNL A   1      35.251  32.088  30.429  1.00  0.00     0.010 A 
ATOM     14  C   UNL A   1      36.546  32.542  30.134  1.00  0.00    -0.014 A 
BRANCH  14  15
ATOM     15  C   UNL A   1      37.742  31.924  30.758  1.00  0.00     0.031 A 
ATOM     16  C   UNL A   1      38.582  30.914  30.033  1.00  0.00     0.074 A 
ATOM     17  C   UNL A   1      38.041  32.283  32.023  1.00  0.00     0.049 A 
ATOM     18  N   UNL A   1      39.651  30.290  30.456  1.00  0.00    -0.248 NA
ATOM     19  C   UNL A   1      38.179  30.550  28.666  1.00  0.00     0.031 C 
ATOM     20  C   UNL A   1      37.258  33.221  32.838  1.00  0.00     0.029 A 
ATOM     21  N   UNL A   1      39.063  31.903  32.852  1.00  0.00    -0.354 N 
ATOM     22  C   UNL A   1      40.024  29.428  29.433  1.00  0.00     0.074 A 
ATOM     23  C   UNL A   1      39.073  29.617  28.358  1.00  0.00     0.031 C 
ATOM     24  C   UNL A   1      37.832  33.348  34.041  1.00  0.00     0.029 A 
ATOM     25  C   UNL A   1      38.978  32.453  34.111  1.00  0.00     0.049 A 
ATOM     26  H   UNL A   1      39.786  31.296  32.576  1.00  0.00     0.167 HD
ATOM     27  C   UNL A   1      41.065  28.563  29.402  1.00  0.00     0.034 A 
ATOM     28  C   UNL A   1      39.711  32.230  35.217  1.00  0.00     0.034 A 
ATOM     29  C   UNL A   1      42.015  28.402  30.472  1.00  0.00     0.049 A 
ATOM     30  C   UNL A   1      40.855  31.263  35.139  1.00  0.00     0.074 A 
ATOM     31  C   UNL A   1      43.157  27.618  30.492  1.00  0.00     0.029 A 
ATOM     32  N   UNL A   1      41.923  29.004  31.716  1.00  0.00    -0.354 N 
ATOM     33  N   UNL A   1      41.291  30.585  34.105  1.00  0.00    -0.248 NA
ATOM     34  C   UNL A   1      41.623  31.046  36.372  1.00  0.00     0.031 C 
ATOM     35  C   UNL A   1      43.727  27.710  31.765  1.00  0.00     0.029 A 
ATOM     36  C   UNL A   1      42.967  28.584  32.524  1.00  0.00     0.049 A 
ATOM     37  H   UNL A   1      41.219  29.637  31.986  1.00  0.00     0.167 HD
ATOM     38  C   UNL A   1      42.394  29.875  34.559  1.00  0.00     0.074 A 
ATOM     39  C   UNL A   1      42.585  30.239  35.948  1.00  0.00     0.031 C 
ATOM     40  C   UNL A   1      43.168  28.985  33.892  1.00  0.00     0.034 A 
BRANCH  27  41
ATOM     41  C   UNL A   1      41.263  27.717  28.170  1.00  0.00     0.023 A 
ATOM     42  C   UNL A   1      41.795  28.294  27.001  1.00  0.00     0.012 A 
ATOM     43  C   UNL A   1      41.047  26.325  28.220  1.00  0.00     0.148 A 
ATOM     44  C   UNL A   1      42.101  27.500  25.895  1.00  0.00     0.002 A 
ATOM     45  C   UNL A   1      41.394  25.535  27.131  1.00  0.00     0.091 A 
ATOM     46  F   UNL A   1      40.526  25.800  29.338  1.00  0.00    -0.205 F 
ATOM     47  C   UNL A   1      41.913  26.122  25.966  1.00  0.00     0.022 A 
BRANCH  45  48
ATOM     48  S   UNL A   1      41.271  23.744  27.150  1.00  0.00     0.127 S 
ATOM     49  O   UNL A   1      41.646  23.408  25.776  1.00  0.00    -0.237 OA
ATOM     50  O   UNL A   1      42.266  23.381  28.159  1.00  0.00    -0.237 OA
ATOM     51  O   UNL A   1      39.894  23.435  27.508  1.00  0.00    -0.744 OA
ENDBRANCH  45  48
ENDBRANCH  27  41
BRANCH  28  52
ATOM     52  C   UNL A   1      39.374  32.923  36.492  1.00  0.00     0.023 A 
ATOM     53  C   UNL A   1      39.937  34.180  36.776  1.00  0.00     0.012 A 
ATOM     54  C   UNL A   1      38.492  32.337  37.423  1.00  0.00     0.148 A 
ATOM     55  C   UNL A   1      39.665  34.822  37.985  1.00  0.00     0.002 A 
ATOM     56  C   UNL A   1      38.174  33.012  38.594  1.00  0.00     0.091 A 
ATOM     57  F   UNL A   1      37.977  31.132  37.141  1.00  0.00    -0.205 F 
ATOM     58  C   UNL A   1      38.777  34.244  38.888  1.00  0.00     0.022 A 
BRANCH  56  59
ATOM     59  S   UNL A   1      36.929  32.404  39.737  1.00  0.00     0.127 S 
ATOM     60  O   UNL A   1      37.469  31.096  40.095  1.00  0.00    -0.237 OA
ATOM     61  O   UNL A   1      36.980  33.407  40.802  1.00  0.00    -0.237 OA
ATOM     62  O   UNL A   1      35.682  32.396  38.984  1.00  0.00    -0.744 OA
ENDBRANCH  56  59
ENDBRANCH  28  52
BRANCH  40  63
ATOM     63  C   UNL A   1      44.307  28.358  34.650  1.00  0.00     0.023 A 
ATOM     64  C   UNL A   1      45.558  29.004  34.693  1.00  0.00     0.012 A 
ATOM     65  C   UNL A   1      44.122  27.159  35.363  1.00  0.00     0.148 A 
ATOM     66  C   UNL A   1      46.620  28.444  35.402  1.00  0.00     0.002 A 
ATOM     67  C   UNL A   1      45.167  26.635  36.112  1.00  0.00     0.091 A 
ATOM     68  F   UNL A   1      42.927  26.552  35.295  1.00  0.00    -0.205 F 
ATOM     69  C   UNL A   1      46.422  27.267  36.121  1.00  0.00     0.022 A 
BRANCH  67  70
ATOM     70  S   UNL A   1      44.980  25.177  37.144  1.00  0.00     0.127 S 
ATOM     71  O   UNL A   1      46.370  24.861  37.467  1.00  0.00    -0.237 OA
ATOM     72  O   UNL A   1      44.194  25.693  38.265  1.00  0.00    -0.237 OA
ATOM     73  O   UNL A   1      44.292  24.189  36.325  1.00  0.00    -0.744 OA
ENDBRANCH  67  70
ENDBRANCH  40  63
ENDBRANCH  14  15
ENDBRANCH   7   9
ENDBRANCH   4   5
ENDBRANCH   3   4
ENDBRANCH   2   3
ENDBRANCH   1   2
BRANCH   1  74
ATOM     74  C   UNL A   1      33.488  29.670  27.061  1.00  0.00     0.021 C 
BRANCH  74  75
ATOM     75  C   UNL A   1      33.255  28.183  27.252  1.00  0.00     0.116 C 
BRANCH  75  76
ATOM     76  N   UNL A   1      33.862  27.366  26.222  1.00  0.00    -0.356 N 
ATOM     77  C   UNL A   1      33.235  26.545  25.326  1.00  0.00     0.224 C 
ATOM     78  H   UNL A   1      34.844  27.407  26.160  1.00  0.00     0.163 HD
ATOM     79  O   UNL A   1      33.919  25.955  24.493  1.00  0.00    -0.275 OA
BRANCH  77  80
ATOM     80  C   UNL A   1      31.722  26.395  25.427  1.00  0.00     0.094 C 
ATOM     81  C   UNL A   1      30.992  27.397  24.477  1.00  0.00     0.002 C 
ATOM     82  C   UNL A   1      31.166  25.026  24.953  1.00  0.00     0.094 C 
ATOM     83  C   UNL A   1      31.367  27.212  23.004  1.00  0.00     0.005 C 
ATOM     84  C   UNL A   1      29.601  26.818  24.483  1.00  0.00     0.009 C 
ATOM     85  C   UNL A   1      30.042  25.443  23.982  1.00  0.00     0.002 C 
ATOM     86  C   UNL A   1      30.702  25.872  22.648  1.00  0.00     0.005 C 
BRANCH  82  87
ATOM     87  C   UNL A   1      30.885  23.960  26.041  1.00  0.00     0.229 C 
ATOM     88  O   UNL A   1      29.826  24.063  26.683  1.00  0.00    -0.274 OA
ATOM     89  N   UNL A   1      31.609  22.834  26.294  1.00  0.00    -0.317 N 
ATOM     90  H   UNL A   1      31.099  22.123  26.744  1.00  0.00     0.170 HD
BRANCH  89  91
ATOM     91  C   UNL A   1      32.919  22.509  26.037  1.00  0.00     0.108 A 
ATOM     92  S   UNL A   1      34.023  22.602  27.331  1.00  0.00    -0.122 S 
ATOM     93  C   UNL A   1      33.457  21.800  24.952  1.00  0.00     0.078 A 
ATOM     94  C   UNL A   1      35.291  22.552  26.208  1.00  0.00     0.011 A 
ATOM     95  C   UNL A   1      34.920  21.837  25.077  1.00  0.00    -0.019 A 
ATOM     96  C   UNL A   1      36.631  23.173  26.468  1.00  0.00     0.047 C 
ATOM     97  C   UNL A   1      36.010  21.358  24.161  1.00  0.00     0.037 C 
ATOM     98  C   UNL A   1      37.461  23.141  25.177  1.00  0.00     0.006 C 
ATOM     99  C   UNL A   1      37.434  21.720  24.610  1.00  0.00     0.005 C 
BRANCH  93 100
ATOM    100  C   UNL A   1      32.507  21.252  23.954  1.00  0.00     0.254 C 
ATOM    101  O   UNL A   1      31.780  22.023  23.318  1.00  0.00    -0.269 OA
ATOM    102  N   UNL A   1      32.400  19.931  23.590  1.00  0.00    -0.349 N 
ATOM    103  H   UNL A   1      31.760  19.774  22.858  1.00  0.00     0.164 HD
BRANCH 102 104
ATOM    104  C   UNL A   1      33.040  18.728  24.068  1.00  0.00     0.082 C 
ATOM    105  C   UNL A   1      32.306  18.071  25.243  1.00  0.00     0.025 C 
ATOM    106  C   UNL A   1      33.248  17.689  22.958  1.00  0.00     0.025 C 
ATOM    107  C   UNL A   1      33.175  16.941  25.804  1.00  0.00     0.002 C 
ATOM    108  C   UNL A   1      34.056  16.487  23.453  1.00  0.00     0.002 C 
ATOM    109  C   UNL A   1      33.500  15.889  24.743  1.00  0.00     0.000 C 
ENDBRANCH 102 104
ENDBRANCH  93 100
ENDBRANCH  89  91
ENDBRANCH  82  87
ENDBRANCH  77  80
ENDBRANCH  75  76
ENDBRANCH  74  75
ENDBRANCH   1  74
TORSDOF 20
ENDMDL
MODEL 2
REMARK VINA RESULT:     -12.8      1.358      1.690
REMARK SMILES O=C(NCCCCCCNC(=O)[C@H]1[C@H]2CC[C@H](C2)[C@@H]1C(=O)Nc1sc2c(c1C(=O)NC1CCCCC1)CCCC2)c1ccc(-c2c3nc(c(-c4cccc(S(=O)(=O)[O-])c4F)c4ccc([nH]4)c(-c4cccc(S(=O)(=O)[O-])c4F)c4nc(c(-c5cccc(S(=O)(=O)[O-])c5F)c5ccc2[nH]5)C=C4)C=C3)cc1
REMARK SMILES IDX 7 1 6 2 5 3 4 4 3 5 1 6 2 7 41 9 42 10 103 11 43 12 102 13
REMARK SMILES IDX 44 14 45 15 46 16 96 17 47 18 101 19 95 20 97 21 48 22
REMARK SMILES IDX 100 23 94 24 93 25 49 27 81 28 61 29 80 30 62 31 65 32 79 33
REMARK SMILES IDX 98 34 63 35 64 36 78 38 99 39 66 40 50 41 51 42 59 43 52 44
REMARK SMILES IDX 54 45 60 46 53 47 55 48 56 49 57 50 58 51 82 52 83 53 91 54
REMARK SMILES IDX 84 55 86 56 92 57 85 58 87 59 88 60 89 61 90 62 67 63 68 64
REMARK SMILES IDX 76 65 69 66 71 67 77 68 70 69 72 70 73 71 74 72 75 73 8 74
REMARK SMILES IDX 9 75 10 76 11 77 12 79 13 80 14 81 19 82 15 83 18 84 17 85
REMARK SMILES IDX 16 86 20 87 21 88 22 89 23 91 24 92 27 93 25 94 26 95 40 96
REMARK SMILES IDX 37 97 39 98 38 99 28 100 29 101 30 102 31 104 32 105 36 106
REMARK SMILES IDX 33 107 35 108 34 109
REMARK H PARENT 3 8 97 26 65 37 10 78 22 90 30 103
REMARK Flexibility Score: inf
ROOT
ATOM      1  C   UNL A   1      31.709  29.994  25.573  1.00  0.00     0.002 C 
ENDROOT
BRANCH   1   2
ATOM      2  C   UNL A   1      31.229  31.414  25.893  1.00  0.00     0.002 C 
BRANCH   2   3
ATOM      3  C   UNL A   1      31.621  31.953  27.269  1.00  0.00     0.021 C 
BRANCH   3   4
ATOM      4  C   UNL A   1      32.848  32.852  27.279  1.00  0.00     0.116 C 
BRANCH   4   5
ATOM      5  N   UNL A   1      32.544  34.198  27.728  1.00  0.00    -0.352 N 
ATOM      6  O   UNL A   1      32.598  35.955  29.141  1.00  0.00    -0.269 OA
ATOM      7  C   UNL A   1      33.099  34.894  28.771  1.00  0.00     0.251 C 
ATOM      8  H   UNL A   1      31.850  34.674  27.217  1.00  0.00     0.163 HD
BRANCH   7   9
ATOM      9  C   UNL A   1      34.291  34.346  29.450  1.00  0.00     0.039 A 
ATOM     10  C   UNL A   1      34.145  33.585  30.614  1.00  0.00     0.014 A 
ATOM     11  C   UNL A   1      35.561  34.590  28.921  1.00  0.00     0.014 A 
ATOM     12  C   UNL A   1      35.269  33.168  31.314  1.00  0.00     0.010 A 
ATOM     13  C   UNL A   1      36.689  34.086  29.576  1.00  0.00     0.010 A 
ATOM     14  C   UNL A   1      36.551  33.377  30.780  1.00  0.00    -0.014 A 
BRANCH  14  15
ATOM     15  C   UNL A   1      37.709  32.703  31.416  1.00  0.00     0.031 A 
ATOM     16  C   UNL A   1      38.412  31.549  30.763  1.00  0.00     0.074 A 
ATOM     17  C   UNL A   1      38.100  33.147  32.628  1.00  0.00     0.049 A 
ATOM     18  N   UNL A   1      39.434  30.863  31.205  1.00  0.00    -0.248 NA
ATOM     19  C   UNL A   1      37.912  31.102  29.454  1.00  0.00     0.031 C 
ATOM     20  C   UNL A   1      37.451  34.231  33.376  1.00  0.00     0.029 A 
ATOM     21  N   UNL A   1      39.118  32.744  33.451  1.00  0.00    -0.354 N 
ATOM     22  C   UNL A   1      39.673  29.876  30.258  1.00  0.00     0.074 A 
ATOM     23  C   UNL A   1      38.695  30.058  29.206  1.00  0.00     0.031 C 
ATOM     24  C   UNL A   1      38.091  34.412  34.538  1.00  0.00     0.029 A 
ATOM     25  C   UNL A   1      39.146  33.416  34.652  1.00  0.00     0.049 A 
ATOM     26  H   UNL A   1      39.765  32.044  33.209  1.00  0.00     0.167 HD
ATOM     27  C   UNL A   1      40.622  28.910  30.272  1.00  0.00     0.034 A 
ATOM     28  C   UNL A   1      39.905  33.224  35.747  1.00  0.00     0.034 A 
ATOM     29  C   UNL A   1      41.602  28.755  31.317  1.00  0.00     0.049 A 
ATOM     30  C   UNL A   1      40.946  32.144  35.721  1.00  0.00     0.074 A 
ATOM     31  C   UNL A   1      42.662  27.865  31.371  1.00  0.00     0.029 A 
ATOM     32  N   UNL A   1      41.627  29.477  32.499  1.00  0.00    -0.354 N 
ATOM     33  N   UNL A   1      41.264  31.332  34.743  1.00  0.00    -0.248 NA
ATOM     34  C   UNL A   1      41.745  31.967  36.939  1.00  0.00     0.031 C 
ATOM     35  C   UNL A   1      43.298  28.018  32.606  1.00  0.00     0.029 A 
ATOM     36  C   UNL A   1      42.663  29.032  33.304  1.00  0.00     0.049 A 
ATOM     37  H   UNL A   1      41.002  30.201  32.731  1.00  0.00     0.167 HD
ATOM     38  C   UNL A   1      42.314  30.560  35.222  1.00  0.00     0.074 A 
ATOM     39  C   UNL A   1      42.604  31.031  36.561  1.00  0.00     0.031 C 
ATOM     40  C   UNL A   1      42.965  29.537  34.618  1.00  0.00     0.034 A 
BRANCH  27  41
ATOM     41  C   UNL A   1      40.679  27.938  29.123  1.00  0.00     0.023 A 
ATOM     42  C   UNL A   1      39.722  26.909  29.025  1.00  0.00     0.012 A 
ATOM     43  C   UNL A   1      41.599  28.131  28.072  1.00  0.00     0.148 A 
ATOM     44  C   UNL A   1      39.685  26.080  27.903  1.00  0.00     0.002 A 
ATOM     45  C   UNL A   1      41.529  27.328  26.939  1.00  0.00     0.091 A 
ATOM     46  F   UNL A   1      42.510  29.107  28.193  1.00  0.00    -0.205 F 
ATOM     47  C   UNL A   1      40.578  26.299  26.857  1.00  0.00     0.022 A 
BRANCH  45  48
ATOM     48  S   UNL A   1      42.576  27.581  25.502  1.00  0.00     0.127 S 
ATOM     49  O   UNL A   1      42.240  26.415  24.685  1.00  0.00    -0.237 OA
ATOM     50  O   UNL A   1      42.077  28.853  24.981  1.00  0.00    -0.237 OA
ATOM     51  O   UNL A   1      43.945  27.616  25.998  1.00  0.00    -0.744 OA
ENDBRANCH  45  48
ENDBRANCH  27  41
BRANCH  28  52
ATOM     52  C   UNL A   1      39.697  34.065  36.960  1.00  0.00     0.023 A 
ATOM     53  C   UNL A   1      40.111  35.409  36.960  1.00  0.00     0.012 A 
ATOM     54  C   UNL A   1      39.087  33.532  38.113  1.00  0.00     0.148 A 
ATOM     55  C   UNL A   1      39.962  36.197  38.102  1.00  0.00     0.002 A 
ATOM     56  C   UNL A   1      38.882  34.340  39.223  1.00  0.00     0.091 A 
ATOM     57  F   UNL A   1      38.713  32.244  38.099  1.00  0.00    -0.205 F 
ATOM     58  C   UNL A   1      39.340  35.666  39.229  1.00  0.00     0.022 A 
BRANCH  56  59
ATOM     59  S   UNL A   1      37.958  33.775  40.656  1.00  0.00     0.127 S 
ATOM     60  O   UNL A   1      37.778  35.017  41.402  1.00  0.00    -0.237 OA
ATOM     61  O   UNL A   1      36.742  33.241  40.041  1.00  0.00    -0.237 OA
ATOM     62  O   UNL A   1      38.799  32.767  41.287  1.00  0.00    -0.744 OA
ENDBRANCH  56  59
ENDBRANCH  28  52
BRANCH  40  63
ATOM     63  C   UNL A   1      44.072  28.872  35.390  1.00  0.00     0.023 A 
ATOM     64  C   UNL A   1      45.382  29.385  35.317  1.00  0.00     0.012 A 
ATOM     65  C   UNL A   1      43.804  27.774  36.229  1.00  0.00     0.148 A 
ATOM     66  C   UNL A   1      46.417  28.790  36.037  1.00  0.00     0.002 A 
ATOM     67  C   UNL A   1      44.828  27.220  36.986  1.00  0.00     0.091 A 
ATOM     68  F   UNL A   1      42.554  27.291  36.271  1.00  0.00    -0.205 F 
ATOM     69  C   UNL A   1      46.139  27.716  36.880  1.00  0.00     0.022 A 
BRANCH  67  70
ATOM     70  S   UNL A   1      44.548  25.898  38.168  1.00  0.00     0.127 S 
ATOM     71  O   UNL A   1      45.896  25.676  38.692  1.00  0.00    -0.237 OA
ATOM     72  O   UNL A   1      43.621  26.521  39.112  1.00  0.00    -0.237 OA
ATOM     73  O   UNL A   1      43.987  24.790  37.409  1.00  0.00    -0.744 OA
ENDBRANCH  67  70
ENDBRANCH  40  63
ENDBRANCH  14  15
ENDBRANCH   7   9
ENDBRANCH   4   5
ENDBRANCH   3   4
ENDBRANCH   2   3
ENDBRANCH   1   2
BRANCH   1  74
ATOM     74  C   UNL A   1      33.107  29.630  26.074  1.00  0.00     0.021 C 
BRANCH  74  75
ATOM     75  C   UNL A   1      33.204  28.302  26.802  1.00  0.00     0.116 C 
BRANCH  75  76
ATOM     76  N   UNL A   1      33.840  27.261  26.023  1.00  0.00    -0.356 N 
ATOM     77  C   UNL A   1      33.246  26.190  25.413  1.00  0.00     0.224 C 
ATOM     78  H   UNL A   1      34.816  27.332  25.920  1.00  0.00     0.163 HD
ATOM     79  O   UNL A   1      33.949  25.425  24.756  1.00  0.00    -0.275 OA
BRANCH  77  80
ATOM     80  C   UNL A   1      31.746  25.997  25.601  1.00  0.00     0.094 C 
ATOM     81  C   UNL A   1      30.935  26.921  24.637  1.00  0.00     0.002 C 
ATOM     82  C   UNL A   1      31.215  24.587  25.232  1.00  0.00     0.094 C 
ATOM     83  C   UNL A   1      31.241  26.665  23.159  1.00  0.00     0.005 C 
ATOM     84  C   UNL A   1      29.567  26.299  24.748  1.00  0.00     0.009 C 
ATOM     85  C   UNL A   1      30.030  24.913  24.300  1.00  0.00     0.002 C 
ATOM     86  C   UNL A   1      30.606  25.287  22.912  1.00  0.00     0.005 C 
BRANCH  82  87
ATOM     87  C   UNL A   1      31.027  23.575  26.391  1.00  0.00     0.229 C 
ATOM     88  O   UNL A   1      29.994  23.673  27.073  1.00  0.00    -0.274 OA
ATOM     89  N   UNL A   1      31.807  22.496  26.673  1.00  0.00    -0.317 N 
ATOM     90  H   UNL A   1      31.349  21.792  27.184  1.00  0.00     0.170 HD
BRANCH  89  91
ATOM     91  C   UNL A   1      33.118  22.208  26.374  1.00  0.00     0.108 A 
ATOM     92  S   UNL A   1      34.273  22.431  27.605  1.00  0.00    -0.122 S 
ATOM     93  C   UNL A   1      33.637  21.452  25.312  1.00  0.00     0.078 A 
ATOM     94  C   UNL A   1      35.491  22.360  26.429  1.00  0.00     0.011 A 
ATOM     95  C   UNL A   1      35.101  21.558  25.364  1.00  0.00    -0.019 A 
ATOM     96  C   UNL A   1      36.813  23.050  26.584  1.00  0.00     0.047 C 
ATOM     97  C   UNL A   1      36.168  21.064  24.429  1.00  0.00     0.037 C 
ATOM     98  C   UNL A   1      37.584  22.968  25.260  1.00  0.00     0.006 C 
ATOM     99  C   UNL A   1      37.594  21.513  24.786  1.00  0.00     0.005 C 
BRANCH  93 100
ATOM    100  C   UNL A   1      32.668  20.802  24.397  1.00  0.00     0.254 C 
ATOM    101  O   UNL A   1      31.958  21.501  23.666  1.00  0.00    -0.269 OA
ATOM    102  N   UNL A   1      32.524  19.448  24.212  1.00  0.00    -0.349 N 
ATOM    103  H   UNL A   1      31.877  19.212  23.508  1.00  0.00     0.164 HD
BRANCH 102 104
ATOM    104  C   UNL A   1      33.136  18.302  24.845  1.00  0.00     0.082 C 
ATOM    105  C   UNL A   1      32.205  17.088  24.939  1.00  0.00     0.025 C 
ATOM    106  C   UNL A   1      34.447  17.884  24.166  1.00  0.00     0.025 C 
ATOM    107  C   UNL A   1      32.871  16.017  25.808  1.00  0.00     0.002 C 
ATOM    108  C   UNL A   1      35.150  16.764  24.938  1.00  0.00     0.002 C 
ATOM    109  C   UNL A   1      34.228  15.587  25.248  1.00  0.00     0.000 C 
ENDBRANCH 102 104
ENDBRANCH  93 100
ENDBRANCH  89  91
ENDBRANCH  82  87
ENDBRANCH  77  80
ENDBRANCH  75  76
ENDBRANCH  74  75
ENDBRANCH   1  74
TORSDOF 20
ENDMDL
MODEL 3
REMARK VINA RESULT:     -12.7      1.343      7.144
REMARK SMILES O=C(NCCCCCCNC(=O)[C@H]1[C@H]2CC[C@H](C2)[C@@H]1C(=O)Nc1sc2c(c1C(=O)NC1CCCCC1)CCCC2)c1ccc(-c2c3nc(c(-c4cccc(S(=O)(=O)[O-])c4F)c4ccc([nH]4)c(-c4cccc(S(=O)(=O)[O-])c4F)c4nc(c(-c5cccc(S(=O)(=O)[O-])c5F)c5ccc2[nH]5)C=C4)C=C3)cc1
REMARK SMILES IDX 7 1 6 2 5 3 4 4 3 5 1 6 2 7 41 9 42 10 103 11 43 12 102 13
REMARK SMILES IDX 44 14 45 15 46 16 96 17 47 18 101 19 95 20 97 21 48 22
REMARK SMILES IDX 100 23 94 24 93 25 49 27 81 28 61 29 80 30 62 31 65 32 79 33
REMARK SMILES IDX 98 34 63 35 64 36 78 38 99 39 66 40 50 41 51 42 59 43 52 44
REMARK SMILES IDX 54 45 60 46 53 47 55 48 56 49 57 50 58 51 82 52 83 53 91 54
REMARK SMILES IDX 84 55 86 56 92 57 85 58 87 59 88 60 89 61 90 62 67 63 68 64
REMARK SMILES IDX 76 65 69 66 71 67 77 68 70 69 72 70 73 71 74 72 75 73 8 74
REMARK SMILES IDX 9 75 10 76 11 77 12 79 13 80 14 81 19 82 15 83 18 84 17 85
REMARK SMILES IDX 16 86 20 87 21 88 22 89 23 91 24 92 27 93 25 94 26 95 40 96
REMARK SMILES IDX 37 97 39 98 38 99 28 100 29 101 30 102 31 104 32 105 36 106
REMARK SMILES IDX 33 107 35 108 34 109
REMARK H PARENT 3 8 97 26 65 37 10 78 22 90 30 103
REMARK Flexibility Score: inf
ROOT
ATOM      1  C   UNL A   1      32.511  30.092  25.693  1.00  0.00     0.002 C 
ENDROOT
BRANCH   1   2
ATOM      2  C   UNL A   1      31.440  30.763  26.558  1.00  0.00     0.002 C 
BRANCH   2   3
ATOM      3  C   UNL A   1      31.489  32.290  26.613  1.00  0.00     0.021 C 
BRANCH   3   4
ATOM      4  C   UNL A   1      32.677  32.867  27.368  1.00  0.00     0.116 C 
BRANCH   4   5
ATOM      5  N   UNL A   1      32.473  34.253  27.744  1.00  0.00    -0.352 N 
ATOM      6  O   UNL A   1      32.657  36.073  29.063  1.00  0.00    -0.269 OA
ATOM      7  C   UNL A   1      33.078  34.961  28.751  1.00  0.00     0.251 C 
ATOM      8  H   UNL A   1      31.815  34.751  27.206  1.00  0.00     0.163 HD
BRANCH   7   9
ATOM      9  C   UNL A   1      34.226  34.362  29.463  1.00  0.00     0.039 A 
ATOM     10  C   UNL A   1      34.023  33.670  30.661  1.00  0.00     0.014 A 
ATOM     11  C   UNL A   1      35.511  34.491  28.931  1.00  0.00     0.014 A 
ATOM     12  C   UNL A   1      35.113  33.209  31.386  1.00  0.00     0.010 A 
ATOM     13  C   UNL A   1      36.599  33.940  29.616  1.00  0.00     0.010 A 
ATOM     14  C   UNL A   1      36.408  33.301  30.851  1.00  0.00    -0.014 A 
BRANCH  14  15
ATOM     15  C   UNL A   1      37.513  32.578  31.525  1.00  0.00     0.031 A 
ATOM     16  C   UNL A   1      38.062  33.023  32.849  1.00  0.00     0.074 A 
ATOM     17  C   UNL A   1      38.035  31.507  30.892  1.00  0.00     0.049 A 
ATOM     18  N   UNL A   1      39.028  32.489  33.551  1.00  0.00    -0.248 NA
ATOM     19  C   UNL A   1      37.461  34.215  33.467  1.00  0.00     0.031 C 
ATOM     20  C   UNL A   1      37.609  31.020  29.574  1.00  0.00     0.029 A 
ATOM     21  N   UNL A   1      39.038  30.645  31.251  1.00  0.00    -0.354 N 
ATOM     22  C   UNL A   1      39.185  33.300  34.667  1.00  0.00     0.074 A 
ATOM     23  C   UNL A   1      38.205  34.359  34.558  1.00  0.00     0.031 C 
ATOM     24  C   UNL A   1      38.335  29.944  29.243  1.00  0.00     0.029 A 
ATOM     25  C   UNL A   1      39.323  29.708  30.285  1.00  0.00     0.049 A 
ATOM     26  H   UNL A   1      39.507  30.692  32.115  1.00  0.00     0.167 HD
ATOM     27  C   UNL A   1      40.068  33.166  35.685  1.00  0.00     0.034 A 
ATOM     28  C   UNL A   1      40.303  28.787  30.220  1.00  0.00     0.034 A 
ATOM     29  C   UNL A   1      41.024  32.093  35.790  1.00  0.00     0.049 A 
ATOM     30  C   UNL A   1      41.260  28.671  31.369  1.00  0.00     0.074 A 
ATOM     31  C   UNL A   1      41.896  31.822  36.832  1.00  0.00     0.029 A 
ATOM     32  N   UNL A   1      41.260  31.138  34.814  1.00  0.00    -0.354 N 
ATOM     33  N   UNL A   1      41.281  29.343  32.493  1.00  0.00    -0.248 NA
ATOM     34  C   UNL A   1      42.316  27.657  31.251  1.00  0.00     0.031 C 
ATOM     35  C   UNL A   1      42.690  30.732  36.464  1.00  0.00     0.029 A 
ATOM     36  C   UNL A   1      42.285  30.296  35.214  1.00  0.00     0.049 A 
ATOM     37  H   UNL A   1      40.770  31.067  33.963  1.00  0.00     0.167 HD
ATOM     38  C   UNL A   1      42.339  28.821  33.225  1.00  0.00     0.074 A 
ATOM     39  C   UNL A   1      42.907  27.749  32.434  1.00  0.00     0.031 C 
ATOM     40  C   UNL A   1      42.814  29.208  34.433  1.00  0.00     0.034 A 
BRANCH  27  41
ATOM     41  C   UNL A   1      40.053  34.188  36.792  1.00  0.00     0.023 A 
ATOM     42  C   UNL A   1      40.471  35.508  36.536  1.00  0.00     0.012 A 
ATOM     43  C   UNL A   1      39.496  33.868  38.047  1.00  0.00     0.148 A 
ATOM     44  C   UNL A   1      40.344  36.494  37.514  1.00  0.00     0.002 A 
ATOM     45  C   UNL A   1      39.335  34.865  39.002  1.00  0.00     0.091 A 
ATOM     46  F   UNL A   1      39.119  32.602  38.274  1.00  0.00    -0.205 F 
ATOM     47  C   UNL A   1      39.765  36.176  38.740  1.00  0.00     0.022 A 
BRANCH  45  48
ATOM     48  S   UNL A   1      38.523  34.579  40.579  1.00  0.00     0.127 S 
ATOM     49  O   UNL A   1      37.312  33.873  40.163  1.00  0.00    -0.237 OA
ATOM     50  O   UNL A   1      39.502  33.748  41.279  1.00  0.00    -0.237 OA
ATOM     51  O   UNL A   1      38.303  35.894  41.166  1.00  0.00    -0.744 OA
ENDBRANCH  45  48
ENDBRANCH  27  41
BRANCH  28  52
ATOM     52  C   UNL A   1      40.432  27.915  29.019  1.00  0.00     0.023 A 
ATOM     53  C   UNL A   1      39.598  26.791  28.876  1.00  0.00     0.012 A 
ATOM     54  C   UNL A   1      41.380  28.201  28.016  1.00  0.00     0.148 A 
ATOM     55  C   UNL A   1      39.736  25.941  27.778  1.00  0.00     0.002 A 
ATOM     56  C   UNL A   1      41.467  27.388  26.893  1.00  0.00     0.091 A 
ATOM     57  F   UNL A   1      42.176  29.268  28.177  1.00  0.00    -0.205 F 
ATOM     58  C   UNL A   1      40.663  26.244  26.783  1.00  0.00     0.022 A 
BRANCH  56  59
ATOM     59  S   UNL A   1      42.529  27.793  25.503  1.00  0.00     0.127 S 
ATOM     60  O   UNL A   1      42.350  26.627  24.643  1.00  0.00    -0.237 OA
ATOM     61  O   UNL A   1      41.920  29.027  25.006  1.00  0.00    -0.237 OA
ATOM     62  O   UNL A   1      43.859  27.970  26.069  1.00  0.00    -0.744 OA
ENDBRANCH  56  59
ENDBRANCH  28  52
BRANCH  40  63
ATOM     63  C   UNL A   1      43.993  28.453  34.985  1.00  0.00     0.023 A 
ATOM     64  C   UNL A   1      45.296  28.955  34.799  1.00  0.00     0.012 A 
ATOM     65  C   UNL A   1      43.804  27.275  35.733  1.00  0.00     0.148 A 
ATOM     66  C   UNL A   1      46.397  28.275  35.316  1.00  0.00     0.002 A 
ATOM     67  C   UNL A   1      44.901  26.632  36.292  1.00  0.00     0.091 A 
ATOM     68  F   UNL A   1      42.557  26.806  35.883  1.00  0.00    -0.205 F 
ATOM     69  C   UNL A   1      46.200  27.121  36.071  1.00  0.00     0.022 A 
BRANCH  67  70
ATOM     70  S   UNL A   1      44.738  25.196  37.356  1.00  0.00     0.127 S 
ATOM     71  O   UNL A   1      43.888  25.714  38.428  1.00  0.00    -0.237 OA
ATOM     72  O   UNL A   1      44.086  24.230  36.473  1.00  0.00    -0.237 OA
ATOM     73  O   UNL A   1      46.090  24.834  37.757  1.00  0.00    -0.744 OA
ENDBRANCH  67  70
ENDBRANCH  40  63
ENDBRANCH  14  15
ENDBRANCH   7   9
ENDBRANCH   4   5
ENDBRANCH   3   4
ENDBRANCH   2   3
ENDBRANCH   1   2
BRANCH   1  74
ATOM     74  C   UNL A   1      33.708  29.504  26.442  1.00  0.00     0.021 C 
BRANCH  74  75
ATOM     75  C   UNL A   1      33.566  28.046  26.837  1.00  0.00     0.116 C 
BRANCH  75  76
ATOM     76  N   UNL A   1      34.037  27.125  25.823  1.00  0.00    -0.356 N 
ATOM     77  C   UNL A   1      33.294  26.267  25.061  1.00  0.00     0.224 C 
ATOM     78  H   UNL A   1      35.009  27.115  25.665  1.00  0.00     0.163 HD
ATOM     79  O   UNL A   1      33.869  25.584  24.216  1.00  0.00    -0.275 OA
BRANCH  77  80
ATOM     80  C   UNL A   1      31.793  26.196  25.316  1.00  0.00     0.094 C 
ATOM     81  C   UNL A   1      31.015  27.177  24.382  1.00  0.00     0.002 C 
ATOM     82  C   UNL A   1      31.136  24.831  24.981  1.00  0.00     0.094 C 
ATOM     83  C   UNL A   1      31.233  26.893  22.894  1.00  0.00     0.005 C 
ATOM     84  C   UNL A   1      29.609  26.667  24.558  1.00  0.00     0.009 C 
ATOM     85  C   UNL A   1      29.939  25.246  24.101  1.00  0.00     0.002 C 
ATOM     86  C   UNL A   1      30.481  25.568  22.686  1.00  0.00     0.005 C 
BRANCH  82  87
ATOM     87  C   UNL A   1      30.920  23.842  26.155  1.00  0.00     0.229 C 
ATOM     88  O   UNL A   1      29.883  23.970  26.827  1.00  0.00    -0.274 OA
ATOM     89  N   UNL A   1      31.678  22.753  26.460  1.00  0.00    -0.317 N 
ATOM     90  H   UNL A   1      31.203  22.066  26.980  1.00  0.00     0.170 HD
BRANCH  89  91
ATOM     91  C   UNL A   1      32.985  22.437  26.177  1.00  0.00     0.108 A 
ATOM     92  S   UNL A   1      34.106  22.496  27.459  1.00  0.00    -0.122 S 
ATOM     93  C   UNL A   1      33.510  21.758  25.067  1.00  0.00     0.078 A 
ATOM     94  C   UNL A   1      35.360  22.479  26.319  1.00  0.00     0.011 A 
ATOM     95  C   UNL A   1      34.974  21.795  25.173  1.00  0.00    -0.019 A 
ATOM     96  C   UNL A   1      36.702  23.095  26.578  1.00  0.00     0.047 C 
ATOM     97  C   UNL A   1      36.053  21.342  24.231  1.00  0.00     0.037 C 
ATOM     98  C   UNL A   1      37.515  23.099  25.276  1.00  0.00     0.006 C 
ATOM     99  C   UNL A   1      37.482  21.694  24.671  1.00  0.00     0.005 C 
BRANCH  93 100
ATOM    100  C   UNL A   1      32.548  21.236  24.067  1.00  0.00     0.254 C 
ATOM    101  O   UNL A   1      31.823  22.025  23.450  1.00  0.00    -0.269 OA
ATOM    102  N   UNL A   1      32.426  19.923  23.681  1.00  0.00    -0.349 N 
ATOM    103  H   UNL A   1      31.779  19.785  22.951  1.00  0.00     0.164 HD
BRANCH 102 104
ATOM    104  C   UNL A   1      33.059  18.706  24.133  1.00  0.00     0.082 C 
ATOM    105  C   UNL A   1      32.245  17.952  25.191  1.00  0.00     0.025 C 
ATOM    106  C   UNL A   1      33.395  17.752  22.980  1.00  0.00     0.025 C 
ATOM    107  C   UNL A   1      33.096  16.808  25.752  1.00  0.00     0.002 C 
ATOM    108  C   UNL A   1      34.194  16.539  23.465  1.00  0.00     0.002 C 
ATOM    109  C   UNL A   1      33.545  15.839  24.657  1.00  0.00     0.000 C 
ENDBRANCH 102 104
ENDBRANCH  93 100
ENDBRANCH  89  91
ENDBRANCH  82  87
ENDBRANCH  77  80
ENDBRANCH  75  76
ENDBRANCH  74  75
ENDBRANCH   1  74
TORSDOF 20
ENDMDL
