MODEL 1
REMARK VINA RESULT:     -12.3      0.000      0.000
REMARK SMILES O=C(Cn1cnc(-c2ccccc2)c1-c1ccccc1)NCCCCCCNC(=O)c1ccc(-c2c3nc(c(-c4cccc(S(=O)(=O)[O-])c4F)c4ccc([nH]4)c(-c4cccc(S(=O)(=O)[O-])c4F)c4nc(c(-c5cccc(S(=O)(=O)[O-])c5F)c5ccc2[nH]5)C=C4)C=C3)cc1
REMARK SMILES IDX 25 1 24 2 23 3 22 4 21 5 1 6 2 7 3 9 4 10 5 11 14 12 6 13
REMARK SMILES IDX 7 14 15 15 16 16 20 17 17 18 19 19 18 20 8 21 9 22 13 23
REMARK SMILES IDX 10 24 12 25 11 26 26 27 27 28 28 29 29 30 30 32 31 33 32 34
REMARK SMILES IDX 93 35 33 36 92 37 34 38 35 39 36 40 86 41 37 42 91 43 85 44
REMARK SMILES IDX 87 45 38 46 90 47 84 48 83 49 39 51 71 52 51 53 70 54 52 55
REMARK SMILES IDX 55 56 69 57 88 58 53 59 54 60 68 62 89 63 56 64 40 65 41 66
REMARK SMILES IDX 49 67 42 68 44 69 50 70 43 71 45 72 46 73 47 74 48 75 72 76
REMARK SMILES IDX 73 77 81 78 74 79 76 80 82 81 75 82 77 83 78 84 79 85 80 86
REMARK SMILES IDX 57 87 58 88 66 89 59 90 61 91 67 92 60 93 62 94 63 95 64 96
REMARK SMILES IDX 65 97
REMARK H PARENT 21 8 28 31 87 50 55 61
REMARK Flexibility Score: inf
ROOT
ATOM      1  C   UNL A   1      31.484  30.625  26.241  1.00  0.00     0.002 C 
ENDROOT
BRANCH   1   2
ATOM      2  C   UNL A   1      32.231  29.766  27.275  1.00  0.00     0.002 C 
BRANCH   2   3
ATOM      3  C   UNL A   1      31.856  28.277  27.315  1.00  0.00     0.021 C 
BRANCH   3   4
ATOM      4  C   UNL A   1      31.153  27.758  26.061  1.00  0.00     0.116 C 
BRANCH   4   5
ATOM      5  N   UNL A   1      32.063  26.990  25.237  1.00  0.00    -0.355 N 
ATOM      6  O   UNL A   1      31.697  28.125  23.267  1.00  0.00    -0.273 OA
ATOM      7  C   UNL A   1      32.225  27.208  23.888  1.00  0.00     0.239 C 
ATOM      8  H   UNL A   1      32.591  26.275  25.663  1.00  0.00     0.163 HD
BRANCH   7   9
ATOM      9  C   UNL A   1      33.110  26.190  23.203  1.00  0.00     0.223 C 
BRANCH   9  10
ATOM     10  N   UNL A   1      32.578  24.845  23.321  1.00  0.00    -0.321 N 
ATOM     11  C   UNL A   1      31.294  24.503  22.984  1.00  0.00     0.201 A 
ATOM     12  C   UNL A   1      33.233  23.698  23.723  1.00  0.00     0.076 A 
ATOM     13  N   UNL A   1      31.076  23.218  23.136  1.00  0.00    -0.236 NA
ATOM     14  C   UNL A   1      32.257  22.711  23.618  1.00  0.00     0.096 A 
BRANCH  12  15
ATOM     15  C   UNL A   1      34.634  23.594  24.127  1.00  0.00     0.000 A 
ATOM     16  C   UNL A   1      35.573  23.024  23.255  1.00  0.00     0.010 A 
ATOM     17  C   UNL A   1      35.039  23.965  25.414  1.00  0.00     0.010 A 
ATOM     18  C   UNL A   1      36.892  22.822  23.667  1.00  0.00     0.001 A 
ATOM     19  C   UNL A   1      36.360  23.769  25.822  1.00  0.00     0.001 A 
ATOM     20  C   UNL A   1      37.284  23.193  24.951  1.00  0.00     0.000 A 
ENDBRANCH  12  15
BRANCH  14  21
ATOM     21  C   UNL A   1      32.431  21.314  23.963  1.00  0.00     0.002 A 
ATOM     22  C   UNL A   1      32.738  20.950  25.278  1.00  0.00     0.010 A 
ATOM     23  C   UNL A   1      32.276  20.315  22.991  1.00  0.00     0.010 A 
ATOM     24  C   UNL A   1      32.860  19.601  25.622  1.00  0.00     0.001 A 
ATOM     25  C   UNL A   1      32.404  18.970  23.335  1.00  0.00     0.001 A 
ATOM     26  C   UNL A   1      32.691  18.613  24.651  1.00  0.00     0.000 A 
ENDBRANCH  14  21
ENDBRANCH   9  10
ENDBRANCH   7   9
ENDBRANCH   4   5
ENDBRANCH   3   4
ENDBRANCH   2   3
ENDBRANCH   1   2
BRANCH   1  27
ATOM     27  C   UNL A   1      31.384  32.127  26.546  1.00  0.00     0.021 C 
BRANCH  27  28
ATOM     28  C   UNL A   1      32.667  32.731  27.093  1.00  0.00     0.116 C 
BRANCH  28  29
ATOM     29  N   UNL A   1      32.483  34.084  27.633  1.00  0.00    -0.352 N 
ATOM     30  C   UNL A   1      33.092  34.649  28.746  1.00  0.00     0.251 C 
ATOM     31  H   UNL A   1      31.850  34.661  27.147  1.00  0.00     0.163 HD
ATOM     32  O   UNL A   1      32.602  35.607  29.318  1.00  0.00    -0.269 OA
BRANCH  30  33
ATOM     33  C   UNL A   1      34.378  34.075  29.195  1.00  0.00     0.039 A 
ATOM     34  C   UNL A   1      34.504  33.289  30.344  1.00  0.00     0.014 A 
ATOM     35  C   UNL A   1      35.481  34.336  28.392  1.00  0.00     0.014 A 
ATOM     36  C   UNL A   1      35.754  32.742  30.637  1.00  0.00     0.010 A 
ATOM     37  C   UNL A   1      36.613  33.594  28.534  1.00  0.00     0.010 A 
ATOM     38  C   UNL A   1      36.802  32.903  29.716  1.00  0.00    -0.014 A 
BRANCH  38  39
ATOM     39  C   UNL A   1      38.093  32.251  29.864  1.00  0.00     0.031 A 
ATOM     40  C   UNL A   1      38.078  30.862  29.346  1.00  0.00     0.074 A 
ATOM     41  C   UNL A   1      39.216  32.939  30.187  1.00  0.00     0.049 A 
ATOM     42  N   UNL A   1      38.073  29.775  30.044  1.00  0.00    -0.248 NA
ATOM     43  C   UNL A   1      37.796  30.646  27.915  1.00  0.00     0.031 C 
ATOM     44  C   UNL A   1      39.371  34.390  30.386  1.00  0.00     0.029 A 
ATOM     45  N   UNL A   1      40.503  32.506  30.277  1.00  0.00    -0.354 N 
ATOM     46  C   UNL A   1      38.109  28.746  29.109  1.00  0.00     0.074 A 
ATOM     47  C   UNL A   1      37.648  29.319  27.875  1.00  0.00     0.031 C 
ATOM     48  C   UNL A   1      40.680  34.726  30.310  1.00  0.00     0.029 A 
ATOM     49  C   UNL A   1      41.470  33.513  30.219  1.00  0.00     0.049 A 
ATOM     50  H   UNL A   1      40.735  31.554  30.375  1.00  0.00     0.167 HD
ATOM     51  C   UNL A   1      38.844  27.625  29.352  1.00  0.00     0.034 A 
ATOM     52  C   UNL A   1      42.813  33.353  30.063  1.00  0.00     0.034 A 
ATOM     53  C   UNL A   1      39.222  27.561  30.746  1.00  0.00     0.049 A 
ATOM     54  C   UNL A   1      43.120  31.954  30.439  1.00  0.00     0.074 A 
ATOM     55  C   UNL A   1      38.542  27.557  31.948  1.00  0.00     0.029 A 
ATOM     56  N   UNL A   1      40.511  27.935  31.040  1.00  0.00    -0.354 N 
ATOM     57  N   UNL A   1      42.971  31.494  31.649  1.00  0.00    -0.248 NA
ATOM     58  C   UNL A   1      43.112  30.962  29.378  1.00  0.00     0.031 C 
ATOM     59  C   UNL A   1      39.325  28.379  32.813  1.00  0.00     0.029 A 
ATOM     60  C   UNL A   1      40.485  28.754  32.134  1.00  0.00     0.049 A 
ATOM     61  H   UNL A   1      41.318  27.660  30.545  1.00  0.00     0.167 HD
ATOM     62  C   UNL A   1      42.356  30.264  31.464  1.00  0.00     0.074 A 
ATOM     63  C   UNL A   1      42.557  29.947  30.047  1.00  0.00     0.031 C 
ATOM     64  C   UNL A   1      41.476  29.777  32.387  1.00  0.00     0.034 A 
BRANCH  51  65
ATOM     65  C   UNL A   1      39.609  26.836  28.305  1.00  0.00     0.023 A 
ATOM     66  C   UNL A   1      39.548  25.427  28.413  1.00  0.00     0.012 A 
ATOM     67  C   UNL A   1      40.590  27.362  27.431  1.00  0.00     0.148 A 
ATOM     68  C   UNL A   1      40.465  24.596  27.760  1.00  0.00     0.002 A 
ATOM     69  C   UNL A   1      41.454  26.529  26.729  1.00  0.00     0.091 A 
ATOM     70  F   UNL A   1      40.791  28.677  27.352  1.00  0.00    -0.205 F 
ATOM     71  C   UNL A   1      41.419  25.147  26.918  1.00  0.00     0.022 A 
BRANCH  69  72
ATOM     72  S   UNL A   1      42.692  27.184  25.599  1.00  0.00     0.127 S 
ATOM     73  O   UNL A   1      43.760  27.556  26.522  1.00  0.00    -0.237 OA
ATOM     74  O   UNL A   1      42.971  26.016  24.763  1.00  0.00    -0.237 OA
ATOM     75  O   UNL A   1      42.047  28.285  24.894  1.00  0.00    -0.744 OA
ENDBRANCH  69  72
ENDBRANCH  51  65
BRANCH  52  76
ATOM     76  C   UNL A   1      43.816  34.182  29.342  1.00  0.00     0.023 A 
ATOM     77  C   UNL A   1      44.697  35.016  30.068  1.00  0.00     0.012 A 
ATOM     78  C   UNL A   1      44.126  33.917  27.991  1.00  0.00     0.148 A 
ATOM     79  C   UNL A   1      45.863  35.531  29.481  1.00  0.00     0.002 A 
ATOM     80  C   UNL A   1      45.286  34.429  27.412  1.00  0.00     0.091 A 
ATOM     81  F   UNL A   1      43.335  33.085  27.303  1.00  0.00    -0.205 F 
ATOM     82  C   UNL A   1      46.165  35.227  28.158  1.00  0.00     0.022 A 
BRANCH  80  83
ATOM     83  S   UNL A   1      45.764  34.043  25.721  1.00  0.00     0.127 S 
ATOM     84  O   UNL A   1      46.961  34.866  25.550  1.00  0.00    -0.237 OA
ATOM     85  O   UNL A   1      46.013  32.606  25.798  1.00  0.00    -0.237 OA
ATOM     86  O   UNL A   1      44.637  34.443  24.889  1.00  0.00    -0.744 OA
ENDBRANCH  80  83
ENDBRANCH  52  76
BRANCH  64  87
ATOM     87  C   UNL A   1      41.388  30.479  33.720  1.00  0.00     0.023 A 
ATOM     88  C   UNL A   1      42.337  30.314  34.752  1.00  0.00     0.012 A 
ATOM     89  C   UNL A   1      40.395  31.459  33.863  1.00  0.00     0.148 A 
ATOM     90  C   UNL A   1      42.281  31.100  35.909  1.00  0.00     0.002 A 
ATOM     91  C   UNL A   1      40.369  32.268  34.990  1.00  0.00     0.091 A 
ATOM     92  F   UNL A   1      39.504  31.604  32.871  1.00  0.00    -0.205 F 
ATOM     93  C   UNL A   1      41.303  32.086  36.021  1.00  0.00     0.022 A 
BRANCH  91  94
ATOM     94  S   UNL A   1      39.208  33.626  35.132  1.00  0.00     0.127 S 
ATOM     95  O   UNL A   1      39.614  34.242  36.393  1.00  0.00    -0.237 OA
ATOM     96  O   UNL A   1      39.506  34.418  33.937  1.00  0.00    -0.237 OA
ATOM     97  O   UNL A   1      37.880  33.022  35.129  1.00  0.00    -0.744 OA
ENDBRANCH  91  94
ENDBRANCH  64  87
ENDBRANCH  38  39
ENDBRANCH  30  33
ENDBRANCH  28  29
ENDBRANCH  27  28
ENDBRANCH   1  27
TORSDOF 19
ENDMDL
MODEL 2
REMARK VINA RESULT:     -12.1      1.858      2.186
REMARK SMILES O=C(Cn1cnc(-c2ccccc2)c1-c1ccccc1)NCCCCCCNC(=O)c1ccc(-c2c3nc(c(-c4cccc(S(=O)(=O)[O-])c4F)c4ccc([nH]4)c(-c4cccc(S(=O)(=O)[O-])c4F)c4nc(c(-c5cccc(S(=O)(=O)[O-])c5F)c5ccc2[nH]5)C=C4)C=C3)cc1
REMARK SMILES IDX 25 1 24 2 23 3 22 4 21 5 1 6 2 7 3 9 4 10 5 11 14 12 6 13
REMARK SMILES IDX 7 14 15 15 16 16 20 17 17 18 19 19 18 20 8 21 9 22 13 23
REMARK SMILES IDX 10 24 12 25 11 26 26 27 27 28 28 29 29 30 30 32 31 33 32 34
REMARK SMILES IDX 93 35 33 36 92 37 34 38 35 39 36 40 86 41 37 42 91 43 85 44
REMARK SMILES IDX 87 45 38 46 90 47 84 48 83 49 39 51 71 52 51 53 70 54 52 55
REMARK SMILES IDX 55 56 69 57 88 58 53 59 54 60 68 62 89 63 56 64 40 65 41 66
REMARK SMILES IDX 49 67 42 68 44 69 50 70 43 71 45 72 46 73 47 74 48 75 72 76
REMARK SMILES IDX 73 77 81 78 74 79 76 80 82 81 75 82 77 83 78 84 79 85 80 86
REMARK SMILES IDX 57 87 58 88 66 89 59 90 61 91 67 92 60 93 62 94 63 95 64 96
REMARK SMILES IDX 65 97
REMARK H PARENT 21 8 28 31 87 50 55 61
REMARK Flexibility Score: inf
ROOT
ATOM      1  C   UNL A   1      31.442  30.725  26.204  1.00  0.00     0.002 C 
ENDROOT
BRANCH   1   2
ATOM      2  C   UNL A   1      32.176  29.833  27.218  1.00  0.00     0.002 C 
BRANCH   2   3
ATOM      3  C   UNL A   1      31.813  28.340  27.192  1.00  0.00     0.021 C 
BRANCH   3   4
ATOM      4  C   UNL A   1      31.167  27.858  25.894  1.00  0.00     0.116 C 
BRANCH   4   5
ATOM      5  N   UNL A   1      32.090  27.051  25.124  1.00  0.00    -0.355 N 
ATOM      6  O   UNL A   1      31.648  27.989  23.068  1.00  0.00    -0.273 OA
ATOM      7  C   UNL A   1      32.221  27.152  23.757  1.00  0.00     0.239 C 
ATOM      8  H   UNL A   1      32.652  26.398  25.601  1.00  0.00     0.163 HD
BRANCH   7   9
ATOM      9  C   UNL A   1      33.130  26.108  23.148  1.00  0.00     0.223 C 
BRANCH   9  10
ATOM     10  N   UNL A   1      32.593  24.768  23.299  1.00  0.00    -0.321 N 
ATOM     11  C   UNL A   1      31.313  24.419  22.953  1.00  0.00     0.201 A 
ATOM     12  C   UNL A   1      33.238  23.633  23.746  1.00  0.00     0.076 A 
ATOM     13  N   UNL A   1      31.089  23.141  23.141  1.00  0.00    -0.236 NA
ATOM     14  C   UNL A   1      32.261  22.646  23.656  1.00  0.00     0.096 A 
BRANCH  12  15
ATOM     15  C   UNL A   1      34.632  23.537  24.176  1.00  0.00     0.000 A 
ATOM     16  C   UNL A   1      35.590  22.970  23.323  1.00  0.00     0.010 A 
ATOM     17  C   UNL A   1      35.013  23.916  25.468  1.00  0.00     0.010 A 
ATOM     18  C   UNL A   1      36.902  22.777  23.758  1.00  0.00     0.001 A 
ATOM     19  C   UNL A   1      36.327  23.729  25.900  1.00  0.00     0.001 A 
ATOM     20  C   UNL A   1      37.269  23.154  25.048  1.00  0.00     0.000 A 
ENDBRANCH  12  15
BRANCH  14  21
ATOM     21  C   UNL A   1      32.426  21.259  24.047  1.00  0.00     0.002 A 
ATOM     22  C   UNL A   1      32.320  20.245  23.091  1.00  0.00     0.010 A 
ATOM     23  C   UNL A   1      32.712  20.923  25.378  1.00  0.00     0.010 A 
ATOM     24  C   UNL A   1      32.525  18.911  23.456  1.00  0.00     0.001 A 
ATOM     25  C   UNL A   1      32.911  19.592  25.742  1.00  0.00     0.001 A 
ATOM     26  C   UNL A   1      32.823  18.587  24.781  1.00  0.00     0.000 A 
ENDBRANCH  14  21
ENDBRANCH   9  10
ENDBRANCH   7   9
ENDBRANCH   4   5
ENDBRANCH   3   4
ENDBRANCH   2   3
ENDBRANCH   1   2
BRANCH   1  27
ATOM     27  C   UNL A   1      31.371  32.223  26.538  1.00  0.00     0.021 C 
BRANCH  27  28
ATOM     28  C   UNL A   1      32.628  32.767  27.197  1.00  0.00     0.116 C 
BRANCH  28  29
ATOM     29  N   UNL A   1      32.433  34.087  27.808  1.00  0.00    -0.352 N 
ATOM     30  C   UNL A   1      33.063  34.610  28.930  1.00  0.00     0.251 C 
ATOM     31  H   UNL A   1      31.775  34.674  27.370  1.00  0.00     0.163 HD
ATOM     32  O   UNL A   1      32.571  35.528  29.563  1.00  0.00    -0.269 OA
BRANCH  30  33
ATOM     33  C   UNL A   1      34.372  34.042  29.314  1.00  0.00     0.039 A 
ATOM     34  C   UNL A   1      34.541  33.173  30.396  1.00  0.00     0.014 A 
ATOM     35  C   UNL A   1      35.454  34.398  28.518  1.00  0.00     0.014 A 
ATOM     36  C   UNL A   1      35.811  32.643  30.628  1.00  0.00     0.010 A 
ATOM     37  C   UNL A   1      36.609  33.682  28.585  1.00  0.00     0.010 A 
ATOM     38  C   UNL A   1      36.838  32.907  29.706  1.00  0.00    -0.014 A 
BRANCH  38  39
ATOM     39  C   UNL A   1      38.150  32.285  29.784  1.00  0.00     0.031 A 
ATOM     40  C   UNL A   1      38.128  30.879  29.314  1.00  0.00     0.074 A 
ATOM     41  C   UNL A   1      39.278  33.004  30.005  1.00  0.00     0.049 A 
ATOM     42  N   UNL A   1      38.195  29.817  30.045  1.00  0.00    -0.248 NA
ATOM     43  C   UNL A   1      37.752  30.610  27.914  1.00  0.00     0.031 C 
ATOM     44  C   UNL A   1      39.416  34.463  30.146  1.00  0.00     0.029 A 
ATOM     45  N   UNL A   1      40.577  32.599  30.018  1.00  0.00    -0.354 N 
ATOM     46  C   UNL A   1      38.187  28.757  29.144  1.00  0.00     0.074 A 
ATOM     47  C   UNL A   1      37.629  29.280  27.927  1.00  0.00     0.031 C 
ATOM     48  C   UNL A   1      40.709  34.821  29.966  1.00  0.00     0.029 A 
ATOM     49  C   UNL A   1      41.515  33.621  29.859  1.00  0.00     0.049 A 
ATOM     50  H   UNL A   1      40.836  31.655  30.130  1.00  0.00     0.167 HD
ATOM     51  C   UNL A   1      38.961  27.659  29.370  1.00  0.00     0.034 A 
ATOM     52  C   UNL A   1      42.848  33.481  29.614  1.00  0.00     0.034 A 
ATOM     53  C   UNL A   1      39.437  27.650  30.737  1.00  0.00     0.049 A 
ATOM     54  C   UNL A   1      43.210  32.102  30.013  1.00  0.00     0.074 A 
ATOM     55  C   UNL A   1      38.842  27.674  31.982  1.00  0.00     0.029 A 
ATOM     56  N   UNL A   1      40.735  28.058  30.926  1.00  0.00    -0.354 N 
ATOM     57  N   UNL A   1      43.156  31.680  31.245  1.00  0.00    -0.248 NA
ATOM     58  C   UNL A   1      43.149  31.074  28.988  1.00  0.00     0.031 C 
ATOM     59  C   UNL A   1      39.666  28.538  32.764  1.00  0.00     0.029 A 
ATOM     60  C   UNL A   1      40.768  28.912  31.992  1.00  0.00     0.049 A 
ATOM     61  H   UNL A   1      41.510  27.781  30.385  1.00  0.00     0.167 HD
ATOM     62  C   UNL A   1      42.556  30.433  31.144  1.00  0.00     0.074 A 
ATOM     63  C   UNL A   1      42.664  30.073  29.727  1.00  0.00     0.031 C 
ATOM     64  C   UNL A   1      41.752  29.962  32.141  1.00  0.00     0.034 A 
BRANCH  51  65
ATOM     65  C   UNL A   1      39.668  26.849  28.298  1.00  0.00     0.023 A 
ATOM     66  C   UNL A   1      39.499  25.446  28.359  1.00  0.00     0.012 A 
ATOM     67  C   UNL A   1      40.689  27.328  27.444  1.00  0.00     0.148 A 
ATOM     68  C   UNL A   1      40.352  24.570  27.679  1.00  0.00     0.002 A 
ATOM     69  C   UNL A   1      41.490  26.456  26.716  1.00  0.00     0.091 A 
ATOM     70  F   UNL A   1      40.990  28.626  27.410  1.00  0.00    -0.205 F 
ATOM     71  C   UNL A   1      41.349  25.075  26.857  1.00  0.00     0.022 A 
BRANCH  69  72
ATOM     72  S   UNL A   1      42.778  27.052  25.610  1.00  0.00     0.127 S 
ATOM     73  O   UNL A   1      43.771  27.545  26.560  1.00  0.00    -0.237 OA
ATOM     74  O   UNL A   1      43.149  25.825  24.904  1.00  0.00    -0.237 OA
ATOM     75  O   UNL A   1      42.147  28.061  24.768  1.00  0.00    -0.744 OA
ENDBRANCH  69  72
ENDBRANCH  51  65
BRANCH  52  76
ATOM     76  C   UNL A   1      43.780  34.304  28.798  1.00  0.00     0.023 A 
ATOM     77  C   UNL A   1      44.063  33.937  27.462  1.00  0.00     0.012 A 
ATOM     78  C   UNL A   1      44.134  35.607  29.210  1.00  0.00     0.148 A 
ATOM     79  C   UNL A   1      44.638  34.848  26.562  1.00  0.00     0.002 A 
ATOM     80  C   UNL A   1      44.703  36.509  28.312  1.00  0.00     0.091 A 
ATOM     81  F   UNL A   1      43.825  35.993  30.454  1.00  0.00    -0.205 F 
ATOM     82  C   UNL A   1      44.946  36.137  26.982  1.00  0.00     0.022 A 
BRANCH  80  83
ATOM     83  S   UNL A   1      45.087  38.205  28.773  1.00  0.00     0.127 S 
ATOM     84  O   UNL A   1      45.388  38.810  27.475  1.00  0.00    -0.237 OA
ATOM     85  O   UNL A   1      43.832  38.645  29.378  1.00  0.00    -0.237 OA
ATOM     86  O   UNL A   1      46.227  38.124  29.676  1.00  0.00    -0.744 OA
ENDBRANCH  80  83
ENDBRANCH  52  76
BRANCH  64  87
ATOM     87  C   UNL A   1      41.742  30.707  33.454  1.00  0.00     0.023 A 
ATOM     88  C   UNL A   1      40.779  31.683  33.789  1.00  0.00     0.012 A 
ATOM     89  C   UNL A   1      42.647  30.282  34.437  1.00  0.00     0.148 A 
ATOM     90  C   UNL A   1      40.736  32.234  35.074  1.00  0.00     0.002 A 
ATOM     91  C   UNL A   1      42.573  30.797  35.724  1.00  0.00     0.091 A 
ATOM     92  F   UNL A   1      43.553  29.352  34.102  1.00  0.00    -0.205 F 
ATOM     93  C   UNL A   1      41.626  31.781  36.046  1.00  0.00     0.022 A 
BRANCH  91  94
ATOM     94  S   UNL A   1      43.615  30.166  37.038  1.00  0.00     0.127 S 
ATOM     95  O   UNL A   1      43.148  30.932  38.191  1.00  0.00    -0.237 OA
ATOM     96  O   UNL A   1      43.262  28.745  37.062  1.00  0.00    -0.237 OA
ATOM     97  O   UNL A   1      44.989  30.429  36.625  1.00  0.00    -0.744 OA
ENDBRANCH  91  94
ENDBRANCH  64  87
ENDBRANCH  38  39
ENDBRANCH  30  33
ENDBRANCH  28  29
ENDBRANCH  27  28
ENDBRANCH   1  27
TORSDOF 19
ENDMDL
MODEL 3
REMARK VINA RESULT:     -12.0      3.892      9.472
REMARK SMILES O=C(Cn1cnc(-c2ccccc2)c1-c1ccccc1)NCCCCCCNC(=O)c1ccc(-c2c3nc(c(-c4cccc(S(=O)(=O)[O-])c4F)c4ccc([nH]4)c(-c4cccc(S(=O)(=O)[O-])c4F)c4nc(c(-c5cccc(S(=O)(=O)[O-])c5F)c5ccc2[nH]5)C=C4)C=C3)cc1
REMARK SMILES IDX 25 1 24 2 23 3 22 4 21 5 1 6 2 7 3 9 4 10 5 11 14 12 6 13
REMARK SMILES IDX 7 14 15 15 16 16 20 17 17 18 19 19 18 20 8 21 9 22 13 23
REMARK SMILES IDX 10 24 12 25 11 26 26 27 27 28 28 29 29 30 30 32 31 33 32 34
REMARK SMILES IDX 93 35 33 36 92 37 34 38 35 39 36 40 86 41 37 42 91 43 85 44
REMARK SMILES IDX 87 45 38 46 90 47 84 48 83 49 39 51 71 52 51 53 70 54 52 55
REMARK SMILES IDX 55 56 69 57 88 58 53 59 54 60 68 62 89 63 56 64 40 65 41 66
REMARK SMILES IDX 49 67 42 68 44 69 50 70 43 71 45 72 46 73 47 74 48 75 72 76
REMARK SMILES IDX 73 77 81 78 74 79 76 80 82 81 75 82 77 83 78 84 79 85 80 86
REMARK SMILES IDX 57 87 58 88 66 89 59 90 61 91 67 92 60 93 62 94 63 95 64 96
REMARK SMILES IDX 65 97
REMARK H PARENT 21 8 28 31 87 50 55 61
REMARK Flexibility Score: inf
ROOT
ATOM      1  C   UNL A   1      38.060  19.785  24.779  1.00  0.00     0.002 C 
ENDROOT
BRANCH   1   2
ATOM      2  C   UNL A   1      36.634  20.317  24.995  1.00  0.00     0.002 C 
BRANCH   2   3
ATOM      3  C   UNL A   1      36.434  21.824  24.777  1.00  0.00     0.021 C 
BRANCH   3   4
ATOM      4  C   UNL A   1      35.052  22.220  24.257  1.00  0.00     0.116 C 
BRANCH   4   5
ATOM      5  N   UNL A   1      34.904  23.660  24.223  1.00  0.00    -0.355 N 
ATOM      6  O   UNL A   1      32.643  23.707  23.788  1.00  0.00    -0.273 OA
ATOM      7  C   UNL A   1      33.712  24.289  23.943  1.00  0.00     0.239 C 
ATOM      8  H   UNL A   1      35.695  24.217  24.409  1.00  0.00     0.163 HD
BRANCH   7   9
ATOM      9  C   UNL A   1      33.826  25.792  23.811  1.00  0.00     0.223 C 
BRANCH   9  10
ATOM     10  N   UNL A   1      32.672  26.365  23.144  1.00  0.00    -0.321 N 
ATOM     11  C   UNL A   1      32.195  25.924  21.937  1.00  0.00     0.201 A 
ATOM     12  C   UNL A   1      31.842  27.375  23.587  1.00  0.00     0.076 A 
ATOM     13  N   UNL A   1      31.115  26.573  21.573  1.00  0.00    -0.236 NA
ATOM     14  C   UNL A   1      30.899  27.492  22.570  1.00  0.00     0.096 A 
BRANCH  12  15
ATOM     15  C   UNL A   1      31.954  28.100  24.851  1.00  0.00     0.000 A 
ATOM     16  C   UNL A   1      32.677  29.300  24.908  1.00  0.00     0.010 A 
ATOM     17  C   UNL A   1      31.431  27.566  26.034  1.00  0.00     0.010 A 
ATOM     18  C   UNL A   1      32.881  29.949  26.127  1.00  0.00     0.001 A 
ATOM     19  C   UNL A   1      31.630  28.219  27.252  1.00  0.00     0.001 A 
ATOM     20  C   UNL A   1      32.359  29.407  27.299  1.00  0.00     0.000 A 
ENDBRANCH  12  15
BRANCH  14  21
ATOM     21  C   UNL A   1      29.812  28.451  22.535  1.00  0.00     0.002 A 
ATOM     22  C   UNL A   1      28.570  28.121  23.085  1.00  0.00     0.010 A 
ATOM     23  C   UNL A   1      29.999  29.720  21.969  1.00  0.00     0.010 A 
ATOM     24  C   UNL A   1      27.535  29.061  23.095  1.00  0.00     0.001 A 
ATOM     25  C   UNL A   1      28.965  30.655  21.974  1.00  0.00     0.001 A 
ATOM     26  C   UNL A   1      27.735  30.327  22.541  1.00  0.00     0.000 A 
ENDBRANCH  14  21
ENDBRANCH   9  10
ENDBRANCH   7   9
ENDBRANCH   4   5
ENDBRANCH   3   4
ENDBRANCH   2   3
ENDBRANCH   1   2
BRANCH   1  27
ATOM     27  C   UNL A   1      39.189  20.553  25.481  1.00  0.00     0.021 C 
BRANCH  27  28
ATOM     28  C   UNL A   1      39.906  19.751  26.555  1.00  0.00     0.116 C 
BRANCH  28  29
ATOM     29  N   UNL A   1      41.148  19.131  26.078  1.00  0.00    -0.352 N 
ATOM     30  C   UNL A   1      42.342  19.759  25.746  1.00  0.00     0.251 C 
ATOM     31  H   UNL A   1      41.135  18.152  25.982  1.00  0.00     0.163 HD
ATOM     32  O   UNL A   1      43.159  19.222  25.018  1.00  0.00    -0.269 OA
BRANCH  30  33
ATOM     33  C   UNL A   1      42.610  21.089  26.333  1.00  0.00     0.039 A 
ATOM     34  C   UNL A   1      42.965  22.205  25.569  1.00  0.00     0.014 A 
ATOM     35  C   UNL A   1      42.465  21.192  27.711  1.00  0.00     0.014 A 
ATOM     36  C   UNL A   1      43.128  23.428  26.221  1.00  0.00     0.010 A 
ATOM     37  C   UNL A   1      42.363  22.419  28.291  1.00  0.00     0.010 A 
ATOM     38  C   UNL A   1      42.819  23.518  27.588  1.00  0.00    -0.014 A 
BRANCH  38  39
ATOM     39  C   UNL A   1      42.820  24.776  28.318  1.00  0.00     0.031 A 
ATOM     40  C   UNL A   1      41.570  25.544  28.105  1.00  0.00     0.074 A 
ATOM     41  C   UNL A   1      43.741  25.056  29.273  1.00  0.00     0.049 A 
ATOM     42  N   UNL A   1      41.425  26.603  27.382  1.00  0.00    -0.248 NA
ATOM     43  C   UNL A   1      40.294  24.946  28.539  1.00  0.00     0.031 C 
ATOM     44  C   UNL A   1      44.821  24.192  29.780  1.00  0.00     0.029 A 
ATOM     45  N   UNL A   1      43.831  26.131  30.102  1.00  0.00    -0.354 N 
ATOM     46  C   UNL A   1      40.093  26.970  27.543  1.00  0.00     0.074 A 
ATOM     47  C   UNL A   1      39.411  25.791  27.998  1.00  0.00     0.031 C 
ATOM     48  C   UNL A   1      45.264  24.663  30.968  1.00  0.00     0.029 A 
ATOM     49  C   UNL A   1      44.626  25.937  31.235  1.00  0.00     0.049 A 
ATOM     50  H   UNL A   1      43.370  26.982  29.918  1.00  0.00     0.167 HD
ATOM     51  C   UNL A   1      39.750  28.287  27.627  1.00  0.00     0.034 A 
ATOM     52  C   UNL A   1      44.712  26.748  32.325  1.00  0.00     0.034 A 
ATOM     53  C   UNL A   1      40.848  29.123  27.193  1.00  0.00     0.049 A 
ATOM     54  C   UNL A   1      44.202  28.075  31.909  1.00  0.00     0.074 A 
ATOM     55  C   UNL A   1      41.599  29.237  26.041  1.00  0.00     0.029 A 
ATOM     56  N   UNL A   1      41.591  29.708  28.191  1.00  0.00    -0.354 N 
ATOM     57  N   UNL A   1      44.798  28.818  31.020  1.00  0.00    -0.248 NA
ATOM     58  C   UNL A   1      42.789  28.339  32.111  1.00  0.00     0.031 C 
ATOM     59  C   UNL A   1      42.935  29.453  26.494  1.00  0.00     0.029 A 
ATOM     60  C   UNL A   1      42.915  29.562  27.886  1.00  0.00     0.049 A 
ATOM     61  H   UNL A   1      41.229  30.157  28.990  1.00  0.00     0.167 HD
ATOM     62  C   UNL A   1      43.762  29.270  30.215  1.00  0.00     0.074 A 
ATOM     63  C   UNL A   1      42.542  29.024  30.991  1.00  0.00     0.031 C 
ATOM     64  C   UNL A   1      43.959  29.499  28.885  1.00  0.00     0.034 A 
BRANCH  51  65
ATOM     65  C   UNL A   1      38.646  28.850  28.503  1.00  0.00     0.023 A 
ATOM     66  C   UNL A   1      37.738  29.735  27.876  1.00  0.00     0.012 A 
ATOM     67  C   UNL A   1      38.614  28.806  29.917  1.00  0.00     0.148 A 
ATOM     68  C   UNL A   1      36.910  30.588  28.613  1.00  0.00     0.002 A 
ATOM     69  C   UNL A   1      37.740  29.606  30.645  1.00  0.00     0.091 A 
ATOM     70  F   UNL A   1      39.507  28.085  30.593  1.00  0.00    -0.205 F 
ATOM     71  C   UNL A   1      36.912  30.524  29.999  1.00  0.00     0.022 A 
BRANCH  69  72
ATOM     72  S   UNL A   1      37.673  29.545  32.442  1.00  0.00     0.127 S 
ATOM     73  O   UNL A   1      39.000  30.041  32.798  1.00  0.00    -0.237 OA
ATOM     74  O   UNL A   1      36.570  30.462  32.725  1.00  0.00    -0.237 OA
ATOM     75  O   UNL A   1      37.401  28.155  32.785  1.00  0.00    -0.744 OA
ENDBRANCH  69  72
ENDBRANCH  51  65
BRANCH  52  76
ATOM     76  C   UNL A   1      44.905  26.428  33.765  1.00  0.00     0.023 A 
ATOM     77  C   UNL A   1      46.175  26.600  34.364  1.00  0.00     0.012 A 
ATOM     78  C   UNL A   1      43.793  26.268  34.619  1.00  0.00     0.148 A 
ATOM     79  C   UNL A   1      46.322  26.653  35.759  1.00  0.00     0.002 A 
ATOM     80  C   UNL A   1      43.943  26.322  36.004  1.00  0.00     0.091 A 
ATOM     81  F   UNL A   1      42.576  26.158  34.072  1.00  0.00    -0.205 F 
ATOM     82  C   UNL A   1      45.205  26.528  36.578  1.00  0.00     0.022 A 
BRANCH  80  83
ATOM     83  S   UNL A   1      42.540  26.211  37.124  1.00  0.00     0.127 S 
ATOM     84  O   UNL A   1      41.757  27.388  36.744  1.00  0.00    -0.237 OA
ATOM     85  O   UNL A   1      41.948  24.932  36.742  1.00  0.00    -0.237 OA
ATOM     86  O   UNL A   1      43.098  26.271  38.468  1.00  0.00    -0.744 OA
ENDBRANCH  80  83
ENDBRANCH  52  76
BRANCH  64  87
ATOM     87  C   UNL A   1      45.378  29.500  28.370  1.00  0.00     0.023 A 
ATOM     88  C   UNL A   1      46.071  28.329  27.992  1.00  0.00     0.012 A 
ATOM     89  C   UNL A   1      45.965  30.747  28.112  1.00  0.00     0.148 A 
ATOM     90  C   UNL A   1      47.330  28.406  27.387  1.00  0.00     0.002 A 
ATOM     91  C   UNL A   1      47.193  30.823  27.470  1.00  0.00     0.091 A 
ATOM     92  F   UNL A   1      45.291  31.848  28.474  1.00  0.00    -0.205 F 
ATOM     93  C   UNL A   1      47.886  29.655  27.115  1.00  0.00     0.022 A 
BRANCH  91  94
ATOM     94  S   UNL A   1      47.896  32.400  26.993  1.00  0.00     0.127 S 
ATOM     95  O   UNL A   1      48.055  33.066  28.284  1.00  0.00    -0.237 OA
ATOM     96  O   UNL A   1      49.150  32.001  26.349  1.00  0.00    -0.237 OA
ATOM     97  O   UNL A   1      46.932  33.013  26.086  1.00  0.00    -0.744 OA
ENDBRANCH  91  94
ENDBRANCH  64  87
ENDBRANCH  38  39
ENDBRANCH  30  33
ENDBRANCH  28  29
ENDBRANCH  27  28
ENDBRANCH   1  27
TORSDOF 19
ENDMDL
