MODEL 1
REMARK VINA RESULT:     -11.4      0.000      0.000
REMARK SMILES C[C@@]1(C(=O)NCCCCCCNC(=O)c2ccc(-c3c4nc(c(-c5cccc(S(=O)(=O)[O-])c5F)c5ccc([nH]5)c(-c5cccc(S(=O)(=O)[O-])c5F)c5nc(c(-c6cccc(S(=O)(=O)[O-])c6F)c6ccc3[nH]6)C=C5)C=C4)cc2)COC[C@H]1NC(=O)C[C@@H]1C[NH2+]CCO1
REMARK SMILES IDX 8 1 7 2 6 3 5 4 3 5 4 6 2 8 1 9 78 10 81 11 79 12 80 13
REMARK SMILES IDX 82 14 83 15 84 17 85 18 86 19 87 20 91 21 88 22 90 23 89 24
REMARK SMILES IDX 9 27 10 28 11 29 12 30 13 31 14 33 15 34 16 35 77 36 17 37
REMARK SMILES IDX 76 38 18 39 19 40 20 41 70 42 21 43 75 44 69 45 71 46 22 47
REMARK SMILES IDX 74 48 68 49 67 50 23 52 55 53 35 54 54 55 36 56 39 57 53 58
REMARK SMILES IDX 72 59 37 60 38 61 52 63 73 64 40 65 24 66 25 67 33 68 26 69
REMARK SMILES IDX 28 70 34 71 27 72 29 73 30 74 31 75 32 76 56 77 57 78 65 79
REMARK SMILES IDX 58 80 60 81 66 82 59 83 61 84 62 85 63 86 64 87 41 88 42 89
REMARK SMILES IDX 50 90 43 91 45 92 51 93 44 94 46 95 47 96 48 97 49 98
REMARK H PARENT 5 7 82 16 88 25 88 26 12 32 71 51 39 62
REMARK Flexibility Score: inf
ROOT
ATOM      1  C   UNL A   1      34.888  23.849  23.539  1.00  0.00     0.002 C 
ENDROOT
BRANCH   1   2
ATOM      2  C   UNL A   1      33.735  23.372  22.651  1.00  0.00     0.021 C 
BRANCH   2   3
ATOM      3  C   UNL A   1      32.691  24.439  22.337  1.00  0.00     0.116 C 
BRANCH   3   4
ATOM      4  N   UNL A   1      33.281  25.655  21.819  1.00  0.00    -0.355 N 
ATOM      5  C   UNL A   1      33.200  26.950  22.222  1.00  0.00     0.230 C 
ATOM      6  O   UNL A   1      34.019  27.708  21.690  1.00  0.00    -0.274 OA
ATOM      7  H   UNL A   1      33.849  25.517  21.026  1.00  0.00     0.163 HD
BRANCH   5   8
ATOM      8  C   UNL A   1      32.170  27.480  23.254  1.00  0.00     0.092 C 
ATOM      9  C   UNL A   1      30.749  27.246  22.684  1.00  0.00     0.026 C 
ATOM     10  C   UNL A   1      32.354  28.987  23.412  1.00  0.00     0.179 C 
ATOM     11  C   UNL A   1      32.378  26.892  24.673  1.00  0.00     0.125 C 
ATOM     12  O   UNL A   1      32.900  29.245  24.704  1.00  0.00    -0.378 OA
ATOM     13  C   UNL A   1      32.666  28.118  25.549  1.00  0.00     0.186 C 
BRANCH  11  14
ATOM     14  N   UNL A   1      31.245  26.134  25.236  1.00  0.00    -0.350 N 
ATOM     15  C   UNL A   1      31.189  25.060  26.079  1.00  0.00     0.223 C 
ATOM     16  H   UNL A   1      30.362  26.464  24.951  1.00  0.00     0.163 HD
ATOM     17  O   UNL A   1      30.077  24.709  26.477  1.00  0.00    -0.275 OA
BRANCH  15  18
ATOM     18  C   UNL A   1      32.444  24.313  26.499  1.00  0.00     0.138 C 
BRANCH  18  19
ATOM     19  C   UNL A   1      32.352  22.776  26.471  1.00  0.00     0.182 C 
ATOM     20  C   UNL A   1      33.574  22.066  27.067  1.00  0.00     0.293 C 
ATOM     21  O   UNL A   1      32.141  22.301  25.125  1.00  0.00    -0.366 OA
ATOM     22  N   UNL A   1      33.484  20.602  27.077  1.00  0.00    -0.342 N 
ATOM     23  C   UNL A   1      31.991  20.869  25.110  1.00  0.00     0.222 C 
ATOM     24  C   UNL A   1      33.210  20.155  25.712  1.00  0.00     0.289 C 
ATOM     25  H   UNL A   1      32.730  20.306  27.696  1.00  0.00     0.346 HD
ATOM     26  H   UNL A   1      34.358  20.197  27.412  1.00  0.00     0.346 HD
ENDBRANCH  18  19
ENDBRANCH  15  18
ENDBRANCH  11  14
ENDBRANCH   5   8
ENDBRANCH   3   4
ENDBRANCH   2   3
ENDBRANCH   1   2
BRANCH   1  27
ATOM     27  C   UNL A   1      36.179  23.030  23.432  1.00  0.00     0.002 C 
BRANCH  27  28
ATOM     28  C   UNL A   1      36.181  21.703  24.198  1.00  0.00     0.021 C 
BRANCH  28  29
ATOM     29  C   UNL A   1      36.805  21.771  25.587  1.00  0.00     0.116 C 
BRANCH  29  30
ATOM     30  N   UNL A   1      37.817  20.745  25.775  1.00  0.00    -0.352 N 
ATOM     31  C   UNL A   1      39.149  20.890  26.068  1.00  0.00     0.251 C 
ATOM     32  H   UNL A   1      37.504  19.817  25.679  1.00  0.00     0.163 HD
ATOM     33  O   UNL A   1      39.907  19.924  25.967  1.00  0.00    -0.269 OA
BRANCH  31  34
ATOM     34  C   UNL A   1      39.671  22.205  26.493  1.00  0.00     0.039 A 
ATOM     35  C   UNL A   1      40.675  22.255  27.463  1.00  0.00     0.014 A 
ATOM     36  C   UNL A   1      39.167  23.385  25.939  1.00  0.00     0.014 A 
ATOM     37  C   UNL A   1      41.207  23.490  27.841  1.00  0.00     0.010 A 
ATOM     38  C   UNL A   1      39.753  24.606  26.259  1.00  0.00     0.010 A 
ATOM     39  C   UNL A   1      40.771  24.673  27.222  1.00  0.00    -0.014 A 
BRANCH  39  40
ATOM     40  C   UNL A   1      41.368  25.989  27.567  1.00  0.00     0.031 A 
ATOM     41  C   UNL A   1      42.798  26.292  27.204  1.00  0.00     0.074 A 
ATOM     42  C   UNL A   1      40.646  26.883  28.271  1.00  0.00     0.049 A 
ATOM     43  N   UNL A   1      43.507  27.359  27.466  1.00  0.00    -0.248 NA
ATOM     44  C   UNL A   1      43.536  25.248  26.472  1.00  0.00     0.031 C 
ATOM     45  C   UNL A   1      39.273  26.681  28.741  1.00  0.00     0.029 A 
ATOM     46  N   UNL A   1      40.973  28.133  28.734  1.00  0.00    -0.354 N 
ATOM     47  C   UNL A   1      44.775  27.107  26.959  1.00  0.00     0.074 A 
ATOM     48  C   UNL A   1      44.753  25.769  26.411  1.00  0.00     0.031 C 
ATOM     49  C   UNL A   1      38.873  27.770  29.416  1.00  0.00     0.029 A 
ATOM     50  C   UNL A   1      39.969  28.733  29.460  1.00  0.00     0.049 A 
ATOM     51  H   UNL A   1      41.843  28.560  28.564  1.00  0.00     0.167 HD
ATOM     52  C   UNL A   1      45.855  27.926  26.922  1.00  0.00     0.034 A 
ATOM     53  C   UNL A   1      39.938  29.920  30.096  1.00  0.00     0.034 A 
ATOM     54  C   UNL A   1      45.863  29.266  27.441  1.00  0.00     0.049 A 
ATOM     55  C   UNL A   1      41.148  30.814  30.031  1.00  0.00     0.074 A 
ATOM     56  C   UNL A   1      46.884  30.200  27.394  1.00  0.00     0.029 A 
ATOM     57  N   UNL A   1      44.806  29.864  28.110  1.00  0.00    -0.354 N 
ATOM     58  N   UNL A   1      42.291  30.613  29.423  1.00  0.00    -0.248 NA
ATOM     59  C   UNL A   1      41.050  32.112  30.711  1.00  0.00     0.031 C 
ATOM     60  C   UNL A   1      46.454  31.353  28.059  1.00  0.00     0.029 A 
ATOM     61  C   UNL A   1      45.152  31.150  28.488  1.00  0.00     0.049 A 
ATOM     62  H   UNL A   1      43.937  29.437  28.288  1.00  0.00     0.167 HD
ATOM     63  C   UNL A   1      43.032  31.775  29.609  1.00  0.00     0.074 A 
ATOM     64  C   UNL A   1      42.199  32.682  30.371  1.00  0.00     0.031 C 
ATOM     65  C   UNL A   1      44.292  32.062  29.198  1.00  0.00     0.034 A 
BRANCH  52  66
ATOM     66  C   UNL A   1      47.103  27.409  26.253  1.00  0.00     0.023 A 
ATOM     67  C   UNL A   1      47.324  27.685  24.887  1.00  0.00     0.012 A 
ATOM     68  C   UNL A   1      48.083  26.708  26.982  1.00  0.00     0.148 A 
ATOM     69  C   UNL A   1      48.479  27.238  24.249  1.00  0.00     0.002 A 
ATOM     70  C   UNL A   1      49.254  26.308  26.350  1.00  0.00     0.091 A 
ATOM     71  F   UNL A   1      47.848  26.439  28.274  1.00  0.00    -0.205 F 
ATOM     72  C   UNL A   1      49.449  26.560  24.982  1.00  0.00     0.022 A 
BRANCH  70  73
ATOM     73  S   UNL A   1      50.601  25.498  27.222  1.00  0.00     0.127 S 
ATOM     74  O   UNL A   1      49.937  24.304  27.744  1.00  0.00    -0.237 OA
ATOM     75  O   UNL A   1      51.554  25.243  26.142  1.00  0.00    -0.237 OA
ATOM     76  O   UNL A   1      51.057  26.446  28.227  1.00  0.00    -0.744 OA
ENDBRANCH  70  73
ENDBRANCH  52  66
BRANCH  53  77
ATOM     77  C   UNL A   1      38.703  30.362  30.803  1.00  0.00     0.023 A 
ATOM     78  C   UNL A   1      38.544  30.062  32.171  1.00  0.00     0.012 A 
ATOM     79  C   UNL A   1      37.690  31.076  30.136  1.00  0.00     0.148 A 
ATOM     80  C   UNL A   1      37.381  30.429  32.850  1.00  0.00     0.002 A 
ATOM     81  C   UNL A   1      36.560  31.489  30.832  1.00  0.00     0.091 A 
ATOM     82  F   UNL A   1      37.855  31.344  28.833  1.00  0.00    -0.205 F 
ATOM     83  C   UNL A   1      36.393  31.149  32.183  1.00  0.00     0.022 A 
BRANCH  81  84
ATOM     84  S   UNL A   1      35.298  32.529  30.089  1.00  0.00     0.127 S 
ATOM     85  O   UNL A   1      34.817  31.684  28.999  1.00  0.00    -0.237 OA
ATOM     86  O   UNL A   1      34.358  32.701  31.198  1.00  0.00    -0.237 OA
ATOM     87  O   UNL A   1      35.982  33.751  29.688  1.00  0.00    -0.744 OA
ENDBRANCH  81  84
ENDBRANCH  53  77
BRANCH  65  88
ATOM     88  C   UNL A   1      44.836  33.430  29.516  1.00  0.00     0.023 A 
ATOM     89  C   UNL A   1      45.464  33.672  30.754  1.00  0.00     0.012 A 
ATOM     90  C   UNL A   1      44.785  34.459  28.554  1.00  0.00     0.148 A 
ATOM     91  C   UNL A   1      45.999  34.926  31.044  1.00  0.00     0.002 A 
ATOM     92  C   UNL A   1      45.368  35.690  28.830  1.00  0.00     0.091 A 
ATOM     93  F   UNL A   1      44.169  34.215  27.389  1.00  0.00    -0.205 F 
ATOM     94  C   UNL A   1      45.962  35.930  30.079  1.00  0.00     0.022 A 
BRANCH  92  95
ATOM     95  S   UNL A   1      45.459  37.008  27.613  1.00  0.00     0.127 S 
ATOM     96  O   UNL A   1      44.053  37.390  27.482  1.00  0.00    -0.237 OA
ATOM     97  O   UNL A   1      46.299  37.996  28.290  1.00  0.00    -0.237 OA
ATOM     98  O   UNL A   1      46.058  36.419  26.423  1.00  0.00    -0.744 OA
ENDBRANCH  92  95
ENDBRANCH  65  88
ENDBRANCH  39  40
ENDBRANCH  31  34
ENDBRANCH  29  30
ENDBRANCH  28  29
ENDBRANCH  27  28
ENDBRANCH   1  27
TORSDOF 19
ENDMDL
MODEL 2
REMARK VINA RESULT:     -11.3      4.603      9.488
REMARK SMILES C[C@@]1(C(=O)NCCCCCCNC(=O)c2ccc(-c3c4nc(c(-c5cccc(S(=O)(=O)[O-])c5F)c5ccc([nH]5)c(-c5cccc(S(=O)(=O)[O-])c5F)c5nc(c(-c6cccc(S(=O)(=O)[O-])c6F)c6ccc3[nH]6)C=C5)C=C4)cc2)COC[C@H]1NC(=O)C[C@@H]1C[NH2+]CCO1
REMARK SMILES IDX 8 1 7 2 6 3 5 4 3 5 4 6 2 8 1 9 78 10 81 11 79 12 80 13
REMARK SMILES IDX 82 14 83 15 84 17 85 18 86 19 87 20 91 21 88 22 90 23 89 24
REMARK SMILES IDX 9 27 10 28 11 29 12 30 13 31 14 33 15 34 16 35 77 36 17 37
REMARK SMILES IDX 76 38 18 39 19 40 20 41 70 42 21 43 75 44 69 45 71 46 22 47
REMARK SMILES IDX 74 48 68 49 67 50 23 52 55 53 35 54 54 55 36 56 39 57 53 58
REMARK SMILES IDX 72 59 37 60 38 61 52 63 73 64 40 65 24 66 25 67 33 68 26 69
REMARK SMILES IDX 28 70 34 71 27 72 29 73 30 74 31 75 32 76 56 77 57 78 65 79
REMARK SMILES IDX 58 80 60 81 66 82 59 83 61 84 62 85 63 86 64 87 41 88 42 89
REMARK SMILES IDX 50 90 43 91 45 92 51 93 44 94 46 95 47 96 48 97 49 98
REMARK H PARENT 5 7 82 16 88 25 88 26 12 32 71 51 39 62
REMARK Flexibility Score: inf
ROOT
ATOM      1  C   UNL A   1      32.082  25.394  26.187  1.00  0.00     0.002 C 
ENDROOT
BRANCH   1   2
ATOM      2  C   UNL A   1      30.873  24.460  26.080  1.00  0.00     0.021 C 
BRANCH   2   3
ATOM      3  C   UNL A   1      31.187  23.078  25.515  1.00  0.00     0.116 C 
BRANCH   3   4
ATOM      4  N   UNL A   1      32.006  22.288  26.409  1.00  0.00    -0.355 N 
ATOM      5  C   UNL A   1      33.194  21.652  26.232  1.00  0.00     0.230 C 
ATOM      6  O   UNL A   1      33.729  21.260  27.275  1.00  0.00    -0.274 OA
ATOM      7  H   UNL A   1      31.633  22.194  27.315  1.00  0.00     0.163 HD
BRANCH   5   8
ATOM      8  C   UNL A   1      33.855  21.405  24.851  1.00  0.00     0.092 C 
ATOM      9  C   UNL A   1      32.868  20.591  23.980  1.00  0.00     0.026 C 
ATOM     10  C   UNL A   1      35.104  20.549  25.042  1.00  0.00     0.179 C 
ATOM     11  C   UNL A   1      34.353  22.710  24.177  1.00  0.00     0.125 C 
ATOM     12  O   UNL A   1      36.252  21.358  24.791  1.00  0.00    -0.378 OA
ATOM     13  C   UNL A   1      35.866  22.501  24.028  1.00  0.00     0.186 C 
BRANCH  11  14
ATOM     14  N   UNL A   1      33.764  23.029  22.863  1.00  0.00    -0.350 N 
ATOM     15  C   UNL A   1      33.498  24.217  22.242  1.00  0.00     0.223 C 
ATOM     16  H   UNL A   1      33.515  22.237  22.333  1.00  0.00     0.163 HD
ATOM     17  O   UNL A   1      33.104  24.171  21.076  1.00  0.00    -0.275 OA
BRANCH  15  18
ATOM     18  C   UNL A   1      33.663  25.544  22.963  1.00  0.00     0.138 C 
BRANCH  18  19
ATOM     19  C   UNL A   1      32.775  26.697  22.459  1.00  0.00     0.182 C 
ATOM     20  C   UNL A   1      33.233  28.087  22.920  1.00  0.00     0.293 C 
ATOM     21  O   UNL A   1      31.403  26.497  22.858  1.00  0.00    -0.366 OA
ATOM     22  N   UNL A   1      32.414  29.197  22.420  1.00  0.00    -0.342 N 
ATOM     23  C   UNL A   1      30.563  27.542  22.332  1.00  0.00     0.222 C 
ATOM     24  C   UNL A   1      31.023  28.935  22.787  1.00  0.00     0.289 C 
ATOM     25  H   UNL A   1      32.499  29.259  21.406  1.00  0.00     0.346 HD
ATOM     26  H   UNL A   1      32.727  30.077  22.827  1.00  0.00     0.346 HD
ENDBRANCH  18  19
ENDBRANCH  15  18
ENDBRANCH  11  14
ENDBRANCH   5   8
ENDBRANCH   3   4
ENDBRANCH   2   3
ENDBRANCH   1   2
BRANCH   1  27
ATOM     27  C   UNL A   1      31.750  26.890  26.243  1.00  0.00     0.002 C 
BRANCH  27  28
ATOM     28  C   UNL A   1      32.457  27.680  27.349  1.00  0.00     0.021 C 
BRANCH  28  29
ATOM     29  C   UNL A   1      33.744  28.371  26.914  1.00  0.00     0.116 C 
BRANCH  29  30
ATOM     30  N   UNL A   1      33.623  29.819  26.965  1.00  0.00    -0.352 N 
ATOM     31  C   UNL A   1      34.432  30.731  27.593  1.00  0.00     0.251 C 
ATOM     32  H   UNL A   1      32.854  30.198  26.482  1.00  0.00     0.163 HD
ATOM     33  O   UNL A   1      34.054  31.897  27.725  1.00  0.00    -0.269 OA
BRANCH  31  34
ATOM     34  C   UNL A   1      35.747  30.311  28.119  1.00  0.00     0.039 A 
ATOM     35  C   UNL A   1      35.818  29.730  29.387  1.00  0.00     0.014 A 
ATOM     36  C   UNL A   1      36.909  30.497  27.363  1.00  0.00     0.014 A 
ATOM     37  C   UNL A   1      37.050  29.290  29.876  1.00  0.00     0.010 A 
ATOM     38  C   UNL A   1      38.120  29.987  27.819  1.00  0.00     0.010 A 
ATOM     39  C   UNL A   1      38.207  29.388  29.085  1.00  0.00    -0.014 A 
BRANCH  39  40
ATOM     40  C   UNL A   1      39.515  28.870  29.563  1.00  0.00     0.031 A 
ATOM     41  C   UNL A   1      40.254  29.580  30.666  1.00  0.00     0.074 A 
ATOM     42  C   UNL A   1      40.070  27.804  28.954  1.00  0.00     0.049 A 
ATOM     43  N   UNL A   1      41.426  29.310  31.179  1.00  0.00    -0.248 NA
ATOM     44  C   UNL A   1      39.602  30.764  31.253  1.00  0.00     0.031 C 
ATOM     45  C   UNL A   1      39.485  27.071  27.829  1.00  0.00     0.029 A 
ATOM     46  N   UNL A   1      41.263  27.164  29.181  1.00  0.00    -0.354 N 
ATOM     47  C   UNL A   1      41.664  30.300  32.125  1.00  0.00     0.074 A 
ATOM     48  C   UNL A   1      40.534  31.202  32.087  1.00  0.00     0.031 C 
ATOM     49  C   UNL A   1      40.314  26.077  27.471  1.00  0.00     0.029 A 
ATOM     50  C   UNL A   1      41.505  26.123  28.314  1.00  0.00     0.049 A 
ATOM     51  H   UNL A   1      41.886  27.424  29.896  1.00  0.00     0.167 HD
ATOM     52  C   UNL A   1      42.712  30.430  32.974  1.00  0.00     0.034 A 
ATOM     53  C   UNL A   1      42.569  25.304  28.204  1.00  0.00     0.034 A 
ATOM     54  C   UNL A   1      43.819  29.514  33.030  1.00  0.00     0.049 A 
ATOM     55  C   UNL A   1      43.715  25.466  29.166  1.00  0.00     0.074 A 
ATOM     56  C   UNL A   1      44.897  29.521  33.898  1.00  0.00     0.029 A 
ATOM     57  N   UNL A   1      43.996  28.434  32.180  1.00  0.00    -0.354 N 
ATOM     58  N   UNL A   1      43.855  26.323  30.148  1.00  0.00    -0.248 NA
ATOM     59  C   UNL A   1      44.835  24.525  29.026  1.00  0.00     0.031 C 
ATOM     60  C   UNL A   1      45.741  28.460  33.554  1.00  0.00     0.029 A 
ATOM     61  C   UNL A   1      45.169  27.771  32.497  1.00  0.00     0.049 A 
ATOM     62  H   UNL A   1      43.378  28.175  31.459  1.00  0.00     0.167 HD
ATOM     63  C   UNL A   1      45.056  25.998  30.769  1.00  0.00     0.074 A 
ATOM     64  C   UNL A   1      45.593  24.853  30.064  1.00  0.00     0.031 C 
ATOM     65  C   UNL A   1      45.665  26.599  31.821  1.00  0.00     0.034 A 
BRANCH  52  66
ATOM     66  C   UNL A   1      42.686  31.582  33.947  1.00  0.00     0.023 A 
ATOM     67  C   UNL A   1      43.186  32.839  33.550  1.00  0.00     0.012 A 
ATOM     68  C   UNL A   1      42.115  31.440  35.227  1.00  0.00     0.148 A 
ATOM     69  C   UNL A   1      43.154  33.926  34.422  1.00  0.00     0.002 A 
ATOM     70  C   UNL A   1      42.043  32.540  36.073  1.00  0.00     0.091 A 
ATOM     71  F   UNL A   1      41.662  30.233  35.594  1.00  0.00    -0.205 F 
ATOM     72  C   UNL A   1      42.574  33.779  35.679  1.00  0.00     0.022 A 
BRANCH  70  73
ATOM     73  S   UNL A   1      41.244  32.478  37.681  1.00  0.00     0.127 S 
ATOM     74  O   UNL A   1      39.910  31.992  37.329  1.00  0.00    -0.237 OA
ATOM     75  O   UNL A   1      42.076  31.511  38.398  1.00  0.00    -0.237 OA
ATOM     76  O   UNL A   1      41.293  33.834  38.208  1.00  0.00    -0.744 OA
ENDBRANCH  70  73
ENDBRANCH  52  66
BRANCH  53  77
ATOM     77  C   UNL A   1      42.580  24.220  27.181  1.00  0.00     0.023 A 
ATOM     78  C   UNL A   1      43.294  24.408  25.980  1.00  0.00     0.012 A 
ATOM     79  C   UNL A   1      41.895  23.008  27.388  1.00  0.00     0.148 A 
ATOM     80  C   UNL A   1      43.291  23.427  24.989  1.00  0.00     0.002 A 
ATOM     81  C   UNL A   1      41.944  22.011  26.421  1.00  0.00     0.091 A 
ATOM     82  F   UNL A   1      41.214  22.850  28.532  1.00  0.00    -0.205 F 
ATOM     83  C   UNL A   1      42.623  22.226  25.212  1.00  0.00     0.022 A 
BRANCH  81  84
ATOM     84  S   UNL A   1      41.222  20.386  26.675  1.00  0.00     0.127 S 
ATOM     85  O   UNL A   1      41.811  19.994  27.953  1.00  0.00    -0.237 OA
ATOM     86  O   UNL A   1      39.793  20.695  26.723  1.00  0.00    -0.237 OA
ATOM     87  O   UNL A   1      41.626  19.592  25.523  1.00  0.00    -0.744 OA
ENDBRANCH  81  84
ENDBRANCH  53  77
BRANCH  65  88
ATOM     88  C   UNL A   1      46.959  26.004  32.312  1.00  0.00     0.023 A 
ATOM     89  C   UNL A   1      48.188  26.450  31.787  1.00  0.00     0.012 A 
ATOM     90  C   UNL A   1      46.957  25.048  33.349  1.00  0.00     0.148 A 
ATOM     91  C   UNL A   1      49.391  25.929  32.259  1.00  0.00     0.002 A 
ATOM     92  C   UNL A   1      48.161  24.573  33.851  1.00  0.00     0.091 A 
ATOM     93  F   UNL A   1      45.777  24.624  33.825  1.00  0.00    -0.205 F 
ATOM     94  C   UNL A   1      49.379  25.001  33.298  1.00  0.00     0.022 A 
BRANCH  92  95
ATOM     95  S   UNL A   1      48.248  23.454  35.253  1.00  0.00     0.127 S 
ATOM     96  O   UNL A   1      49.692  23.305  35.426  1.00  0.00    -0.237 OA
ATOM     97  O   UNL A   1      47.584  24.225  36.305  1.00  0.00    -0.237 OA
ATOM     98  O   UNL A   1      47.540  22.246  34.850  1.00  0.00    -0.744 OA
ENDBRANCH  92  95
ENDBRANCH  65  88
ENDBRANCH  39  40
ENDBRANCH  31  34
ENDBRANCH  29  30
ENDBRANCH  28  29
ENDBRANCH  27  28
ENDBRANCH   1  27
TORSDOF 19
ENDMDL
MODEL 3
REMARK VINA RESULT:     -11.3      5.694      9.182
REMARK SMILES C[C@@]1(C(=O)NCCCCCCNC(=O)c2ccc(-c3c4nc(c(-c5cccc(S(=O)(=O)[O-])c5F)c5ccc([nH]5)c(-c5cccc(S(=O)(=O)[O-])c5F)c5nc(c(-c6cccc(S(=O)(=O)[O-])c6F)c6ccc3[nH]6)C=C5)C=C4)cc2)COC[C@H]1NC(=O)C[C@@H]1C[NH2+]CCO1
REMARK SMILES IDX 8 1 7 2 6 3 5 4 3 5 4 6 2 8 1 9 78 10 81 11 79 12 80 13
REMARK SMILES IDX 82 14 83 15 84 17 85 18 86 19 87 20 91 21 88 22 90 23 89 24
REMARK SMILES IDX 9 27 10 28 11 29 12 30 13 31 14 33 15 34 16 35 77 36 17 37
REMARK SMILES IDX 76 38 18 39 19 40 20 41 70 42 21 43 75 44 69 45 71 46 22 47
REMARK SMILES IDX 74 48 68 49 67 50 23 52 55 53 35 54 54 55 36 56 39 57 53 58
REMARK SMILES IDX 72 59 37 60 38 61 52 63 73 64 40 65 24 66 25 67 33 68 26 69
REMARK SMILES IDX 28 70 34 71 27 72 29 73 30 74 31 75 32 76 56 77 57 78 65 79
REMARK SMILES IDX 58 80 60 81 66 82 59 83 61 84 62 85 63 86 64 87 41 88 42 89
REMARK SMILES IDX 50 90 43 91 45 92 51 93 44 94 46 95 47 96 48 97 49 98
REMARK H PARENT 5 7 82 16 88 25 88 26 12 32 71 51 39 62
REMARK Flexibility Score: inf
ROOT
ATOM      1  C   UNL A   1      33.192  30.074  26.952  1.00  0.00     0.002 C 
ENDROOT
BRANCH   1   2
ATOM      2  C   UNL A   1      33.322  28.564  27.169  1.00  0.00     0.021 C 
BRANCH   2   3
ATOM      3  C   UNL A   1      33.219  27.728  25.897  1.00  0.00     0.116 C 
BRANCH   3   4
ATOM      4  N   UNL A   1      34.127  26.601  25.900  1.00  0.00    -0.355 N 
ATOM      5  C   UNL A   1      33.999  25.327  25.445  1.00  0.00     0.230 C 
ATOM      6  O   UNL A   1      35.056  24.688  25.400  1.00  0.00    -0.274 OA
ATOM      7  H   UNL A   1      35.003  26.795  26.308  1.00  0.00     0.163 HD
BRANCH   5   8
ATOM      8  C   UNL A   1      32.653  24.683  25.021  1.00  0.00     0.092 C 
ATOM      9  C   UNL A   1      31.736  24.613  26.266  1.00  0.00     0.026 C 
ATOM     10  C   UNL A   1      32.909  23.250  24.563  1.00  0.00     0.179 C 
ATOM     11  C   UNL A   1      32.002  25.391  23.805  1.00  0.00     0.125 C 
ATOM     12  O   UNL A   1      32.713  23.182  23.152  1.00  0.00    -0.378 OA
ATOM     13  C   UNL A   1      31.930  24.298  22.730  1.00  0.00     0.186 C 
BRANCH  11  14
ATOM     14  N   UNL A   1      30.659  25.960  24.025  1.00  0.00    -0.350 N 
ATOM     15  C   UNL A   1      29.994  26.996  23.432  1.00  0.00     0.223 C 
ATOM     16  H   UNL A   1      30.146  25.509  24.734  1.00  0.00     0.163 HD
ATOM     17  O   UNL A   1      28.816  27.169  23.750  1.00  0.00    -0.275 OA
BRANCH  15  18
ATOM     18  C   UNL A   1      30.679  27.910  22.431  1.00  0.00     0.138 C 
BRANCH  18  19
ATOM     19  C   UNL A   1      30.137  29.350  22.356  1.00  0.00     0.182 C 
ATOM     20  C   UNL A   1      29.930  30.013  23.724  1.00  0.00     0.293 C 
ATOM     21  O   UNL A   1      28.897  29.392  21.620  1.00  0.00    -0.366 OA
ATOM     22  N   UNL A   1      29.446  31.396  23.665  1.00  0.00    -0.342 N 
ATOM     23  C   UNL A   1      28.426  30.747  21.495  1.00  0.00     0.222 C 
ATOM     24  C   UNL A   1      28.223  31.415  22.863  1.00  0.00     0.289 C 
ATOM     25  H   UNL A   1      30.152  31.992  23.234  1.00  0.00     0.346 HD
ATOM     26  H   UNL A   1      29.258  31.744  24.605  1.00  0.00     0.346 HD
ENDBRANCH  18  19
ENDBRANCH  15  18
ENDBRANCH  11  14
ENDBRANCH   5   8
ENDBRANCH   3   4
ENDBRANCH   2   3
ENDBRANCH   1   2
BRANCH   1  27
ATOM     27  C   UNL A   1      31.756  30.593  26.805  1.00  0.00     0.002 C 
BRANCH  27  28
ATOM     28  C   UNL A   1      31.597  32.115  26.873  1.00  0.00     0.021 C 
BRANCH  28  29
ATOM     29  C   UNL A   1      32.872  32.873  27.227  1.00  0.00     0.116 C 
BRANCH  29  30
ATOM     30  N   UNL A   1      32.590  34.235  27.648  1.00  0.00    -0.352 N 
ATOM     31  C   UNL A   1      33.091  34.928  28.720  1.00  0.00     0.251 C 
ATOM     32  H   UNL A   1      31.951  34.730  27.086  1.00  0.00     0.163 HD
ATOM     33  O   UNL A   1      32.572  35.994  29.058  1.00  0.00    -0.269 OA
BRANCH  31  34
ATOM     34  C   UNL A   1      34.243  34.391  29.472  1.00  0.00     0.039 A 
ATOM     35  C   UNL A   1      34.015  33.706  30.668  1.00  0.00     0.014 A 
ATOM     36  C   UNL A   1      35.547  34.569  29.000  1.00  0.00     0.014 A 
ATOM     37  C   UNL A   1      35.094  33.157  31.365  1.00  0.00     0.010 A 
ATOM     38  C   UNL A   1      36.610  33.954  29.654  1.00  0.00     0.010 A 
ATOM     39  C   UNL A   1      36.397  33.250  30.849  1.00  0.00    -0.014 A 
BRANCH  39  40
ATOM     40  C   UNL A   1      37.548  32.620  31.545  1.00  0.00     0.031 A 
ATOM     41  C   UNL A   1      38.278  31.467  30.910  1.00  0.00     0.074 A 
ATOM     42  C   UNL A   1      37.890  33.038  32.780  1.00  0.00     0.049 A 
ATOM     43  N   UNL A   1      39.268  30.756  31.383  1.00  0.00    -0.248 NA
ATOM     44  C   UNL A   1      37.819  31.038  29.576  1.00  0.00     0.031 C 
ATOM     45  C   UNL A   1      37.216  34.100  33.530  1.00  0.00     0.029 A 
ATOM     46  N   UNL A   1      38.875  32.605  33.631  1.00  0.00    -0.354 N 
ATOM     47  C   UNL A   1      39.532  29.785  30.426  1.00  0.00     0.074 A 
ATOM     48  C   UNL A   1      38.571  29.969  29.361  1.00  0.00     0.031 C 
ATOM     49  C   UNL A   1      37.813  34.243  34.724  1.00  0.00     0.029 A 
ATOM     50  C   UNL A   1      38.886  33.260  34.842  1.00  0.00     0.049 A 
ATOM     51  H   UNL A   1      39.513  31.893  33.399  1.00  0.00     0.167 HD
ATOM     52  C   UNL A   1      40.508  28.844  30.415  1.00  0.00     0.034 A 
ATOM     53  C   UNL A   1      39.666  33.084  35.926  1.00  0.00     0.034 A 
ATOM     54  C   UNL A   1      41.481  28.684  31.461  1.00  0.00     0.049 A 
ATOM     55  C   UNL A   1      40.747  32.038  35.883  1.00  0.00     0.074 A 
ATOM     56  C   UNL A   1      42.549  27.806  31.516  1.00  0.00     0.029 A 
ATOM     57  N   UNL A   1      41.501  29.411  32.641  1.00  0.00    -0.354 N 
ATOM     58  N   UNL A   1      41.071  31.224  34.908  1.00  0.00    -0.248 NA
ATOM     59  C   UNL A   1      41.593  31.909  37.078  1.00  0.00     0.031 C 
ATOM     60  C   UNL A   1      43.199  27.982  32.741  1.00  0.00     0.029 A 
ATOM     61  C   UNL A   1      42.557  28.996  33.434  1.00  0.00     0.049 A 
ATOM     62  H   UNL A   1      40.860  30.119  32.880  1.00  0.00     0.167 HD
ATOM     63  C   UNL A   1      42.183  30.518  35.354  1.00  0.00     0.074 A 
ATOM     64  C   UNL A   1      42.488  31.015  36.679  1.00  0.00     0.031 C 
ATOM     65  C   UNL A   1      42.882  29.538  34.729  1.00  0.00     0.034 A 
BRANCH  52  66
ATOM     66  C   UNL A   1      40.601  27.945  29.208  1.00  0.00     0.023 A 
ATOM     67  C   UNL A   1      39.744  26.830  29.103  1.00  0.00     0.012 A 
ATOM     68  C   UNL A   1      41.488  28.234  28.153  1.00  0.00     0.148 A 
ATOM     69  C   UNL A   1      39.794  25.996  27.988  1.00  0.00     0.002 A 
ATOM     70  C   UNL A   1      41.498  27.425  27.023  1.00  0.00     0.091 A 
ATOM     71  F   UNL A   1      42.308  29.287  28.277  1.00  0.00    -0.205 F 
ATOM     72  C   UNL A   1      40.663  26.299  26.944  1.00  0.00     0.022 A 
BRANCH  70  73
ATOM     73  S   UNL A   1      42.523  27.773  25.588  1.00  0.00     0.127 S 
ATOM     74  O   UNL A   1      43.853  27.859  26.190  1.00  0.00    -0.237 OA
ATOM     75  O   UNL A   1      42.303  26.586  24.761  1.00  0.00    -0.237 OA
ATOM     76  O   UNL A   1      42.014  29.013  25.021  1.00  0.00    -0.744 OA
ENDBRANCH  70  73
ENDBRANCH  52  66
BRANCH  53  77
ATOM     77  C   UNL A   1      39.494  33.953  37.124  1.00  0.00     0.023 A 
ATOM     78  C   UNL A   1      39.952  35.286  37.085  1.00  0.00     0.012 A 
ATOM     79  C   UNL A   1      38.882  33.474  38.297  1.00  0.00     0.148 A 
ATOM     80  C   UNL A   1      39.839  36.110  38.204  1.00  0.00     0.002 A 
ATOM     81  C   UNL A   1      38.720  34.318  39.389  1.00  0.00     0.091 A 
ATOM     82  F   UNL A   1      38.461  32.201  38.320  1.00  0.00    -0.205 F 
ATOM     83  C   UNL A   1      39.217  35.631  39.353  1.00  0.00     0.022 A 
BRANCH  81  84
ATOM     84  S   UNL A   1      37.818  33.826  40.862  1.00  0.00     0.127 S 
ATOM     85  O   UNL A   1      38.798  32.990  41.549  1.00  0.00    -0.237 OA
ATOM     86  O   UNL A   1      37.553  35.118  41.498  1.00  0.00    -0.237 OA
ATOM     87  O   UNL A   1      36.626  33.140  40.382  1.00  0.00    -0.744 OA
ENDBRANCH  81  84
ENDBRANCH  53  77
BRANCH  65  88
ATOM     88  C   UNL A   1      44.080  28.969  35.444  1.00  0.00     0.023 A 
ATOM     89  C   UNL A   1      45.348  29.560  35.280  1.00  0.00     0.012 A 
ATOM     90  C   UNL A   1      43.931  27.887  36.335  1.00  0.00     0.148 A 
ATOM     91  C   UNL A   1      46.455  29.060  35.963  1.00  0.00     0.002 A 
ATOM     92  C   UNL A   1      45.028  27.429  37.053  1.00  0.00     0.091 A 
ATOM     93  F   UNL A   1      42.719  27.328  36.465  1.00  0.00    -0.205 F 
ATOM     94  C   UNL A   1      46.294  28.004  36.858  1.00  0.00     0.022 A 
BRANCH  92  95
ATOM     95  S   UNL A   1      44.896  26.143  38.300  1.00  0.00     0.127 S 
ATOM     96  O   UNL A   1      43.992  26.759  39.269  1.00  0.00    -0.237 OA
ATOM     97  O   UNL A   1      44.314  25.035  37.541  1.00  0.00    -0.237 OA
ATOM     98  O   UNL A   1      46.252  25.903  38.777  1.00  0.00    -0.744 OA
ENDBRANCH  92  95
ENDBRANCH  65  88
ENDBRANCH  39  40
ENDBRANCH  31  34
ENDBRANCH  29  30
ENDBRANCH  28  29
ENDBRANCH  27  28
ENDBRANCH   1  27
TORSDOF 19
ENDMDL
