MODEL 1
REMARK VINA RESULT:     -11.5      0.000      0.000
REMARK SMILES Cc1ccc(Cl)cc1NC(=O)N[C@@](C)(C(=O)NCCCCCCNC(=O)c1ccc(-c2c3nc(c(-c4cccc(S(=O)(=O)[O-])c4F)c4ccc([nH]4)c(-c4cccc(S(=O)(=O)[O-])c4F)c4nc(c(-c5cccc(S(=O)(=O)[O-])c5F)c5ccc2[nH]5)C=C4)C=C3)cc1)C(F)(F)F
REMARK SMILES IDX 21 1 20 2 19 3 18 4 17 5 15 6 16 7 13 9 14 10 12 11 9 12
REMARK SMILES IDX 10 13 11 15 8 17 1 18 2 19 3 20 4 21 7 22 5 23 6 24 90 25
REMARK SMILES IDX 91 26 92 27 93 28 22 29 23 30 24 31 25 32 26 34 27 35 28 36
REMARK SMILES IDX 89 37 29 38 88 39 30 40 31 41 32 42 82 43 33 44 87 45 81 46
REMARK SMILES IDX 83 47 34 48 86 49 80 50 79 51 35 53 67 54 47 55 66 56 48 57
REMARK SMILES IDX 51 58 65 59 84 60 49 61 50 62 64 64 85 65 52 66 36 67 37 68
REMARK SMILES IDX 45 69 38 70 40 71 46 72 39 73 41 74 42 75 43 76 44 77 68 78
REMARK SMILES IDX 69 79 77 80 70 81 72 82 78 83 71 84 73 85 74 86 75 87 76 88
REMARK SMILES IDX 53 89 54 90 62 91 55 92 57 93 63 94 56 95 58 96 59 97 60 98
REMARK SMILES IDX 61 99
REMARK H PARENT 17 8 9 14 12 16 24 33 83 52 51 63
REMARK Flexibility Score: inf
ROOT
ATOM      1  C   UNL A   1      31.725  28.039  26.705  1.00  0.00     0.002 C 
ENDROOT
BRANCH   1   2
ATOM      2  C   UNL A   1      31.077  26.666  26.495  1.00  0.00     0.002 C 
BRANCH   2   3
ATOM      3  C   UNL A   1      30.209  26.525  25.232  1.00  0.00     0.021 C 
BRANCH   3   4
ATOM      4  C   UNL A   1      30.941  26.824  23.924  1.00  0.00     0.116 C 
BRANCH   4   5
ATOM      5  N   UNL A   1      30.907  25.666  23.054  1.00  0.00    -0.354 N 
ATOM      6  C   UNL A   1      32.075  25.130  22.580  1.00  0.00     0.255 C 
ATOM      7  O   UNL A   1      32.478  25.541  21.493  1.00  0.00    -0.272 OA
ATOM      8  H   UNL A   1      30.044  25.266  22.805  1.00  0.00     0.163 HD
BRANCH   6   9
ATOM      9  C   UNL A   1      32.841  24.119  23.484  1.00  0.00     0.213 C 
ATOM     10  C   UNL A   1      33.280  22.922  22.620  1.00  0.00     0.056 C 
BRANCH   9  11
ATOM     11  N   UNL A   1      31.938  23.630  24.574  1.00  0.00    -0.316 N 
ATOM     12  N   UNL A   1      33.044  22.137  26.117  1.00  0.00    -0.308 N 
ATOM     13  C   UNL A   1      31.983  22.801  25.623  1.00  0.00     0.320 C 
ATOM     14  H   UNL A   1      32.853  21.762  27.007  1.00  0.00     0.171 HD
ATOM     15  O   UNL A   1      30.940  22.728  26.285  1.00  0.00    -0.248 OA
ATOM     16  H   UNL A   1      31.046  24.039  24.494  1.00  0.00     0.166 HD
BRANCH  12  17
ATOM     17  C   UNL A   1      34.349  21.837  25.701  1.00  0.00     0.047 A 
ATOM     18  C   UNL A   1      33.537  19.694  24.538  1.00  0.00     0.046 C 
ATOM     19  C   UNL A   1      34.610  20.615  25.048  1.00  0.00    -0.027 A 
ATOM     20  C   UNL A   1      35.950  20.218  24.856  1.00  0.00     0.007 A 
ATOM     21  C   UNL A   1      37.004  21.038  25.253  1.00  0.00     0.021 A 
ATOM     22  C   UNL A   1      35.402  22.728  25.893  1.00  0.00     0.047 A 
ATOM     23  C   UNL A   1      36.724  22.312  25.725  1.00  0.00     0.043 A 
ATOM     24  Cl  UNL A   1      38.016  23.361  26.165  1.00  0.00    -0.084 Cl
ENDBRANCH  12  17
ENDBRANCH   9  11
BRANCH   9  25
ATOM     25  C   UNL A   1      33.992  25.063  23.924  1.00  0.00     0.420 C 
ATOM     26  F   UNL A   1      35.221  24.553  23.668  1.00  0.00    -0.168 F 
ATOM     27  F   UNL A   1      33.973  26.265  23.333  1.00  0.00    -0.168 F 
ATOM     28  F   UNL A   1      33.925  25.331  25.255  1.00  0.00    -0.168 F 
ENDBRANCH   9  25
ENDBRANCH   6   9
ENDBRANCH   4   5
ENDBRANCH   3   4
ENDBRANCH   2   3
ENDBRANCH   1   2
BRANCH   1  29
ATOM     29  C   UNL A   1      33.240  28.010  26.892  1.00  0.00     0.021 C 
BRANCH  29  30
ATOM     30  C   UNL A   1      33.987  29.045  26.068  1.00  0.00     0.116 C 
BRANCH  30  31
ATOM     31  N   UNL A   1      33.829  30.385  26.606  1.00  0.00    -0.352 N 
ATOM     32  C   UNL A   1      34.571  30.994  27.588  1.00  0.00     0.251 C 
ATOM     33  H   UNL A   1      33.102  30.923  26.218  1.00  0.00     0.163 HD
ATOM     34  O   UNL A   1      34.208  32.055  28.076  1.00  0.00    -0.269 OA
BRANCH  32  35
ATOM     35  C   UNL A   1      35.802  30.325  28.060  1.00  0.00     0.039 A 
ATOM     36  C   UNL A   1      36.958  30.412  27.285  1.00  0.00     0.014 A 
ATOM     37  C   UNL A   1      35.815  29.656  29.289  1.00  0.00     0.014 A 
ATOM     38  C   UNL A   1      38.145  29.859  27.765  1.00  0.00     0.010 A 
ATOM     39  C   UNL A   1      37.018  29.182  29.800  1.00  0.00     0.010 A 
ATOM     40  C   UNL A   1      38.191  29.263  29.036  1.00  0.00    -0.014 A 
BRANCH  40  41
ATOM     41  C   UNL A   1      39.458  28.713  29.579  1.00  0.00     0.031 A 
ATOM     42  C   UNL A   1      40.150  29.404  30.724  1.00  0.00     0.074 A 
ATOM     43  C   UNL A   1      40.025  27.640  28.993  1.00  0.00     0.049 A 
ATOM     44  N   UNL A   1      41.278  29.097  31.308  1.00  0.00    -0.248 NA
ATOM     45  C   UNL A   1      39.507  30.614  31.268  1.00  0.00     0.031 C 
ATOM     46  C   UNL A   1      39.498  26.940  27.818  1.00  0.00     0.029 A 
ATOM     47  N   UNL A   1      41.186  26.969  29.283  1.00  0.00    -0.354 N 
ATOM     48  C   UNL A   1      41.504  30.094  32.249  1.00  0.00     0.074 A 
ATOM     49  C   UNL A   1      40.408  31.031  32.146  1.00  0.00     0.031 C 
ATOM     50  C   UNL A   1      40.333  25.941  27.488  1.00  0.00     0.029 A 
ATOM     51  C   UNL A   1      41.470  25.948  28.405  1.00  0.00     0.049 A 
ATOM     52  H   UNL A   1      41.763  27.195  30.049  1.00  0.00     0.167 HD
ATOM     53  C   UNL A   1      42.519  30.206  33.136  1.00  0.00     0.034 A 
ATOM     54  C   UNL A   1      42.532  25.122  28.336  1.00  0.00     0.034 A 
ATOM     55  C   UNL A   1      43.576  29.242  33.272  1.00  0.00     0.049 A 
ATOM     56  C   UNL A   1      43.611  25.232  29.379  1.00  0.00     0.074 A 
ATOM     57  C   UNL A   1      44.583  29.204  34.220  1.00  0.00     0.029 A 
ATOM     58  N   UNL A   1      43.774  28.159  32.432  1.00  0.00    -0.354 N 
ATOM     59  N   UNL A   1      43.707  26.072  30.381  1.00  0.00    -0.248 NA
ATOM     60  C   UNL A   1      44.711  24.258  29.306  1.00  0.00     0.031 C 
ATOM     61  C   UNL A   1      45.413  28.117  33.930  1.00  0.00     0.029 A 
ATOM     62  C   UNL A   1      44.898  27.456  32.827  1.00  0.00     0.049 A 
ATOM     63  H   UNL A   1      43.200  27.925  31.668  1.00  0.00     0.167 HD
ATOM     64  C   UNL A   1      44.851  25.704  31.078  1.00  0.00     0.074 A 
ATOM     65  C   UNL A   1      45.404  24.552  30.399  1.00  0.00     0.031 C 
ATOM     66  C   UNL A   1      45.404  26.277  32.175  1.00  0.00     0.034 A 
BRANCH  53  67
ATOM     67  C   UNL A   1      42.528  31.391  34.064  1.00  0.00     0.023 A 
ATOM     68  C   UNL A   1      43.261  32.545  33.721  1.00  0.00     0.012 A 
ATOM     69  C   UNL A   1      41.728  31.396  35.224  1.00  0.00     0.148 A 
ATOM     70  C   UNL A   1      43.213  33.680  34.530  1.00  0.00     0.002 A 
ATOM     71  C   UNL A   1      41.648  32.547  35.998  1.00  0.00     0.091 A 
ATOM     72  F   UNL A   1      41.057  30.280  35.542  1.00  0.00    -0.205 F 
ATOM     73  C   UNL A   1      42.398  33.686  35.659  1.00  0.00     0.022 A 
BRANCH  71  74
ATOM     74  S   UNL A   1      40.560  32.686  37.420  1.00  0.00     0.127 S 
ATOM     75  O   UNL A   1      40.280  34.122  37.438  1.00  0.00    -0.237 OA
ATOM     76  O   UNL A   1      39.429  31.849  37.022  1.00  0.00    -0.237 OA
ATOM     77  O   UNL A   1      41.319  32.189  38.560  1.00  0.00    -0.744 OA
ENDBRANCH  71  74
ENDBRANCH  53  67
BRANCH  54  78
ATOM     78  C   UNL A   1      42.612  24.090  27.263  1.00  0.00     0.023 A 
ATOM     79  C   UNL A   1      43.289  24.379  26.061  1.00  0.00     0.012 A 
ATOM     80  C   UNL A   1      42.019  22.823  27.426  1.00  0.00     0.148 A 
ATOM     81  C   UNL A   1      43.333  23.443  25.027  1.00  0.00     0.002 A 
ATOM     82  C   UNL A   1      42.120  21.875  26.416  1.00  0.00     0.091 A 
ATOM     83  F   UNL A   1      41.367  22.569  28.571  1.00  0.00    -0.205 F 
ATOM     84  C   UNL A   1      42.757  22.189  25.207  1.00  0.00     0.022 A 
BRANCH  82  85
ATOM     85  S   UNL A   1      41.526  20.191  26.623  1.00  0.00     0.127 S 
ATOM     86  O   UNL A   1      40.084  20.395  26.737  1.00  0.00    -0.237 OA
ATOM     87  O   UNL A   1      41.964  19.560  25.378  1.00  0.00    -0.237 OA
ATOM     88  O   UNL A   1      42.194  19.686  27.815  1.00  0.00    -0.744 OA
ENDBRANCH  82  85
ENDBRANCH  54  78
BRANCH  66  89
ATOM     89  C   UNL A   1      46.645  25.645  32.748  1.00  0.00     0.023 A 
ATOM     90  C   UNL A   1      47.917  26.101  32.351  1.00  0.00     0.012 A 
ATOM     91  C   UNL A   1      46.543  24.651  33.741  1.00  0.00     0.148 A 
ATOM     92  C   UNL A   1      49.071  25.552  32.910  1.00  0.00     0.002 A 
ATOM     93  C   UNL A   1      47.695  24.148  34.332  1.00  0.00     0.091 A 
ATOM     94  F   UNL A   1      45.323  24.220  34.093  1.00  0.00    -0.205 F 
ATOM     95  C   UNL A   1      48.960  24.586  33.908  1.00  0.00     0.022 A 
BRANCH  93  96
ATOM     96  S   UNL A   1      47.645  22.978  35.694  1.00  0.00     0.127 S 
ATOM     97  O   UNL A   1      49.067  22.743  35.936  1.00  0.00    -0.237 OA
ATOM     98  O   UNL A   1      46.967  23.748  36.739  1.00  0.00    -0.237 OA
ATOM     99  O   UNL A   1      46.895  21.827  35.210  1.00  0.00    -0.744 OA
ENDBRANCH  93  96
ENDBRANCH  66  89
ENDBRANCH  40  41
ENDBRANCH  32  35
ENDBRANCH  30  31
ENDBRANCH  29  30
ENDBRANCH   1  29
TORSDOF 19
ENDMDL
MODEL 2
REMARK VINA RESULT:     -11.4      3.244      8.323
REMARK SMILES Cc1ccc(Cl)cc1NC(=O)N[C@@](C)(C(=O)NCCCCCCNC(=O)c1ccc(-c2c3nc(c(-c4cccc(S(=O)(=O)[O-])c4F)c4ccc([nH]4)c(-c4cccc(S(=O)(=O)[O-])c4F)c4nc(c(-c5cccc(S(=O)(=O)[O-])c5F)c5ccc2[nH]5)C=C4)C=C3)cc1)C(F)(F)F
REMARK SMILES IDX 21 1 20 2 19 3 18 4 17 5 15 6 16 7 13 9 14 10 12 11 9 12
REMARK SMILES IDX 10 13 11 15 8 17 1 18 2 19 3 20 4 21 7 22 5 23 6 24 90 25
REMARK SMILES IDX 91 26 92 27 93 28 22 29 23 30 24 31 25 32 26 34 27 35 28 36
REMARK SMILES IDX 89 37 29 38 88 39 30 40 31 41 32 42 82 43 33 44 87 45 81 46
REMARK SMILES IDX 83 47 34 48 86 49 80 50 79 51 35 53 67 54 47 55 66 56 48 57
REMARK SMILES IDX 51 58 65 59 84 60 49 61 50 62 64 64 85 65 52 66 36 67 37 68
REMARK SMILES IDX 45 69 38 70 40 71 46 72 39 73 41 74 42 75 43 76 44 77 68 78
REMARK SMILES IDX 69 79 77 80 70 81 72 82 78 83 71 84 73 85 74 86 75 87 76 88
REMARK SMILES IDX 53 89 54 90 62 91 55 92 57 93 63 94 56 95 58 96 59 97 60 98
REMARK SMILES IDX 61 99
REMARK H PARENT 17 8 9 14 12 16 24 33 83 52 51 63
REMARK Flexibility Score: inf
ROOT
ATOM      1  C   UNL A   1      32.173  30.020  25.992  1.00  0.00     0.002 C 
ENDROOT
BRANCH   1   2
ATOM      2  C   UNL A   1      31.784  28.794  26.825  1.00  0.00     0.002 C 
BRANCH   2   3
ATOM      3  C   UNL A   1      31.169  27.623  26.039  1.00  0.00     0.021 C 
BRANCH   3   4
ATOM      4  C   UNL A   1      31.407  27.678  24.530  1.00  0.00     0.116 C 
BRANCH   4   5
ATOM      5  N   UNL A   1      30.616  26.667  23.860  1.00  0.00    -0.354 N 
ATOM      6  C   UNL A   1      31.234  25.631  23.212  1.00  0.00     0.255 C 
ATOM      7  O   UNL A   1      31.475  25.784  22.015  1.00  0.00    -0.272 OA
ATOM      8  H   UNL A   1      29.634  26.726  23.871  1.00  0.00     0.163 HD
BRANCH   6   9
ATOM      9  C   UNL A   1      31.660  24.389  24.049  1.00  0.00     0.213 C 
ATOM     10  C   UNL A   1      31.372  23.120  23.225  1.00  0.00     0.056 C 
BRANCH   9  11
ATOM     11  N   UNL A   1      30.868  24.338  25.319  1.00  0.00    -0.316 N 
ATOM     12  N   UNL A   1      31.516  22.515  26.763  1.00  0.00    -0.308 N 
ATOM     13  C   UNL A   1      30.763  23.571  26.409  1.00  0.00     0.320 C 
ATOM     14  H   UNL A   1      31.363  22.259  27.702  1.00  0.00     0.171 HD
ATOM     15  O   UNL A   1      29.939  23.956  27.249  1.00  0.00    -0.248 OA
ATOM     16  H   UNL A   1      30.236  25.092  25.363  1.00  0.00     0.166 HD
BRANCH  12  17
ATOM     17  C   UNL A   1      32.462  21.680  26.151  1.00  0.00     0.047 A 
ATOM     18  C   UNL A   1      34.344  22.675  27.591  1.00  0.00     0.046 C 
ATOM     19  C   UNL A   1      33.830  21.833  26.457  1.00  0.00    -0.027 A 
ATOM     20  C   UNL A   1      34.785  21.164  25.663  1.00  0.00     0.007 A 
ATOM     21  C   UNL A   1      34.390  20.323  24.625  1.00  0.00     0.021 A 
ATOM     22  C   UNL A   1      32.087  20.679  25.258  1.00  0.00     0.047 A 
ATOM     23  C   UNL A   1      33.041  20.045  24.460  1.00  0.00     0.043 A 
ATOM     24  Cl  UNL A   1      32.539  18.962  23.220  1.00  0.00    -0.084 Cl
ENDBRANCH  12  17
ENDBRANCH   9  11
BRANCH   9  25
ATOM     25  C   UNL A   1      33.164  24.743  24.197  1.00  0.00     0.420 C 
ATOM     26  F   UNL A   1      33.495  25.133  25.452  1.00  0.00    -0.168 F 
ATOM     27  F   UNL A   1      33.997  23.735  23.904  1.00  0.00    -0.168 F 
ATOM     28  F   UNL A   1      33.520  25.743  23.347  1.00  0.00    -0.168 F 
ENDBRANCH   9  25
ENDBRANCH   6   9
ENDBRANCH   4   5
ENDBRANCH   3   4
ENDBRANCH   2   3
ENDBRANCH   1   2
BRANCH   1  29
ATOM     29  C   UNL A   1      31.792  31.362  26.612  1.00  0.00     0.021 C 
BRANCH  29  30
ATOM     30  C   UNL A   1      32.954  32.103  27.250  1.00  0.00     0.116 C 
BRANCH  30  31
ATOM     31  N   UNL A   1      32.632  33.493  27.519  1.00  0.00    -0.352 N 
ATOM     32  C   UNL A   1      33.133  34.301  28.510  1.00  0.00     0.251 C 
ATOM     33  H   UNL A   1      31.973  33.908  26.916  1.00  0.00     0.163 HD
ATOM     34  O   UNL A   1      32.632  35.394  28.738  1.00  0.00    -0.269 OA
BRANCH  32  35
ATOM     35  C   UNL A   1      34.273  33.810  29.312  1.00  0.00     0.039 A 
ATOM     36  C   UNL A   1      34.030  32.918  30.356  1.00  0.00     0.014 A 
ATOM     37  C   UNL A   1      35.580  34.199  28.996  1.00  0.00     0.014 A 
ATOM     38  C   UNL A   1      35.107  32.380  31.061  1.00  0.00     0.010 A 
ATOM     39  C   UNL A   1      36.652  33.597  29.644  1.00  0.00     0.010 A 
ATOM     40  C   UNL A   1      36.426  32.695  30.695  1.00  0.00    -0.014 A 
BRANCH  40  41
ATOM     41  C   UNL A   1      37.583  32.095  31.406  1.00  0.00     0.031 A 
ATOM     42  C   UNL A   1      38.373  30.989  30.758  1.00  0.00     0.074 A 
ATOM     43  C   UNL A   1      37.872  32.489  32.662  1.00  0.00     0.049 A 
ATOM     44  N   UNL A   1      39.388  30.317  31.234  1.00  0.00    -0.248 NA
ATOM     45  C   UNL A   1      37.954  30.560  29.412  1.00  0.00     0.031 C 
ATOM     46  C   UNL A   1      37.122  33.486  33.430  1.00  0.00     0.029 A 
ATOM     47  N   UNL A   1      38.854  32.077  33.527  1.00  0.00    -0.354 N 
ATOM     48  C   UNL A   1      39.698  29.362  30.274  1.00  0.00     0.074 A 
ATOM     49  C   UNL A   1      38.749  29.523  29.195  1.00  0.00     0.031 C 
ATOM     50  C   UNL A   1      37.669  33.606  34.650  1.00  0.00     0.029 A 
ATOM     51  C   UNL A   1      38.788  32.675  34.765  1.00  0.00     0.049 A 
ATOM     52  H   UNL A   1      39.544  31.417  33.284  1.00  0.00     0.167 HD
ATOM     53  C   UNL A   1      40.696  28.449  30.279  1.00  0.00     0.034 A 
ATOM     54  C   UNL A   1      39.533  32.483  35.870  1.00  0.00     0.034 A 
ATOM     55  C   UNL A   1      41.670  28.331  31.329  1.00  0.00     0.049 A 
ATOM     56  C   UNL A   1      40.677  31.507  35.820  1.00  0.00     0.074 A 
ATOM     57  C   UNL A   1      42.790  27.520  31.370  1.00  0.00     0.029 A 
ATOM     58  N   UNL A   1      41.634  29.028  32.525  1.00  0.00    -0.354 N 
ATOM     59  N   UNL A   1      41.068  30.746  34.827  1.00  0.00    -0.248 NA
ATOM     60  C   UNL A   1      41.508  31.389  37.028  1.00  0.00     0.031 C 
ATOM     61  C   UNL A   1      43.412  27.699  32.609  1.00  0.00     0.029 A 
ATOM     62  C   UNL A   1      42.701  28.653  33.321  1.00  0.00     0.049 A 
ATOM     63  H   UNL A   1      40.951  29.692  32.772  1.00  0.00     0.167 HD
ATOM     64  C   UNL A   1      42.208  30.090  35.275  1.00  0.00     0.074 A 
ATOM     65  C   UNL A   1      42.460  30.561  36.621  1.00  0.00     0.031 C 
ATOM     66  C   UNL A   1      42.972  29.171  34.636  1.00  0.00     0.034 A 
BRANCH  53  67
ATOM     67  C   UNL A   1      40.822  27.524  29.099  1.00  0.00     0.023 A 
ATOM     68  C   UNL A   1      40.003  26.379  29.015  1.00  0.00     0.012 A 
ATOM     69  C   UNL A   1      41.679  27.844  28.028  1.00  0.00     0.148 A 
ATOM     70  C   UNL A   1      40.050  25.556  27.890  1.00  0.00     0.002 A 
ATOM     71  C   UNL A   1      41.684  27.046  26.890  1.00  0.00     0.091 A 
ATOM     72  F   UNL A   1      42.464  28.924  28.139  1.00  0.00    -0.205 F 
ATOM     73  C   UNL A   1      40.879  25.896  26.823  1.00  0.00     0.022 A 
BRANCH  71  74
ATOM     74  S   UNL A   1      42.649  27.445  25.429  1.00  0.00     0.127 S 
ATOM     75  O   UNL A   1      42.489  26.232  24.629  1.00  0.00    -0.237 OA
ATOM     76  O   UNL A   1      41.944  28.616  24.909  1.00  0.00    -0.237 OA
ATOM     77  O   UNL A   1      44.004  27.705  25.897  1.00  0.00    -0.744 OA
ENDBRANCH  71  74
ENDBRANCH  53  67
BRANCH  54  78
ATOM     78  C   UNL A   1      39.246  33.258  37.112  1.00  0.00     0.023 A 
ATOM     79  C   UNL A   1      39.828  34.528  37.296  1.00  0.00     0.012 A 
ATOM     80  C   UNL A   1      38.400  32.741  38.112  1.00  0.00     0.148 A 
ATOM     81  C   UNL A   1      39.610  35.246  38.473  1.00  0.00     0.002 A 
ATOM     82  C   UNL A   1      38.138  33.489  39.253  1.00  0.00     0.091 A 
ATOM     83  F   UNL A   1      37.864  31.526  37.926  1.00  0.00    -0.205 F 
ATOM     84  C   UNL A   1      38.759  34.731  39.447  1.00  0.00     0.022 A 
BRANCH  82  85
ATOM     85  S   UNL A   1      36.946  32.960  40.489  1.00  0.00     0.127 S 
ATOM     86  O   UNL A   1      37.590  31.768  41.035  1.00  0.00    -0.237 OA
ATOM     87  O   UNL A   1      36.913  34.112  41.391  1.00  0.00    -0.237 OA
ATOM     88  O   UNL A   1      35.704  32.736  39.763  1.00  0.00    -0.744 OA
ENDBRANCH  82  85
ENDBRANCH  54  78
BRANCH  66  89
ATOM     89  C   UNL A   1      44.184  28.642  35.355  1.00  0.00     0.023 A 
ATOM     90  C   UNL A   1      45.443  29.239  35.151  1.00  0.00     0.012 A 
ATOM     91  C   UNL A   1      44.056  27.600  36.295  1.00  0.00     0.148 A 
ATOM     92  C   UNL A   1      46.563  28.784  35.846  1.00  0.00     0.002 A 
ATOM     93  C   UNL A   1      45.165  27.188  37.023  1.00  0.00     0.091 A 
ATOM     94  F   UNL A   1      42.851  27.034  36.462  1.00  0.00    -0.205 F 
ATOM     95  C   UNL A   1      46.421  27.769  36.790  1.00  0.00     0.022 A 
BRANCH  93  96
ATOM     96  S   UNL A   1      45.055  25.961  38.329  1.00  0.00     0.127 S 
ATOM     97  O   UNL A   1      46.443  25.887  38.784  1.00  0.00    -0.237 OA
ATOM     98  O   UNL A   1      44.136  26.595  39.275  1.00  0.00    -0.237 OA
ATOM     99  O   UNL A   1      44.539  24.751  37.704  1.00  0.00    -0.744 OA
ENDBRANCH  93  96
ENDBRANCH  66  89
ENDBRANCH  40  41
ENDBRANCH  32  35
ENDBRANCH  30  31
ENDBRANCH  29  30
ENDBRANCH   1  29
TORSDOF 19
ENDMDL
MODEL 3
REMARK VINA RESULT:     -11.3      2.664      8.008
REMARK SMILES Cc1ccc(Cl)cc1NC(=O)N[C@@](C)(C(=O)NCCCCCCNC(=O)c1ccc(-c2c3nc(c(-c4cccc(S(=O)(=O)[O-])c4F)c4ccc([nH]4)c(-c4cccc(S(=O)(=O)[O-])c4F)c4nc(c(-c5cccc(S(=O)(=O)[O-])c5F)c5ccc2[nH]5)C=C4)C=C3)cc1)C(F)(F)F
REMARK SMILES IDX 21 1 20 2 19 3 18 4 17 5 15 6 16 7 13 9 14 10 12 11 9 12
REMARK SMILES IDX 10 13 11 15 8 17 1 18 2 19 3 20 4 21 7 22 5 23 6 24 90 25
REMARK SMILES IDX 91 26 92 27 93 28 22 29 23 30 24 31 25 32 26 34 27 35 28 36
REMARK SMILES IDX 89 37 29 38 88 39 30 40 31 41 32 42 82 43 33 44 87 45 81 46
REMARK SMILES IDX 83 47 34 48 86 49 80 50 79 51 35 53 67 54 47 55 66 56 48 57
REMARK SMILES IDX 51 58 65 59 84 60 49 61 50 62 64 64 85 65 52 66 36 67 37 68
REMARK SMILES IDX 45 69 38 70 40 71 46 72 39 73 41 74 42 75 43 76 44 77 68 78
REMARK SMILES IDX 69 79 77 80 70 81 72 82 78 83 71 84 73 85 74 86 75 87 76 88
REMARK SMILES IDX 53 89 54 90 62 91 55 92 57 93 63 94 56 95 58 96 59 97 60 98
REMARK SMILES IDX 61 99
REMARK H PARENT 17 8 9 14 12 16 24 33 83 52 51 63
REMARK Flexibility Score: inf
ROOT
ATOM      1  C   UNL A   1      31.173  30.585  25.640  1.00  0.00     0.002 C 
ENDROOT
BRANCH   1   2
ATOM      2  C   UNL A   1      31.779  29.491  26.526  1.00  0.00     0.002 C 
BRANCH   2   3
ATOM      3  C   UNL A   1      31.639  28.053  25.996  1.00  0.00     0.021 C 
BRANCH   3   4
ATOM      4  C   UNL A   1      32.173  27.845  24.579  1.00  0.00     0.116 C 
BRANCH   4   5
ATOM      5  N   UNL A   1      31.321  26.928  23.851  1.00  0.00    -0.354 N 
ATOM      6  C   UNL A   1      31.865  25.847  23.210  1.00  0.00     0.255 C 
ATOM      7  O   UNL A   1      32.178  25.996  22.030  1.00  0.00    -0.272 OA
ATOM      8  H   UNL A   1      30.350  27.083  23.818  1.00  0.00     0.163 HD
BRANCH   6   9
ATOM      9  C   UNL A   1      32.128  24.555  24.039  1.00  0.00     0.213 C 
ATOM     10  C   UNL A   1      31.832  23.333  23.150  1.00  0.00     0.056 C 
BRANCH   9  11
ATOM     11  N   UNL A   1      31.219  24.525  25.230  1.00  0.00    -0.316 N 
ATOM     12  N   UNL A   1      31.566  22.590  26.632  1.00  0.00    -0.308 N 
ATOM     13  C   UNL A   1      30.945  23.725  26.267  1.00  0.00     0.320 C 
ATOM     14  H   UNL A   1      31.304  22.310  27.540  1.00  0.00     0.171 HD
ATOM     15  O   UNL A   1      30.084  24.150  27.049  1.00  0.00    -0.248 OA
ATOM     16  H   UNL A   1      30.656  25.332  25.256  1.00  0.00     0.166 HD
BRANCH  12  17
ATOM     17  C   UNL A   1      32.486  21.698  26.065  1.00  0.00     0.047 A 
ATOM     18  C   UNL A   1      34.354  22.573  27.599  1.00  0.00     0.046 C 
ATOM     19  C   UNL A   1      33.845  21.764  26.438  1.00  0.00    -0.027 A 
ATOM     20  C   UNL A   1      34.794  21.037  25.691  1.00  0.00     0.007 A 
ATOM     21  C   UNL A   1      34.398  20.221  24.632  1.00  0.00     0.021 A 
ATOM     22  C   UNL A   1      32.094  20.722  25.152  1.00  0.00     0.047 A 
ATOM     23  C   UNL A   1      33.044  20.029  24.400  1.00  0.00     0.043 A 
ATOM     24  Cl  UNL A   1      32.537  18.979  23.134  1.00  0.00    -0.084 Cl
ENDBRANCH  12  17
ENDBRANCH   9  11
BRANCH   9  25
ATOM     25  C   UNL A   1      33.632  24.798  24.335  1.00  0.00     0.420 C 
ATOM     26  F   UNL A   1      33.871  25.123  25.629  1.00  0.00    -0.168 F 
ATOM     27  F   UNL A   1      34.419  23.744  24.079  1.00  0.00    -0.168 F 
ATOM     28  F   UNL A   1      34.130  25.798  23.560  1.00  0.00    -0.168 F 
ENDBRANCH   9  25
ENDBRANCH   6   9
ENDBRANCH   4   5
ENDBRANCH   3   4
ENDBRANCH   2   3
ENDBRANCH   1   2
BRANCH   1  29
ATOM     29  C   UNL A   1      31.088  31.963  26.294  1.00  0.00     0.021 C 
BRANCH  29  30
ATOM     30  C   UNL A   1      32.406  32.465  26.857  1.00  0.00     0.116 C 
BRANCH  30  31
ATOM     31  N   UNL A   1      32.307  33.832  27.338  1.00  0.00    -0.352 N 
ATOM     32  C   UNL A   1      33.054  34.440  28.316  1.00  0.00     0.251 C 
ATOM     33  H   UNL A   1      31.620  34.392  26.908  1.00  0.00     0.163 HD
ATOM     34  O   UNL A   1      32.736  35.538  28.752  1.00  0.00    -0.269 OA
BRANCH  32  35
ATOM     35  C   UNL A   1      34.234  33.727  28.849  1.00  0.00     0.039 A 
ATOM     36  C   UNL A   1      35.496  34.300  28.697  1.00  0.00     0.014 A 
ATOM     37  C   UNL A   1      34.078  32.517  29.535  1.00  0.00     0.014 A 
ATOM     38  C   UNL A   1      36.604  33.678  29.273  1.00  0.00     0.010 A 
ATOM     39  C   UNL A   1      35.170  31.947  30.179  1.00  0.00     0.010 A 
ATOM     40  C   UNL A   1      36.446  32.511  30.040  1.00  0.00    -0.014 A 
BRANCH  40  41
ATOM     41  C   UNL A   1      37.609  31.864  30.698  1.00  0.00     0.031 A 
ATOM     42  C   UNL A   1      38.400  30.813  29.966  1.00  0.00     0.074 A 
ATOM     43  C   UNL A   1      37.903  32.166  31.979  1.00  0.00     0.049 A 
ATOM     44  N   UNL A   1      39.420  30.112  30.386  1.00  0.00    -0.248 NA
ATOM     45  C   UNL A   1      37.975  30.484  28.594  1.00  0.00     0.031 C 
ATOM     46  C   UNL A   1      37.153  33.100  32.823  1.00  0.00     0.029 A 
ATOM     47  N   UNL A   1      38.892  31.695  32.806  1.00  0.00    -0.354 N 
ATOM     48  C   UNL A   1      39.728  29.232  29.356  1.00  0.00     0.074 A 
ATOM     49  C   UNL A   1      38.773  29.469  28.297  1.00  0.00     0.031 C 
ATOM     50  C   UNL A   1      37.707  33.131  34.046  1.00  0.00     0.029 A 
ATOM     51  C   UNL A   1      38.830  32.198  34.085  1.00  0.00     0.049 A 
ATOM     52  H   UNL A   1      39.582  31.057  32.511  1.00  0.00     0.167 HD
ATOM     53  C   UNL A   1      40.729  28.326  29.287  1.00  0.00     0.034 A 
ATOM     54  C   UNL A   1      39.581  31.928  35.170  1.00  0.00     0.034 A 
ATOM     55  C   UNL A   1      41.709  28.133  30.321  1.00  0.00     0.049 A 
ATOM     56  C   UNL A   1      40.729  30.963  35.041  1.00  0.00     0.074 A 
ATOM     57  C   UNL A   1      42.833  27.327  30.296  1.00  0.00     0.029 A 
ATOM     58  N   UNL A   1      41.677  28.740  31.566  1.00  0.00    -0.354 N 
ATOM     59  N   UNL A   1      41.117  30.279  33.992  1.00  0.00    -0.248 NA
ATOM     60  C   UNL A   1      41.566  30.759  36.232  1.00  0.00     0.031 C 
ATOM     61  C   UNL A   1      43.460  27.415  31.542  1.00  0.00     0.029 A 
ATOM     62  C   UNL A   1      42.750  28.310  32.326  1.00  0.00     0.049 A 
ATOM     63  H   UNL A   1      40.993  29.381  31.865  1.00  0.00     0.167 HD
ATOM     64  C   UNL A   1      42.262  29.597  34.384  1.00  0.00     0.074 A 
ATOM     65  C   UNL A   1      42.519  29.967  35.760  1.00  0.00     0.031 C 
ATOM     66  C   UNL A   1      43.026  28.731  33.675  1.00  0.00     0.034 A 
BRANCH  53  67
ATOM     67  C   UNL A   1      40.852  27.491  28.042  1.00  0.00     0.023 A 
ATOM     68  C   UNL A   1      41.481  28.025  26.898  1.00  0.00     0.012 A 
ATOM     69  C   UNL A   1      40.436  26.145  28.039  1.00  0.00     0.148 A 
ATOM     70  C   UNL A   1      41.676  27.237  25.764  1.00  0.00     0.002 A 
ATOM     71  C   UNL A   1      40.676  25.353  26.923  1.00  0.00     0.091 A 
ATOM     72  F   UNL A   1      39.820  25.665  29.129  1.00  0.00    -0.205 F 
ATOM     73  C   UNL A   1      41.287  25.900  25.781  1.00  0.00     0.022 A 
BRANCH  71  74
ATOM     74  S   UNL A   1      40.294  23.599  26.877  1.00  0.00     0.127 S 
ATOM     75  O   UNL A   1      38.865  23.617  26.564  1.00  0.00    -0.237 OA
ATOM     76  O   UNL A   1      41.150  23.129  25.789  1.00  0.00    -0.237 OA
ATOM     77  O   UNL A   1      40.633  23.076  28.193  1.00  0.00    -0.744 OA
ENDBRANCH  71  74
ENDBRANCH  53  67
BRANCH  54  78
ATOM     78  C   UNL A   1      39.299  32.607  36.467  1.00  0.00     0.023 A 
ATOM     79  C   UNL A   1      39.955  33.812  36.785  1.00  0.00     0.012 A 
ATOM     80  C   UNL A   1      38.382  32.063  37.387  1.00  0.00     0.148 A 
ATOM     81  C   UNL A   1      39.739  34.436  38.015  1.00  0.00     0.002 A 
ATOM     82  C   UNL A   1      38.126  32.722  38.583  1.00  0.00     0.091 A 
ATOM     83  F   UNL A   1      37.775  30.909  37.073  1.00  0.00    -0.205 F 
ATOM     84  C   UNL A   1      38.819  33.897  38.909  1.00  0.00     0.022 A 
BRANCH  82  85
ATOM     85  S   UNL A   1      36.855  32.169  39.726  1.00  0.00     0.127 S 
ATOM     86  O   UNL A   1      35.657  32.228  38.893  1.00  0.00    -0.237 OA
ATOM     87  O   UNL A   1      37.311  30.818  40.056  1.00  0.00    -0.237 OA
ATOM     88  O   UNL A   1      36.901  33.104  40.842  1.00  0.00    -0.744 OA
ENDBRANCH  82  85
ENDBRANCH  54  78
BRANCH  66  89
ATOM     89  C   UNL A   1      44.244  28.154  34.347  1.00  0.00     0.023 A 
ATOM     90  C   UNL A   1      45.470  28.845  34.299  1.00  0.00     0.012 A 
ATOM     91  C   UNL A   1      44.148  26.963  35.093  1.00  0.00     0.148 A 
ATOM     92  C   UNL A   1      46.592  28.341  34.955  1.00  0.00     0.002 A 
ATOM     93  C   UNL A   1      45.256  26.496  35.789  1.00  0.00     0.091 A 
ATOM     94  F   UNL A   1      42.975  26.312  35.113  1.00  0.00    -0.205 F 
ATOM     95  C   UNL A   1      46.482  27.175  35.709  1.00  0.00     0.022 A 
BRANCH  93  96
ATOM     96  S   UNL A   1      45.179  25.061  36.867  1.00  0.00     0.127 S 
ATOM     97  O   UNL A   1      45.252  23.963  35.905  1.00  0.00    -0.237 OA
ATOM     98  O   UNL A   1      46.375  25.229  37.692  1.00  0.00    -0.237 OA
ATOM     99  O   UNL A   1      43.922  25.171  37.595  1.00  0.00    -0.744 OA
ENDBRANCH  93  96
ENDBRANCH  66  89
ENDBRANCH  40  41
ENDBRANCH  32  35
ENDBRANCH  30  31
ENDBRANCH  29  30
ENDBRANCH   1  29
TORSDOF 19
ENDMDL
