MODEL 1
REMARK VINA RESULT:     -10.7      0.000      0.000
REMARK SMILES [NH3+]C[C@H]1CC[C@@H](C(=O)N[C@H](C(=O)NCCCCCCNC(=O)c2ccc(-c3c4nc(c(-c5cccc(S(=O)(=O)[O-])c5F)c5ccc([nH]5)c(-c5cccc(S(=O)(=O)[O-])c5F)c5nc(c(-c6cccc(S(=O)(=O)[O-])c6F)c6ccc3[nH]6)C=C5)C=C4)cc2)C2CCCCC2)O1
REMARK SMILES IDX 16 1 15 2 14 3 13 4 11 5 12 6 10 8 9 9 7 10 8 11 6 13 3 14
REMARK SMILES IDX 4 15 92 16 5 17 2 18 1 19 86 23 87 24 91 25 88 26 90 27
REMARK SMILES IDX 89 28 17 29 18 30 19 31 20 32 21 33 22 35 23 36 24 37 85 38
REMARK SMILES IDX 25 39 84 40 26 41 27 42 28 43 78 44 29 45 83 46 77 47 79 48
REMARK SMILES IDX 30 49 82 50 76 51 75 52 31 54 63 55 43 56 62 57 44 58 47 59
REMARK SMILES IDX 61 60 80 61 45 62 46 63 60 65 81 66 48 67 32 68 33 69 41 70
REMARK SMILES IDX 34 71 36 72 42 73 35 74 37 75 38 76 39 77 40 78 64 79 65 80
REMARK SMILES IDX 73 81 66 82 68 83 74 84 67 85 69 86 70 87 71 88 72 89 49 90
REMARK SMILES IDX 50 91 58 92 51 93 53 94 59 95 52 96 54 97 55 98 56 99 57 100
REMARK H PARENT 13 7 9 12 1 20 1 21 1 22 20 34 79 53 47 64
REMARK Flexibility Score: inf
ROOT
ATOM      1  C   UNL A   1      34.494  23.119  23.537  1.00  0.00     0.002 C 
ENDROOT
BRANCH   1   2
ATOM      2  C   UNL A   1      33.300  23.918  24.058  1.00  0.00     0.021 C 
BRANCH   2   3
ATOM      3  C   UNL A   1      32.020  23.720  23.241  1.00  0.00     0.116 C 
BRANCH   3   4
ATOM      4  N   UNL A   1      32.151  24.384  21.953  1.00  0.00    -0.354 N 
ATOM      5  C   UNL A   1      31.817  25.661  21.587  1.00  0.00     0.242 C 
ATOM      6  O   UNL A   1      31.748  25.921  20.385  1.00  0.00    -0.273 OA
ATOM      7  H   UNL A   1      32.540  23.831  21.236  1.00  0.00     0.163 HD
BRANCH   5   8
ATOM      8  C   UNL A   1      31.592  26.730  22.686  1.00  0.00     0.174 C 
BRANCH   8   9
ATOM      9  N   UNL A   1      32.813  27.548  22.830  1.00  0.00    -0.342 N 
ATOM     10  C   UNL A   1      33.330  28.178  23.928  1.00  0.00     0.249 C 
ATOM     11  O   UNL A   1      34.264  28.967  23.747  1.00  0.00    -0.272 OA
ATOM     12  H   UNL A   1      33.339  27.655  22.005  1.00  0.00     0.164 HD
BRANCH  10  13
ATOM     13  C   UNL A   1      32.796  27.873  25.337  1.00  0.00     0.207 C 
ATOM     14  C   UNL A   1      33.458  28.579  27.480  1.00  0.00     0.174 C 
ATOM     15  C   UNL A   1      31.968  28.833  27.322  1.00  0.00     0.041 C 
ATOM     16  O   UNL A   1      33.869  27.864  26.299  1.00  0.00    -0.359 OA
ATOM     17  C   UNL A   1      31.805  28.918  25.823  1.00  0.00     0.045 C 
BRANCH  14  18
ATOM     18  C   UNL A   1      34.267  29.885  27.622  1.00  0.00     0.291 C 
BRANCH  18  19
ATOM     19  N   UNL A   1      35.435  29.917  26.732  1.00  0.00    -0.355 N 
ATOM     20  H   UNL A   1      35.249  29.352  25.905  1.00  0.00     0.344 HD
ATOM     21  H   UNL A   1      36.248  29.543  27.224  1.00  0.00     0.344 HD
ATOM     22  H   UNL A   1      35.622  30.880  26.452  1.00  0.00     0.344 HD
ENDBRANCH  18  19
ENDBRANCH  14  18
ENDBRANCH  10  13
ENDBRANCH   8   9
BRANCH   8  23
ATOM     23  C   UNL A   1      30.367  27.654  22.369  1.00  0.00     0.021 C 
ATOM     24  C   UNL A   1      29.241  27.578  23.411  1.00  0.00     0.006 C 
ATOM     25  C   UNL A   1      30.827  29.121  22.214  1.00  0.00     0.006 C 
ATOM     26  C   UNL A   1      28.086  28.534  23.140  1.00  0.00     0.000 C 
ATOM     27  C   UNL A   1      29.668  30.098  21.998  1.00  0.00     0.000 C 
ATOM     28  C   UNL A   1      28.594  29.965  23.071  1.00  0.00     0.000 C 
ENDBRANCH   8  23
ENDBRANCH   5   8
ENDBRANCH   3   4
ENDBRANCH   2   3
ENDBRANCH   1   2
BRANCH   1  29
ATOM     29  C   UNL A   1      34.992  22.034  24.491  1.00  0.00     0.002 C 
BRANCH  29  30
ATOM     30  C   UNL A   1      35.325  22.510  25.909  1.00  0.00     0.021 C 
BRANCH  30  31
ATOM     31  C   UNL A   1      36.638  23.278  26.048  1.00  0.00     0.116 C 
BRANCH  31  32
ATOM     32  N   UNL A   1      37.785  22.389  26.101  1.00  0.00    -0.352 N 
ATOM     33  C   UNL A   1      39.099  22.679  26.355  1.00  0.00     0.251 C 
ATOM     34  H   UNL A   1      37.590  21.438  25.930  1.00  0.00     0.163 HD
ATOM     35  O   UNL A   1      39.961  21.823  26.153  1.00  0.00    -0.269 OA
BRANCH  33  36
ATOM     36  C   UNL A   1      39.486  24.012  26.863  1.00  0.00     0.039 A 
ATOM     37  C   UNL A   1      40.022  24.942  25.970  1.00  0.00     0.014 A 
ATOM     38  C   UNL A   1      39.365  24.331  28.221  1.00  0.00     0.014 A 
ATOM     39  C   UNL A   1      40.419  26.198  26.433  1.00  0.00     0.010 A 
ATOM     40  C   UNL A   1      39.696  25.608  28.667  1.00  0.00     0.010 A 
ATOM     41  C   UNL A   1      40.251  26.546  27.783  1.00  0.00    -0.014 A 
BRANCH  41  42
ATOM     42  C   UNL A   1      40.694  27.872  28.285  1.00  0.00     0.031 A 
ATOM     43  C   UNL A   1      42.156  28.231  28.288  1.00  0.00     0.074 A 
ATOM     44  C   UNL A   1      39.784  28.741  28.769  1.00  0.00     0.049 A 
ATOM     45  N   UNL A   1      42.731  29.345  28.662  1.00  0.00    -0.248 NA
ATOM     46  C   UNL A   1      43.101  27.196  27.832  1.00  0.00     0.031 C 
ATOM     47  C   UNL A   1      38.348  28.481  28.893  1.00  0.00     0.029 A 
ATOM     48  N   UNL A   1      39.935  30.014  29.258  1.00  0.00    -0.354 N 
ATOM     49  C   UNL A   1      44.097  29.138  28.509  1.00  0.00     0.074 A 
ATOM     50  C   UNL A   1      44.271  27.777  28.055  1.00  0.00     0.031 C 
ATOM     51  C   UNL A   1      37.748  29.567  29.407  1.00  0.00     0.029 A 
ATOM     52  C   UNL A   1      38.755  30.593  29.662  1.00  0.00     0.049 A 
ATOM     53  H   UNL A   1      40.805  30.469  29.314  1.00  0.00     0.167 HD
ATOM     54  C   UNL A   1      45.115  30.014  28.689  1.00  0.00     0.034 A 
ATOM     55  C   UNL A   1      38.513  31.818  30.169  1.00  0.00     0.034 A 
ATOM     56  C   UNL A   1      44.937  31.381  29.093  1.00  0.00     0.049 A 
ATOM     57  C   UNL A   1      39.656  32.787  30.313  1.00  0.00     0.074 A 
ATOM     58  C   UNL A   1      45.895  32.370  29.236  1.00  0.00     0.029 A 
ATOM     59  N   UNL A   1      43.719  31.957  29.417  1.00  0.00    -0.354 N 
ATOM     60  N   UNL A   1      40.922  32.623  30.010  1.00  0.00    -0.248 NA
ATOM     61  C   UNL A   1      39.332  34.124  30.829  1.00  0.00     0.031 C 
ATOM     62  C   UNL A   1      45.254  33.542  29.653  1.00  0.00     0.029 A 
ATOM     63  C   UNL A   1      43.898  33.286  29.757  1.00  0.00     0.049 A 
ATOM     64  H   UNL A   1      42.852  31.488  29.405  1.00  0.00     0.167 HD
ATOM     65  C   UNL A   1      41.536  33.844  30.264  1.00  0.00     0.074 A 
ATOM     66  C   UNL A   1      40.497  34.746  30.720  1.00  0.00     0.031 C 
ATOM     67  C   UNL A   1      42.844  34.185  30.152  1.00  0.00     0.034 A 
BRANCH  54  68
ATOM     68  C   UNL A   1      46.509  29.535  28.374  1.00  0.00     0.023 A 
ATOM     69  C   UNL A   1      47.021  29.718  27.072  1.00  0.00     0.012 A 
ATOM     70  C   UNL A   1      47.330  28.958  29.363  1.00  0.00     0.148 A 
ATOM     71  C   UNL A   1      48.312  29.304  26.749  1.00  0.00     0.002 A 
ATOM     72  C   UNL A   1      48.631  28.585  29.044  1.00  0.00     0.091 A 
ATOM     73  F   UNL A   1      46.820  28.773  30.588  1.00  0.00    -0.205 F 
ATOM     74  C   UNL A   1      49.119  28.747  27.736  1.00  0.00     0.022 A 
BRANCH  72  75
ATOM     75  S   UNL A   1      49.775  27.926  30.262  1.00  0.00     0.127 S 
ATOM     76  O   UNL A   1      49.923  29.063  31.172  1.00  0.00    -0.237 OA
ATOM     77  O   UNL A   1      49.017  26.800  30.816  1.00  0.00    -0.237 OA
ATOM     78  O   UNL A   1      50.971  27.551  29.531  1.00  0.00    -0.744 OA
ENDBRANCH  72  75
ENDBRANCH  54  68
BRANCH  55  79
ATOM     79  C   UNL A   1      37.117  32.234  30.489  1.00  0.00     0.023 A 
ATOM     80  C   UNL A   1      36.613  32.009  31.785  1.00  0.00     0.012 A 
ATOM     81  C   UNL A   1      36.293  32.855  29.531  1.00  0.00     0.148 A 
ATOM     82  C   UNL A   1      35.303  32.363  32.111  1.00  0.00     0.002 A 
ATOM     83  C   UNL A   1      35.007  33.253  29.878  1.00  0.00     0.091 A 
ATOM     84  F   UNL A   1      36.784  33.046  28.297  1.00  0.00    -0.205 F 
ATOM     85  C   UNL A   1      34.504  32.992  31.162  1.00  0.00     0.022 A 
BRANCH  83  86
ATOM     86  S   UNL A   1      33.962  34.188  28.754  1.00  0.00     0.127 S 
ATOM     87  O   UNL A   1      32.864  34.588  29.630  1.00  0.00    -0.237 OA
ATOM     88  O   UNL A   1      34.851  35.275  28.342  1.00  0.00    -0.237 OA
ATOM     89  O   UNL A   1      33.619  33.261  27.684  1.00  0.00    -0.744 OA
ENDBRANCH  83  86
ENDBRANCH  55  79
BRANCH  67  90
ATOM     90  C   UNL A   1      43.225  35.598  30.504  1.00  0.00     0.023 A 
ATOM     91  C   UNL A   1      43.653  35.901  31.812  1.00  0.00     0.012 A 
ATOM     92  C   UNL A   1      43.217  36.614  29.527  1.00  0.00     0.148 A 
ATOM     93  C   UNL A   1      44.034  37.198  32.152  1.00  0.00     0.002 A 
ATOM     94  C   UNL A   1      43.643  37.894  29.861  1.00  0.00     0.091 A 
ATOM     95  F   UNL A   1      42.787  36.313  28.292  1.00  0.00    -0.205 F 
ATOM     96  C   UNL A   1      44.039  38.190  31.174  1.00  0.00     0.022 A 
BRANCH  94  97
ATOM     97  S   UNL A   1      43.771  39.208  28.643  1.00  0.00     0.127 S 
ATOM     98  O   UNL A   1      44.020  40.375  29.488  1.00  0.00    -0.237 OA
ATOM     99  O   UNL A   1      44.917  38.782  27.840  1.00  0.00    -0.237 OA
ATOM    100  O   UNL A   1      42.501  39.210  27.927  1.00  0.00    -0.744 OA
ENDBRANCH  94  97
ENDBRANCH  67  90
ENDBRANCH  41  42
ENDBRANCH  33  36
ENDBRANCH  31  32
ENDBRANCH  30  31
ENDBRANCH  29  30
ENDBRANCH   1  29
TORSDOF 21
ENDMDL
MODEL 2
REMARK VINA RESULT:     -10.6      5.302      8.684
REMARK SMILES [NH3+]C[C@H]1CC[C@@H](C(=O)N[C@H](C(=O)NCCCCCCNC(=O)c2ccc(-c3c4nc(c(-c5cccc(S(=O)(=O)[O-])c5F)c5ccc([nH]5)c(-c5cccc(S(=O)(=O)[O-])c5F)c5nc(c(-c6cccc(S(=O)(=O)[O-])c6F)c6ccc3[nH]6)C=C5)C=C4)cc2)C2CCCCC2)O1
REMARK SMILES IDX 16 1 15 2 14 3 13 4 11 5 12 6 10 8 9 9 7 10 8 11 6 13 3 14
REMARK SMILES IDX 4 15 92 16 5 17 2 18 1 19 86 23 87 24 91 25 88 26 90 27
REMARK SMILES IDX 89 28 17 29 18 30 19 31 20 32 21 33 22 35 23 36 24 37 85 38
REMARK SMILES IDX 25 39 84 40 26 41 27 42 28 43 78 44 29 45 83 46 77 47 79 48
REMARK SMILES IDX 30 49 82 50 76 51 75 52 31 54 63 55 43 56 62 57 44 58 47 59
REMARK SMILES IDX 61 60 80 61 45 62 46 63 60 65 81 66 48 67 32 68 33 69 41 70
REMARK SMILES IDX 34 71 36 72 42 73 35 74 37 75 38 76 39 77 40 78 64 79 65 80
REMARK SMILES IDX 73 81 66 82 68 83 74 84 67 85 69 86 70 87 71 88 72 89 49 90
REMARK SMILES IDX 50 91 58 92 51 93 53 94 59 95 52 96 54 97 55 98 56 99 57 100
REMARK H PARENT 13 7 9 12 1 20 1 21 1 22 20 34 79 53 47 64
REMARK Flexibility Score: inf
ROOT
ATOM      1  C   UNL A   1      32.295  30.084  26.953  1.00  0.00     0.002 C 
ENDROOT
BRANCH   1   2
ATOM      2  C   UNL A   1      33.592  29.698  26.244  1.00  0.00     0.021 C 
BRANCH   2   3
ATOM      3  C   UNL A   1      33.913  28.203  26.314  1.00  0.00     0.116 C 
BRANCH   3   4
ATOM      4  N   UNL A   1      32.775  27.480  26.861  1.00  0.00    -0.354 N 
ATOM      5  C   UNL A   1      31.803  26.761  26.219  1.00  0.00     0.242 C 
ATOM      6  O   UNL A   1      30.782  26.474  26.846  1.00  0.00    -0.273 OA
ATOM      7  H   UNL A   1      32.692  27.512  27.842  1.00  0.00     0.163 HD
BRANCH   5   8
ATOM      8  C   UNL A   1      32.041  26.298  24.759  1.00  0.00     0.174 C 
BRANCH   8   9
ATOM      9  N   UNL A   1      31.885  24.832  24.680  1.00  0.00    -0.342 N 
ATOM     10  C   UNL A   1      32.819  23.853  24.483  1.00  0.00     0.249 C 
ATOM     11  O   UNL A   1      32.411  22.708  24.259  1.00  0.00    -0.272 OA
ATOM     12  H   UNL A   1      30.962  24.507  24.788  1.00  0.00     0.164 HD
BRANCH  10  13
ATOM     13  C   UNL A   1      34.322  24.164  24.588  1.00  0.00     0.207 C 
ATOM     14  C   UNL A   1      36.111  23.053  25.633  1.00  0.00     0.174 C 
ATOM     15  C   UNL A   1      36.485  23.325  24.185  1.00  0.00     0.041 C 
ATOM     16  O   UNL A   1      34.850  23.714  25.851  1.00  0.00    -0.359 OA
ATOM     17  C   UNL A   1      35.138  23.460  23.516  1.00  0.00     0.045 C 
BRANCH  14  18
ATOM     18  C   UNL A   1      35.982  21.546  25.936  1.00  0.00     0.291 C 
BRANCH  18  19
ATOM     19  N   UNL A   1      34.625  21.175  26.357  1.00  0.00    -0.355 N 
ATOM     20  H   UNL A   1      34.478  20.179  26.194  1.00  0.00     0.344 HD
ATOM     21  H   UNL A   1      33.944  21.712  25.820  1.00  0.00     0.344 HD
ATOM     22  H   UNL A   1      34.510  21.378  27.350  1.00  0.00     0.344 HD
ENDBRANCH  18  19
ENDBRANCH  14  18
ENDBRANCH  10  13
ENDBRANCH   8   9
BRANCH   8  23
ATOM     23  C   UNL A   1      31.063  26.991  23.751  1.00  0.00     0.021 C 
ATOM     24  C   UNL A   1      29.582  26.894  24.151  1.00  0.00     0.006 C 
ATOM     25  C   UNL A   1      31.448  28.476  23.564  1.00  0.00     0.006 C 
ATOM     26  C   UNL A   1      28.641  27.634  23.210  1.00  0.00     0.000 C 
ATOM     27  C   UNL A   1      30.475  29.244  22.665  1.00  0.00     0.000 C 
ATOM     28  C   UNL A   1      29.030  29.101  23.125  1.00  0.00     0.000 C 
ENDBRANCH   8  23
ENDBRANCH   5   8
ENDBRANCH   3   4
ENDBRANCH   2   3
ENDBRANCH   1   2
BRANCH   1  29
ATOM     29  C   UNL A   1      31.387  31.013  26.146  1.00  0.00     0.002 C 
BRANCH  29  30
ATOM     30  C   UNL A   1      31.356  32.471  26.618  1.00  0.00     0.021 C 
BRANCH  30  31
ATOM     31  C   UNL A   1      32.569  32.920  27.429  1.00  0.00     0.116 C 
BRANCH  31  32
ATOM     32  N   UNL A   1      32.535  34.343  27.717  1.00  0.00    -0.352 N 
ATOM     33  C   UNL A   1      33.211  35.052  28.674  1.00  0.00     0.251 C 
ATOM     34  H   UNL A   1      31.939  34.875  27.141  1.00  0.00     0.163 HD
ATOM     35  O   UNL A   1      32.895  36.221  28.901  1.00  0.00    -0.269 OA
BRANCH  33  36
ATOM     36  C   UNL A   1      34.308  34.422  29.437  1.00  0.00     0.039 A 
ATOM     37  C   UNL A   1      35.592  34.418  28.887  1.00  0.00     0.014 A 
ATOM     38  C   UNL A   1      34.068  33.798  30.666  1.00  0.00     0.014 A 
ATOM     39  C   UNL A   1      36.640  33.806  29.580  1.00  0.00     0.010 A 
ATOM     40  C   UNL A   1      35.128  33.250  31.386  1.00  0.00     0.010 A 
ATOM     41  C   UNL A   1      36.419  33.224  30.838  1.00  0.00    -0.014 A 
BRANCH  41  42
ATOM     42  C   UNL A   1      37.524  32.551  31.567  1.00  0.00     0.031 A 
ATOM     43  C   UNL A   1      38.270  31.411  30.925  1.00  0.00     0.074 A 
ATOM     44  C   UNL A   1      37.836  32.943  32.818  1.00  0.00     0.049 A 
ATOM     45  N   UNL A   1      39.276  30.718  31.392  1.00  0.00    -0.248 NA
ATOM     46  C   UNL A   1      37.813  30.976  29.594  1.00  0.00     0.031 C 
ATOM     47  C   UNL A   1      37.137  33.982  33.578  1.00  0.00     0.029 A 
ATOM     48  N   UNL A   1      38.814  32.505  33.675  1.00  0.00    -0.354 N 
ATOM     49  C   UNL A   1      39.556  29.756  30.428  1.00  0.00     0.074 A 
ATOM     50  C   UNL A   1      38.584  29.922  29.371  1.00  0.00     0.031 C 
ATOM     51  C   UNL A   1      37.720  34.113  34.782  1.00  0.00     0.029 A 
ATOM     52  C   UNL A   1      38.822  33.160  34.885  1.00  0.00     0.049 A 
ATOM     53  H   UNL A   1      39.449  31.790  33.446  1.00  0.00     0.167 HD
ATOM     54  C   UNL A   1      40.557  28.844  30.402  1.00  0.00     0.034 A 
ATOM     55  C   UNL A   1      39.635  33.016  35.949  1.00  0.00     0.034 A 
ATOM     56  C   UNL A   1      41.553  28.714  31.430  1.00  0.00     0.049 A 
ATOM     57  C   UNL A   1      40.769  32.029  35.874  1.00  0.00     0.074 A 
ATOM     58  C   UNL A   1      42.650  27.871  31.466  1.00  0.00     0.029 A 
ATOM     59  N   UNL A   1      41.577  29.450  32.604  1.00  0.00    -0.354 N 
ATOM     60  N   UNL A   1      41.112  31.239  34.885  1.00  0.00    -0.248 NA
ATOM     61  C   UNL A   1      41.652  31.941  37.045  1.00  0.00     0.031 C 
ATOM     62  C   UNL A   1      43.332  28.093  32.667  1.00  0.00     0.029 A 
ATOM     63  C   UNL A   1      42.668  29.082  33.372  1.00  0.00     0.049 A 
ATOM     64  H   UNL A   1      40.914  30.134  32.855  1.00  0.00     0.167 HD
ATOM     65  C   UNL A   1      42.270  30.590  35.299  1.00  0.00     0.074 A 
ATOM     66  C   UNL A   1      42.583  31.100  36.619  1.00  0.00     0.031 C 
ATOM     67  C   UNL A   1      42.998  29.643  34.657  1.00  0.00     0.034 A 
BRANCH  54  68
ATOM     68  C   UNL A   1      40.668  27.966  29.182  1.00  0.00     0.023 A 
ATOM     69  C   UNL A   1      39.840  26.829  29.075  1.00  0.00     0.012 A 
ATOM     70  C   UNL A   1      41.541  28.285  28.124  1.00  0.00     0.148 A 
ATOM     71  C   UNL A   1      39.903  26.005  27.953  1.00  0.00     0.002 A 
ATOM     72  C   UNL A   1      41.569  27.480  26.989  1.00  0.00     0.091 A 
ATOM     73  F   UNL A   1      42.336  29.357  28.252  1.00  0.00    -0.205 F 
ATOM     74  C   UNL A   1      40.759  26.335  26.907  1.00  0.00     0.022 A 
BRANCH  72  75
ATOM     75  S   UNL A   1      42.585  27.861  25.557  1.00  0.00     0.127 S 
ATOM     76  O   UNL A   1      42.395  26.664  24.736  1.00  0.00    -0.237 OA
ATOM     77  O   UNL A   1      41.936  29.066  25.033  1.00  0.00    -0.237 OA
ATOM     78  O   UNL A   1      43.931  28.066  26.061  1.00  0.00    -0.744 OA
ENDBRANCH  72  75
ENDBRANCH  54  68
BRANCH  55  79
ATOM     79  C   UNL A   1      39.467  33.894  37.143  1.00  0.00     0.023 A 
ATOM     80  C   UNL A   1      39.924  35.225  37.088  1.00  0.00     0.012 A 
ATOM     81  C   UNL A   1      38.852  33.428  38.321  1.00  0.00     0.148 A 
ATOM     82  C   UNL A   1      39.806  36.065  38.196  1.00  0.00     0.002 A 
ATOM     83  C   UNL A   1      38.688  34.287  39.403  1.00  0.00     0.091 A 
ATOM     84  F   UNL A   1      38.437  32.154  38.362  1.00  0.00    -0.205 F 
ATOM     85  C   UNL A   1      39.180  35.601  39.348  1.00  0.00     0.022 A 
BRANCH  83  86
ATOM     86  S   UNL A   1      37.776  33.806  40.874  1.00  0.00     0.127 S 
ATOM     87  O   UNL A   1      36.576  33.204  40.298  1.00  0.00    -0.237 OA
ATOM     88  O   UNL A   1      38.696  32.862  41.510  1.00  0.00    -0.237 OA
ATOM     89  O   UNL A   1      37.575  35.037  41.624  1.00  0.00    -0.744 OA
ENDBRANCH  83  86
ENDBRANCH  55  79
BRANCH  67  90
ATOM     90  C   UNL A   1      44.218  29.110  35.360  1.00  0.00     0.023 A 
ATOM     91  C   UNL A   1      45.474  29.705  35.124  1.00  0.00     0.012 A 
ATOM     92  C   UNL A   1      44.114  28.063  36.297  1.00  0.00     0.148 A 
ATOM     93  C   UNL A   1      46.612  29.243  35.783  1.00  0.00     0.002 A 
ATOM     94  C   UNL A   1      45.245  27.639  36.984  1.00  0.00     0.091 A 
ATOM     95  F   UNL A   1      42.915  27.494  36.493  1.00  0.00    -0.205 F 
ATOM     96  C   UNL A   1      46.495  28.218  36.719  1.00  0.00     0.022 A 
BRANCH  94  97
ATOM     97  S   UNL A   1      45.169  26.391  38.274  1.00  0.00     0.127 S 
ATOM     98  O   UNL A   1      44.724  25.216  37.527  1.00  0.00    -0.237 OA
ATOM     99  O   UNL A   1      46.557  26.331  38.734  1.00  0.00    -0.237 OA
ATOM    100  O   UNL A   1      44.229  26.901  39.264  1.00  0.00    -0.744 OA
ENDBRANCH  94  97
ENDBRANCH  67  90
ENDBRANCH  41  42
ENDBRANCH  33  36
ENDBRANCH  31  32
ENDBRANCH  30  31
ENDBRANCH  29  30
ENDBRANCH   1  29
TORSDOF 21
ENDMDL
MODEL 3
REMARK VINA RESULT:     -10.6      2.535      3.027
REMARK SMILES [NH3+]C[C@H]1CC[C@@H](C(=O)N[C@H](C(=O)NCCCCCCNC(=O)c2ccc(-c3c4nc(c(-c5cccc(S(=O)(=O)[O-])c5F)c5ccc([nH]5)c(-c5cccc(S(=O)(=O)[O-])c5F)c5nc(c(-c6cccc(S(=O)(=O)[O-])c6F)c6ccc3[nH]6)C=C5)C=C4)cc2)C2CCCCC2)O1
REMARK SMILES IDX 16 1 15 2 14 3 13 4 11 5 12 6 10 8 9 9 7 10 8 11 6 13 3 14
REMARK SMILES IDX 4 15 92 16 5 17 2 18 1 19 86 23 87 24 91 25 88 26 90 27
REMARK SMILES IDX 89 28 17 29 18 30 19 31 20 32 21 33 22 35 23 36 24 37 85 38
REMARK SMILES IDX 25 39 84 40 26 41 27 42 28 43 78 44 29 45 83 46 77 47 79 48
REMARK SMILES IDX 30 49 82 50 76 51 75 52 31 54 63 55 43 56 62 57 44 58 47 59
REMARK SMILES IDX 61 60 80 61 45 62 46 63 60 65 81 66 48 67 32 68 33 69 41 70
REMARK SMILES IDX 34 71 36 72 42 73 35 74 37 75 38 76 39 77 40 78 64 79 65 80
REMARK SMILES IDX 73 81 66 82 68 83 74 84 67 85 69 86 70 87 71 88 72 89 49 90
REMARK SMILES IDX 50 91 58 92 51 93 53 94 59 95 52 96 54 97 55 98 56 99 57 100
REMARK H PARENT 13 7 9 12 1 20 1 21 1 22 20 34 79 53 47 64
REMARK Flexibility Score: inf
ROOT
ATOM      1  C   UNL A   1      32.971  22.890  23.791  1.00  0.00     0.002 C 
ENDROOT
BRANCH   1   2
ATOM      2  C   UNL A   1      31.496  22.925  24.187  1.00  0.00     0.021 C 
BRANCH   2   3
ATOM      3  C   UNL A   1      30.721  24.098  23.583  1.00  0.00     0.116 C 
BRANCH   3   4
ATOM      4  N   UNL A   1      31.376  24.545  22.363  1.00  0.00    -0.354 N 
ATOM      5  C   UNL A   1      31.527  25.810  21.862  1.00  0.00     0.242 C 
ATOM      6  O   UNL A   1      31.861  25.932  20.683  1.00  0.00    -0.273 OA
ATOM      7  H   UNL A   1      31.771  23.828  21.815  1.00  0.00     0.163 HD
BRANCH   5   8
ATOM      8  C   UNL A   1      31.324  27.027  22.801  1.00  0.00     0.174 C 
BRANCH   8   9
ATOM      9  N   UNL A   1      32.516  27.896  22.738  1.00  0.00    -0.342 N 
ATOM     10  C   UNL A   1      33.188  28.549  23.735  1.00  0.00     0.249 C 
ATOM     11  O   UNL A   1      34.042  29.378  23.402  1.00  0.00    -0.272 OA
ATOM     12  H   UNL A   1      32.886  28.026  21.836  1.00  0.00     0.164 HD
BRANCH  10  13
ATOM     13  C   UNL A   1      32.919  28.221  25.213  1.00  0.00     0.207 C 
ATOM     14  C   UNL A   1      33.643  29.206  27.222  1.00  0.00     0.174 C 
ATOM     15  C   UNL A   1      32.128  29.088  27.255  1.00  0.00     0.041 C 
ATOM     16  O   UNL A   1      34.070  28.531  26.023  1.00  0.00    -0.359 OA
ATOM     17  C   UNL A   1      31.769  29.032  25.789  1.00  0.00     0.045 C 
BRANCH  14  18
ATOM     18  C   UNL A   1      34.121  30.673  27.207  1.00  0.00     0.291 C 
BRANCH  18  19
ATOM     19  N   UNL A   1      35.515  30.810  27.646  1.00  0.00    -0.355 N 
ATOM     20  H   UNL A   1      35.965  29.895  27.646  1.00  0.00     0.344 HD
ATOM     21  H   UNL A   1      35.538  31.200  28.589  1.00  0.00     0.344 HD
ATOM     22  H   UNL A   1      36.012  31.433  27.010  1.00  0.00     0.344 HD
ENDBRANCH  18  19
ENDBRANCH  14  18
ENDBRANCH  10  13
ENDBRANCH   8   9
BRANCH   8  23
ATOM     23  C   UNL A   1      30.044  27.851  22.433  1.00  0.00     0.021 C 
ATOM     24  C   UNL A   1      28.898  27.711  23.447  1.00  0.00     0.006 C 
ATOM     25  C   UNL A   1      30.399  29.345  22.260  1.00  0.00     0.006 C 
ATOM     26  C   UNL A   1      27.683  28.573  23.125  1.00  0.00     0.000 C 
ATOM     27  C   UNL A   1      29.176  30.228  21.993  1.00  0.00     0.000 C 
ATOM     28  C   UNL A   1      28.086  30.036  23.039  1.00  0.00     0.000 C 
ENDBRANCH   8  23
ENDBRANCH   5   8
ENDBRANCH   3   4
ENDBRANCH   2   3
ENDBRANCH   1   2
BRANCH   1  29
ATOM     29  C   UNL A   1      33.944  22.997  24.966  1.00  0.00     0.002 C 
BRANCH  29  30
ATOM     30  C   UNL A   1      35.362  22.486  24.691  1.00  0.00     0.021 C 
BRANCH  30  31
ATOM     31  C   UNL A   1      36.328  22.577  25.871  1.00  0.00     0.116 C 
BRANCH  31  32
ATOM     32  N   UNL A   1      37.274  21.476  25.886  1.00  0.00    -0.352 N 
ATOM     33  C   UNL A   1      38.633  21.500  26.051  1.00  0.00     0.251 C 
ATOM     34  H   UNL A   1      36.882  20.581  25.760  1.00  0.00     0.163 HD
ATOM     35  O   UNL A   1      39.291  20.483  25.827  1.00  0.00    -0.269 OA
BRANCH  33  36
ATOM     36  C   UNL A   1      39.312  22.738  26.488  1.00  0.00     0.039 A 
ATOM     37  C   UNL A   1      38.957  23.947  25.887  1.00  0.00     0.014 A 
ATOM     38  C   UNL A   1      40.327  22.703  27.451  1.00  0.00     0.014 A 
ATOM     39  C   UNL A   1      39.603  25.126  26.267  1.00  0.00     0.010 A 
ATOM     40  C   UNL A   1      40.921  23.889  27.877  1.00  0.00     0.010 A 
ATOM     41  C   UNL A   1      40.585  25.108  27.271  1.00  0.00    -0.014 A 
BRANCH  41  42
ATOM     42  C   UNL A   1      41.292  26.355  27.661  1.00  0.00     0.031 A 
ATOM     43  C   UNL A   1      42.713  26.589  27.219  1.00  0.00     0.074 A 
ATOM     44  C   UNL A   1      40.670  27.261  28.439  1.00  0.00     0.049 A 
ATOM     45  N   UNL A   1      43.485  27.622  27.437  1.00  0.00    -0.248 NA
ATOM     46  C   UNL A   1      43.361  25.513  26.449  1.00  0.00     0.031 C 
ATOM     47  C   UNL A   1      39.323  27.114  28.997  1.00  0.00     0.029 A 
ATOM     48  N   UNL A   1      41.092  28.480  28.907  1.00  0.00    -0.354 N 
ATOM     49  C   UNL A   1      44.708  27.313  26.856  1.00  0.00     0.074 A 
ATOM     50  C   UNL A   1      44.595  25.976  26.316  1.00  0.00     0.031 C 
ATOM     51  C   UNL A   1      39.024  28.209  29.716  1.00  0.00     0.029 A 
ATOM     52  C   UNL A   1      40.159  29.127  29.684  1.00  0.00     0.049 A 
ATOM     53  H   UNL A   1      41.978  28.856  28.705  1.00  0.00     0.167 HD
ATOM     54  C   UNL A   1      45.816  28.085  26.742  1.00  0.00     0.034 A 
ATOM     55  C   UNL A   1      40.211  30.330  30.288  1.00  0.00     0.034 A 
ATOM     56  C   UNL A   1      45.910  29.432  27.235  1.00  0.00     0.049 A 
ATOM     57  C   UNL A   1      41.434  31.187  30.104  1.00  0.00     0.074 A 
ATOM     58  C   UNL A   1      46.960  30.324  27.109  1.00  0.00     0.029 A 
ATOM     59  N   UNL A   1      44.916  30.084  27.947  1.00  0.00    -0.354 N 
ATOM     60  N   UNL A   1      42.521  30.939  29.414  1.00  0.00    -0.248 NA
ATOM     61  C   UNL A   1      41.422  32.508  30.749  1.00  0.00     0.031 C 
ATOM     62  C   UNL A   1      46.602  31.514  27.752  1.00  0.00     0.029 A 
ATOM     63  C   UNL A   1      45.325  31.367  28.267  1.00  0.00     0.049 A 
ATOM     64  H   UNL A   1      44.045  29.691  28.189  1.00  0.00     0.167 HD
ATOM     65  C   UNL A   1      43.304  32.084  29.511  1.00  0.00     0.074 A 
ATOM     66  C   UNL A   1      42.553  33.036  30.304  1.00  0.00     0.031 C 
ATOM     67  C   UNL A   1      44.541  32.321  29.007  1.00  0.00     0.034 A 
BRANCH  54  68
ATOM     68  C   UNL A   1      46.988  27.515  25.986  1.00  0.00     0.023 A 
ATOM     69  C   UNL A   1      47.867  26.630  26.645  1.00  0.00     0.012 A 
ATOM     70  C   UNL A   1      47.195  27.804  24.623  1.00  0.00     0.148 A 
ATOM     71  C   UNL A   1      48.952  26.071  25.973  1.00  0.00     0.002 A 
ATOM     72  C   UNL A   1      48.256  27.210  23.947  1.00  0.00     0.091 A 
ATOM     73  F   UNL A   1      46.363  28.663  24.018  1.00  0.00    -0.205 F 
ATOM     74  C   UNL A   1      49.140  26.352  24.623  1.00  0.00     0.022 A 
BRANCH  72  75
ATOM     75  S   UNL A   1      48.542  27.451  22.191  1.00  0.00     0.127 S 
ATOM     76  O   UNL A   1      49.806  28.190  22.197  1.00  0.00    -0.237 OA
ATOM     77  O   UNL A   1      48.648  26.072  21.705  1.00  0.00    -0.237 OA
ATOM     78  O   UNL A   1      47.392  28.184  21.692  1.00  0.00    -0.744 OA
ENDBRANCH  72  75
ENDBRANCH  54  68
BRANCH  55  79
ATOM     79  C   UNL A   1      39.031  30.838  31.046  1.00  0.00     0.023 A 
ATOM     80  C   UNL A   1      38.913  30.535  32.417  1.00  0.00     0.012 A 
ATOM     81  C   UNL A   1      38.038  31.622  30.429  1.00  0.00     0.148 A 
ATOM     82  C   UNL A   1      37.809  30.973  33.150  1.00  0.00     0.002 A 
ATOM     83  C   UNL A   1      36.968  32.100  31.178  1.00  0.00     0.091 A 
ATOM     84  F   UNL A   1      38.158  31.886  29.120  1.00  0.00    -0.205 F 
ATOM     85  C   UNL A   1      36.843  31.762  32.535  1.00  0.00     0.022 A 
BRANCH  83  86
ATOM     86  S   UNL A   1      35.752  33.230  30.491  1.00  0.00     0.127 S 
ATOM     87  O   UNL A   1      34.697  32.313  30.068  1.00  0.00    -0.237 OA
ATOM     88  O   UNL A   1      35.420  34.063  31.648  1.00  0.00    -0.237 OA
ATOM     89  O   UNL A   1      36.445  33.942  29.426  1.00  0.00    -0.744 OA
ENDBRANCH  83  86
ENDBRANCH  55  79
BRANCH  67  90
ATOM     90  C   UNL A   1      45.153  33.670  29.277  1.00  0.00     0.023 A 
ATOM     91  C   UNL A   1      45.844  33.894  30.485  1.00  0.00     0.012 A 
ATOM     92  C   UNL A   1      45.097  34.696  28.313  1.00  0.00     0.148 A 
ATOM     93  C   UNL A   1      46.439  35.127  30.744  1.00  0.00     0.002 A 
ATOM     94  C   UNL A   1      45.733  35.907  28.557  1.00  0.00     0.091 A 
ATOM     95  F   UNL A   1      44.418  34.472  27.178  1.00  0.00    -0.205 F 
ATOM     96  C   UNL A   1      46.392  36.129  29.777  1.00  0.00     0.022 A 
BRANCH  94  97
ATOM     97  S   UNL A   1      45.803  37.216  27.330  1.00  0.00     0.127 S 
ATOM     98  O   UNL A   1      44.414  37.669  27.296  1.00  0.00    -0.237 OA
ATOM     99  O   UNL A   1      46.738  38.165  27.937  1.00  0.00    -0.237 OA
ATOM    100  O   UNL A   1      46.291  36.589  26.109  1.00  0.00    -0.744 OA
ENDBRANCH  94  97
ENDBRANCH  67  90
ENDBRANCH  41  42
ENDBRANCH  33  36
ENDBRANCH  31  32
ENDBRANCH  30  31
ENDBRANCH  29  30
ENDBRANCH   1  29
TORSDOF 21
ENDMDL
