MODEL 1
REMARK VINA RESULT:     -11.5      0.000      0.000
REMARK SMILES COc1ccc(OC)c(S(=O)(=O)Nc2ccc(N3CCC(C)CC3)c(C(=O)NCCCCCCNC(=O)c3ccc(-c4c5nc(c(-c6cccc(S(=O)(=O)[O-])c6F)c6ccc([nH]6)c(-c6cccc(S(=O)(=O)[O-])c6F)c6nc(c(-c7cccc(S(=O)(=O)[O-])c7F)c7ccc4[nH]7)C=C6)C=C5)cc3)c2)c1
REMARK SMILES IDX 31 1 30 2 29 3 28 4 26 5 27 6 25 8 14 9 15 10 101 11 16 12
REMARK SMILES IDX 17 13 13 14 10 16 11 17 12 18 9 19 3 20 4 21 102 22 5 23
REMARK SMILES IDX 6 24 2 25 1 26 7 27 8 28 18 29 19 30 24 31 20 32 23 33 21 34
REMARK SMILES IDX 22 35 32 36 33 37 34 38 35 39 36 40 37 42 38 43 39 44 100 45
REMARK SMILES IDX 40 46 99 47 41 48 42 49 43 50 93 51 44 52 98 53 92 54 94 55
REMARK SMILES IDX 45 56 97 57 91 58 90 59 46 61 78 62 58 63 77 64 59 65 62 66
REMARK SMILES IDX 76 67 95 68 60 69 61 70 75 72 96 73 63 74 47 75 48 76 56 77
REMARK SMILES IDX 49 78 51 79 57 80 50 81 52 82 53 83 54 84 55 85 79 86 80 87
REMARK SMILES IDX 88 88 81 89 83 90 89 91 82 92 84 93 85 94 86 95 87 96 64 97
REMARK SMILES IDX 65 98 73 99 66 100 68 101 74 102 67 103 69 104 70 105 71 106
REMARK SMILES IDX 72 107
REMARK H PARENT 28 7 13 15 35 41 94 60 62 71
REMARK Flexibility Score: inf
ROOT
ATOM      1  C   UNL A   1      34.222  23.277  27.085  1.00  0.00     0.002 C 
ENDROOT
BRANCH   1   2
ATOM      2  C   UNL A   1      33.684  24.615  26.559  1.00  0.00     0.021 C 
BRANCH   2   3
ATOM      3  C   UNL A   1      32.161  24.734  26.666  1.00  0.00     0.116 C 
BRANCH   3   4
ATOM      4  N   UNL A   1      31.560  23.421  26.530  1.00  0.00    -0.352 N 
ATOM      5  C   UNL A   1      31.149  22.696  25.437  1.00  0.00     0.253 C 
ATOM      6  O   UNL A   1      30.290  21.845  25.664  1.00  0.00    -0.269 OA
ATOM      7  H   UNL A   1      31.420  22.958  27.387  1.00  0.00     0.163 HD
BRANCH   5   8
ATOM      8  C   UNL A   1      31.703  22.907  24.057  1.00  0.00     0.065 A 
ATOM      9  C   UNL A   1      32.311  24.522  22.336  1.00  0.00     0.050 A 
ATOM     10  C   UNL A   1      32.878  23.508  21.578  1.00  0.00     0.029 A 
ATOM     11  C   UNL A   1      31.605  24.194  23.489  1.00  0.00     0.042 A 
ATOM     12  C   UNL A   1      32.894  22.208  22.069  1.00  0.00     0.029 A 
ATOM     13  C   UNL A   1      32.393  21.879  23.347  1.00  0.00     0.050 A 
BRANCH   9  14
ATOM     14  N   UNL A   1      32.566  25.849  21.904  1.00  0.00    -0.279 N 
ATOM     15  H   UNL A   1      32.204  26.110  21.027  1.00  0.00     0.180 HD
BRANCH  14  16
ATOM     16  S   UNL A   1      33.431  27.014  22.751  1.00  0.00     0.265 S 
ATOM     17  O   UNL A   1      34.156  27.795  21.762  1.00  0.00    -0.201 OA
ATOM     18  O   UNL A   1      34.102  26.267  23.785  1.00  0.00    -0.201 OA
BRANCH  16  19
ATOM     19  C   UNL A   1      32.280  28.106  23.560  1.00  0.00     0.133 A 
ATOM     20  C   UNL A   1      30.219  29.387  23.592  1.00  0.00     0.120 A 
ATOM     21  C   UNL A   1      30.707  30.136  24.666  1.00  0.00     0.050 A 
ATOM     22  C   UNL A   1      30.988  28.343  23.065  1.00  0.00     0.072 A 
ATOM     23  C   UNL A   1      31.957  29.854  25.211  1.00  0.00     0.052 A 
ATOM     24  C   UNL A   1      32.737  28.834  24.666  1.00  0.00     0.139 A 
BRANCH  20  25
ATOM     25  O   UNL A   1      28.991  29.788  23.142  1.00  0.00    -0.497 OA
ATOM     26  C   UNL A   1      28.020  28.771  22.934  1.00  0.00     0.278 C 
ENDBRANCH  20  25
BRANCH  24  27
ATOM     27  O   UNL A   1      33.978  28.645  25.206  1.00  0.00    -0.495 OA
ATOM     28  C   UNL A   1      33.898  28.404  26.618  1.00  0.00     0.278 C 
ENDBRANCH  24  27
ENDBRANCH  16  19
ENDBRANCH  14  16
ENDBRANCH   9  14
BRANCH  13  29
ATOM     29  N   UNL A   1      32.702  20.622  23.848  1.00  0.00    -0.371 N 
ATOM     30  C   UNL A   1      33.538  20.448  25.035  1.00  0.00     0.117 C 
ATOM     31  C   UNL A   1      31.881  19.459  23.510  1.00  0.00     0.117 C 
ATOM     32  C   UNL A   1      34.532  19.316  24.752  1.00  0.00     0.025 C 
ATOM     33  C   UNL A   1      32.796  18.269  23.228  1.00  0.00     0.025 C 
ATOM     34  C   UNL A   1      33.793  18.020  24.371  1.00  0.00    -0.011 C 
ATOM     35  C   UNL A   1      34.779  16.923  23.975  1.00  0.00     0.008 C 
ENDBRANCH  13  29
ENDBRANCH   5   8
ENDBRANCH   3   4
ENDBRANCH   2   3
ENDBRANCH   1   2
BRANCH   1  36
ATOM     36  C   UNL A   1      35.445  22.741  26.333  1.00  0.00     0.002 C 
BRANCH  36  37
ATOM     37  C   UNL A   1      35.806  23.504  25.055  1.00  0.00     0.021 C 
BRANCH  37  38
ATOM     38  C   UNL A   1      37.303  23.597  24.770  1.00  0.00     0.116 C 
BRANCH  38  39
ATOM     39  N   UNL A   1      38.055  22.573  25.482  1.00  0.00    -0.352 N 
ATOM     40  C   UNL A   1      39.111  22.726  26.343  1.00  0.00     0.251 C 
ATOM     41  H   UNL A   1      37.766  21.645  25.323  1.00  0.00     0.163 HD
ATOM     42  O   UNL A   1      39.750  21.746  26.717  1.00  0.00    -0.269 OA
BRANCH  40  43
ATOM     43  C   UNL A   1      39.486  24.079  26.805  1.00  0.00     0.039 A 
ATOM     44  C   UNL A   1      39.175  24.460  28.113  1.00  0.00     0.014 A 
ATOM     45  C   UNL A   1      40.129  24.972  25.943  1.00  0.00     0.014 A 
ATOM     46  C   UNL A   1      39.549  25.723  28.574  1.00  0.00     0.010 A 
ATOM     47  C   UNL A   1      40.547  26.211  26.419  1.00  0.00     0.010 A 
ATOM     48  C   UNL A   1      40.254  26.601  27.734  1.00  0.00    -0.014 A 
BRANCH  48  49
ATOM     49  C   UNL A   1      40.682  27.942  28.202  1.00  0.00     0.031 A 
ATOM     50  C   UNL A   1      42.145  28.288  28.242  1.00  0.00     0.074 A 
ATOM     51  C   UNL A   1      39.764  28.811  28.670  1.00  0.00     0.049 A 
ATOM     52  N   UNL A   1      42.725  29.366  28.699  1.00  0.00    -0.248 NA
ATOM     53  C   UNL A   1      43.081  27.277  27.721  1.00  0.00     0.031 C 
ATOM     54  C   UNL A   1      38.323  28.563  28.742  1.00  0.00     0.029 A 
ATOM     55  N   UNL A   1      39.912  30.066  29.203  1.00  0.00    -0.354 N 
ATOM     56  C   UNL A   1      44.091  29.150  28.556  1.00  0.00     0.074 A 
ATOM     57  C   UNL A   1      44.255  27.829  27.991  1.00  0.00     0.031 C 
ATOM     58  C   UNL A   1      37.720  29.631  29.289  1.00  0.00     0.029 A 
ATOM     59  C   UNL A   1      38.731  30.629  29.627  1.00  0.00     0.049 A 
ATOM     60  H   UNL A   1      40.782  30.521  29.276  1.00  0.00     0.167 HD
ATOM     61  C   UNL A   1      45.115  29.990  28.838  1.00  0.00     0.034 A 
ATOM     62  C   UNL A   1      38.493  31.815  30.221  1.00  0.00     0.034 A 
ATOM     63  C   UNL A   1      44.945  31.324  29.346  1.00  0.00     0.049 A 
ATOM     64  C   UNL A   1      39.645  32.750  30.470  1.00  0.00     0.074 A 
ATOM     65  C   UNL A   1      45.915  32.275  29.611  1.00  0.00     0.029 A 
ATOM     66  N   UNL A   1      43.723  31.900  29.658  1.00  0.00    -0.354 N 
ATOM     67  N   UNL A   1      40.917  32.583  30.201  1.00  0.00    -0.248 NA
ATOM     68  C   UNL A   1      39.326  34.055  31.070  1.00  0.00     0.031 C 
ATOM     69  C   UNL A   1      45.278  33.431  30.074  1.00  0.00     0.029 A 
ATOM     70  C   UNL A   1      43.911  33.198  30.098  1.00  0.00     0.049 A 
ATOM     71  H   UNL A   1      42.851  31.452  29.576  1.00  0.00     0.167 HD
ATOM     72  C   UNL A   1      41.544  33.769  30.561  1.00  0.00     0.074 A 
ATOM     73  C   UNL A   1      40.509  34.656  31.052  1.00  0.00     0.031 C 
ATOM     74  C   UNL A   1      42.859  34.090  30.508  1.00  0.00     0.034 A 
BRANCH  61  75
ATOM     75  C   UNL A   1      46.509  29.517  28.527  1.00  0.00     0.023 A 
ATOM     76  C   UNL A   1      47.071  29.825  27.271  1.00  0.00     0.012 A 
ATOM     77  C   UNL A   1      47.281  28.825  29.481  1.00  0.00     0.148 A 
ATOM     78  C   UNL A   1      48.370  29.429  26.957  1.00  0.00     0.002 A 
ATOM     79  C   UNL A   1      48.589  28.464  29.172  1.00  0.00     0.091 A 
ATOM     80  F   UNL A   1      46.722  28.520  30.660  1.00  0.00    -0.205 F 
ATOM     81  C   UNL A   1      49.131  28.757  27.911  1.00  0.00     0.022 A 
BRANCH  79  82
ATOM     82  S   UNL A   1      49.674  27.659  30.357  1.00  0.00     0.127 S 
ATOM     83  O   UNL A   1      50.790  27.251  29.507  1.00  0.00    -0.237 OA
ATOM     84  O   UNL A   1      49.982  28.746  31.287  1.00  0.00    -0.237 OA
ATOM     85  O   UNL A   1      48.894  26.572  30.936  1.00  0.00    -0.744 OA
ENDBRANCH  79  82
ENDBRANCH  61  75
BRANCH  62  86
ATOM     86  C   UNL A   1      37.093  32.223  30.531  1.00  0.00     0.023 A 
ATOM     87  C   UNL A   1      36.608  32.055  31.842  1.00  0.00     0.012 A 
ATOM     88  C   UNL A   1      36.255  32.800  29.558  1.00  0.00     0.148 A 
ATOM     89  C   UNL A   1      35.305  32.427  32.173  1.00  0.00     0.002 A 
ATOM     90  C   UNL A   1      34.973  33.215  29.907  1.00  0.00     0.091 A 
ATOM     91  F   UNL A   1      36.722  32.937  28.309  1.00  0.00    -0.205 F 
ATOM     92  C   UNL A   1      34.491  33.016  31.209  1.00  0.00     0.022 A 
BRANCH  90  93
ATOM     93  S   UNL A   1      33.924  34.103  28.748  1.00  0.00     0.127 S 
ATOM     94  O   UNL A   1      32.847  34.572  29.615  1.00  0.00    -0.237 OA
ATOM     95  O   UNL A   1      34.818  35.152  28.254  1.00  0.00    -0.237 OA
ATOM     96  O   UNL A   1      33.558  33.117  27.739  1.00  0.00    -0.744 OA
ENDBRANCH  90  93
ENDBRANCH  62  86
BRANCH  74  97
ATOM     97  C   UNL A   1      43.260  35.470  30.957  1.00  0.00     0.023 A 
ATOM     98  C   UNL A   1      43.560  35.696  32.314  1.00  0.00     0.012 A 
ATOM     99  C   UNL A   1      43.427  36.511  30.025  1.00  0.00     0.148 A 
ATOM    100  C   UNL A   1      44.000  36.949  32.741  1.00  0.00     0.002 A 
ATOM    101  C   UNL A   1      43.904  37.746  30.452  1.00  0.00     0.091 A 
ATOM    102  F   UNL A   1      43.114  36.281  28.741  1.00  0.00    -0.205 F 
ATOM    103  C   UNL A   1      44.184  37.968  31.809  1.00  0.00     0.022 A 
BRANCH 101 104
ATOM    104  S   UNL A   1      44.248  39.083  29.302  1.00  0.00     0.127 S 
ATOM    105  O   UNL A   1      42.915  39.381  28.782  1.00  0.00    -0.237 OA
ATOM    106  O   UNL A   1      44.806  40.116  30.177  1.00  0.00    -0.237 OA
ATOM    107  O   UNL A   1      45.195  38.541  28.337  1.00  0.00    -0.744 OA
ENDBRANCH 101 104
ENDBRANCH  74  97
ENDBRANCH  48  49
ENDBRANCH  40  43
ENDBRANCH  38  39
ENDBRANCH  37  38
ENDBRANCH  36  37
ENDBRANCH   1  36
TORSDOF 22
ENDMDL
MODEL 2
REMARK VINA RESULT:     -11.3      5.138      9.129
REMARK SMILES COc1ccc(OC)c(S(=O)(=O)Nc2ccc(N3CCC(C)CC3)c(C(=O)NCCCCCCNC(=O)c3ccc(-c4c5nc(c(-c6cccc(S(=O)(=O)[O-])c6F)c6ccc([nH]6)c(-c6cccc(S(=O)(=O)[O-])c6F)c6nc(c(-c7cccc(S(=O)(=O)[O-])c7F)c7ccc4[nH]7)C=C6)C=C5)cc3)c2)c1
REMARK SMILES IDX 31 1 30 2 29 3 28 4 26 5 27 6 25 8 14 9 15 10 101 11 16 12
REMARK SMILES IDX 17 13 13 14 10 16 11 17 12 18 9 19 3 20 4 21 102 22 5 23
REMARK SMILES IDX 6 24 2 25 1 26 7 27 8 28 18 29 19 30 24 31 20 32 23 33 21 34
REMARK SMILES IDX 22 35 32 36 33 37 34 38 35 39 36 40 37 42 38 43 39 44 100 45
REMARK SMILES IDX 40 46 99 47 41 48 42 49 43 50 93 51 44 52 98 53 92 54 94 55
REMARK SMILES IDX 45 56 97 57 91 58 90 59 46 61 78 62 58 63 77 64 59 65 62 66
REMARK SMILES IDX 76 67 95 68 60 69 61 70 75 72 96 73 63 74 47 75 48 76 56 77
REMARK SMILES IDX 49 78 51 79 57 80 50 81 52 82 53 83 54 84 55 85 79 86 80 87
REMARK SMILES IDX 88 88 81 89 83 90 89 91 82 92 84 93 85 94 86 95 87 96 64 97
REMARK SMILES IDX 65 98 73 99 66 100 68 101 74 102 67 103 69 104 70 105 71 106
REMARK SMILES IDX 72 107
REMARK H PARENT 28 7 13 15 35 41 94 60 62 71
REMARK Flexibility Score: inf
ROOT
ATOM      1  C   UNL A   1      31.666  29.535  26.392  1.00  0.00     0.002 C 
ENDROOT
BRANCH   1   2
ATOM      2  C   UNL A   1      31.952  28.053  26.667  1.00  0.00     0.021 C 
BRANCH   2   3
ATOM      3  C   UNL A   1      33.365  27.627  26.256  1.00  0.00     0.116 C 
BRANCH   3   4
ATOM      4  N   UNL A   1      33.738  28.306  25.029  1.00  0.00    -0.352 N 
ATOM      5  C   UNL A   1      33.922  27.862  23.741  1.00  0.00     0.253 C 
ATOM      6  O   UNL A   1      34.656  28.560  23.045  1.00  0.00    -0.269 OA
ATOM      7  H   UNL A   1      33.889  29.272  25.140  1.00  0.00     0.163 HD
BRANCH   5   8
ATOM      8  C   UNL A   1      33.274  26.619  23.201  1.00  0.00     0.065 A 
ATOM      9  C   UNL A   1      33.442  24.206  22.899  1.00  0.00     0.050 A 
ATOM     10  C   UNL A   1      32.142  24.171  22.417  1.00  0.00     0.029 A 
ATOM     11  C   UNL A   1      34.042  25.438  23.145  1.00  0.00     0.042 A 
ATOM     12  C   UNL A   1      31.396  25.343  22.362  1.00  0.00     0.029 A 
ATOM     13  C   UNL A   1      31.898  26.578  22.827  1.00  0.00     0.050 A 
BRANCH   9  14
ATOM     14  N   UNL A   1      34.044  22.953  23.178  1.00  0.00    -0.279 N 
ATOM     15  H   UNL A   1      34.489  22.495  22.429  1.00  0.00     0.180 HD
BRANCH  14  16
ATOM     16  S   UNL A   1      34.065  22.177  24.668  1.00  0.00     0.265 S 
ATOM     17  O   UNL A   1      32.944  22.704  25.428  1.00  0.00    -0.201 OA
ATOM     18  O   UNL A   1      35.429  22.313  25.113  1.00  0.00    -0.201 OA
BRANCH  16  19
ATOM     19  C   UNL A   1      33.772  20.439  24.413  1.00  0.00     0.133 A 
ATOM     20  C   UNL A   1      34.491  18.122  24.489  1.00  0.00     0.120 A 
ATOM     21  C   UNL A   1      33.456  17.778  23.616  1.00  0.00     0.050 A 
ATOM     22  C   UNL A   1      34.624  19.446  24.922  1.00  0.00     0.072 A 
ATOM     23  C   UNL A   1      32.560  18.745  23.169  1.00  0.00     0.052 A 
ATOM     24  C   UNL A   1      32.711  20.070  23.575  1.00  0.00     0.139 A 
BRANCH  20  25
ATOM     25  O   UNL A   1      35.309  17.078  24.827  1.00  0.00    -0.497 OA
ATOM     26  C   UNL A   1      34.675  15.873  25.234  1.00  0.00     0.278 C 
ENDBRANCH  20  25
BRANCH  24  27
ATOM     27  O   UNL A   1      31.838  20.983  23.055  1.00  0.00    -0.495 OA
ATOM     28  C   UNL A   1      31.675  20.798  21.641  1.00  0.00     0.278 C 
ENDBRANCH  24  27
ENDBRANCH  16  19
ENDBRANCH  14  16
ENDBRANCH   9  14
BRANCH  13  29
ATOM     29  N   UNL A   1      30.989  27.616  22.981  1.00  0.00    -0.371 N 
ATOM     30  C   UNL A   1      29.825  27.500  23.859  1.00  0.00     0.117 C 
ATOM     31  C   UNL A   1      31.360  28.992  22.648  1.00  0.00     0.117 C 
ATOM     32  C   UNL A   1      28.615  28.080  23.119  1.00  0.00     0.025 C 
ATOM     33  C   UNL A   1      30.196  29.658  21.918  1.00  0.00     0.025 C 
ATOM     34  C   UNL A   1      28.877  29.538  22.698  1.00  0.00    -0.011 C 
ATOM     35  C   UNL A   1      27.722  30.082  21.860  1.00  0.00     0.008 C 
ENDBRANCH  13  29
ENDBRANCH   5   8
ENDBRANCH   3   4
ENDBRANCH   2   3
ENDBRANCH   1   2
BRANCH   1  36
ATOM     36  C   UNL A   1      32.544  30.512  27.184  1.00  0.00     0.002 C 
BRANCH  36  37
ATOM     37  C   UNL A   1      32.063  31.967  27.177  1.00  0.00     0.021 C 
BRANCH  37  38
ATOM     38  C   UNL A   1      33.180  33.006  27.175  1.00  0.00     0.116 C 
BRANCH  38  39
ATOM     39  N   UNL A   1      32.781  34.234  27.848  1.00  0.00    -0.352 N 
ATOM     40  C   UNL A   1      33.235  34.749  29.036  1.00  0.00     0.251 C 
ATOM     41  H   UNL A   1      32.092  34.766  27.389  1.00  0.00     0.163 HD
ATOM     42  O   UNL A   1      32.662  35.703  29.554  1.00  0.00    -0.269 OA
BRANCH  40  43
ATOM     43  C   UNL A   1      34.408  34.137  29.696  1.00  0.00     0.039 A 
ATOM     44  C   UNL A   1      35.690  34.504  29.277  1.00  0.00     0.014 A 
ATOM     45  C   UNL A   1      34.239  33.194  30.714  1.00  0.00     0.014 A 
ATOM     46  C   UNL A   1      36.807  33.958  29.911  1.00  0.00     0.010 A 
ATOM     47  C   UNL A   1      35.353  32.690  31.379  1.00  0.00     0.010 A 
ATOM     48  C   UNL A   1      36.645  33.059  30.979  1.00  0.00    -0.014 A 
BRANCH  48  49
ATOM     49  C   UNL A   1      37.814  32.478  31.684  1.00  0.00     0.031 A 
ATOM     50  C   UNL A   1      38.600  31.370  31.039  1.00  0.00     0.074 A 
ATOM     51  C   UNL A   1      38.110  32.884  32.934  1.00  0.00     0.049 A 
ATOM     52  N   UNL A   1      39.592  30.672  31.526  1.00  0.00    -0.248 NA
ATOM     53  C   UNL A   1      38.202  30.979  29.676  1.00  0.00     0.031 C 
ATOM     54  C   UNL A   1      37.380  33.906  33.687  1.00  0.00     0.029 A 
ATOM     55  N   UNL A   1      39.086  32.465  33.802  1.00  0.00    -0.354 N 
ATOM     56  C   UNL A   1      39.913  29.738  30.547  1.00  0.00     0.074 A 
ATOM     57  C   UNL A   1      38.995  29.942  29.448  1.00  0.00     0.031 C 
ATOM     58  C   UNL A   1      37.932  34.031  34.905  1.00  0.00     0.029 A 
ATOM     59  C   UNL A   1      39.039  33.088  35.028  1.00  0.00     0.049 A 
ATOM     60  H   UNL A   1      39.757  31.783  33.569  1.00  0.00     0.167 HD
ATOM     61  C   UNL A   1      40.904  28.815  30.550  1.00  0.00     0.034 A 
ATOM     62  C   UNL A   1      39.803  32.915  36.124  1.00  0.00     0.034 A 
ATOM     63  C   UNL A   1      41.850  28.653  31.620  1.00  0.00     0.049 A 
ATOM     64  C   UNL A   1      40.933  31.923  36.077  1.00  0.00     0.074 A 
ATOM     65  C   UNL A   1      42.927  27.787  31.694  1.00  0.00     0.029 A 
ATOM     66  N   UNL A   1      41.839  29.381  32.800  1.00  0.00    -0.354 N 
ATOM     67  N   UNL A   1      41.306  31.144  35.091  1.00  0.00    -0.248 NA
ATOM     68  C   UNL A   1      41.772  31.810  37.280  1.00  0.00     0.031 C 
ATOM     69  C   UNL A   1      43.573  27.999  32.917  1.00  0.00     0.029 A 
ATOM     70  C   UNL A   1      42.897  28.996  33.603  1.00  0.00     0.049 A 
ATOM     71  H   UNL A   1      41.176  30.071  33.030  1.00  0.00     0.167 HD
ATOM     72  C   UNL A   1      42.442  30.479  35.536  1.00  0.00     0.074 A 
ATOM     73  C   UNL A   1      42.707  30.959  36.877  1.00  0.00     0.031 C 
ATOM     74  C   UNL A   1      43.188  29.542  34.902  1.00  0.00     0.034 A 
BRANCH  61  75
ATOM     75  C   UNL A   1      41.065  27.962  29.321  1.00  0.00     0.023 A 
ATOM     76  C   UNL A   1      40.200  26.865  29.132  1.00  0.00     0.012 A 
ATOM     77  C   UNL A   1      42.022  28.268  28.333  1.00  0.00     0.148 A 
ATOM     78  C   UNL A   1      40.301  26.068  27.993  1.00  0.00     0.002 A 
ATOM     79  C   UNL A   1      42.092  27.489  27.183  1.00  0.00     0.091 A 
ATOM     80  F   UNL A   1      42.851  29.300  28.542  1.00  0.00    -0.205 F 
ATOM     81  C   UNL A   1      41.240  26.386  27.015  1.00  0.00     0.022 A 
BRANCH  79  82
ATOM     82  S   UNL A   1      43.220  27.859  25.833  1.00  0.00     0.127 S 
ATOM     83  O   UNL A   1      44.129  26.715  25.886  1.00  0.00    -0.237 OA
ATOM     84  O   UNL A   1      42.326  27.874  24.675  1.00  0.00    -0.237 OA
ATOM     85  O   UNL A   1      43.814  29.150  26.154  1.00  0.00    -0.744 OA
ENDBRANCH  79  82
ENDBRANCH  61  75
BRANCH  62  86
ATOM     86  C   UNL A   1      39.584  33.771  37.325  1.00  0.00     0.023 A 
ATOM     87  C   UNL A   1      40.080  35.089  37.322  1.00  0.00     0.012 A 
ATOM     88  C   UNL A   1      38.871  33.309  38.446  1.00  0.00     0.148 A 
ATOM     89  C   UNL A   1      39.894  35.923  38.425  1.00  0.00     0.002 A 
ATOM     90  C   UNL A   1      38.645  34.161  39.523  1.00  0.00     0.091 A 
ATOM     91  F   UNL A   1      38.421  32.046  38.444  1.00  0.00    -0.205 F 
ATOM     92  C   UNL A   1      39.168  35.463  39.521  1.00  0.00     0.022 A 
BRANCH  90  93
ATOM     93  S   UNL A   1      37.604  33.676  40.905  1.00  0.00     0.127 S 
ATOM     94  O   UNL A   1      36.443  33.109  40.225  1.00  0.00    -0.237 OA
ATOM     95  O   UNL A   1      38.443  32.702  41.605  1.00  0.00    -0.237 OA
ATOM     96  O   UNL A   1      37.376  34.904  41.656  1.00  0.00    -0.744 OA
ENDBRANCH  90  93
ENDBRANCH  62  86
BRANCH  74  97
ATOM     97  C   UNL A   1      44.387  28.995  35.628  1.00  0.00     0.023 A 
ATOM     98  C   UNL A   1      45.651  29.581  35.418  1.00  0.00     0.012 A 
ATOM     99  C   UNL A   1      44.247  27.967  36.580  1.00  0.00     0.148 A 
ATOM    100  C   UNL A   1      46.763  29.135  36.131  1.00  0.00     0.002 A 
ATOM    101  C   UNL A   1      45.353  27.556  37.315  1.00  0.00     0.091 A 
ATOM    102  F   UNL A   1      43.040  27.408  36.749  1.00  0.00    -0.205 F 
ATOM    103  C   UNL A   1      46.612  28.133  37.087  1.00  0.00     0.022 A 
BRANCH 101 104
ATOM    104  S   UNL A   1      45.225  26.331  38.624  1.00  0.00     0.127 S 
ATOM    105  O   UNL A   1      45.188  25.084  37.864  1.00  0.00    -0.237 OA
ATOM    106  O   UNL A   1      46.460  26.547  39.381  1.00  0.00    -0.237 OA
ATOM    107  O   UNL A   1      44.009  26.660  39.355  1.00  0.00    -0.744 OA
ENDBRANCH 101 104
ENDBRANCH  74  97
ENDBRANCH  48  49
ENDBRANCH  40  43
ENDBRANCH  38  39
ENDBRANCH  37  38
ENDBRANCH  36  37
ENDBRANCH   1  36
TORSDOF 22
ENDMDL
MODEL 3
REMARK VINA RESULT:     -11.2      3.410      4.749
REMARK SMILES COc1ccc(OC)c(S(=O)(=O)Nc2ccc(N3CCC(C)CC3)c(C(=O)NCCCCCCNC(=O)c3ccc(-c4c5nc(c(-c6cccc(S(=O)(=O)[O-])c6F)c6ccc([nH]6)c(-c6cccc(S(=O)(=O)[O-])c6F)c6nc(c(-c7cccc(S(=O)(=O)[O-])c7F)c7ccc4[nH]7)C=C6)C=C5)cc3)c2)c1
REMARK SMILES IDX 31 1 30 2 29 3 28 4 26 5 27 6 25 8 14 9 15 10 101 11 16 12
REMARK SMILES IDX 17 13 13 14 10 16 11 17 12 18 9 19 3 20 4 21 102 22 5 23
REMARK SMILES IDX 6 24 2 25 1 26 7 27 8 28 18 29 19 30 24 31 20 32 23 33 21 34
REMARK SMILES IDX 22 35 32 36 33 37 34 38 35 39 36 40 37 42 38 43 39 44 100 45
REMARK SMILES IDX 40 46 99 47 41 48 42 49 43 50 93 51 44 52 98 53 92 54 94 55
REMARK SMILES IDX 45 56 97 57 91 58 90 59 46 61 78 62 58 63 77 64 59 65 62 66
REMARK SMILES IDX 76 67 95 68 60 69 61 70 75 72 96 73 63 74 47 75 48 76 56 77
REMARK SMILES IDX 49 78 51 79 57 80 50 81 52 82 53 83 54 84 55 85 79 86 80 87
REMARK SMILES IDX 88 88 81 89 83 90 89 91 82 92 84 93 85 94 86 95 87 96 64 97
REMARK SMILES IDX 65 98 73 99 66 100 68 101 74 102 67 103 69 104 70 105 71 106
REMARK SMILES IDX 72 107
REMARK H PARENT 28 7 13 15 35 41 94 60 62 71
REMARK Flexibility Score: inf
ROOT
ATOM      1  C   UNL A   1      38.415  21.843  25.778  1.00  0.00     0.002 C 
ENDROOT
BRANCH   1   2
ATOM      2  C   UNL A   1      36.990  22.286  26.137  1.00  0.00     0.021 C 
BRANCH   2   3
ATOM      3  C   UNL A   1      35.936  21.213  25.847  1.00  0.00     0.116 C 
BRANCH   3   4
ATOM      4  N   UNL A   1      34.788  21.415  26.711  1.00  0.00    -0.352 N 
ATOM      5  C   UNL A   1      33.511  21.864  26.469  1.00  0.00     0.253 C 
ATOM      6  O   UNL A   1      32.932  22.345  27.441  1.00  0.00    -0.269 OA
ATOM      7  H   UNL A   1      34.955  21.185  27.653  1.00  0.00     0.163 HD
BRANCH   5   8
ATOM      8  C   UNL A   1      32.851  21.776  25.123  1.00  0.00     0.065 A 
ATOM      9  C   UNL A   1      32.072  22.988  23.158  1.00  0.00     0.050 A 
ATOM     10  C   UNL A   1      31.799  21.788  22.519  1.00  0.00     0.029 A 
ATOM     11  C   UNL A   1      32.453  22.974  24.497  1.00  0.00     0.042 A 
ATOM     12  C   UNL A   1      32.086  20.587  23.159  1.00  0.00     0.029 A 
ATOM     13  C   UNL A   1      32.695  20.538  24.432  1.00  0.00     0.050 A 
BRANCH   9  14
ATOM     14  N   UNL A   1      32.010  24.156  22.356  1.00  0.00    -0.279 N 
ATOM     15  H   UNL A   1      31.194  24.288  21.822  1.00  0.00     0.180 HD
BRANCH  14  16
ATOM     16  S   UNL A   1      33.201  25.334  22.232  1.00  0.00     0.265 S 
ATOM     17  O   UNL A   1      33.108  25.882  20.890  1.00  0.00    -0.201 OA
ATOM     18  O   UNL A   1      34.391  24.679  22.716  1.00  0.00    -0.201 OA
BRANCH  16  19
ATOM     19  C   UNL A   1      32.829  26.647  23.377  1.00  0.00     0.133 A 
ATOM     20  C   UNL A   1      33.491  28.230  25.094  1.00  0.00     0.120 A 
ATOM     21  C   UNL A   1      32.150  28.396  25.449  1.00  0.00     0.050 A 
ATOM     22  C   UNL A   1      33.829  27.387  24.029  1.00  0.00     0.072 A 
ATOM     23  C   UNL A   1      31.148  27.724  24.755  1.00  0.00     0.052 A 
ATOM     24  C   UNL A   1      31.486  26.859  23.715  1.00  0.00     0.139 A 
BRANCH  20  25
ATOM     25  O   UNL A   1      34.369  28.931  25.875  1.00  0.00    -0.497 OA
ATOM     26  C   UNL A   1      34.121  28.931  27.275  1.00  0.00     0.278 C 
ENDBRANCH  20  25
BRANCH  24  27
ATOM     27  O   UNL A   1      30.464  26.183  23.112  1.00  0.00    -0.495 OA
ATOM     28  C   UNL A   1      29.253  26.286  23.874  1.00  0.00     0.278 C 
ENDBRANCH  24  27
ENDBRANCH  16  19
ENDBRANCH  14  16
ENDBRANCH   9  14
BRANCH  13  29
ATOM     29  N   UNL A   1      33.182  19.310  24.856  1.00  0.00    -0.371 N 
ATOM     30  C   UNL A   1      34.388  18.716  24.278  1.00  0.00     0.117 C 
ATOM     31  C   UNL A   1      32.805  18.764  26.160  1.00  0.00     0.117 C 
ATOM     32  C   UNL A   1      34.112  17.229  24.032  1.00  0.00     0.025 C 
ATOM     33  C   UNL A   1      32.527  17.270  26.013  1.00  0.00     0.025 C 
ATOM     34  C   UNL A   1      33.692  16.527  25.337  1.00  0.00    -0.011 C 
ATOM     35  C   UNL A   1      33.303  15.073  25.076  1.00  0.00     0.008 C 
ENDBRANCH  13  29
ENDBRANCH   5   8
ENDBRANCH   3   4
ENDBRANCH   2   3
ENDBRANCH   1   2
BRANCH   1  36
ATOM     36  C   UNL A   1      38.491  20.581  24.911  1.00  0.00     0.002 C 
BRANCH  36  37
ATOM     37  C   UNL A   1      39.171  19.379  25.575  1.00  0.00     0.021 C 
BRANCH  37  38
ATOM     38  C   UNL A   1      40.375  19.729  26.444  1.00  0.00     0.116 C 
BRANCH  38  39
ATOM     39  N   UNL A   1      41.578  19.031  26.010  1.00  0.00    -0.352 N 
ATOM     40  C   UNL A   1      42.818  19.549  25.730  1.00  0.00     0.251 C 
ATOM     41  H   UNL A   1      41.490  18.057  25.903  1.00  0.00     0.163 HD
ATOM     42  O   UNL A   1      43.674  18.847  25.201  1.00  0.00    -0.269 OA
BRANCH  40  43
ATOM     43  C   UNL A   1      43.109  20.961  26.056  1.00  0.00     0.039 A 
ATOM     44  C   UNL A   1      43.275  21.328  27.394  1.00  0.00     0.014 A 
ATOM     45  C   UNL A   1      43.203  21.919  25.043  1.00  0.00     0.014 A 
ATOM     46  C   UNL A   1      43.581  22.652  27.716  1.00  0.00     0.010 A 
ATOM     47  C   UNL A   1      43.559  23.227  25.361  1.00  0.00     0.010 A 
ATOM     48  C   UNL A   1      43.742  23.607  26.699  1.00  0.00    -0.014 A 
BRANCH  48  49
ATOM     49  C   UNL A   1      44.085  25.016  27.009  1.00  0.00     0.031 A 
ATOM     50  C   UNL A   1      45.503  25.493  26.847  1.00  0.00     0.074 A 
ATOM     51  C   UNL A   1      43.146  25.837  27.516  1.00  0.00     0.049 A 
ATOM     52  N   UNL A   1      46.022  26.653  27.148  1.00  0.00    -0.248 NA
ATOM     53  C   UNL A   1      46.469  24.527  26.295  1.00  0.00     0.031 C 
ATOM     54  C   UNL A   1      41.753  25.469  27.778  1.00  0.00     0.029 A 
ATOM     55  N   UNL A   1      43.229  27.142  27.931  1.00  0.00    -0.354 N 
ATOM     56  C   UNL A   1      47.378  26.548  26.859  1.00  0.00     0.074 A 
ATOM     57  C   UNL A   1      47.606  25.202  26.381  1.00  0.00     0.031 C 
ATOM     58  C   UNL A   1      41.114  26.523  28.312  1.00  0.00     0.029 A 
ATOM     59  C   UNL A   1      42.052  27.633  28.450  1.00  0.00     0.049 A 
ATOM     60  H   UNL A   1      44.053  27.677  27.864  1.00  0.00     0.167 HD
ATOM     61  C   UNL A   1      48.340  27.496  26.952  1.00  0.00     0.034 A 
ATOM     62  C   UNL A   1      41.767  28.840  28.976  1.00  0.00     0.034 A 
ATOM     63  C   UNL A   1      48.098  28.849  27.374  1.00  0.00     0.049 A 
ATOM     64  C   UNL A   1      42.843  29.892  29.013  1.00  0.00     0.074 A 
ATOM     65  C   UNL A   1      48.993  29.902  27.447  1.00  0.00     0.029 A 
ATOM     66  N   UNL A   1      46.868  29.339  27.785  1.00  0.00    -0.354 N 
ATOM     67  N   UNL A   1      44.087  29.815  28.607  1.00  0.00    -0.248 NA
ATOM     68  C   UNL A   1      42.467  31.210  29.546  1.00  0.00     0.031 C 
ATOM     69  C   UNL A   1      48.301  31.032  27.894  1.00  0.00     0.029 A 
ATOM     70  C   UNL A   1      46.976  30.682  28.099  1.00  0.00     0.049 A 
ATOM     71  H   UNL A   1      46.041  28.810  27.842  1.00  0.00     0.167 HD
ATOM     72  C   UNL A   1      44.631  31.079  28.798  1.00  0.00     0.074 A 
ATOM     73  C   UNL A   1      43.576  31.910  29.341  1.00  0.00     0.031 C 
ATOM     74  C   UNL A   1      45.894  31.510  28.564  1.00  0.00     0.034 A 
BRANCH  61  75
ATOM     75  C   UNL A   1      49.730  27.124  26.513  1.00  0.00     0.023 A 
ATOM     76  C   UNL A   1      50.561  26.414  27.403  1.00  0.00     0.012 A 
ATOM     77  C   UNL A   1      50.196  27.420  25.217  1.00  0.00     0.148 A 
ATOM     78  C   UNL A   1      51.845  26.028  27.022  1.00  0.00     0.002 A 
ATOM     79  C   UNL A   1      51.465  27.000  24.833  1.00  0.00     0.091 A 
ATOM     80  F   UNL A   1      49.401  28.117  24.393  1.00  0.00    -0.205 F 
ATOM     81  C   UNL A   1      52.293  26.313  25.735  1.00  0.00     0.022 A 
BRANCH  79  82
ATOM     82  S   UNL A   1      52.106  27.257  23.173  1.00  0.00     0.127 S 
ATOM     83  O   UNL A   1      52.234  28.713  23.128  1.00  0.00    -0.237 OA
ATOM     84  O   UNL A   1      53.378  26.535  23.215  1.00  0.00    -0.237 OA
ATOM     85  O   UNL A   1      51.116  26.685  22.271  1.00  0.00    -0.744 OA
ENDBRANCH  79  82
ENDBRANCH  61  75
BRANCH  62  86
ATOM     86  C   UNL A   1      40.378  29.148  29.419  1.00  0.00     0.023 A 
ATOM     87  C   UNL A   1      39.447  29.613  28.471  1.00  0.00     0.012 A 
ATOM     88  C   UNL A   1      39.964  28.957  30.750  1.00  0.00     0.148 A 
ATOM     89  C   UNL A   1      38.136  29.911  28.845  1.00  0.00     0.002 A 
ATOM     90  C   UNL A   1      38.642  29.207  31.107  1.00  0.00     0.091 A 
ATOM     91  F   UNL A   1      40.865  28.532  31.647  1.00  0.00    -0.205 F 
ATOM     92  C   UNL A   1      37.731  29.698  30.160  1.00  0.00     0.022 A 
BRANCH  90  93
ATOM     93  S   UNL A   1      38.023  28.826  32.750  1.00  0.00     0.127 S 
ATOM     94  O   UNL A   1      38.902  29.626  33.598  1.00  0.00    -0.237 OA
ATOM     95  O   UNL A   1      36.638  29.297  32.683  1.00  0.00    -0.237 OA
ATOM     96  O   UNL A   1      38.147  27.379  32.874  1.00  0.00    -0.744 OA
ENDBRANCH  90  93
ENDBRANCH  62  86
BRANCH  74  97
ATOM     97  C   UNL A   1      46.206  32.953  28.855  1.00  0.00     0.023 A 
ATOM     98  C   UNL A   1      46.798  33.299  30.085  1.00  0.00     0.012 A 
ATOM     99  C   UNL A   1      45.997  33.947  27.880  1.00  0.00     0.148 A 
ATOM    100  C   UNL A   1      47.158  34.620  30.349  1.00  0.00     0.002 A 
ATOM    101  C   UNL A   1      46.395  35.255  28.136  1.00  0.00     0.091 A 
ATOM    102  F   UNL A   1      45.410  33.601  26.725  1.00  0.00    -0.205 F 
ATOM    103  C   UNL A   1      46.969  35.594  29.371  1.00  0.00     0.022 A 
BRANCH 101 104
ATOM    104  S   UNL A   1      46.263  36.550  26.897  1.00  0.00     0.127 S 
ATOM    105  O   UNL A   1      47.011  35.973  25.781  1.00  0.00    -0.237 OA
ATOM    106  O   UNL A   1      44.817  36.635  26.681  1.00  0.00    -0.237 OA
ATOM    107  O   UNL A   1      46.850  37.737  27.502  1.00  0.00    -0.744 OA
ENDBRANCH 101 104
ENDBRANCH  74  97
ENDBRANCH  48  49
ENDBRANCH  40  43
ENDBRANCH  38  39
ENDBRANCH  37  38
ENDBRANCH  36  37
ENDBRANCH   1  36
TORSDOF 22
ENDMDL
