MODEL 1
REMARK VINA RESULT:     -10.7      0.000      0.000
REMARK SMILES CC[C@@H](C)N(C)S(=O)(=O)c1cc(C(=O)NCCCCCCNC(=O)c2ccc(-c3c4nc(c(-c5cccc(S(=O)(=O)[O-])c5F)c5ccc([nH]5)c(-c5cccc(S(=O)(=O)[O-])c5F)c5nc(c(-c6cccc(S(=O)(=O)[O-])c6F)c6ccc3[nH]6)C=C5)C=C4)cc2)c(C)cc1C
REMARK SMILES IDX 18 1 17 2 16 3 15 4 13 5 14 6 12 8 10 9 11 10 91 11 90 12
REMARK SMILES IDX 92 13 88 14 89 15 7 16 8 17 9 18 5 19 6 20 3 21 4 22 2 23
REMARK SMILES IDX 1 24 19 25 20 26 21 27 22 28 23 29 24 31 25 32 26 33 87 34
REMARK SMILES IDX 27 35 86 36 28 37 29 38 30 39 80 40 31 41 85 42 79 43 81 44
REMARK SMILES IDX 32 45 84 46 78 47 77 48 33 50 65 51 45 52 64 53 46 54 49 55
REMARK SMILES IDX 63 56 82 57 47 58 48 59 62 61 83 62 50 63 34 64 35 65 43 66
REMARK SMILES IDX 36 67 38 68 44 69 37 70 39 71 40 72 41 73 42 74 66 75 67 76
REMARK SMILES IDX 75 77 68 78 70 79 76 80 69 81 71 82 72 83 73 84 74 85 51 86
REMARK SMILES IDX 52 87 60 88 53 89 55 90 61 91 54 92 56 93 57 94 58 95 59 96
REMARK H PARENT 15 7 22 30 81 49 49 60
REMARK Flexibility Score: inf
ROOT
ATOM      1  C   UNL A   1      33.169  29.122  24.211  1.00  0.00     0.002 C 
ENDROOT
BRANCH   1   2
ATOM      2  C   UNL A   1      33.657  29.003  22.765  1.00  0.00     0.021 C 
BRANCH   2   3
ATOM      3  C   UNL A   1      34.109  27.593  22.357  1.00  0.00     0.116 C 
BRANCH   3   4
ATOM      4  N   UNL A   1      33.145  27.025  21.436  1.00  0.00    -0.352 N 
ATOM      5  C   UNL A   1      31.978  26.323  21.562  1.00  0.00     0.251 C 
ATOM      6  O   UNL A   1      31.475  25.953  20.495  1.00  0.00    -0.269 OA
ATOM      7  H   UNL A   1      33.389  27.182  20.495  1.00  0.00     0.163 HD
BRANCH   5   8
ATOM      8  C   UNL A   1      31.218  26.045  22.829  1.00  0.00     0.044 A 
ATOM      9  C   UNL A   1      31.154  24.488  24.756  1.00  0.00     0.086 A 
ATOM     10  C   UNL A   1      31.668  24.883  23.506  1.00  0.00     0.036 A 
ATOM     11  C   UNL A   1      30.113  25.213  25.344  1.00  0.00    -0.031 A 
ATOM     12  C   UNL A   1      29.659  26.356  24.673  1.00  0.00     0.009 A 
ATOM     13  C   UNL A   1      29.496  24.899  26.677  1.00  0.00     0.046 C 
ATOM     14  C   UNL A   1      30.248  26.830  23.477  1.00  0.00    -0.038 A 
ATOM     15  C   UNL A   1      29.827  28.216  23.096  1.00  0.00     0.045 C 
BRANCH   9  16
ATOM     16  S   UNL A   1      31.993  23.159  25.614  1.00  0.00     0.243 S 
ATOM     17  O   UNL A   1      31.128  22.004  25.656  1.00  0.00    -0.207 OA
ATOM     18  O   UNL A   1      32.504  23.744  26.839  1.00  0.00    -0.207 OA
BRANCH  16  19
ATOM     19  N   UNL A   1      33.325  22.719  24.615  1.00  0.00    -0.198 NA
ATOM     20  C   UNL A   1      33.317  21.290  24.194  1.00  0.00     0.124 C 
BRANCH  19  21
ATOM     21  C   UNL A   1      34.701  23.143  25.109  1.00  0.00     0.069 C 
ATOM     22  C   UNL A   1      35.019  24.606  24.781  1.00  0.00     0.026 C 
BRANCH  21  23
ATOM     23  C   UNL A   1      35.813  22.188  24.635  1.00  0.00     0.016 C 
ATOM     24  C   UNL A   1      36.580  22.695  23.419  1.00  0.00     0.005 C 
ENDBRANCH  21  23
ENDBRANCH  19  21
ENDBRANCH  16  19
ENDBRANCH   9  16
ENDBRANCH   5   8
ENDBRANCH   3   4
ENDBRANCH   2   3
ENDBRANCH   1   2
BRANCH   1  25
ATOM     25  C   UNL A   1      33.470  27.906  25.089  1.00  0.00     0.002 C 
BRANCH  25  26
ATOM     26  C   UNL A   1      32.664  27.816  26.390  1.00  0.00     0.021 C 
BRANCH  26  27
ATOM     27  C   UNL A   1      33.315  28.481  27.602  1.00  0.00     0.116 C 
BRANCH  27  28
ATOM     28  N   UNL A   1      33.441  29.919  27.425  1.00  0.00    -0.352 N 
ATOM     29  C   UNL A   1      34.453  30.759  27.821  1.00  0.00     0.251 C 
ATOM     30  H   UNL A   1      32.693  30.353  26.955  1.00  0.00     0.163 HD
ATOM     31  O   UNL A   1      34.283  31.974  27.807  1.00  0.00    -0.269 OA
BRANCH  29  32
ATOM     32  C   UNL A   1      35.748  30.197  28.264  1.00  0.00     0.039 A 
ATOM     33  C   UNL A   1      36.830  30.198  27.378  1.00  0.00     0.014 A 
ATOM     34  C   UNL A   1      35.885  29.645  29.541  1.00  0.00     0.014 A 
ATOM     35  C   UNL A   1      38.063  29.689  27.792  1.00  0.00     0.010 A 
ATOM     36  C   UNL A   1      37.131  29.196  29.972  1.00  0.00     0.010 A 
ATOM     37  C   UNL A   1      38.229  29.204  29.100  1.00  0.00    -0.014 A 
BRANCH  37  38
ATOM     38  C   UNL A   1      39.542  28.703  29.579  1.00  0.00     0.031 A 
ATOM     39  C   UNL A   1      40.280  29.436  30.667  1.00  0.00     0.074 A 
ATOM     40  C   UNL A   1      40.113  27.644  28.971  1.00  0.00     0.049 A 
ATOM     41  N   UNL A   1      41.466  29.196  31.165  1.00  0.00    -0.248 NA
ATOM     42  C   UNL A   1      39.611  30.609  31.251  1.00  0.00     0.031 C 
ATOM     43  C   UNL A   1      39.532  26.897  27.853  1.00  0.00     0.029 A 
ATOM     44  N   UNL A   1      41.323  27.033  29.186  1.00  0.00    -0.354 N 
ATOM     45  C   UNL A   1      41.700  30.206  32.091  1.00  0.00     0.074 A 
ATOM     46  C   UNL A   1      40.546  31.080  32.063  1.00  0.00     0.031 C 
ATOM     47  C   UNL A   1      40.385  25.930  27.481  1.00  0.00     0.029 A 
ATOM     48  C   UNL A   1      41.583  26.002  28.313  1.00  0.00     0.049 A 
ATOM     49  H   UNL A   1      41.946  27.307  29.897  1.00  0.00     0.167 HD
ATOM     50  C   UNL A   1      42.763  30.375  32.913  1.00  0.00     0.034 A 
ATOM     51  C   UNL A   1      42.666  25.209  28.193  1.00  0.00     0.034 A 
ATOM     52  C   UNL A   1      43.883  29.475  32.974  1.00  0.00     0.049 A 
ATOM     53  C   UNL A   1      43.812  25.386  29.151  1.00  0.00     0.074 A 
ATOM     54  C   UNL A   1      44.965  29.506  33.836  1.00  0.00     0.029 A 
ATOM     55  N   UNL A   1      44.066  28.383  32.140  1.00  0.00    -0.354 N 
ATOM     56  N   UNL A   1      43.943  26.250  30.128  1.00  0.00    -0.248 NA
ATOM     57  C   UNL A   1      44.943  24.457  29.015  1.00  0.00     0.031 C 
ATOM     58  C   UNL A   1      45.811  28.439  33.512  1.00  0.00     0.029 A 
ATOM     59  C   UNL A   1      45.247  27.735  32.461  1.00  0.00     0.049 A 
ATOM     60  H   UNL A   1      43.448  28.109  31.425  1.00  0.00     0.167 HD
ATOM     61  C   UNL A   1      45.152  25.948  30.746  1.00  0.00     0.074 A 
ATOM     62  C   UNL A   1      45.704  24.807  30.043  1.00  0.00     0.031 C 
ATOM     63  C   UNL A   1      45.756  26.567  31.790  1.00  0.00     0.034 A 
BRANCH  50  64
ATOM     64  C   UNL A   1      42.735  31.547  33.859  1.00  0.00     0.023 A 
ATOM     65  C   UNL A   1      43.216  32.798  33.422  1.00  0.00     0.012 A 
ATOM     66  C   UNL A   1      42.189  31.430  35.152  1.00  0.00     0.148 A 
ATOM     67  C   UNL A   1      43.190  33.907  34.269  1.00  0.00     0.002 A 
ATOM     68  C   UNL A   1      42.126  32.550  35.975  1.00  0.00     0.091 A 
ATOM     69  F   UNL A   1      41.756  30.228  35.558  1.00  0.00    -0.205 F 
ATOM     70  C   UNL A   1      42.637  33.784  35.540  1.00  0.00     0.022 A 
BRANCH  68  71
ATOM     71  S   UNL A   1      41.364  32.510  37.601  1.00  0.00     0.127 S 
ATOM     72  O   UNL A   1      42.197  31.528  38.295  1.00  0.00    -0.237 OA
ATOM     73  O   UNL A   1      41.539  33.889  38.060  1.00  0.00    -0.237 OA
ATOM     74  O   UNL A   1      39.979  32.117  37.383  1.00  0.00    -0.744 OA
ENDBRANCH  68  71
ENDBRANCH  50  64
BRANCH  51  75
ATOM     75  C   UNL A   1      42.676  24.120  27.174  1.00  0.00     0.023 A 
ATOM     76  C   UNL A   1      43.331  24.336  25.945  1.00  0.00     0.012 A 
ATOM     77  C   UNL A   1      42.087  22.867  27.428  1.00  0.00     0.148 A 
ATOM     78  C   UNL A   1      43.375  23.333  24.977  1.00  0.00     0.002 A 
ATOM     79  C   UNL A   1      42.181  21.854  26.480  1.00  0.00     0.091 A 
ATOM     80  F   UNL A   1      41.458  22.685  28.597  1.00  0.00    -0.205 F 
ATOM     81  C   UNL A   1      42.810  22.090  25.247  1.00  0.00     0.022 A 
BRANCH  79  82
ATOM     82  S   UNL A   1      41.600  20.184  26.798  1.00  0.00     0.127 S 
ATOM     83  O   UNL A   1      42.613  19.684  27.722  1.00  0.00    -0.237 OA
ATOM     84  O   UNL A   1      40.286  20.427  27.395  1.00  0.00    -0.237 OA
ATOM     85  O   UNL A   1      41.552  19.532  25.496  1.00  0.00    -0.744 OA
ENDBRANCH  79  82
ENDBRANCH  51  75
BRANCH  63  86
ATOM     86  C   UNL A   1      47.074  26.014  32.262  1.00  0.00     0.023 A 
ATOM     87  C   UNL A   1      47.108  25.136  33.363  1.00  0.00     0.012 A 
ATOM     88  C   UNL A   1      48.266  26.297  31.566  1.00  0.00     0.148 A 
ATOM     89  C   UNL A   1      48.311  24.570  33.782  1.00  0.00     0.002 A 
ATOM     90  C   UNL A   1      49.454  25.693  31.960  1.00  0.00     0.091 A 
ATOM     91  F   UNL A   1      48.216  27.152  30.533  1.00  0.00    -0.205 F 
ATOM     92  C   UNL A   1      49.481  24.838  33.074  1.00  0.00     0.022 A 
BRANCH  90  93
ATOM     93  S   UNL A   1      50.988  25.908  31.052  1.00  0.00     0.127 S 
ATOM     94  O   UNL A   1      50.594  25.511  29.701  1.00  0.00    -0.237 OA
ATOM     95  O   UNL A   1      51.251  27.339  31.215  1.00  0.00    -0.237 OA
ATOM     96  O   UNL A   1      51.962  25.040  31.701  1.00  0.00    -0.744 OA
ENDBRANCH  90  93
ENDBRANCH  63  86
ENDBRANCH  37  38
ENDBRANCH  29  32
ENDBRANCH  27  28
ENDBRANCH  26  27
ENDBRANCH  25  26
ENDBRANCH   1  25
TORSDOF 20
ENDMDL
MODEL 2
REMARK VINA RESULT:     -10.4      1.457      1.993
REMARK SMILES CC[C@@H](C)N(C)S(=O)(=O)c1cc(C(=O)NCCCCCCNC(=O)c2ccc(-c3c4nc(c(-c5cccc(S(=O)(=O)[O-])c5F)c5ccc([nH]5)c(-c5cccc(S(=O)(=O)[O-])c5F)c5nc(c(-c6cccc(S(=O)(=O)[O-])c6F)c6ccc3[nH]6)C=C5)C=C4)cc2)c(C)cc1C
REMARK SMILES IDX 18 1 17 2 16 3 15 4 13 5 14 6 12 8 10 9 11 10 91 11 90 12
REMARK SMILES IDX 92 13 88 14 89 15 7 16 8 17 9 18 5 19 6 20 3 21 4 22 2 23
REMARK SMILES IDX 1 24 19 25 20 26 21 27 22 28 23 29 24 31 25 32 26 33 87 34
REMARK SMILES IDX 27 35 86 36 28 37 29 38 30 39 80 40 31 41 85 42 79 43 81 44
REMARK SMILES IDX 32 45 84 46 78 47 77 48 33 50 65 51 45 52 64 53 46 54 49 55
REMARK SMILES IDX 63 56 82 57 47 58 48 59 62 61 83 62 50 63 34 64 35 65 43 66
REMARK SMILES IDX 36 67 38 68 44 69 37 70 39 71 40 72 41 73 42 74 66 75 67 76
REMARK SMILES IDX 75 77 68 78 70 79 76 80 69 81 71 82 72 83 73 84 74 85 51 86
REMARK SMILES IDX 52 87 60 88 53 89 55 90 61 91 54 92 56 93 57 94 58 95 59 96
REMARK H PARENT 15 7 22 30 81 49 49 60
REMARK Flexibility Score: inf
ROOT
ATOM      1  C   UNL A   1      32.558  29.155  24.249  1.00  0.00     0.002 C 
ENDROOT
BRANCH   1   2
ATOM      2  C   UNL A   1      32.986  29.221  22.780  1.00  0.00     0.021 C 
BRANCH   2   3
ATOM      3  C   UNL A   1      34.189  28.336  22.425  1.00  0.00     0.116 C 
BRANCH   3   4
ATOM      4  N   UNL A   1      33.766  27.289  21.517  1.00  0.00    -0.352 N 
ATOM      5  C   UNL A   1      33.130  26.086  21.651  1.00  0.00     0.251 C 
ATOM      6  O   UNL A   1      33.010  25.441  20.603  1.00  0.00    -0.269 OA
ATOM      7  H   UNL A   1      33.991  27.492  20.580  1.00  0.00     0.163 HD
BRANCH   5   8
ATOM      8  C   UNL A   1      32.497  25.527  22.896  1.00  0.00     0.044 A 
ATOM      9  C   UNL A   1      33.034  24.221  24.932  1.00  0.00     0.086 A 
ATOM     10  C   UNL A   1      33.395  24.763  23.683  1.00  0.00     0.036 A 
ATOM     11  C   UNL A   1      31.728  24.371  25.407  1.00  0.00    -0.031 A 
ATOM     12  C   UNL A   1      30.835  25.118  24.627  1.00  0.00     0.009 A 
ATOM     13  C   UNL A   1      31.232  23.854  26.728  1.00  0.00     0.046 C 
ATOM     14  C   UNL A   1      31.219  25.767  23.430  1.00  0.00    -0.038 A 
ATOM     15  C   UNL A   1      30.213  26.754  22.921  1.00  0.00     0.045 C 
BRANCH   9  16
ATOM     16  S   UNL A   1      34.336  23.508  25.933  1.00  0.00     0.243 S 
ATOM     17  O   UNL A   1      33.883  23.411  27.300  1.00  0.00    -0.207 OA
ATOM     18  O   UNL A   1      35.537  24.252  25.603  1.00  0.00    -0.207 OA
BRANCH  16  19
ATOM     19  N   UNL A   1      34.523  21.887  25.379  1.00  0.00    -0.198 NA
ATOM     20  C   UNL A   1      35.595  21.718  24.360  1.00  0.00     0.124 C 
BRANCH  19  21
ATOM     21  C   UNL A   1      33.245  21.170  24.965  1.00  0.00     0.069 C 
ATOM     22  C   UNL A   1      33.092  19.803  25.640  1.00  0.00     0.026 C 
BRANCH  21  23
ATOM     23  C   UNL A   1      33.093  21.083  23.434  1.00  0.00     0.016 C 
ATOM     24  C   UNL A   1      32.148  19.978  22.975  1.00  0.00     0.005 C 
ENDBRANCH  21  23
ENDBRANCH  19  21
ENDBRANCH  16  19
ENDBRANCH   9  16
ENDBRANCH   5   8
ENDBRANCH   3   4
ENDBRANCH   2   3
ENDBRANCH   1   2
BRANCH   1  25
ATOM     25  C   UNL A   1      33.483  28.332  25.147  1.00  0.00     0.002 C 
BRANCH  25  26
ATOM     26  C   UNL A   1      32.842  27.783  26.427  1.00  0.00     0.021 C 
BRANCH  26  27
ATOM     27  C   UNL A   1      33.227  28.518  27.710  1.00  0.00     0.116 C 
BRANCH  27  28
ATOM     28  N   UNL A   1      33.362  29.950  27.491  1.00  0.00    -0.352 N 
ATOM     29  C   UNL A   1      34.388  30.791  27.846  1.00  0.00     0.251 C 
ATOM     30  H   UNL A   1      32.609  30.378  27.023  1.00  0.00     0.163 HD
ATOM     31  O   UNL A   1      34.228  32.007  27.802  1.00  0.00    -0.269 OA
BRANCH  29  32
ATOM     32  C   UNL A   1      35.686  30.230  28.282  1.00  0.00     0.039 A 
ATOM     33  C   UNL A   1      36.760  30.223  27.387  1.00  0.00     0.014 A 
ATOM     34  C   UNL A   1      35.833  29.688  29.562  1.00  0.00     0.014 A 
ATOM     35  C   UNL A   1      37.996  29.714  27.793  1.00  0.00     0.010 A 
ATOM     36  C   UNL A   1      37.082  29.239  29.985  1.00  0.00     0.010 A 
ATOM     37  C   UNL A   1      38.173  29.239  29.103  1.00  0.00    -0.014 A 
BRANCH  37  38
ATOM     38  C   UNL A   1      39.489  28.738  29.575  1.00  0.00     0.031 A 
ATOM     39  C   UNL A   1      40.226  29.464  30.668  1.00  0.00     0.074 A 
ATOM     40  C   UNL A   1      40.063  27.688  28.955  1.00  0.00     0.049 A 
ATOM     41  N   UNL A   1      41.414  29.224  31.161  1.00  0.00    -0.248 NA
ATOM     42  C   UNL A   1      39.553  30.629  31.265  1.00  0.00     0.031 C 
ATOM     43  C   UNL A   1      39.483  26.950  27.831  1.00  0.00     0.029 A 
ATOM     44  N   UNL A   1      41.276  27.080  29.161  1.00  0.00    -0.354 N 
ATOM     45  C   UNL A   1      41.646  30.226  32.096  1.00  0.00     0.074 A 
ATOM     46  C   UNL A   1      40.488  31.095  32.079  1.00  0.00     0.031 C 
ATOM     47  C   UNL A   1      40.339  25.989  27.447  1.00  0.00     0.029 A 
ATOM     48  C   UNL A   1      41.538  26.059  28.277  1.00  0.00     0.049 A 
ATOM     49  H   UNL A   1      41.900  27.350  29.873  1.00  0.00     0.167 HD
ATOM     50  C   UNL A   1      42.710  30.391  32.918  1.00  0.00     0.034 A 
ATOM     51  C   UNL A   1      42.624  25.271  28.147  1.00  0.00     0.034 A 
ATOM     52  C   UNL A   1      43.834  29.496  32.967  1.00  0.00     0.049 A 
ATOM     53  C   UNL A   1      43.772  25.444  29.104  1.00  0.00     0.074 A 
ATOM     54  C   UNL A   1      44.918  29.523  33.827  1.00  0.00     0.029 A 
ATOM     55  N   UNL A   1      44.020  28.413  32.122  1.00  0.00    -0.354 N 
ATOM     56  N   UNL A   1      43.902  26.299  30.089  1.00  0.00    -0.248 NA
ATOM     57  C   UNL A   1      44.906  24.521  28.956  1.00  0.00     0.031 C 
ATOM     58  C   UNL A   1      45.767  28.463  33.491  1.00  0.00     0.029 A 
ATOM     59  C   UNL A   1      45.204  27.767  32.434  1.00  0.00     0.049 A 
ATOM     60  H   UNL A   1      43.402  28.143  31.406  1.00  0.00     0.167 HD
ATOM     61  C   UNL A   1      45.113  25.996  30.701  1.00  0.00     0.074 A 
ATOM     62  C   UNL A   1      45.669  24.865  29.986  1.00  0.00     0.031 C 
ATOM     63  C   UNL A   1      45.717  26.608  31.750  1.00  0.00     0.034 A 
BRANCH  50  64
ATOM     64  C   UNL A   1      42.679  31.554  33.875  1.00  0.00     0.023 A 
ATOM     65  C   UNL A   1      43.212  32.795  33.471  1.00  0.00     0.012 A 
ATOM     66  C   UNL A   1      42.080  31.440  35.145  1.00  0.00     0.148 A 
ATOM     67  C   UNL A   1      43.185  33.895  34.329  1.00  0.00     0.002 A 
ATOM     68  C   UNL A   1      42.019  32.552  35.978  1.00  0.00     0.091 A 
ATOM     69  F   UNL A   1      41.599  30.247  35.520  1.00  0.00    -0.205 F 
ATOM     70  C   UNL A   1      42.580  33.775  35.577  1.00  0.00     0.022 A 
BRANCH  68  71
ATOM     71  S   UNL A   1      41.194  32.518  37.573  1.00  0.00     0.127 S 
ATOM     72  O   UNL A   1      41.212  33.931  37.947  1.00  0.00    -0.237 OA
ATOM     73  O   UNL A   1      39.870  31.998  37.227  1.00  0.00    -0.237 OA
ATOM     74  O   UNL A   1      41.989  31.635  38.415  1.00  0.00    -0.744 OA
ENDBRANCH  68  71
ENDBRANCH  50  64
BRANCH  51  75
ATOM     75  C   UNL A   1      42.637  24.193  27.118  1.00  0.00     0.023 A 
ATOM     76  C   UNL A   1      43.318  24.411  25.903  1.00  0.00     0.012 A 
ATOM     77  C   UNL A   1      42.024  22.947  27.347  1.00  0.00     0.148 A 
ATOM     78  C   UNL A   1      43.365  23.417  24.926  1.00  0.00     0.002 A 
ATOM     79  C   UNL A   1      42.120  21.942  26.391  1.00  0.00     0.091 A 
ATOM     80  F   UNL A   1      41.370  22.763  28.503  1.00  0.00    -0.205 F 
ATOM     81  C   UNL A   1      42.775  22.180  25.173  1.00  0.00     0.022 A 
BRANCH  79  82
ATOM     82  S   UNL A   1      41.507  20.278  26.681  1.00  0.00     0.127 S 
ATOM     83  O   UNL A   1      40.075  20.510  26.845  1.00  0.00    -0.237 OA
ATOM     84  O   UNL A   1      41.883  19.596  25.442  1.00  0.00    -0.237 OA
ATOM     85  O   UNL A   1      42.213  19.801  27.862  1.00  0.00    -0.744 OA
ENDBRANCH  79  82
ENDBRANCH  51  75
BRANCH  63  86
ATOM     86  C   UNL A   1      47.039  26.055  32.214  1.00  0.00     0.023 A 
ATOM     87  C   UNL A   1      48.236  26.561  31.672  1.00  0.00     0.012 A 
ATOM     88  C   UNL A   1      47.096  25.097  33.245  1.00  0.00     0.148 A 
ATOM     89  C   UNL A   1      49.471  26.101  32.128  1.00  0.00     0.002 A 
ATOM     90  C   UNL A   1      48.330  24.678  33.728  1.00  0.00     0.091 A 
ATOM     91  F   UNL A   1      45.944  24.613  33.734  1.00  0.00    -0.205 F 
ATOM     92  C   UNL A   1      49.518  25.170  33.164  1.00  0.00     0.022 A 
BRANCH  90  93
ATOM     93  S   UNL A   1      48.486  23.553  35.120  1.00  0.00     0.127 S 
ATOM     94  O   UNL A   1      49.743  22.872  34.815  1.00  0.00    -0.237 OA
ATOM     95  O   UNL A   1      48.549  24.471  36.258  1.00  0.00    -0.237 OA
ATOM     96  O   UNL A   1      47.295  22.713  35.090  1.00  0.00    -0.744 OA
ENDBRANCH  90  93
ENDBRANCH  63  86
ENDBRANCH  37  38
ENDBRANCH  29  32
ENDBRANCH  27  28
ENDBRANCH  26  27
ENDBRANCH  25  26
ENDBRANCH   1  25
TORSDOF 20
ENDMDL
MODEL 3
REMARK VINA RESULT:     -10.4      3.263      8.348
REMARK SMILES CC[C@@H](C)N(C)S(=O)(=O)c1cc(C(=O)NCCCCCCNC(=O)c2ccc(-c3c4nc(c(-c5cccc(S(=O)(=O)[O-])c5F)c5ccc([nH]5)c(-c5cccc(S(=O)(=O)[O-])c5F)c5nc(c(-c6cccc(S(=O)(=O)[O-])c6F)c6ccc3[nH]6)C=C5)C=C4)cc2)c(C)cc1C
REMARK SMILES IDX 18 1 17 2 16 3 15 4 13 5 14 6 12 8 10 9 11 10 91 11 90 12
REMARK SMILES IDX 92 13 88 14 89 15 7 16 8 17 9 18 5 19 6 20 3 21 4 22 2 23
REMARK SMILES IDX 1 24 19 25 20 26 21 27 22 28 23 29 24 31 25 32 26 33 87 34
REMARK SMILES IDX 27 35 86 36 28 37 29 38 30 39 80 40 31 41 85 42 79 43 81 44
REMARK SMILES IDX 32 45 84 46 78 47 77 48 33 50 65 51 45 52 64 53 46 54 49 55
REMARK SMILES IDX 63 56 82 57 47 58 48 59 62 61 83 62 50 63 34 64 35 65 43 66
REMARK SMILES IDX 36 67 38 68 44 69 37 70 39 71 40 72 41 73 42 74 66 75 67 76
REMARK SMILES IDX 75 77 68 78 70 79 76 80 69 81 71 82 72 83 73 84 74 85 51 86
REMARK SMILES IDX 52 87 60 88 53 89 55 90 61 91 54 92 56 93 57 94 58 95 59 96
REMARK H PARENT 15 7 22 30 81 49 49 60
REMARK Flexibility Score: inf
ROOT
ATOM      1  C   UNL A   1      32.308  29.362  25.787  1.00  0.00     0.002 C 
ENDROOT
BRANCH   1   2
ATOM      2  C   UNL A   1      33.275  28.814  24.734  1.00  0.00     0.021 C 
BRANCH   2   3
ATOM      3  C   UNL A   1      32.955  29.235  23.292  1.00  0.00     0.116 C 
BRANCH   3   4
ATOM      4  N   UNL A   1      33.301  28.158  22.387  1.00  0.00    -0.352 N 
ATOM      5  C   UNL A   1      33.142  26.799  22.389  1.00  0.00     0.251 C 
ATOM      6  O   UNL A   1      33.653  26.215  21.426  1.00  0.00    -0.269 OA
ATOM      7  H   UNL A   1      33.760  28.481  21.578  1.00  0.00     0.163 HD
BRANCH   5   8
ATOM      8  C   UNL A   1      32.349  25.978  23.368  1.00  0.00     0.044 A 
ATOM      9  C   UNL A   1      32.621  24.262  25.135  1.00  0.00     0.086 A 
ATOM     10  C   UNL A   1      33.146  25.066  24.104  1.00  0.00     0.036 A 
ATOM     11  C   UNL A   1      31.252  24.297  25.418  1.00  0.00    -0.031 A 
ATOM     12  C   UNL A   1      30.460  25.191  24.686  1.00  0.00     0.009 A 
ATOM     13  C   UNL A   1      30.581  23.501  26.501  1.00  0.00     0.046 C 
ATOM     14  C   UNL A   1      30.995  26.089  23.732  1.00  0.00    -0.038 A 
ATOM     15  C   UNL A   1      30.041  27.157  23.295  1.00  0.00     0.045 C 
BRANCH   9  16
ATOM     16  S   UNL A   1      33.782  23.355  26.151  1.00  0.00     0.243 S 
ATOM     17  O   UNL A   1      33.145  23.004  27.398  1.00  0.00    -0.207 OA
ATOM     18  O   UNL A   1      35.005  24.135  26.140  1.00  0.00    -0.207 OA
BRANCH  16  19
ATOM     19  N   UNL A   1      34.068  21.869  25.329  1.00  0.00    -0.198 NA
ATOM     20  C   UNL A   1      35.039  21.978  24.205  1.00  0.00     0.124 C 
BRANCH  19  21
ATOM     21  C   UNL A   1      32.831  21.081  24.919  1.00  0.00     0.069 C 
ATOM     22  C   UNL A   1      32.885  19.620  25.376  1.00  0.00     0.026 C 
BRANCH  21  23
ATOM     23  C   UNL A   1      32.529  21.209  23.414  1.00  0.00     0.016 C 
ATOM     24  C   UNL A   1      32.153  19.888  22.751  1.00  0.00     0.005 C 
ENDBRANCH  21  23
ENDBRANCH  19  21
ENDBRANCH  16  19
ENDBRANCH   9  16
ENDBRANCH   5   8
ENDBRANCH   3   4
ENDBRANCH   2   3
ENDBRANCH   1   2
BRANCH   1  25
ATOM     25  C   UNL A   1      31.227  30.296  25.238  1.00  0.00     0.002 C 
BRANCH  25  26
ATOM     26  C   UNL A   1      31.047  31.615  25.998  1.00  0.00     0.021 C 
BRANCH  26  27
ATOM     27  C   UNL A   1      32.228  32.019  26.880  1.00  0.00     0.116 C 
BRANCH  27  28
ATOM     28  N   UNL A   1      32.216  33.444  27.177  1.00  0.00    -0.352 N 
ATOM     29  C   UNL A   1      32.968  34.148  28.085  1.00  0.00     0.251 C 
ATOM     30  H   UNL A   1      31.578  33.978  26.652  1.00  0.00     0.163 HD
ATOM     31  O   UNL A   1      32.657  35.300  28.376  1.00  0.00    -0.269 OA
BRANCH  29  32
ATOM     32  C   UNL A   1      34.151  33.520  28.711  1.00  0.00     0.039 A 
ATOM     33  C   UNL A   1      35.400  34.135  28.579  1.00  0.00     0.014 A 
ATOM     34  C   UNL A   1      34.032  32.311  29.403  1.00  0.00     0.014 A 
ATOM     35  C   UNL A   1      36.521  33.561  29.184  1.00  0.00     0.010 A 
ATOM     36  C   UNL A   1      35.139  31.775  30.058  1.00  0.00     0.010 A 
ATOM     37  C   UNL A   1      36.395  32.388  29.946  1.00  0.00    -0.014 A 
BRANCH  37  38
ATOM     38  C   UNL A   1      37.562  31.785  30.639  1.00  0.00     0.031 A 
ATOM     39  C   UNL A   1      38.391  30.736  29.949  1.00  0.00     0.074 A 
ATOM     40  C   UNL A   1      37.818  32.113  31.921  1.00  0.00     0.049 A 
ATOM     41  N   UNL A   1      39.399  30.043  30.414  1.00  0.00    -0.248 NA
ATOM     42  C   UNL A   1      38.022  30.399  28.564  1.00  0.00     0.031 C 
ATOM     43  C   UNL A   1      37.040  33.059  32.723  1.00  0.00     0.029 A 
ATOM     44  N   UNL A   1      38.785  31.662  32.784  1.00  0.00    -0.354 N 
ATOM     45  C   UNL A   1      39.758  29.166  29.397  1.00  0.00     0.074 A 
ATOM     46  C   UNL A   1      38.841  29.392  28.301  1.00  0.00     0.031 C 
ATOM     47  C   UNL A   1      37.559  33.118  33.959  1.00  0.00     0.029 A 
ATOM     48  C   UNL A   1      38.689  32.196  34.048  1.00  0.00     0.049 A 
ATOM     49  H   UNL A   1      39.481  31.017  32.524  1.00  0.00     0.167 HD
ATOM     50  C   UNL A   1      40.779  28.275  29.365  1.00  0.00     0.034 A 
ATOM     51  C   UNL A   1      39.424  31.967  35.154  1.00  0.00     0.034 A 
ATOM     52  C   UNL A   1      41.718  28.090  30.437  1.00  0.00     0.049 A 
ATOM     53  C   UNL A   1      40.581  31.010  35.077  1.00  0.00     0.074 A 
ATOM     54  C   UNL A   1      42.841  27.282  30.467  1.00  0.00     0.029 A 
ATOM     55  N   UNL A   1      41.647  28.723  31.669  1.00  0.00    -0.354 N 
ATOM     56  N   UNL A   1      41.003  30.308  34.054  1.00  0.00    -0.248 NA
ATOM     57  C   UNL A   1      41.387  30.840  36.295  1.00  0.00     0.031 C 
ATOM     58  C   UNL A   1      43.440  27.414  31.725  1.00  0.00     0.029 A 
ATOM     59  C   UNL A   1      42.701  28.318  32.471  1.00  0.00     0.049 A 
ATOM     60  H   UNL A   1      40.950  29.364  31.934  1.00  0.00     0.167 HD
ATOM     61  C   UNL A   1      42.142  29.640  34.491  1.00  0.00     0.074 A 
ATOM     62  C   UNL A   1      42.354  30.039  35.869  1.00  0.00     0.031 C 
ATOM     63  C   UNL A   1      42.931  28.766  33.820  1.00  0.00     0.034 A 
BRANCH  50  64
ATOM     64  C   UNL A   1      40.966  27.475  28.103  1.00  0.00     0.023 A 
ATOM     65  C   UNL A   1      41.535  28.093  26.971  1.00  0.00     0.012 A 
ATOM     66  C   UNL A   1      40.632  26.107  28.048  1.00  0.00     0.148 A 
ATOM     67  C   UNL A   1      41.735  27.375  25.792  1.00  0.00     0.002 A 
ATOM     68  C   UNL A   1      40.874  25.387  26.883  1.00  0.00     0.091 A 
ATOM     69  F   UNL A   1      40.072  25.541  29.126  1.00  0.00    -0.205 F 
ATOM     70  C   UNL A   1      41.413  26.022  25.752  1.00  0.00     0.022 A 
BRANCH  68  71
ATOM     71  S   UNL A   1      40.564  23.622  26.757  1.00  0.00     0.127 S 
ATOM     72  O   UNL A   1      39.157  23.596  26.357  1.00  0.00    -0.237 OA
ATOM     73  O   UNL A   1      41.502  23.216  25.710  1.00  0.00    -0.237 OA
ATOM     74  O   UNL A   1      40.853  23.072  28.074  1.00  0.00    -0.744 OA
ENDBRANCH  68  71
ENDBRANCH  50  64
BRANCH  51  75
ATOM     75  C   UNL A   1      39.133  32.723  36.406  1.00  0.00     0.023 A 
ATOM     76  C   UNL A   1      39.679  34.011  36.574  1.00  0.00     0.012 A 
ATOM     77  C   UNL A   1      38.290  32.199  37.404  1.00  0.00     0.148 A 
ATOM     78  C   UNL A   1      39.413  34.751  37.725  1.00  0.00     0.002 A 
ATOM     79  C   UNL A   1      37.986  32.964  38.525  1.00  0.00     0.091 A 
ATOM     80  F   UNL A   1      37.790  30.967  37.232  1.00  0.00    -0.205 F 
ATOM     81  C   UNL A   1      38.559  34.234  38.695  1.00  0.00     0.022 A 
BRANCH  79  82
ATOM     82  S   UNL A   1      36.791  32.431  39.757  1.00  0.00     0.127 S 
ATOM     83  O   UNL A   1      35.561  32.366  38.974  1.00  0.00    -0.237 OA
ATOM     84  O   UNL A   1      37.333  31.134  40.165  1.00  0.00    -0.237 OA
ATOM     85  O   UNL A   1      36.827  33.447  40.801  1.00  0.00    -0.744 OA
ENDBRANCH  79  82
ENDBRANCH  51  75
BRANCH  63  86
ATOM     86  C   UNL A   1      44.119  28.195  34.548  1.00  0.00     0.023 A 
ATOM     87  C   UNL A   1      45.352  28.876  34.514  1.00  0.00     0.012 A 
ATOM     88  C   UNL A   1      43.992  27.031  35.331  1.00  0.00     0.148 A 
ATOM     89  C   UNL A   1      46.449  28.393  35.227  1.00  0.00     0.002 A 
ATOM     90  C   UNL A   1      45.076  26.581  36.076  1.00  0.00     0.091 A 
ATOM     91  F   UNL A   1      42.816  26.386  35.334  1.00  0.00    -0.205 F 
ATOM     92  C   UNL A   1      46.307  27.254  36.017  1.00  0.00     0.022 A 
BRANCH  90  93
ATOM     93  S   UNL A   1      44.959  25.178  37.192  1.00  0.00     0.127 S 
ATOM     94  O   UNL A   1      43.929  25.626  38.128  1.00  0.00    -0.237 OA
ATOM     95  O   UNL A   1      44.541  24.099  36.295  1.00  0.00    -0.237 OA
ATOM     96  O   UNL A   1      46.290  25.007  37.759  1.00  0.00    -0.744 OA
ENDBRANCH  90  93
ENDBRANCH  63  86
ENDBRANCH  37  38
ENDBRANCH  29  32
ENDBRANCH  27  28
ENDBRANCH  26  27
ENDBRANCH  25  26
ENDBRANCH   1  25
TORSDOF 20
ENDMDL
