MODEL 1
REMARK VINA RESULT:     -10.4      0.000      0.000
REMARK SMILES CC[C@@H](NC(=O)[C@H](C)C[NH2+]C)C(=O)NCCCCCCNC(=O)c1ccc(-c2c3nc(c(-c4cccc(S(=O)(=O)[O-])c4F)c4ccc([nH]4)c(-c4cccc(S(=O)(=O)[O-])c4F)c4nc(c(-c5cccc(S(=O)(=O)[O-])c5F)c5ccc2[nH]5)C=C4)C=C3)cc1
REMARK SMILES IDX 17 1 16 2 15 3 14 4 12 5 13 6 3 8 2 9 1 10 4 11 5 12 6 14
REMARK SMILES IDX 7 15 8 16 9 17 10 18 11 19 18 22 19 23 20 24 21 25 22 26
REMARK SMILES IDX 23 28 24 29 25 30 86 31 26 32 85 33 27 34 28 35 29 36 79 37
REMARK SMILES IDX 30 38 84 39 78 40 80 41 31 42 83 43 77 44 76 45 32 47 64 48
REMARK SMILES IDX 44 49 63 50 45 51 48 52 62 53 81 54 46 55 47 56 61 58 82 59
REMARK SMILES IDX 49 60 33 61 34 62 42 63 35 64 37 65 43 66 36 67 38 68 39 69
REMARK SMILES IDX 40 70 41 71 65 72 66 73 74 74 67 75 69 76 75 77 68 78 70 79
REMARK SMILES IDX 71 80 72 81 73 82 50 83 51 84 59 85 52 86 54 87 60 88 53 89
REMARK SMILES IDX 55 90 56 91 57 92 58 93
REMARK H PARENT 14 7 4 13 10 20 10 21 21 27 80 46 48 57
REMARK Flexibility Score: inf
ROOT
ATOM      1  C   UNL A   1      32.878  26.419  26.161  1.00  0.00     0.002 C 
ENDROOT
BRANCH   1   2
ATOM      2  C   UNL A   1      33.803  26.032  25.002  1.00  0.00     0.021 C 
BRANCH   2   3
ATOM      3  C   UNL A   1      34.241  24.572  25.026  1.00  0.00     0.116 C 
BRANCH   3   4
ATOM      4  N   UNL A   1      35.004  24.227  23.833  1.00  0.00    -0.354 N 
ATOM      5  C   UNL A   1      35.802  23.146  23.594  1.00  0.00     0.242 C 
ATOM      6  O   UNL A   1      36.329  23.054  22.481  1.00  0.00    -0.273 OA
ATOM      7  H   UNL A   1      34.934  24.868  23.090  1.00  0.00     0.163 HD
BRANCH   5   8
ATOM      8  C   UNL A   1      36.178  22.178  24.732  1.00  0.00     0.171 C 
BRANCH   8   9
ATOM      9  C   UNL A   1      37.562  22.669  25.230  1.00  0.00     0.031 C 
ATOM     10  C   UNL A   1      37.588  23.940  26.060  1.00  0.00     0.006 C 
ENDBRANCH   8   9
BRANCH   8  11
ATOM     11  N   UNL A   1      35.159  22.085  25.784  1.00  0.00    -0.344 N 
ATOM     12  C   UNL A   1      34.145  21.197  25.991  1.00  0.00     0.229 C 
ATOM     13  H   UNL A   1      35.219  22.794  26.465  1.00  0.00     0.164 HD
ATOM     14  O   UNL A   1      33.644  21.208  27.121  1.00  0.00    -0.275 OA
BRANCH  12  15
ATOM     15  C   UNL A   1      33.541  20.288  24.912  1.00  0.00     0.130 C 
ATOM     16  C   UNL A   1      32.688  21.023  23.888  1.00  0.00     0.024 C 
BRANCH  15  17
ATOM     17  C   UNL A   1      32.894  19.055  25.568  1.00  0.00     0.273 C 
BRANCH  17  18
ATOM     18  N   UNL A   1      33.571  17.768  25.360  1.00  0.00    -0.348 N 
ATOM     19  C   UNL A   1      34.624  17.909  24.352  1.00  0.00     0.330 C 
ATOM     20  H   UNL A   1      32.891  17.076  25.042  1.00  0.00     0.346 HD
ATOM     21  H   UNL A   1      33.990  17.464  26.238  1.00  0.00     0.346 HD
ENDBRANCH  17  18
ENDBRANCH  15  17
ENDBRANCH  12  15
ENDBRANCH   8  11
ENDBRANCH   5   8
ENDBRANCH   3   4
ENDBRANCH   2   3
ENDBRANCH   1   2
BRANCH   1  22
ATOM     22  C   UNL A   1      31.733  27.363  25.786  1.00  0.00     0.002 C 
BRANCH  22  23
ATOM     23  C   UNL A   1      31.714  28.703  26.517  1.00  0.00     0.021 C 
BRANCH  23  24
ATOM     24  C   UNL A   1      32.842  29.648  26.129  1.00  0.00     0.116 C 
BRANCH  24  25
ATOM     25  N   UNL A   1      32.574  31.035  26.483  1.00  0.00    -0.352 N 
ATOM     26  C   UNL A   1      33.333  31.875  27.258  1.00  0.00     0.251 C 
ATOM     27  H   UNL A   1      31.743  31.419  26.120  1.00  0.00     0.163 HD
ATOM     28  O   UNL A   1      32.927  32.998  27.545  1.00  0.00    -0.269 OA
BRANCH  26  29
ATOM     29  C   UNL A   1      34.626  31.387  27.775  1.00  0.00     0.039 A 
ATOM     30  C   UNL A   1      35.653  32.306  27.989  1.00  0.00     0.014 A 
ATOM     31  C   UNL A   1      34.790  30.041  28.115  1.00  0.00     0.014 A 
ATOM     32  C   UNL A   1      36.829  31.882  28.606  1.00  0.00     0.010 A 
ATOM     33  C   UNL A   1      35.925  29.642  28.809  1.00  0.00     0.010 A 
ATOM     34  C   UNL A   1      36.959  30.557  29.057  1.00  0.00    -0.014 A 
BRANCH  34  35
ATOM     35  C   UNL A   1      38.166  30.122  29.802  1.00  0.00     0.031 A 
ATOM     36  C   UNL A   1      38.421  30.630  31.195  1.00  0.00     0.074 A 
ATOM     37  C   UNL A   1      39.063  29.320  29.195  1.00  0.00     0.049 A 
ATOM     38  N   UNL A   1      39.417  30.361  31.997  1.00  0.00    -0.248 NA
ATOM     39  C   UNL A   1      37.447  31.586  31.751  1.00  0.00     0.031 C 
ATOM     40  C   UNL A   1      38.978  28.852  27.808  1.00  0.00     0.029 A 
ATOM     41  N   UNL A   1      40.231  28.771  29.657  1.00  0.00    -0.354 N 
ATOM     42  C   UNL A   1      39.203  31.124  33.138  1.00  0.00     0.074 A 
ATOM     43  C   UNL A   1      38.011  31.909  32.906  1.00  0.00     0.031 C 
ATOM     44  C   UNL A   1      40.040  28.076  27.539  1.00  0.00     0.029 A 
ATOM     45  C   UNL A   1      40.891  28.008  28.722  1.00  0.00     0.049 A 
ATOM     46  H   UNL A   1      40.567  28.910  30.572  1.00  0.00     0.167 HD
ATOM     47  C   UNL A   1      39.910  31.139  34.294  1.00  0.00     0.034 A 
ATOM     48  C   UNL A   1      42.050  27.327  28.812  1.00  0.00     0.034 A 
ATOM     49  C   UNL A   1      41.069  30.325  34.534  1.00  0.00     0.049 A 
ATOM     50  C   UNL A   1      42.779  27.311  30.128  1.00  0.00     0.074 A 
ATOM     51  C   UNL A   1      41.815  30.210  35.694  1.00  0.00     0.029 A 
ATOM     52  N   UNL A   1      41.652  29.484  33.598  1.00  0.00    -0.354 N 
ATOM     53  N   UNL A   1      42.466  27.910  31.252  1.00  0.00    -0.248 NA
ATOM     54  C   UNL A   1      43.996  26.491  30.203  1.00  0.00     0.031 C 
ATOM     55  C   UNL A   1      42.857  29.307  35.454  1.00  0.00     0.029 A 
ATOM     56  C   UNL A   1      42.747  28.846  34.153  1.00  0.00     0.049 A 
ATOM     57  H   UNL A   1      41.333  29.360  32.675  1.00  0.00     0.167 HD
ATOM     58  C   UNL A   1      43.429  27.518  32.173  1.00  0.00     0.074 A 
ATOM     59  C   UNL A   1      44.314  26.600  31.485  1.00  0.00     0.031 C 
ATOM     60  C   UNL A   1      43.585  27.899  33.465  1.00  0.00     0.034 A 
BRANCH  47  61
ATOM     61  C   UNL A   1      39.400  32.007  35.414  1.00  0.00     0.023 A 
ATOM     62  C   UNL A   1      38.502  31.460  36.354  1.00  0.00     0.012 A 
ATOM     63  C   UNL A   1      39.856  33.329  35.582  1.00  0.00     0.148 A 
ATOM     64  C   UNL A   1      38.041  32.223  37.427  1.00  0.00     0.002 A 
ATOM     65  C   UNL A   1      39.426  34.068  36.679  1.00  0.00     0.091 A 
ATOM     66  F   UNL A   1      40.694  33.836  34.669  1.00  0.00    -0.205 F 
ATOM     67  C   UNL A   1      38.512  33.521  37.595  1.00  0.00     0.022 A 
BRANCH  65  68
ATOM     68  S   UNL A   1      40.027  35.724  37.033  1.00  0.00     0.127 S 
ATOM     69  O   UNL A   1      41.466  35.494  37.157  1.00  0.00    -0.237 OA
ATOM     70  O   UNL A   1      39.629  36.457  35.831  1.00  0.00    -0.237 OA
ATOM     71  O   UNL A   1      39.358  36.145  38.255  1.00  0.00    -0.744 OA
ENDBRANCH  65  68
ENDBRANCH  47  61
BRANCH  48  72
ATOM     72  C   UNL A   1      42.558  26.550  27.646  1.00  0.00     0.023 A 
ATOM     73  C   UNL A   1      43.413  27.169  26.713  1.00  0.00     0.012 A 
ATOM     74  C   UNL A   1      42.206  25.200  27.458  1.00  0.00     0.148 A 
ATOM     75  C   UNL A   1      43.872  26.474  25.593  1.00  0.00     0.002 A 
ATOM     76  C   UNL A   1      42.712  24.495  26.372  1.00  0.00     0.091 A 
ATOM     77  F   UNL A   1      41.381  24.628  28.347  1.00  0.00    -0.205 F 
ATOM     78  C   UNL A   1      43.529  25.135  25.427  1.00  0.00     0.022 A 
BRANCH  76  79
ATOM     79  S   UNL A   1      42.428  22.734  26.163  1.00  0.00     0.127 S 
ATOM     80  O   UNL A   1      43.171  22.175  27.289  1.00  0.00    -0.237 OA
ATOM     81  O   UNL A   1      40.971  22.643  26.281  1.00  0.00    -0.237 OA
ATOM     82  O   UNL A   1      42.939  22.415  24.837  1.00  0.00    -0.744 OA
ENDBRANCH  76  79
ENDBRANCH  48  72
BRANCH  60  83
ATOM     83  C   UNL A   1      44.742  27.304  34.225  1.00  0.00     0.023 A 
ATOM     84  C   UNL A   1      45.997  27.945  34.199  1.00  0.00     0.012 A 
ATOM     85  C   UNL A   1      44.573  26.143  35.004  1.00  0.00     0.148 A 
ATOM     86  C   UNL A   1      47.077  27.415  34.901  1.00  0.00     0.002 A 
ATOM     87  C   UNL A   1      45.642  25.650  35.742  1.00  0.00     0.091 A 
ATOM     88  F   UNL A   1      43.377  25.539  35.002  1.00  0.00    -0.205 F 
ATOM     89  C   UNL A   1      46.897  26.275  35.681  1.00  0.00     0.022 A 
BRANCH  87  90
ATOM     90  S   UNL A   1      45.475  24.243  36.847  1.00  0.00     0.127 S 
ATOM     91  O   UNL A   1      44.470  24.724  37.792  1.00  0.00    -0.237 OA
ATOM     92  O   UNL A   1      45.010  23.191  35.943  1.00  0.00    -0.237 OA
ATOM     93  O   UNL A   1      46.802  24.015  37.403  1.00  0.00    -0.744 OA
ENDBRANCH  87  90
ENDBRANCH  60  83
ENDBRANCH  34  35
ENDBRANCH  26  29
ENDBRANCH  24  25
ENDBRANCH  23  24
ENDBRANCH  22  23
ENDBRANCH   1  22
TORSDOF 21
ENDMDL
MODEL 2
REMARK VINA RESULT:      -9.5      2.065      2.802
REMARK SMILES CC[C@@H](NC(=O)[C@H](C)C[NH2+]C)C(=O)NCCCCCCNC(=O)c1ccc(-c2c3nc(c(-c4cccc(S(=O)(=O)[O-])c4F)c4ccc([nH]4)c(-c4cccc(S(=O)(=O)[O-])c4F)c4nc(c(-c5cccc(S(=O)(=O)[O-])c5F)c5ccc2[nH]5)C=C4)C=C3)cc1
REMARK SMILES IDX 17 1 16 2 15 3 14 4 12 5 13 6 3 8 2 9 1 10 4 11 5 12 6 14
REMARK SMILES IDX 7 15 8 16 9 17 10 18 11 19 18 22 19 23 20 24 21 25 22 26
REMARK SMILES IDX 23 28 24 29 25 30 86 31 26 32 85 33 27 34 28 35 29 36 79 37
REMARK SMILES IDX 30 38 84 39 78 40 80 41 31 42 83 43 77 44 76 45 32 47 64 48
REMARK SMILES IDX 44 49 63 50 45 51 48 52 62 53 81 54 46 55 47 56 61 58 82 59
REMARK SMILES IDX 49 60 33 61 34 62 42 63 35 64 37 65 43 66 36 67 38 68 39 69
REMARK SMILES IDX 40 70 41 71 65 72 66 73 74 74 67 75 69 76 75 77 68 78 70 79
REMARK SMILES IDX 71 80 72 81 73 82 50 83 51 84 59 85 52 86 54 87 60 88 53 89
REMARK SMILES IDX 55 90 56 91 57 92 58 93
REMARK H PARENT 14 7 4 13 10 20 10 21 21 27 80 46 48 57
REMARK Flexibility Score: inf
ROOT
ATOM      1  C   UNL A   1      33.059  26.115  23.598  1.00  0.00     0.002 C 
ENDROOT
BRANCH   1   2
ATOM      2  C   UNL A   1      34.014  24.993  23.179  1.00  0.00     0.021 C 
BRANCH   2   3
ATOM      3  C   UNL A   1      33.765  23.672  23.897  1.00  0.00     0.116 C 
BRANCH   3   4
ATOM      4  N   UNL A   1      34.981  23.173  24.530  1.00  0.00    -0.354 N 
ATOM      5  C   UNL A   1      35.237  21.950  25.080  1.00  0.00     0.242 C 
ATOM      6  O   UNL A   1      36.365  21.749  25.537  1.00  0.00    -0.273 OA
ATOM      7  H   UNL A   1      35.727  23.813  24.567  1.00  0.00     0.163 HD
BRANCH   5   8
ATOM      8  C   UNL A   1      34.102  20.929  25.288  1.00  0.00     0.171 C 
BRANCH   8   9
ATOM      9  C   UNL A   1      33.136  21.609  26.294  1.00  0.00     0.031 C 
ATOM     10  C   UNL A   1      33.676  21.902  27.682  1.00  0.00     0.006 C 
ENDBRANCH   8   9
BRANCH   8  11
ATOM     11  N   UNL A   1      33.463  20.498  24.039  1.00  0.00    -0.344 N 
ATOM     12  C   UNL A   1      32.854  19.330  23.686  1.00  0.00     0.229 C 
ATOM     13  H   UNL A   1      33.477  21.177  23.326  1.00  0.00     0.164 HD
ATOM     14  O   UNL A   1      32.153  19.376  22.670  1.00  0.00    -0.275 OA
BRANCH  12  15
ATOM     15  C   UNL A   1      33.064  17.984  24.393  1.00  0.00     0.130 C 
ATOM     16  C   UNL A   1      32.533  17.943  25.819  1.00  0.00     0.024 C 
BRANCH  15  17
ATOM     17  C   UNL A   1      34.517  17.513  24.202  1.00  0.00     0.273 C 
BRANCH  17  18
ATOM     18  N   UNL A   1      35.186  16.949  25.382  1.00  0.00    -0.348 N 
ATOM     19  C   UNL A   1      35.454  15.524  25.179  1.00  0.00     0.330 C 
ATOM     20  H   UNL A   1      34.585  17.066  26.199  1.00  0.00     0.346 HD
ATOM     21  H   UNL A   1      36.070  17.436  25.529  1.00  0.00     0.346 HD
ENDBRANCH  17  18
ENDBRANCH  15  17
ENDBRANCH  12  15
ENDBRANCH   8  11
ENDBRANCH   5   8
ENDBRANCH   3   4
ENDBRANCH   2   3
ENDBRANCH   1   2
BRANCH   1  22
ATOM     22  C   UNL A   1      33.368  26.753  24.954  1.00  0.00     0.002 C 
BRANCH  22  23
ATOM     23  C   UNL A   1      33.799  28.217  24.913  1.00  0.00     0.021 C 
BRANCH  23  24
ATOM     24  C   UNL A   1      34.454  28.717  26.192  1.00  0.00     0.116 C 
BRANCH  24  25
ATOM     25  N   UNL A   1      33.935  30.004  26.635  1.00  0.00    -0.352 N 
ATOM     26  C   UNL A   1      34.453  30.845  27.588  1.00  0.00     0.251 C 
ATOM     27  H   UNL A   1      33.109  30.310  26.195  1.00  0.00     0.163 HD
ATOM     28  O   UNL A   1      33.849  31.862  27.920  1.00  0.00    -0.269 OA
BRANCH  26  29
ATOM     29  C   UNL A   1      35.728  30.482  28.235  1.00  0.00     0.039 A 
ATOM     30  C   UNL A   1      35.694  29.727  29.407  1.00  0.00     0.014 A 
ATOM     31  C   UNL A   1      36.947  30.826  27.643  1.00  0.00     0.014 A 
ATOM     32  C   UNL A   1      36.889  29.259  29.952  1.00  0.00     0.010 A 
ATOM     33  C   UNL A   1      38.127  30.287  28.138  1.00  0.00     0.010 A 
ATOM     34  C   UNL A   1      38.111  29.502  29.300  1.00  0.00    -0.014 A 
BRANCH  34  35
ATOM     35  C   UNL A   1      39.376  28.926  29.819  1.00  0.00     0.031 A 
ATOM     36  C   UNL A   1      40.036  29.516  31.035  1.00  0.00     0.074 A 
ATOM     37  C   UNL A   1      39.960  27.910  29.153  1.00  0.00     0.049 A 
ATOM     38  N   UNL A   1      41.139  29.147  31.631  1.00  0.00    -0.248 NA
ATOM     39  C   UNL A   1      39.391  30.692  31.647  1.00  0.00     0.031 C 
ATOM     40  C   UNL A   1      39.471  27.326  27.901  1.00  0.00     0.029 A 
ATOM     41  N   UNL A   1      41.101  27.200  29.424  1.00  0.00    -0.354 N 
ATOM     42  C   UNL A   1      41.331  30.050  32.670  1.00  0.00     0.074 A 
ATOM     43  C   UNL A   1      40.260  31.019  32.592  1.00  0.00     0.031 C 
ATOM     44  C   UNL A   1      40.299  26.340  27.521  1.00  0.00     0.029 A 
ATOM     45  C   UNL A   1      41.387  26.233  28.487  1.00  0.00     0.049 A 
ATOM     46  H   UNL A   1      41.665  27.366  30.214  1.00  0.00     0.167 HD
ATOM     47  C   UNL A   1      42.287  30.050  33.629  1.00  0.00     0.034 A 
ATOM     48  C   UNL A   1      42.409  25.358  28.420  1.00  0.00     0.034 A 
ATOM     49  C   UNL A   1      43.324  29.060  33.726  1.00  0.00     0.049 A 
ATOM     50  C   UNL A   1      43.419  25.340  29.534  1.00  0.00     0.074 A 
ATOM     51  C   UNL A   1      44.298  28.926  34.699  1.00  0.00     0.029 A 
ATOM     52  N   UNL A   1      43.522  28.032  32.816  1.00  0.00    -0.354 N 
ATOM     53  N   UNL A   1      43.486  26.100  30.601  1.00  0.00    -0.248 NA
ATOM     54  C   UNL A   1      44.471  24.316  29.460  1.00  0.00     0.031 C 
ATOM     55  C   UNL A   1      45.093  27.822  34.371  1.00  0.00     0.029 A 
ATOM     56  C   UNL A   1      44.601  27.258  33.205  1.00  0.00     0.049 A 
ATOM     57  H   UNL A   1      42.975  27.876  32.012  1.00  0.00     0.167 HD
ATOM     58  C   UNL A   1      44.566  25.628  31.336  1.00  0.00     0.074 A 
ATOM     59  C   UNL A   1      45.101  24.494  30.612  1.00  0.00     0.031 C 
ATOM     60  C   UNL A   1      45.087  26.104  32.495  1.00  0.00     0.034 A 
BRANCH  47  61
ATOM     61  C   UNL A   1      42.207  31.109  34.697  1.00  0.00     0.023 A 
ATOM     62  C   UNL A   1      41.570  30.808  35.918  1.00  0.00     0.012 A 
ATOM     63  C   UNL A   1      42.816  32.368  34.527  1.00  0.00     0.148 A 
ATOM     64  C   UNL A   1      41.513  31.752  36.943  1.00  0.00     0.002 A 
ATOM     65  C   UNL A   1      42.794  33.287  35.570  1.00  0.00     0.091 A 
ATOM     66  F   UNL A   1      43.401  32.641  33.353  1.00  0.00    -0.205 F 
ATOM     67  C   UNL A   1      42.134  32.985  36.774  1.00  0.00     0.022 A 
BRANCH  65  68
ATOM     68  S   UNL A   1      43.627  34.876  35.485  1.00  0.00     0.127 S 
ATOM     69  O   UNL A   1      42.664  35.750  36.154  1.00  0.00    -0.237 OA
ATOM     70  O   UNL A   1      44.850  34.621  36.248  1.00  0.00    -0.237 OA
ATOM     71  O   UNL A   1      43.835  35.149  34.070  1.00  0.00    -0.744 OA
ENDBRANCH  65  68
ENDBRANCH  47  61
BRANCH  48  72
ATOM     72  C   UNL A   1      42.490  24.383  27.295  1.00  0.00     0.023 A 
ATOM     73  C   UNL A   1      43.204  24.721  26.129  1.00  0.00     0.012 A 
ATOM     74  C   UNL A   1      41.872  23.121  27.377  1.00  0.00     0.148 A 
ATOM     75  C   UNL A   1      43.263  23.840  25.048  1.00  0.00     0.002 A 
ATOM     76  C   UNL A   1      41.984  22.224  26.320  1.00  0.00     0.091 A 
ATOM     77  F   UNL A   1      41.185  22.819  28.488  1.00  0.00    -0.205 F 
ATOM     78  C   UNL A   1      42.661  22.589  25.147  1.00  0.00     0.022 A 
BRANCH  76  79
ATOM     79  S   UNL A   1      41.353  20.545  26.425  1.00  0.00     0.127 S 
ATOM     80  O   UNL A   1      42.110  19.875  25.372  1.00  0.00    -0.237 OA
ATOM     81  O   UNL A   1      41.724  20.164  27.789  1.00  0.00    -0.237 OA
ATOM     82  O   UNL A   1      39.917  20.659  26.207  1.00  0.00    -0.744 OA
ENDBRANCH  76  79
ENDBRANCH  48  72
BRANCH  60  83
ATOM     83  C   UNL A   1      46.281  25.382  33.063  1.00  0.00     0.023 A 
ATOM     84  C   UNL A   1      47.580  25.843  32.766  1.00  0.00     0.012 A 
ATOM     85  C   UNL A   1      46.116  24.284  33.927  1.00  0.00     0.148 A 
ATOM     86  C   UNL A   1      48.697  25.193  33.287  1.00  0.00     0.002 A 
ATOM     87  C   UNL A   1      47.234  23.673  34.484  1.00  0.00     0.091 A 
ATOM     88  F   UNL A   1      44.874  23.850  34.184  1.00  0.00    -0.205 F 
ATOM     89  C   UNL A   1      48.524  24.116  34.153  1.00  0.00     0.022 A 
BRANCH  87  90
ATOM     90  S   UNL A   1      47.102  22.343  35.683  1.00  0.00     0.127 S 
ATOM     91  O   UNL A   1      45.999  22.806  36.522  1.00  0.00    -0.237 OA
ATOM     92  O   UNL A   1      46.784  21.191  34.837  1.00  0.00    -0.237 OA
ATOM     93  O   UNL A   1      48.401  22.267  36.338  1.00  0.00    -0.744 OA
ENDBRANCH  87  90
ENDBRANCH  60  83
ENDBRANCH  34  35
ENDBRANCH  26  29
ENDBRANCH  24  25
ENDBRANCH  23  24
ENDBRANCH  22  23
ENDBRANCH   1  22
TORSDOF 21
ENDMDL
MODEL 3
REMARK VINA RESULT:      -9.3      1.051      7.981
REMARK SMILES CC[C@@H](NC(=O)[C@H](C)C[NH2+]C)C(=O)NCCCCCCNC(=O)c1ccc(-c2c3nc(c(-c4cccc(S(=O)(=O)[O-])c4F)c4ccc([nH]4)c(-c4cccc(S(=O)(=O)[O-])c4F)c4nc(c(-c5cccc(S(=O)(=O)[O-])c5F)c5ccc2[nH]5)C=C4)C=C3)cc1
REMARK SMILES IDX 17 1 16 2 15 3 14 4 12 5 13 6 3 8 2 9 1 10 4 11 5 12 6 14
REMARK SMILES IDX 7 15 8 16 9 17 10 18 11 19 18 22 19 23 20 24 21 25 22 26
REMARK SMILES IDX 23 28 24 29 25 30 86 31 26 32 85 33 27 34 28 35 29 36 79 37
REMARK SMILES IDX 30 38 84 39 78 40 80 41 31 42 83 43 77 44 76 45 32 47 64 48
REMARK SMILES IDX 44 49 63 50 45 51 48 52 62 53 81 54 46 55 47 56 61 58 82 59
REMARK SMILES IDX 49 60 33 61 34 62 42 63 35 64 37 65 43 66 36 67 38 68 39 69
REMARK SMILES IDX 40 70 41 71 65 72 66 73 74 74 67 75 69 76 75 77 68 78 70 79
REMARK SMILES IDX 71 80 72 81 73 82 50 83 51 84 59 85 52 86 54 87 60 88 53 89
REMARK SMILES IDX 55 90 56 91 57 92 58 93
REMARK H PARENT 14 7 4 13 10 20 10 21 21 27 80 46 48 57
REMARK Flexibility Score: inf
ROOT
ATOM      1  C   UNL A   1      32.608  26.469  25.531  1.00  0.00     0.002 C 
ENDROOT
BRANCH   1   2
ATOM      2  C   UNL A   1      33.848  25.957  24.791  1.00  0.00     0.021 C 
BRANCH   2   3
ATOM      3  C   UNL A   1      33.997  24.440  24.816  1.00  0.00     0.116 C 
BRANCH   3   4
ATOM      4  N   UNL A   1      35.175  24.009  24.072  1.00  0.00    -0.354 N 
ATOM      5  C   UNL A   1      35.648  22.749  23.846  1.00  0.00     0.242 C 
ATOM      6  O   UNL A   1      36.662  22.630  23.152  1.00  0.00    -0.273 OA
ATOM      7  H   UNL A   1      35.708  24.734  23.675  1.00  0.00     0.163 HD
BRANCH   5   8
ATOM      8  C   UNL A   1      35.044  21.539  24.583  1.00  0.00     0.171 C 
BRANCH   8   9
ATOM      9  C   UNL A   1      35.675  21.581  25.999  1.00  0.00     0.031 C 
ATOM     10  C   UNL A   1      34.736  21.814  27.169  1.00  0.00     0.006 C 
ENDBRANCH   8   9
BRANCH   8  11
ATOM     11  N   UNL A   1      33.577  21.521  24.579  1.00  0.00    -0.344 N 
ATOM     12  C   UNL A   1      32.680  20.494  24.540  1.00  0.00     0.229 C 
ATOM     13  H   UNL A   1      33.164  22.415  24.612  1.00  0.00     0.164 HD
ATOM     14  O   UNL A   1      31.519  20.782  24.849  1.00  0.00    -0.275 OA
BRANCH  12  15
ATOM     15  C   UNL A   1      32.996  19.073  24.051  1.00  0.00     0.130 C 
ATOM     16  C   UNL A   1      32.255  18.674  22.783  1.00  0.00     0.024 C 
BRANCH  15  17
ATOM     17  C   UNL A   1      32.902  18.083  25.226  1.00  0.00     0.273 C 
BRANCH  17  18
ATOM     18  N   UNL A   1      32.154  16.843  24.982  1.00  0.00    -0.348 N 
ATOM     19  C   UNL A   1      32.980  15.681  25.315  1.00  0.00     0.330 C 
ATOM     20  H   UNL A   1      31.888  16.797  23.998  1.00  0.00     0.346 HD
ATOM     21  H   UNL A   1      31.319  16.836  25.568  1.00  0.00     0.346 HD
ENDBRANCH  17  18
ENDBRANCH  15  17
ENDBRANCH  12  15
ENDBRANCH   8  11
ENDBRANCH   5   8
ENDBRANCH   3   4
ENDBRANCH   2   3
ENDBRANCH   1   2
BRANCH   1  22
ATOM     22  C   UNL A   1      31.849  27.592  24.819  1.00  0.00     0.002 C 
BRANCH  22  23
ATOM     23  C   UNL A   1      31.542  28.823  25.668  1.00  0.00     0.021 C 
BRANCH  23  24
ATOM     24  C   UNL A   1      32.769  29.613  26.100  1.00  0.00     0.116 C 
BRANCH  24  25
ATOM     25  N   UNL A   1      32.465  30.992  26.456  1.00  0.00    -0.352 N 
ATOM     26  C   UNL A   1      33.198  31.846  27.242  1.00  0.00     0.251 C 
ATOM     27  H   UNL A   1      31.629  31.358  26.088  1.00  0.00     0.163 HD
ATOM     28  O   UNL A   1      32.764  32.958  27.530  1.00  0.00    -0.269 OA
BRANCH  26  29
ATOM     29  C   UNL A   1      34.497  31.386  27.768  1.00  0.00     0.039 A 
ATOM     30  C   UNL A   1      35.569  32.278  27.782  1.00  0.00     0.014 A 
ATOM     31  C   UNL A   1      34.628  30.104  28.311  1.00  0.00     0.014 A 
ATOM     32  C   UNL A   1      36.760  31.903  28.403  1.00  0.00     0.010 A 
ATOM     33  C   UNL A   1      35.783  29.767  29.004  1.00  0.00     0.010 A 
ATOM     34  C   UNL A   1      36.863  30.660  29.053  1.00  0.00    -0.014 A 
BRANCH  34  35
ATOM     35  C   UNL A   1      38.091  30.293  29.799  1.00  0.00     0.031 A 
ATOM     36  C   UNL A   1      39.081  29.329  29.204  1.00  0.00     0.074 A 
ATOM     37  C   UNL A   1      38.279  30.782  31.041  1.00  0.00     0.049 A 
ATOM     38  N   UNL A   1      40.206  28.894  29.707  1.00  0.00    -0.248 NA
ATOM     39  C   UNL A   1      38.754  28.757  27.887  1.00  0.00     0.031 C 
ATOM     40  C   UNL A   1      37.336  31.639  31.766  1.00  0.00     0.029 A 
ATOM     41  N   UNL A   1      39.316  30.616  31.922  1.00  0.00    -0.354 N 
ATOM     42  C   UNL A   1      40.710  27.987  28.782  1.00  0.00     0.074 A 
ATOM     43  C   UNL A   1      39.743  27.892  27.711  1.00  0.00     0.031 C 
ATOM     44  C   UNL A   1      37.844  31.933  32.973  1.00  0.00     0.029 A 
ATOM     45  C   UNL A   1      39.137  31.272  33.118  1.00  0.00     0.049 A 
ATOM     46  H   UNL A   1      40.115  30.077  31.718  1.00  0.00     0.167 HD
ATOM     47  C   UNL A   1      41.890  27.324  28.800  1.00  0.00     0.034 A 
ATOM     48  C   UNL A   1      39.928  31.334  34.207  1.00  0.00     0.034 A 
ATOM     49  C   UNL A   1      42.867  27.455  29.846  1.00  0.00     0.049 A 
ATOM     50  C   UNL A   1      41.263  30.640  34.171  1.00  0.00     0.074 A 
ATOM     51  C   UNL A   1      44.125  26.885  29.926  1.00  0.00     0.029 A 
ATOM     52  N   UNL A   1      42.695  28.210  30.997  1.00  0.00    -0.354 N 
ATOM     53  N   UNL A   1      41.793  29.920  33.212  1.00  0.00    -0.248 NA
ATOM     54  C   UNL A   1      42.127  30.802  35.348  1.00  0.00     0.031 C 
ATOM     55  C   UNL A   1      44.710  27.287  31.133  1.00  0.00     0.029 A 
ATOM     56  C   UNL A   1      43.824  28.123  31.793  1.00  0.00     0.049 A 
ATOM     57  H   UNL A   1      41.888  28.731  31.215  1.00  0.00     0.167 HD
ATOM     58  C   UNL A   1      43.061  29.568  33.658  1.00  0.00     0.074 A 
ATOM     59  C   UNL A   1      43.232  30.185  34.957  1.00  0.00     0.031 C 
ATOM     60  C   UNL A   1      43.993  28.784  33.059  1.00  0.00     0.034 A 
BRANCH  47  61
ATOM     61  C   UNL A   1      42.226  26.459  27.613  1.00  0.00     0.023 A 
ATOM     62  C   UNL A   1      42.688  27.067  26.427  1.00  0.00     0.012 A 
ATOM     63  C   UNL A   1      42.154  25.055  27.687  1.00  0.00     0.148 A 
ATOM     64  C   UNL A   1      43.045  26.294  25.323  1.00  0.00     0.002 A 
ATOM     65  C   UNL A   1      42.555  24.289  26.597  1.00  0.00     0.091 A 
ATOM     66  F   UNL A   1      41.696  24.497  28.816  1.00  0.00    -0.205 F 
ATOM     67  C   UNL A   1      42.989  24.907  25.412  1.00  0.00     0.022 A 
BRANCH  65  68
ATOM     68  S   UNL A   1      42.594  22.494  26.631  1.00  0.00     0.127 S 
ATOM     69  O   UNL A   1      42.394  22.221  28.053  1.00  0.00    -0.237 OA
ATOM     70  O   UNL A   1      41.457  22.147  25.777  1.00  0.00    -0.237 OA
ATOM     71  O   UNL A   1      43.895  22.107  26.102  1.00  0.00    -0.744 OA
ENDBRANCH  65  68
ENDBRANCH  47  61
BRANCH  48  72
ATOM     72  C   UNL A   1      39.514  32.136  35.393  1.00  0.00     0.023 A 
ATOM     73  C   UNL A   1      38.630  31.579  36.337  1.00  0.00     0.012 A 
ATOM     74  C   UNL A   1      39.994  33.444  35.594  1.00  0.00     0.148 A 
ATOM     75  C   UNL A   1      38.198  32.324  37.436  1.00  0.00     0.002 A 
ATOM     76  C   UNL A   1      39.606  34.159  36.721  1.00  0.00     0.091 A 
ATOM     77  F   UNL A   1      40.824  33.965  34.680  1.00  0.00    -0.205 F 
ATOM     78  C   UNL A   1      38.692  33.610  37.633  1.00  0.00     0.022 A 
BRANCH  76  79
ATOM     79  S   UNL A   1      40.304  35.767  37.116  1.00  0.00     0.127 S 
ATOM     80  O   UNL A   1      39.868  35.952  38.497  1.00  0.00    -0.237 OA
ATOM     81  O   UNL A   1      41.739  35.527  36.950  1.00  0.00    -0.237 OA
ATOM     82  O   UNL A   1      39.736  36.685  36.137  1.00  0.00    -0.744 OA
ENDBRANCH  76  79
ENDBRANCH  48  72
BRANCH  60  83
ATOM     83  C   UNL A   1      45.290  28.571  33.795  1.00  0.00     0.023 A 
ATOM     84  C   UNL A   1      46.380  29.430  33.549  1.00  0.00     0.012 A 
ATOM     85  C   UNL A   1      45.412  27.556  34.763  1.00  0.00     0.148 A 
ATOM     86  C   UNL A   1      47.586  29.254  34.225  1.00  0.00     0.002 A 
ATOM     87  C   UNL A   1      46.601  27.419  35.469  1.00  0.00     0.091 A 
ATOM     88  F   UNL A   1      44.370  26.739  34.969  1.00  0.00    -0.205 F 
ATOM     89  C   UNL A   1      47.693  28.256  35.191  1.00  0.00     0.022 A 
BRANCH  87  90
ATOM     90  S   UNL A   1      46.795  26.225  36.797  1.00  0.00     0.127 S 
ATOM     91  O   UNL A   1      45.740  26.633  37.721  1.00  0.00    -0.237 OA
ATOM     92  O   UNL A   1      46.549  24.955  36.111  1.00  0.00    -0.237 OA
ATOM     93  O   UNL A   1      48.157  26.391  37.285  1.00  0.00    -0.744 OA
ENDBRANCH  87  90
ENDBRANCH  60  83
ENDBRANCH  34  35
ENDBRANCH  26  29
ENDBRANCH  24  25
ENDBRANCH  23  24
ENDBRANCH  22  23
ENDBRANCH   1  22
TORSDOF 21
ENDMDL
