MODEL 1
REMARK VINA RESULT:     -10.4      0.000      0.000
REMARK SMILES CCCC[C@H](C(=O)NCCCCCCNC(=O)c1ccc(-c2c3nc(c(-c4cccc(S(=O)(=O)[O-])c4F)c4ccc([nH]4)c(-c4cccc(S(=O)(=O)[O-])c4F)c4nc(c(-c5cccc(S(=O)(=O)[O-])c5F)c5ccc2[nH]5)C=C4)C=C3)cc1)[C@](C)(O)c1ccc(Cl)c(Cl)c1
REMARK SMILES IDX 11 1 10 2 9 3 8 4 6 5 7 6 5 8 4 9 3 10 2 11 1 12 81 13 82 14
REMARK SMILES IDX 83 15 84 17 85 18 91 19 86 20 89 21 87 22 90 23 88 24 12 25
REMARK SMILES IDX 13 26 14 27 15 28 16 29 17 31 18 32 19 33 80 34 20 35 79 36
REMARK SMILES IDX 21 37 22 38 23 39 73 40 24 41 78 42 72 43 74 44 25 45 77 46
REMARK SMILES IDX 71 47 70 48 26 50 58 51 38 52 57 53 39 54 42 55 56 56 75 57
REMARK SMILES IDX 40 58 41 59 55 61 76 62 43 63 27 64 28 65 36 66 29 67 31 68
REMARK SMILES IDX 37 69 30 70 32 71 33 72 34 73 35 74 59 75 60 76 68 77 61 78
REMARK SMILES IDX 63 79 69 80 62 81 64 82 65 83 66 84 67 85 44 86 45 87 53 88
REMARK SMILES IDX 46 89 48 90 54 91 47 92 49 93 50 94 51 95 52 96
REMARK H PARENT 8 7 83 16 15 30 74 49 42 60
REMARK Flexibility Score: inf
ROOT
ATOM      1  C   UNL A   1      34.981  19.684  24.900  1.00  0.00     0.002 C 
ENDROOT
BRANCH   1   2
ATOM      2  C   UNL A   1      33.837  20.382  25.642  1.00  0.00     0.021 C 
BRANCH   2   3
ATOM      3  C   UNL A   1      32.521  20.435  24.867  1.00  0.00     0.116 C 
BRANCH   3   4
ATOM      4  N   UNL A   1      32.640  21.274  23.694  1.00  0.00    -0.356 N 
ATOM      5  C   UNL A   1      32.846  22.613  23.587  1.00  0.00     0.226 C 
ATOM      6  O   UNL A   1      32.800  23.095  22.453  1.00  0.00    -0.275 OA
ATOM      7  H   UNL A   1      32.559  20.799  22.836  1.00  0.00     0.163 HD
BRANCH   5   8
ATOM      8  C   UNL A   1      33.143  23.463  24.829  1.00  0.00     0.114 C 
BRANCH   8   9
ATOM      9  C   UNL A   1      34.210  24.523  24.442  1.00  0.00     0.017 C 
BRANCH   9  10
ATOM     10  C   UNL A   1      35.391  24.578  25.435  1.00  0.00     0.001 C 
BRANCH  10  11
ATOM     11  C   UNL A   1      36.590  23.670  25.150  1.00  0.00    -0.003 C 
ATOM     12  C   UNL A   1      37.693  23.768  26.192  1.00  0.00     0.004 C 
ENDBRANCH  10  11
ENDBRANCH   9  10
ENDBRANCH   8   9
BRANCH   8  13
ATOM     13  C   UNL A   1      31.834  24.023  25.501  1.00  0.00     0.098 C 
ATOM     14  C   UNL A   1      31.732  23.557  26.974  1.00  0.00     0.048 C 
BRANCH  13  15
ATOM     15  O   UNL A   1      30.701  23.382  24.872  1.00  0.00    -0.385 OA
ATOM     16  H   UNL A   1      30.368  23.944  24.156  1.00  0.00     0.211 HD
ENDBRANCH  13  15
BRANCH  13  17
ATOM     17  C   UNL A   1      31.582  25.526  25.326  1.00  0.00    -0.014 A 
ATOM     18  C   UNL A   1      30.930  26.002  24.169  1.00  0.00     0.008 A 
ATOM     19  C   UNL A   1      31.934  26.484  26.291  1.00  0.00     0.028 A 
ATOM     20  C   UNL A   1      30.699  27.363  23.951  1.00  0.00     0.022 A 
ATOM     21  C   UNL A   1      31.674  27.851  26.095  1.00  0.00     0.060 A 
ATOM     22  C   UNL A   1      31.073  28.293  24.914  1.00  0.00     0.059 A 
ATOM     23  Cl  UNL A   1      32.115  28.940  27.365  1.00  0.00    -0.083 Cl
ATOM     24  Cl  UNL A   1      30.761  29.960  24.591  1.00  0.00    -0.083 Cl
ENDBRANCH  13  17
ENDBRANCH   8  13
ENDBRANCH   5   8
ENDBRANCH   3   4
ENDBRANCH   2   3
ENDBRANCH   1   2
BRANCH   1  25
ATOM     25  C   UNL A   1      36.323  20.418  24.946  1.00  0.00     0.002 C 
BRANCH  25  26
ATOM     26  C   UNL A   1      37.553  19.510  25.006  1.00  0.00     0.021 C 
BRANCH  26  27
ATOM     27  C   UNL A   1      38.838  20.209  25.435  1.00  0.00     0.116 C 
BRANCH  27  28
ATOM     28  N   UNL A   1      39.864  19.260  25.834  1.00  0.00    -0.352 N 
ATOM     29  C   UNL A   1      41.157  19.503  26.217  1.00  0.00     0.251 C 
ATOM     30  H   UNL A   1      39.594  18.313  25.829  1.00  0.00     0.163 HD
ATOM     31  O   UNL A   1      41.949  18.566  26.325  1.00  0.00    -0.269 OA
BRANCH  29  32
ATOM     32  C   UNL A   1      41.601  20.886  26.488  1.00  0.00     0.039 A 
ATOM     33  C   UNL A   1      41.836  21.273  27.810  1.00  0.00     0.014 A 
ATOM     34  C   UNL A   1      41.767  21.805  25.448  1.00  0.00     0.014 A 
ATOM     35  C   UNL A   1      42.266  22.573  28.084  1.00  0.00     0.010 A 
ATOM     36  C   UNL A   1      42.272  23.075  25.716  1.00  0.00     0.010 A 
ATOM     37  C   UNL A   1      42.503  23.481  27.038  1.00  0.00    -0.014 A 
BRANCH  37  38
ATOM     38  C   UNL A   1      42.962  24.866  27.314  1.00  0.00     0.031 A 
ATOM     39  C   UNL A   1      42.015  25.866  27.925  1.00  0.00     0.074 A 
ATOM     40  C   UNL A   1      44.206  25.243  26.960  1.00  0.00     0.049 A 
ATOM     41  N   UNL A   1      42.219  27.126  28.211  1.00  0.00    -0.248 NA
ATOM     42  C   UNL A   1      40.652  25.399  28.232  1.00  0.00     0.031 C 
ATOM     43  C   UNL A   1      45.192  24.390  26.293  1.00  0.00     0.029 A 
ATOM     44  N   UNL A   1      44.849  26.448  27.094  1.00  0.00    -0.354 N 
ATOM     45  C   UNL A   1      41.008  27.608  28.695  1.00  0.00     0.074 A 
ATOM     46  C   UNL A   1      40.063  26.516  28.627  1.00  0.00     0.031 C 
ATOM     47  C   UNL A   1      46.316  25.095  26.085  1.00  0.00     0.029 A 
ATOM     48  C   UNL A   1      46.123  26.455  26.577  1.00  0.00     0.049 A 
ATOM     49  H   UNL A   1      44.437  27.234  27.520  1.00  0.00     0.167 HD
ATOM     50  C   UNL A   1      40.716  28.836  29.185  1.00  0.00     0.034 A 
ATOM     51  C   UNL A   1      47.033  27.446  26.506  1.00  0.00     0.034 A 
ATOM     52  C   UNL A   1      41.671  29.906  29.294  1.00  0.00     0.049 A 
ATOM     53  C   UNL A   1      46.697  28.789  27.101  1.00  0.00     0.074 A 
ATOM     54  C   UNL A   1      41.496  31.162  29.844  1.00  0.00     0.029 A 
ATOM     55  N   UNL A   1      42.979  29.845  28.843  1.00  0.00    -0.354 N 
ATOM     56  N   UNL A   1      45.593  29.179  27.688  1.00  0.00    -0.248 NA
ATOM     57  C   UNL A   1      47.750  29.814  27.061  1.00  0.00     0.031 C 
ATOM     58  C   UNL A   1      42.694  31.871  29.706  1.00  0.00     0.029 A 
ATOM     59  C   UNL A   1      43.625  31.042  29.100  1.00  0.00     0.049 A 
ATOM     60  H   UNL A   1      43.390  29.066  28.403  1.00  0.00     0.167 HD
ATOM     61  C   UNL A   1      45.833  30.475  28.130  1.00  0.00     0.074 A 
ATOM     62  C   UNL A   1      47.195  30.796  27.756  1.00  0.00     0.031 C 
ATOM     63  C   UNL A   1      44.999  31.326  28.777  1.00  0.00     0.034 A 
BRANCH  50  64
ATOM     64  C   UNL A   1      39.317  29.074  29.693  1.00  0.00     0.023 A 
ATOM     65  C   UNL A   1      38.967  28.658  30.994  1.00  0.00     0.012 A 
ATOM     66  C   UNL A   1      38.367  29.760  28.909  1.00  0.00     0.148 A 
ATOM     67  C   UNL A   1      37.687  28.888  31.495  1.00  0.00     0.002 A 
ATOM     68  C   UNL A   1      37.107  30.027  29.433  1.00  0.00     0.091 A 
ATOM     69  F   UNL A   1      38.709  30.130  27.667  1.00  0.00    -0.205 F 
ATOM     70  C   UNL A   1      36.761  29.581  30.719  1.00  0.00     0.022 A 
BRANCH  68  71
ATOM     71  S   UNL A   1      35.871  30.985  28.548  1.00  0.00     0.127 S 
ATOM     72  O   UNL A   1      36.658  32.130  28.092  1.00  0.00    -0.237 OA
ATOM     73  O   UNL A   1      35.467  30.060  27.489  1.00  0.00    -0.237 OA
ATOM     74  O   UNL A   1      34.830  31.292  29.518  1.00  0.00    -0.744 OA
ENDBRANCH  68  71
ENDBRANCH  50  64
BRANCH  51  75
ATOM     75  C   UNL A   1      48.377  27.189  25.914  1.00  0.00     0.023 A 
ATOM     76  C   UNL A   1      49.410  26.689  26.732  1.00  0.00     0.012 A 
ATOM     77  C   UNL A   1      48.634  27.423  24.550  1.00  0.00     0.148 A 
ATOM     78  C   UNL A   1      50.685  26.467  26.211  1.00  0.00     0.002 A 
ATOM     79  C   UNL A   1      49.891  27.146  24.025  1.00  0.00     0.091 A 
ATOM     80  F   UNL A   1      47.641  27.907  23.791  1.00  0.00    -0.205 F 
ATOM     81  C   UNL A   1      50.923  26.687  24.858  1.00  0.00     0.022 A 
BRANCH  79  82
ATOM     82  S   UNL A   1      50.249  27.275  22.269  1.00  0.00     0.127 S 
ATOM     83  O   UNL A   1      49.216  26.422  21.689  1.00  0.00    -0.237 OA
ATOM     84  O   UNL A   1      50.073  28.708  22.030  1.00  0.00    -0.237 OA
ATOM     85  O   UNL A   1      51.620  26.807  22.114  1.00  0.00    -0.744 OA
ENDBRANCH  79  82
ENDBRANCH  51  75
BRANCH  63  86
ATOM     86  C   UNL A   1      45.547  32.670  29.181  1.00  0.00     0.023 A 
ATOM     87  C   UNL A   1      46.196  32.825  30.422  1.00  0.00     0.012 A 
ATOM     88  C   UNL A   1      45.475  33.764  28.296  1.00  0.00     0.148 A 
ATOM     89  C   UNL A   1      46.730  34.059  30.792  1.00  0.00     0.002 A 
ATOM     90  C   UNL A   1      46.057  34.976  28.650  1.00  0.00     0.091 A 
ATOM     91  F   UNL A   1      44.837  33.602  27.128  1.00  0.00    -0.205 F 
ATOM     92  C   UNL A   1      46.672  35.129  29.902  1.00  0.00     0.022 A 
BRANCH  90  93
ATOM     93  S   UNL A   1      46.116  36.375  27.524  1.00  0.00     0.127 S 
ATOM     94  O   UNL A   1      46.588  35.745  26.292  1.00  0.00    -0.237 OA
ATOM     95  O   UNL A   1      44.718  36.807  27.492  1.00  0.00    -0.237 OA
ATOM     96  O   UNL A   1      47.029  37.336  28.128  1.00  0.00    -0.744 OA
ENDBRANCH  90  93
ENDBRANCH  63  86
ENDBRANCH  37  38
ENDBRANCH  29  32
ENDBRANCH  27  28
ENDBRANCH  26  27
ENDBRANCH  25  26
ENDBRANCH   1  25
TORSDOF 22
ENDMDL
MODEL 2
REMARK VINA RESULT:     -10.4      0.874      7.491
REMARK SMILES CCCC[C@H](C(=O)NCCCCCCNC(=O)c1ccc(-c2c3nc(c(-c4cccc(S(=O)(=O)[O-])c4F)c4ccc([nH]4)c(-c4cccc(S(=O)(=O)[O-])c4F)c4nc(c(-c5cccc(S(=O)(=O)[O-])c5F)c5ccc2[nH]5)C=C4)C=C3)cc1)[C@](C)(O)c1ccc(Cl)c(Cl)c1
REMARK SMILES IDX 11 1 10 2 9 3 8 4 6 5 7 6 5 8 4 9 3 10 2 11 1 12 81 13 82 14
REMARK SMILES IDX 83 15 84 17 85 18 91 19 86 20 89 21 87 22 90 23 88 24 12 25
REMARK SMILES IDX 13 26 14 27 15 28 16 29 17 31 18 32 19 33 80 34 20 35 79 36
REMARK SMILES IDX 21 37 22 38 23 39 73 40 24 41 78 42 72 43 74 44 25 45 77 46
REMARK SMILES IDX 71 47 70 48 26 50 58 51 38 52 57 53 39 54 42 55 56 56 75 57
REMARK SMILES IDX 40 58 41 59 55 61 76 62 43 63 27 64 28 65 36 66 29 67 31 68
REMARK SMILES IDX 37 69 30 70 32 71 33 72 34 73 35 74 59 75 60 76 68 77 61 78
REMARK SMILES IDX 63 79 69 80 62 81 64 82 65 83 66 84 67 85 44 86 45 87 53 88
REMARK SMILES IDX 46 89 48 90 54 91 47 92 49 93 50 94 51 95 52 96
REMARK H PARENT 8 7 83 16 15 30 74 49 42 60
REMARK Flexibility Score: inf
ROOT
ATOM      1  C   UNL A   1      34.892  19.582  24.749  1.00  0.00     0.002 C 
ENDROOT
BRANCH   1   2
ATOM      2  C   UNL A   1      33.641  20.080  25.479  1.00  0.00     0.021 C 
BRANCH   2   3
ATOM      3  C   UNL A   1      32.434  20.317  24.574  1.00  0.00     0.116 C 
BRANCH   3   4
ATOM      4  N   UNL A   1      32.763  21.218  23.490  1.00  0.00    -0.356 N 
ATOM      5  C   UNL A   1      32.961  22.563  23.494  1.00  0.00     0.226 C 
ATOM      6  O   UNL A   1      33.128  23.105  22.398  1.00  0.00    -0.275 OA
ATOM      7  H   UNL A   1      32.860  20.790  22.609  1.00  0.00     0.163 HD
BRANCH   5   8
ATOM      8  C   UNL A   1      32.994  23.348  24.811  1.00  0.00     0.114 C 
BRANCH   8   9
ATOM      9  C   UNL A   1      34.179  24.349  24.745  1.00  0.00     0.017 C 
BRANCH   9  10
ATOM     10  C   UNL A   1      35.384  23.913  25.608  1.00  0.00     0.001 C 
BRANCH  10  11
ATOM     11  C   UNL A   1      36.735  23.766  24.904  1.00  0.00    -0.003 C 
ATOM     12  C   UNL A   1      36.621  23.351  23.445  1.00  0.00     0.004 C 
ENDBRANCH  10  11
ENDBRANCH   9  10
ENDBRANCH   8   9
BRANCH   8  13
ATOM     13  C   UNL A   1      31.594  23.969  25.177  1.00  0.00     0.098 C 
ATOM     14  C   UNL A   1      31.045  23.349  26.486  1.00  0.00     0.048 C 
BRANCH  13  15
ATOM     15  O   UNL A   1      30.640  23.535  24.181  1.00  0.00    -0.385 OA
ATOM     16  H   UNL A   1      30.572  22.568  24.199  1.00  0.00     0.211 HD
ENDBRANCH  13  15
BRANCH  13  17
ATOM     17  C   UNL A   1      31.514  25.501  25.157  1.00  0.00    -0.014 A 
ATOM     18  C   UNL A   1      31.780  26.236  26.331  1.00  0.00     0.008 A 
ATOM     19  C   UNL A   1      31.223  26.241  23.999  1.00  0.00     0.028 A 
ATOM     20  C   UNL A   1      31.697  27.631  26.370  1.00  0.00     0.022 A 
ATOM     21  C   UNL A   1      31.171  27.645  24.023  1.00  0.00     0.060 A 
ATOM     22  C   UNL A   1      31.390  28.340  25.214  1.00  0.00     0.059 A 
ATOM     23  Cl  UNL A   1      30.841  28.458  22.532  1.00  0.00    -0.083 Cl
ATOM     24  Cl  UNL A   1      31.302  30.062  25.322  1.00  0.00    -0.083 Cl
ENDBRANCH  13  17
ENDBRANCH   8  13
ENDBRANCH   5   8
ENDBRANCH   3   4
ENDBRANCH   2   3
ENDBRANCH   1   2
BRANCH   1  25
ATOM     25  C   UNL A   1      36.154  20.416  24.986  1.00  0.00     0.002 C 
BRANCH  25  26
ATOM     26  C   UNL A   1      37.464  19.628  24.953  1.00  0.00     0.021 C 
BRANCH  26  27
ATOM     27  C   UNL A   1      38.652  20.342  25.586  1.00  0.00     0.116 C 
BRANCH  27  28
ATOM     28  N   UNL A   1      39.748  19.431  25.866  1.00  0.00    -0.352 N 
ATOM     29  C   UNL A   1      41.042  19.722  26.211  1.00  0.00     0.251 C 
ATOM     30  H   UNL A   1      39.532  18.472  25.798  1.00  0.00     0.163 HD
ATOM     31  O   UNL A   1      41.890  18.829  26.211  1.00  0.00    -0.269 OA
BRANCH  29  32
ATOM     32  C   UNL A   1      41.418  21.104  26.570  1.00  0.00     0.039 A 
ATOM     33  C   UNL A   1      41.550  21.440  27.920  1.00  0.00     0.014 A 
ATOM     34  C   UNL A   1      41.622  22.074  25.583  1.00  0.00     0.014 A 
ATOM     35  C   UNL A   1      41.916  22.739  28.277  1.00  0.00     0.010 A 
ATOM     36  C   UNL A   1      42.064  23.345  25.939  1.00  0.00     0.010 A 
ATOM     37  C   UNL A   1      42.191  23.699  27.290  1.00  0.00    -0.014 A 
BRANCH  37  38
ATOM     38  C   UNL A   1      42.583  25.084  27.655  1.00  0.00     0.031 A 
ATOM     39  C   UNL A   1      44.021  25.517  27.536  1.00  0.00     0.074 A 
ATOM     40  C   UNL A   1      41.661  25.933  28.150  1.00  0.00     0.049 A 
ATOM     41  N   UNL A   1      44.562  26.670  27.835  1.00  0.00    -0.248 NA
ATOM     42  C   UNL A   1      44.983  24.517  27.043  1.00  0.00     0.031 C 
ATOM     43  C   UNL A   1      40.252  25.611  28.383  1.00  0.00     0.029 A 
ATOM     44  N   UNL A   1      41.775  27.237  28.565  1.00  0.00    -0.354 N 
ATOM     45  C   UNL A   1      45.924  26.523  27.600  1.00  0.00     0.074 A 
ATOM     46  C   UNL A   1      46.135  25.158  27.173  1.00  0.00     0.031 C 
ATOM     47  C   UNL A   1      39.631  26.689  28.891  1.00  0.00     0.029 A 
ATOM     48  C   UNL A   1      40.601  27.769  29.044  1.00  0.00     0.049 A 
ATOM     49  H   UNL A   1      42.618  27.743  28.523  1.00  0.00     0.167 HD
ATOM     50  C   UNL A   1      46.909  27.449  27.696  1.00  0.00     0.034 A 
ATOM     51  C   UNL A   1      40.336  28.989  29.551  1.00  0.00     0.034 A 
ATOM     52  C   UNL A   1      46.690  28.818  28.077  1.00  0.00     0.049 A 
ATOM     53  C   UNL A   1      41.440  30.012  29.604  1.00  0.00     0.074 A 
ATOM     54  C   UNL A   1      47.606  29.852  28.133  1.00  0.00     0.029 A 
ATOM     55  N   UNL A   1      45.469  29.343  28.468  1.00  0.00    -0.354 N 
ATOM     56  N   UNL A   1      42.692  29.896  29.237  1.00  0.00    -0.248 NA
ATOM     57  C   UNL A   1      41.082  31.350  30.099  1.00  0.00     0.031 C 
ATOM     58  C   UNL A   1      46.943  31.000  28.579  1.00  0.00     0.029 A 
ATOM     59  C   UNL A   1      45.606  30.687  28.768  1.00  0.00     0.049 A 
ATOM     60  H   UNL A   1      44.628  28.836  28.525  1.00  0.00     0.167 HD
ATOM     61  C   UNL A   1      43.259  31.153  29.411  1.00  0.00     0.074 A 
ATOM     62  C   UNL A   1      42.207  32.020  29.901  1.00  0.00     0.031 C 
ATOM     63  C   UNL A   1      44.537  31.552  29.196  1.00  0.00     0.034 A 
BRANCH  50  64
ATOM     64  C   UNL A   1      48.309  27.024  27.332  1.00  0.00     0.023 A 
ATOM     65  C   UNL A   1      49.068  26.268  28.248  1.00  0.00     0.012 A 
ATOM     66  C   UNL A   1      48.852  27.321  26.066  1.00  0.00     0.148 A 
ATOM     67  C   UNL A   1      50.356  25.843  27.926  1.00  0.00     0.002 A 
ATOM     68  C   UNL A   1      50.118  26.855  25.734  1.00  0.00     0.091 A 
ATOM     69  F   UNL A   1      48.124  28.060  25.215  1.00  0.00    -0.205 F 
ATOM     70  C   UNL A   1      50.877  26.127  26.666  1.00  0.00     0.022 A 
BRANCH  68  71
ATOM     71  S   UNL A   1      50.846  27.094  24.109  1.00  0.00     0.127 S 
ATOM     72  O   UNL A   1      49.814  26.532  23.239  1.00  0.00    -0.237 OA
ATOM     73  O   UNL A   1      50.973  28.551  24.042  1.00  0.00    -0.237 OA
ATOM     74  O   UNL A   1      52.110  26.372  24.123  1.00  0.00    -0.744 OA
ENDBRANCH  68  71
ENDBRANCH  50  64
BRANCH  51  75
ATOM     75  C   UNL A   1      38.952  29.337  29.982  1.00  0.00     0.023 A 
ATOM     76  C   UNL A   1      38.513  28.965  31.268  1.00  0.00     0.012 A 
ATOM     77  C   UNL A   1      38.076  30.042  29.135  1.00  0.00     0.148 A 
ATOM     78  C   UNL A   1      37.213  29.252  31.687  1.00  0.00     0.002 A 
ATOM     79  C   UNL A   1      36.801  30.374  29.580  1.00  0.00     0.091 A 
ATOM     80  F   UNL A   1      38.508  30.379  27.913  1.00  0.00    -0.205 F 
ATOM     81  C   UNL A   1      36.361  29.963  30.848  1.00  0.00     0.022 A 
BRANCH  79  82
ATOM     82  S   UNL A   1      35.685  31.401  28.618  1.00  0.00     0.127 S 
ATOM     83  O   UNL A   1      36.524  32.557  28.318  1.00  0.00    -0.237 OA
ATOM     84  O   UNL A   1      35.391  30.537  27.474  1.00  0.00    -0.237 OA
ATOM     85  O   UNL A   1      34.541  31.655  29.484  1.00  0.00    -0.744 OA
ENDBRANCH  79  82
ENDBRANCH  51  75
BRANCH  63  86
ATOM     86  C   UNL A   1      44.866  33.004  29.429  1.00  0.00     0.023 A 
ATOM     87  C   UNL A   1      45.377  33.423  30.673  1.00  0.00     0.012 A 
ATOM     88  C   UNL A   1      44.729  33.942  28.386  1.00  0.00     0.148 A 
ATOM     89  C   UNL A   1      45.709  34.760  30.888  1.00  0.00     0.002 A 
ATOM     90  C   UNL A   1      45.112  35.261  28.591  1.00  0.00     0.091 A 
ATOM     91  F   UNL A   1      44.223  33.527  27.215  1.00  0.00    -0.205 F 
ATOM     92  C   UNL A   1      45.589  35.675  29.844  1.00  0.00     0.022 A 
BRANCH  90  93
ATOM     93  S   UNL A   1      45.086  36.482  27.273  1.00  0.00     0.127 S 
ATOM     94  O   UNL A   1      46.048  35.920  26.327  1.00  0.00    -0.237 OA
ATOM     95  O   UNL A   1      43.692  36.430  26.830  1.00  0.00    -0.237 OA
ATOM     96  O   UNL A   1      45.474  37.744  27.889  1.00  0.00    -0.744 OA
ENDBRANCH  90  93
ENDBRANCH  63  86
ENDBRANCH  37  38
ENDBRANCH  29  32
ENDBRANCH  27  28
ENDBRANCH  26  27
ENDBRANCH  25  26
ENDBRANCH   1  25
TORSDOF 22
ENDMDL
MODEL 3
REMARK VINA RESULT:     -10.0      6.119      9.302
REMARK SMILES CCCC[C@H](C(=O)NCCCCCCNC(=O)c1ccc(-c2c3nc(c(-c4cccc(S(=O)(=O)[O-])c4F)c4ccc([nH]4)c(-c4cccc(S(=O)(=O)[O-])c4F)c4nc(c(-c5cccc(S(=O)(=O)[O-])c5F)c5ccc2[nH]5)C=C4)C=C3)cc1)[C@](C)(O)c1ccc(Cl)c(Cl)c1
REMARK SMILES IDX 11 1 10 2 9 3 8 4 6 5 7 6 5 8 4 9 3 10 2 11 1 12 81 13 82 14
REMARK SMILES IDX 83 15 84 17 85 18 91 19 86 20 89 21 87 22 90 23 88 24 12 25
REMARK SMILES IDX 13 26 14 27 15 28 16 29 17 31 18 32 19 33 80 34 20 35 79 36
REMARK SMILES IDX 21 37 22 38 23 39 73 40 24 41 78 42 72 43 74 44 25 45 77 46
REMARK SMILES IDX 71 47 70 48 26 50 58 51 38 52 57 53 39 54 42 55 56 56 75 57
REMARK SMILES IDX 40 58 41 59 55 61 76 62 43 63 27 64 28 65 36 66 29 67 31 68
REMARK SMILES IDX 37 69 30 70 32 71 33 72 34 73 35 74 59 75 60 76 68 77 61 78
REMARK SMILES IDX 63 79 69 80 62 81 64 82 65 83 66 84 67 85 44 86 45 87 53 88
REMARK SMILES IDX 46 89 48 90 54 91 47 92 49 93 50 94 51 95 52 96
REMARK H PARENT 8 7 83 16 15 30 74 49 42 60
REMARK Flexibility Score: inf
ROOT
ATOM      1  C   UNL A   1      32.690  29.204  26.558  1.00  0.00     0.002 C 
ENDROOT
BRANCH   1   2
ATOM      2  C   UNL A   1      31.921  28.133  27.339  1.00  0.00     0.021 C 
BRANCH   2   3
ATOM      3  C   UNL A   1      31.058  27.217  26.473  1.00  0.00     0.116 C 
BRANCH   3   4
ATOM      4  N   UNL A   1      31.311  25.825  26.773  1.00  0.00    -0.356 N 
ATOM      5  C   UNL A   1      31.868  24.848  26.009  1.00  0.00     0.226 C 
ATOM      6  O   UNL A   1      31.868  23.707  26.478  1.00  0.00    -0.275 OA
ATOM      7  H   UNL A   1      31.035  25.538  27.673  1.00  0.00     0.163 HD
BRANCH   5   8
ATOM      8  C   UNL A   1      32.483  25.174  24.643  1.00  0.00     0.114 C 
BRANCH   8   9
ATOM      9  C   UNL A   1      33.780  24.334  24.486  1.00  0.00     0.017 C 
BRANCH   9  10
ATOM     10  C   UNL A   1      34.917  24.804  25.419  1.00  0.00     0.001 C 
BRANCH  10  11
ATOM     11  C   UNL A   1      36.263  24.085  25.302  1.00  0.00    -0.003 C 
ATOM     12  C   UNL A   1      36.223  22.856  24.406  1.00  0.00     0.004 C 
ENDBRANCH  10  11
ENDBRANCH   9  10
ENDBRANCH   8   9
BRANCH   8  13
ATOM     13  C   UNL A   1      31.441  25.049  23.469  1.00  0.00     0.098 C 
ATOM     14  C   UNL A   1      30.768  23.655  23.481  1.00  0.00     0.048 C 
BRANCH  13  15
ATOM     15  O   UNL A   1      32.174  25.052  22.222  1.00  0.00    -0.385 OA
ATOM     16  H   UNL A   1      31.824  24.360  21.641  1.00  0.00     0.211 HD
ENDBRANCH  13  15
BRANCH  13  17
ATOM     17  C   UNL A   1      30.437  26.202  23.338  1.00  0.00    -0.014 A 
ATOM     18  C   UNL A   1      29.146  26.079  23.893  1.00  0.00     0.008 A 
ATOM     19  C   UNL A   1      30.744  27.423  22.716  1.00  0.00     0.028 A 
ATOM     20  C   UNL A   1      28.187  27.090  23.779  1.00  0.00     0.022 A 
ATOM     21  C   UNL A   1      29.797  28.458  22.628  1.00  0.00     0.060 A 
ATOM     22  C   UNL A   1      28.510  28.284  23.144  1.00  0.00     0.059 A 
ATOM     23  Cl  UNL A   1      30.293  29.935  21.876  1.00  0.00    -0.083 Cl
ATOM     24  Cl  UNL A   1      27.287  29.497  23.034  1.00  0.00    -0.083 Cl
ENDBRANCH  13  17
ENDBRANCH   8  13
ENDBRANCH   5   8
ENDBRANCH   3   4
ENDBRANCH   2   3
ENDBRANCH   1   2
BRANCH   1  25
ATOM     25  C   UNL A   1      31.816  30.278  25.905  1.00  0.00     0.002 C 
BRANCH  25  26
ATOM     26  C   UNL A   1      31.656  31.562  26.721  1.00  0.00     0.021 C 
BRANCH  26  27
ATOM     27  C   UNL A   1      32.963  32.270  27.055  1.00  0.00     0.116 C 
BRANCH  27  28
ATOM     28  N   UNL A   1      32.737  33.601  27.593  1.00  0.00    -0.352 N 
ATOM     29  C   UNL A   1      33.340  34.209  28.662  1.00  0.00     0.251 C 
ATOM     30  H   UNL A   1      32.058  34.140  27.125  1.00  0.00     0.163 HD
ATOM     31  O   UNL A   1      32.882  35.264  29.105  1.00  0.00    -0.269 OA
BRANCH  29  32
ATOM     32  C   UNL A   1      34.529  33.596  29.289  1.00  0.00     0.039 A 
ATOM     33  C   UNL A   1      35.799  34.019  28.889  1.00  0.00     0.014 A 
ATOM     34  C   UNL A   1      34.396  32.593  30.255  1.00  0.00     0.014 A 
ATOM     35  C   UNL A   1      36.933  33.457  29.478  1.00  0.00     0.010 A 
ATOM     36  C   UNL A   1      35.525  32.093  30.897  1.00  0.00     0.010 A 
ATOM     37  C   UNL A   1      36.806  32.500  30.499  1.00  0.00    -0.014 A 
BRANCH  37  38
ATOM     38  C   UNL A   1      38.003  31.895  31.136  1.00  0.00     0.031 A 
ATOM     39  C   UNL A   1      38.550  32.474  32.415  1.00  0.00     0.074 A 
ATOM     40  C   UNL A   1      38.635  30.867  30.536  1.00  0.00     0.049 A 
ATOM     41  N   UNL A   1      39.600  32.107  33.104  1.00  0.00    -0.248 NA
ATOM     42  C   UNL A   1      37.841  33.634  32.983  1.00  0.00     0.031 C 
ATOM     43  C   UNL A   1      38.249  30.266  29.258  1.00  0.00     0.029 A 
ATOM     44  N   UNL A   1      39.749  30.158  30.912  1.00  0.00    -0.354 N 
ATOM     45  C   UNL A   1      39.696  33.007  34.159  1.00  0.00     0.074 A 
ATOM     46  C   UNL A   1      38.624  33.963  33.999  1.00  0.00     0.031 C 
ATOM     47  C   UNL A   1      39.105  29.275  28.961  1.00  0.00     0.029 A 
ATOM     48  C   UNL A   1      40.115  29.186  30.011  1.00  0.00     0.049 A 
ATOM     49  H   UNL A   1      40.239  30.329  31.748  1.00  0.00     0.167 HD
ATOM     50  C   UNL A   1      40.576  33.018  35.189  1.00  0.00     0.034 A 
ATOM     51  C   UNL A   1      41.149  28.323  30.028  1.00  0.00     0.034 A 
ATOM     52  C   UNL A   1      41.613  32.040  35.371  1.00  0.00     0.049 A 
ATOM     53  C   UNL A   1      42.084  28.328  31.209  1.00  0.00     0.074 A 
ATOM     54  C   UNL A   1      42.508  31.918  36.419  1.00  0.00     0.029 A 
ATOM     55  N   UNL A   1      41.896  31.014  34.483  1.00  0.00    -0.354 N 
ATOM     56  N   UNL A   1      42.069  29.094  32.271  1.00  0.00    -0.248 NA
ATOM     57  C   UNL A   1      43.153  27.318  31.213  1.00  0.00     0.031 C 
ATOM     58  C   UNL A   1      43.347  30.831  36.154  1.00  0.00     0.029 A 
ATOM     59  C   UNL A   1      42.952  30.255  34.956  1.00  0.00     0.049 A 
ATOM     60  H   UNL A   1      41.417  30.849  33.639  1.00  0.00     0.167 HD
ATOM     61  C   UNL A   1      43.092  28.631  33.091  1.00  0.00     0.074 A 
ATOM     62  C   UNL A   1      43.696  27.506  32.407  1.00  0.00     0.031 C 
ATOM     63  C   UNL A   1      43.502  29.101  34.295  1.00  0.00     0.034 A 
BRANCH  50  64
ATOM     64  C   UNL A   1      40.421  34.095  36.232  1.00  0.00     0.023 A 
ATOM     65  C   UNL A   1      40.758  35.427  35.914  1.00  0.00     0.012 A 
ATOM     66  C   UNL A   1      39.888  33.804  37.504  1.00  0.00     0.148 A 
ATOM     67  C   UNL A   1      40.602  36.445  36.854  1.00  0.00     0.002 A 
ATOM     68  C   UNL A   1      39.690  34.832  38.419  1.00  0.00     0.091 A 
ATOM     69  F   UNL A   1      39.592  32.529  37.797  1.00  0.00    -0.205 F 
ATOM     70  C   UNL A   1      40.059  36.150  38.101  1.00  0.00     0.022 A 
BRANCH  68  71
ATOM     71  S   UNL A   1      38.920  34.570  40.021  1.00  0.00     0.127 S 
ATOM     72  O   UNL A   1      39.994  33.906  40.758  1.00  0.00    -0.237 OA
ATOM     73  O   UNL A   1      38.639  35.940  40.453  1.00  0.00    -0.237 OA
ATOM     74  O   UNL A   1      37.740  33.756  39.772  1.00  0.00    -0.744 OA
ENDBRANCH  68  71
ENDBRANCH  50  64
BRANCH  51  75
ATOM     75  C   UNL A   1      41.315  27.330  28.928  1.00  0.00     0.023 A 
ATOM     76  C   UNL A   1      40.568  26.136  28.955  1.00  0.00     0.012 A 
ATOM     77  C   UNL A   1      42.193  27.567  27.854  1.00  0.00     0.148 A 
ATOM     78  C   UNL A   1      40.725  25.176  27.954  1.00  0.00     0.002 A 
ATOM     79  C   UNL A   1      42.303  26.632  26.830  1.00  0.00     0.091 A 
ATOM     80  F   UNL A   1      42.901  28.705  27.851  1.00  0.00    -0.205 F 
ATOM     81  C   UNL A   1      41.585  25.428  26.889  1.00  0.00     0.022 A 
BRANCH  79  82
ATOM     82  S   UNL A   1      43.285  26.931  25.356  1.00  0.00     0.127 S 
ATOM     83  O   UNL A   1      44.563  27.347  25.927  1.00  0.00    -0.237 OA
ATOM     84  O   UNL A   1      43.291  25.612  24.724  1.00  0.00    -0.237 OA
ATOM     85  O   UNL A   1      42.564  27.950  24.605  1.00  0.00    -0.744 OA
ENDBRANCH  79  82
ENDBRANCH  51  75
BRANCH  63  86
ATOM     86  C   UNL A   1      44.621  28.367  34.988  1.00  0.00     0.023 A 
ATOM     87  C   UNL A   1      45.957  28.776  34.803  1.00  0.00     0.012 A 
ATOM     88  C   UNL A   1      44.337  27.311  35.877  1.00  0.00     0.148 A 
ATOM     89  C   UNL A   1      46.995  28.119  35.462  1.00  0.00     0.002 A 
ATOM     90  C   UNL A   1      45.372  26.698  36.571  1.00  0.00     0.091 A 
ATOM     91  F   UNL A   1      43.061  26.925  36.025  1.00  0.00    -0.205 F 
ATOM     92  C   UNL A   1      46.703  27.090  36.354  1.00  0.00     0.022 A 
BRANCH  90  93
ATOM     93  S   UNL A   1      45.077  25.433  37.813  1.00  0.00     0.127 S 
ATOM     94  O   UNL A   1      46.426  25.200  38.326  1.00  0.00    -0.237 OA
ATOM     95  O   UNL A   1      44.180  26.118  38.745  1.00  0.00    -0.237 OA
ATOM     96  O   UNL A   1      44.471  24.313  37.108  1.00  0.00    -0.744 OA
ENDBRANCH  90  93
ENDBRANCH  63  86
ENDBRANCH  37  38
ENDBRANCH  29  32
ENDBRANCH  27  28
ENDBRANCH  26  27
ENDBRANCH  25  26
ENDBRANCH   1  25
TORSDOF 22
ENDMDL
