MODEL 1
REMARK VINA RESULT:     -12.0      0.000      0.000
REMARK SMILES NS(=O)(=O)c1ccc(-n2nc(C(=O)NCCCC(=O)NCCCCCCNC(=O)c3ccc(-c4c5nc(c(-c6cccc(S(=O)(=O)[O-])c6F)c6ccc([nH]6)c(-c6cccc(S(=O)(=O)[O-])c6F)c6nc(c(-c7cccc(S(=O)(=O)[O-])c7F)c7ccc4[nH]7)C=C6)C=C5)cc3)cc2-c2ccccc2)cc1
REMARK SMILES IDX 21 1 20 2 18 3 19 4 17 6 16 7 15 8 14 9 12 10 13 11 11 13
REMARK SMILES IDX 9 14 10 15 94 16 93 17 8 18 5 19 6 20 102 21 7 22 101 23
REMARK SMILES IDX 2 24 3 25 4 26 1 27 95 30 96 31 100 32 97 33 99 34 98 35
REMARK SMILES IDX 22 36 23 37 24 38 25 39 26 40 27 41 28 42 29 44 30 45 31 46
REMARK SMILES IDX 92 47 32 48 91 49 33 50 34 51 35 52 85 53 36 54 90 55 84 56
REMARK SMILES IDX 86 57 37 58 89 59 83 60 82 61 38 63 70 64 50 65 69 66 51 67
REMARK SMILES IDX 54 68 68 69 87 70 52 71 53 72 67 74 88 75 55 76 39 77 40 78
REMARK SMILES IDX 48 79 41 80 43 81 49 82 42 83 44 84 45 85 46 86 47 87 71 88
REMARK SMILES IDX 72 89 80 90 73 91 75 92 81 93 74 94 76 95 77 96 78 97 79 98
REMARK SMILES IDX 56 99 57 100 65 101 58 102 60 103 66 104 59 105 61 106
REMARK SMILES IDX 62 107 63 108 64 109
REMARK H PARENT 20 5 14 12 1 28 1 29 27 43 86 62 54 73
REMARK Flexibility Score: inf
ROOT
ATOM      1  C   UNL A   1      34.191  28.970  27.397  1.00  0.00     0.116 C 
ENDROOT
BRANCH   1   2
ATOM      2  N   UNL A   1      32.903  28.585  27.941  1.00  0.00    -0.356 N 
ATOM      3  C   UNL A   1      31.819  28.042  27.324  1.00  0.00     0.220 C 
ATOM      4  O   UNL A   1      30.808  27.829  27.996  1.00  0.00    -0.275 OA
ATOM      5  H   UNL A   1      32.797  28.740  28.907  1.00  0.00     0.163 HD
BRANCH   3   6
ATOM      6  C   UNL A   1      31.868  27.671  25.854  1.00  0.00     0.102 C 
BRANCH   6   7
ATOM      7  C   UNL A   1      31.184  28.675  24.923  1.00  0.00     0.031 C 
BRANCH   7   8
ATOM      8  C   UNL A   1      30.952  28.198  23.490  1.00  0.00     0.116 C 
BRANCH   8   9
ATOM      9  N   UNL A   1      32.097  28.391  22.611  1.00  0.00    -0.351 N 
ATOM     10  C   UNL A   1      33.171  27.561  22.333  1.00  0.00     0.271 C 
ATOM     11  O   UNL A   1      33.988  27.977  21.508  1.00  0.00    -0.267 OA
ATOM     12  H   UNL A   1      32.110  29.252  22.135  1.00  0.00     0.163 HD
BRANCH  10  13
ATOM     13  C   UNL A   1      33.296  26.259  23.013  1.00  0.00     0.151 A 
ATOM     14  N   UNL A   1      32.990  24.182  23.464  1.00  0.00    -0.232 N 
ATOM     15  N   UNL A   1      32.566  25.178  22.642  1.00  0.00    -0.162 NA
ATOM     16  C   UNL A   1      34.158  24.566  24.112  1.00  0.00     0.075 A 
ATOM     17  C   UNL A   1      34.191  25.930  24.059  1.00  0.00     0.065 A 
BRANCH  14  18
ATOM     18  C   UNL A   1      32.461  22.854  23.511  1.00  0.00     0.065 A 
ATOM     19  C   UNL A   1      32.364  20.070  23.726  1.00  0.00     0.082 A 
ATOM     20  C   UNL A   1      32.315  20.840  24.885  1.00  0.00     0.024 A 
ATOM     21  C   UNL A   1      32.331  20.686  22.466  1.00  0.00     0.024 A 
ATOM     22  C   UNL A   1      32.360  22.227  24.770  1.00  0.00     0.030 A 
ATOM     23  C   UNL A   1      32.358  22.088  22.351  1.00  0.00     0.030 A 
BRANCH  19  24
ATOM     24  S   UNL A   1      32.640  18.330  23.869  1.00  0.00     0.238 S 
ATOM     25  O   UNL A   1      31.801  17.835  24.941  1.00  0.00    -0.207 OA
ATOM     26  O   UNL A   1      34.038  17.984  23.799  1.00  0.00    -0.207 OA
BRANCH  24  27
ATOM     27  N   UNL A   1      31.956  17.664  22.477  1.00  0.00    -0.225 NA
ATOM     28  H   UNL A   1      32.203  16.675  22.416  1.00  0.00     0.137 HD
ATOM     29  H   UNL A   1      32.311  18.154  21.656  1.00  0.00     0.137 HD
ENDBRANCH  24  27
ENDBRANCH  19  24
ENDBRANCH  14  18
BRANCH  16  30
ATOM     30  C   UNL A   1      35.133  23.620  24.611  1.00  0.00     0.000 A 
ATOM     31  C   UNL A   1      35.898  22.890  23.681  1.00  0.00     0.010 A 
ATOM     32  C   UNL A   1      35.189  23.325  25.963  1.00  0.00     0.010 A 
ATOM     33  C   UNL A   1      36.570  21.751  24.076  1.00  0.00     0.001 A 
ATOM     34  C   UNL A   1      35.894  22.203  26.354  1.00  0.00     0.001 A 
ATOM     35  C   UNL A   1      36.527  21.392  25.409  1.00  0.00     0.000 A 
ENDBRANCH  16  30
ENDBRANCH  10  13
ENDBRANCH   8   9
ENDBRANCH   7   8
ENDBRANCH   6   7
ENDBRANCH   3   6
ENDBRANCH   1   2
BRANCH   1  36
ATOM     36  C   UNL A   1      34.241  30.475  27.119  1.00  0.00     0.021 C 
BRANCH  36  37
ATOM     37  C   UNL A   1      35.540  31.151  27.566  1.00  0.00     0.002 C 
BRANCH  37  38
ATOM     38  C   UNL A   1      35.466  32.674  27.733  1.00  0.00     0.002 C 
BRANCH  38  39
ATOM     39  C   UNL A   1      34.259  33.206  28.518  1.00  0.00     0.021 C 
BRANCH  39  40
ATOM     40  C   UNL A   1      34.604  34.303  29.522  1.00  0.00     0.116 C 
BRANCH  40  41
ATOM     41  N   UNL A   1      34.282  33.900  30.885  1.00  0.00    -0.352 N 
ATOM     42  C   UNL A   1      34.758  32.830  31.604  1.00  0.00     0.251 C 
ATOM     43  H   UNL A   1      33.635  34.473  31.355  1.00  0.00     0.163 HD
ATOM     44  O   UNL A   1      34.162  32.449  32.608  1.00  0.00    -0.269 OA
BRANCH  42  45
ATOM     45  C   UNL A   1      35.970  32.123  31.151  1.00  0.00     0.039 A 
ATOM     46  C   UNL A   1      37.150  32.847  30.963  1.00  0.00     0.014 A 
ATOM     47  C   UNL A   1      35.937  30.747  30.918  1.00  0.00     0.014 A 
ATOM     48  C   UNL A   1      38.319  32.167  30.627  1.00  0.00     0.010 A 
ATOM     49  C   UNL A   1      37.113  30.063  30.651  1.00  0.00     0.010 A 
ATOM     50  C   UNL A   1      38.311  30.766  30.505  1.00  0.00    -0.014 A 
BRANCH  50  51
ATOM     51  C   UNL A   1      39.597  30.051  30.405  1.00  0.00     0.031 A 
ATOM     52  C   UNL A   1      40.299  29.820  31.715  1.00  0.00     0.074 A 
ATOM     53  C   UNL A   1      40.062  29.506  29.258  1.00  0.00     0.049 A 
ATOM     54  N   UNL A   1      41.537  30.054  32.013  1.00  0.00    -0.248 NA
ATOM     55  C   UNL A   1      39.503  29.357  32.861  1.00  0.00     0.031 C 
ATOM     56  C   UNL A   1      39.394  29.451  27.957  1.00  0.00     0.029 A 
ATOM     57  N   UNL A   1      41.204  28.782  29.038  1.00  0.00    -0.354 N 
ATOM     58  C   UNL A   1      41.716  29.684  33.354  1.00  0.00     0.074 A 
ATOM     59  C   UNL A   1      40.410  29.327  33.838  1.00  0.00     0.031 C 
ATOM     60  C   UNL A   1      40.036  28.573  27.155  1.00  0.00     0.029 A 
ATOM     61  C   UNL A   1      41.218  28.072  27.831  1.00  0.00     0.049 A 
ATOM     62  H   UNL A   1      41.952  28.763  29.677  1.00  0.00     0.167 HD
ATOM     63  C   UNL A   1      42.955  29.630  33.927  1.00  0.00     0.034 A 
ATOM     64  C   UNL A   1      42.099  27.101  27.456  1.00  0.00     0.034 A 
ATOM     65  C   UNL A   1      43.899  30.385  33.135  1.00  0.00     0.049 A 
ATOM     66  C   UNL A   1      43.299  27.289  28.313  1.00  0.00     0.074 A 
ATOM     67  C   UNL A   1      44.075  31.726  32.855  1.00  0.00     0.029 A 
ATOM     68  N   UNL A   1      44.677  29.701  32.235  1.00  0.00    -0.354 N 
ATOM     69  N   UNL A   1      44.146  28.264  28.152  1.00  0.00    -0.248 NA
ATOM     70  C   UNL A   1      43.386  26.598  29.593  1.00  0.00     0.031 C 
ATOM     71  C   UNL A   1      44.615  31.767  31.537  1.00  0.00     0.029 A 
ATOM     72  C   UNL A   1      44.764  30.452  31.093  1.00  0.00     0.049 A 
ATOM     73  H   UNL A   1      45.099  28.825  32.384  1.00  0.00     0.167 HD
ATOM     74  C   UNL A   1      44.528  28.609  29.439  1.00  0.00     0.074 A 
ATOM     75  C   UNL A   1      44.137  27.477  30.262  1.00  0.00     0.031 C 
ATOM     76  C   UNL A   1      44.858  29.893  29.761  1.00  0.00     0.034 A 
BRANCH  63  77
ATOM     77  C   UNL A   1      43.421  28.762  35.090  1.00  0.00     0.023 A 
ATOM     78  C   UNL A   1      44.078  29.427  36.159  1.00  0.00     0.012 A 
ATOM     79  C   UNL A   1      43.446  27.351  35.138  1.00  0.00     0.148 A 
ATOM     80  C   UNL A   1      44.798  28.745  37.147  1.00  0.00     0.002 A 
ATOM     81  C   UNL A   1      44.102  26.670  36.168  1.00  0.00     0.091 A 
ATOM     82  F   UNL A   1      42.918  26.636  34.147  1.00  0.00    -0.205 F 
ATOM     83  C   UNL A   1      44.817  27.361  37.148  1.00  0.00     0.022 A 
BRANCH  81  84
ATOM     84  S   UNL A   1      44.036  24.876  36.321  1.00  0.00     0.127 S 
ATOM     85  O   UNL A   1      44.772  24.653  37.560  1.00  0.00    -0.237 OA
ATOM     86  O   UNL A   1      42.596  24.635  36.411  1.00  0.00    -0.237 OA
ATOM     87  O   UNL A   1      44.657  24.357  35.110  1.00  0.00    -0.744 OA
ENDBRANCH  81  84
ENDBRANCH  63  77
BRANCH  64  88
ATOM     88  C   UNL A   1      41.992  25.906  26.548  1.00  0.00     0.023 A 
ATOM     89  C   UNL A   1      42.945  25.793  25.506  1.00  0.00     0.012 A 
ATOM     90  C   UNL A   1      41.272  24.734  26.879  1.00  0.00     0.148 A 
ATOM     91  C   UNL A   1      43.278  24.555  24.940  1.00  0.00     0.002 A 
ATOM     92  C   UNL A   1      41.654  23.491  26.363  1.00  0.00     0.091 A 
ATOM     93  F   UNL A   1      40.292  24.799  27.784  1.00  0.00    -0.205 F 
ATOM     94  C   UNL A   1      42.668  23.397  25.404  1.00  0.00     0.022 A 
BRANCH  92  95
ATOM     95  S   UNL A   1      41.069  21.934  27.071  1.00  0.00     0.127 S 
ATOM     96  O   UNL A   1      39.644  21.976  26.748  1.00  0.00    -0.237 OA
ATOM     97  O   UNL A   1      41.838  20.945  26.315  1.00  0.00    -0.237 OA
ATOM     98  O   UNL A   1      41.381  21.997  28.494  1.00  0.00    -0.744 OA
ENDBRANCH  92  95
ENDBRANCH  64  88
BRANCH  76  99
ATOM     99  C   UNL A   1      45.039  30.860  28.620  1.00  0.00     0.023 A 
ATOM    100  C   UNL A   1      43.938  31.465  27.976  1.00  0.00     0.012 A 
ATOM    101  C   UNL A   1      46.336  31.263  28.262  1.00  0.00     0.148 A 
ATOM    102  C   UNL A   1      44.123  32.405  26.963  1.00  0.00     0.002 A 
ATOM    103  C   UNL A   1      46.516  32.242  27.293  1.00  0.00     0.091 A 
ATOM    104  F   UNL A   1      47.378  30.686  28.881  1.00  0.00    -0.205 F 
ATOM    105  C   UNL A   1      45.414  32.803  26.629  1.00  0.00     0.022 A 
BRANCH 103 106
ATOM    106  S   UNL A   1      48.148  32.888  26.931  1.00  0.00     0.127 S 
ATOM    107  O   UNL A   1      48.544  33.464  28.214  1.00  0.00    -0.237 OA
ATOM    108  O   UNL A   1      48.891  31.687  26.545  1.00  0.00    -0.237 OA
ATOM    109  O   UNL A   1      47.954  33.837  25.840  1.00  0.00    -0.744 OA
ENDBRANCH 103 106
ENDBRANCH  76  99
ENDBRANCH  50  51
ENDBRANCH  42  45
ENDBRANCH  40  41
ENDBRANCH  39  40
ENDBRANCH  38  39
ENDBRANCH  37  38
ENDBRANCH  36  37
ENDBRANCH   1  36
TORSDOF 24
ENDMDL
MODEL 2
REMARK VINA RESULT:     -10.3      2.929      8.160
REMARK SMILES NS(=O)(=O)c1ccc(-n2nc(C(=O)NCCCC(=O)NCCCCCCNC(=O)c3ccc(-c4c5nc(c(-c6cccc(S(=O)(=O)[O-])c6F)c6ccc([nH]6)c(-c6cccc(S(=O)(=O)[O-])c6F)c6nc(c(-c7cccc(S(=O)(=O)[O-])c7F)c7ccc4[nH]7)C=C6)C=C5)cc3)cc2-c2ccccc2)cc1
REMARK SMILES IDX 21 1 20 2 18 3 19 4 17 6 16 7 15 8 14 9 12 10 13 11 11 13
REMARK SMILES IDX 9 14 10 15 94 16 93 17 8 18 5 19 6 20 102 21 7 22 101 23
REMARK SMILES IDX 2 24 3 25 4 26 1 27 95 30 96 31 100 32 97 33 99 34 98 35
REMARK SMILES IDX 22 36 23 37 24 38 25 39 26 40 27 41 28 42 29 44 30 45 31 46
REMARK SMILES IDX 92 47 32 48 91 49 33 50 34 51 35 52 85 53 36 54 90 55 84 56
REMARK SMILES IDX 86 57 37 58 89 59 83 60 82 61 38 63 70 64 50 65 69 66 51 67
REMARK SMILES IDX 54 68 68 69 87 70 52 71 53 72 67 74 88 75 55 76 39 77 40 78
REMARK SMILES IDX 48 79 41 80 43 81 49 82 42 83 44 84 45 85 46 86 47 87 71 88
REMARK SMILES IDX 72 89 80 90 73 91 75 92 81 93 74 94 76 95 77 96 78 97 79 98
REMARK SMILES IDX 56 99 57 100 65 101 58 102 60 103 66 104 59 105 61 106
REMARK SMILES IDX 62 107 63 108 64 109
REMARK H PARENT 20 5 14 12 1 28 1 29 27 43 86 62 54 73
REMARK Flexibility Score: inf
ROOT
ATOM      1  C   UNL A   1      34.425  30.077  27.373  1.00  0.00     0.116 C 
ENDROOT
BRANCH   1   2
ATOM      2  N   UNL A   1      33.268  29.401  27.927  1.00  0.00    -0.356 N 
ATOM      3  C   UNL A   1      32.330  28.627  27.317  1.00  0.00     0.220 C 
ATOM      4  O   UNL A   1      31.405  28.182  27.998  1.00  0.00    -0.275 OA
ATOM      5  H   UNL A   1      33.142  29.521  28.896  1.00  0.00     0.163 HD
BRANCH   3   6
ATOM      6  C   UNL A   1      32.443  28.289  25.843  1.00  0.00     0.102 C 
BRANCH   6   7
ATOM      7  C   UNL A   1      31.358  28.913  24.963  1.00  0.00     0.031 C 
BRANCH   7   8
ATOM      8  C   UNL A   1      31.007  28.138  23.694  1.00  0.00     0.116 C 
BRANCH   8   9
ATOM      9  N   UNL A   1      31.998  28.261  22.633  1.00  0.00    -0.351 N 
ATOM     10  C   UNL A   1      32.984  27.382  22.213  1.00  0.00     0.271 C 
ATOM     11  O   UNL A   1      33.668  27.743  21.253  1.00  0.00    -0.267 OA
ATOM     12  H   UNL A   1      31.963  29.107  22.132  1.00  0.00     0.163 HD
BRANCH  10  13
ATOM     13  C   UNL A   1      33.174  26.096  22.908  1.00  0.00     0.151 A 
ATOM     14  N   UNL A   1      32.921  24.028  23.427  1.00  0.00    -0.232 N 
ATOM     15  N   UNL A   1      32.423  25.004  22.622  1.00  0.00    -0.162 NA
ATOM     16  C   UNL A   1      34.136  24.431  23.967  1.00  0.00     0.075 A 
ATOM     17  C   UNL A   1      34.155  25.794  23.883  1.00  0.00     0.065 A 
BRANCH  14  18
ATOM     18  C   UNL A   1      32.408  22.698  23.546  1.00  0.00     0.065 A 
ATOM     19  C   UNL A   1      32.345  19.925  23.887  1.00  0.00     0.082 A 
ATOM     20  C   UNL A   1      32.317  20.746  25.011  1.00  0.00     0.024 A 
ATOM     21  C   UNL A   1      32.274  20.485  22.602  1.00  0.00     0.024 A 
ATOM     22  C   UNL A   1      32.344  22.127  24.834  1.00  0.00     0.030 A 
ATOM     23  C   UNL A   1      32.284  21.880  22.424  1.00  0.00     0.030 A 
BRANCH  19  24
ATOM     24  S   UNL A   1      32.642  18.196  24.100  1.00  0.00     0.238 S 
ATOM     25  O   UNL A   1      32.708  17.594  22.784  1.00  0.00    -0.207 OA
ATOM     26  O   UNL A   1      31.830  17.619  25.142  1.00  0.00    -0.207 OA
BRANCH  24  27
ATOM     27  N   UNL A   1      34.225  18.092  24.674  1.00  0.00    -0.225 NA
ATOM     28  H   UNL A   1      34.876  18.316  23.921  1.00  0.00     0.137 HD
ATOM     29  H   UNL A   1      34.405  17.144  25.007  1.00  0.00     0.137 HD
ENDBRANCH  24  27
ENDBRANCH  19  24
ENDBRANCH  14  18
BRANCH  16  30
ATOM     30  C   UNL A   1      35.156  23.502  24.403  1.00  0.00     0.000 A 
ATOM     31  C   UNL A   1      35.581  23.552  25.745  1.00  0.00     0.010 A 
ATOM     32  C   UNL A   1      35.813  22.704  23.480  1.00  0.00     0.010 A 
ATOM     33  C   UNL A   1      36.766  22.953  26.121  1.00  0.00     0.001 A 
ATOM     34  C   UNL A   1      36.980  22.079  23.876  1.00  0.00     0.001 A 
ATOM     35  C   UNL A   1      37.481  22.254  25.168  1.00  0.00     0.000 A 
ENDBRANCH  16  30
ENDBRANCH  10  13
ENDBRANCH   8   9
ENDBRANCH   7   8
ENDBRANCH   6   7
ENDBRANCH   3   6
ENDBRANCH   1   2
BRANCH   1  36
ATOM     36  C   UNL A   1      34.455  31.548  27.797  1.00  0.00     0.021 C 
BRANCH  36  37
ATOM     37  C   UNL A   1      35.825  32.030  28.284  1.00  0.00     0.002 C 
BRANCH  37  38
ATOM     38  C   UNL A   1      35.827  33.382  29.009  1.00  0.00     0.002 C 
BRANCH  38  39
ATOM     39  C   UNL A   1      34.451  33.928  29.416  1.00  0.00     0.021 C 
BRANCH  39  40
ATOM     40  C   UNL A   1      34.485  34.873  30.614  1.00  0.00     0.116 C 
BRANCH  40  41
ATOM     41  N   UNL A   1      33.558  34.449  31.655  1.00  0.00    -0.352 N 
ATOM     42  C   UNL A   1      33.766  33.570  32.692  1.00  0.00     0.251 C 
ATOM     43  H   UNL A   1      32.659  34.846  31.611  1.00  0.00     0.163 HD
ATOM     44  O   UNL A   1      32.809  33.082  33.286  1.00  0.00    -0.269 OA
BRANCH  42  45
ATOM     45  C   UNL A   1      35.141  33.195  33.069  1.00  0.00     0.039 A 
ATOM     46  C   UNL A   1      35.733  32.082  32.468  1.00  0.00     0.014 A 
ATOM     47  C   UNL A   1      35.842  33.949  34.012  1.00  0.00     0.014 A 
ATOM     48  C   UNL A   1      37.064  31.783  32.751  1.00  0.00     0.010 A 
ATOM     49  C   UNL A   1      37.186  33.692  34.242  1.00  0.00     0.010 A 
ATOM     50  C   UNL A   1      37.806  32.610  33.613  1.00  0.00    -0.014 A 
BRANCH  50  51
ATOM     51  C   UNL A   1      39.267  32.427  33.696  1.00  0.00     0.031 A 
ATOM     52  C   UNL A   1      40.018  32.728  32.429  1.00  0.00     0.074 A 
ATOM     53  C   UNL A   1      39.922  32.152  34.847  1.00  0.00     0.049 A 
ATOM     54  N   UNL A   1      40.915  32.007  31.838  1.00  0.00    -0.248 NA
ATOM     55  C   UNL A   1      39.660  33.941  31.677  1.00  0.00     0.031 C 
ATOM     56  C   UNL A   1      39.361  32.051  36.195  1.00  0.00     0.029 A 
ATOM     57  N   UNL A   1      41.265  32.007  35.071  1.00  0.00    -0.354 N 
ATOM     58  C   UNL A   1      41.315  32.704  30.688  1.00  0.00     0.074 A 
ATOM     59  C   UNL A   1      40.456  33.854  30.610  1.00  0.00     0.031 C 
ATOM     60  C   UNL A   1      40.360  32.066  37.104  1.00  0.00     0.029 A 
ATOM     61  C   UNL A   1      41.640  32.074  36.419  1.00  0.00     0.049 A 
ATOM     62  H   UNL A   1      41.913  31.867  34.344  1.00  0.00     0.167 HD
ATOM     63  C   UNL A   1      42.385  32.303  29.939  1.00  0.00     0.034 A 
ATOM     64  C   UNL A   1      42.902  32.194  36.919  1.00  0.00     0.034 A 
ATOM     65  C   UNL A   1      42.712  30.927  30.237  1.00  0.00     0.049 A 
ATOM     66  C   UNL A   1      43.813  31.741  35.834  1.00  0.00     0.074 A 
ATOM     67  C   UNL A   1      42.090  29.714  30.017  1.00  0.00     0.029 A 
ATOM     68  N   UNL A   1      43.710  30.686  31.147  1.00  0.00    -0.354 N 
ATOM     69  N   UNL A   1      43.955  30.493  35.496  1.00  0.00    -0.248 NA
ATOM     70  C   UNL A   1      44.316  32.705  34.865  1.00  0.00     0.031 C 
ATOM     71  C   UNL A   1      42.469  28.892  31.117  1.00  0.00     0.029 A 
ATOM     72  C   UNL A   1      43.321  29.635  31.935  1.00  0.00     0.049 A 
ATOM     73  H   UNL A   1      44.558  31.180  31.219  1.00  0.00     0.167 HD
ATOM     74  C   UNL A   1      44.116  30.520  34.120  1.00  0.00     0.074 A 
ATOM     75  C   UNL A   1      44.459  31.898  33.811  1.00  0.00     0.031 C 
ATOM     76  C   UNL A   1      43.672  29.499  33.332  1.00  0.00     0.034 A 
BRANCH  63  77
ATOM     77  C   UNL A   1      43.297  33.155  29.064  1.00  0.00     0.023 A 
ATOM     78  C   UNL A   1      43.514  34.495  29.484  1.00  0.00     0.012 A 
ATOM     79  C   UNL A   1      43.797  32.826  27.785  1.00  0.00     0.148 A 
ATOM     80  C   UNL A   1      44.089  35.466  28.655  1.00  0.00     0.002 A 
ATOM     81  C   UNL A   1      44.439  33.778  26.987  1.00  0.00     0.091 A 
ATOM     82  F   UNL A   1      43.584  31.615  27.273  1.00  0.00    -0.205 F 
ATOM     83  C   UNL A   1      44.547  35.108  27.398  1.00  0.00     0.022 A 
BRANCH  81  84
ATOM     84  S   UNL A   1      45.198  33.348  25.411  1.00  0.00     0.127 S 
ATOM     85  O   UNL A   1      45.976  34.545  25.116  1.00  0.00    -0.237 OA
ATOM     86  O   UNL A   1      45.992  32.174  25.770  1.00  0.00    -0.237 OA
ATOM     87  O   UNL A   1      44.090  33.070  24.507  1.00  0.00    -0.744 OA
ENDBRANCH  81  84
ENDBRANCH  63  77
BRANCH  64  88
ATOM     88  C   UNL A   1      43.461  32.806  38.175  1.00  0.00     0.023 A 
ATOM     89  C   UNL A   1      43.109  34.148  38.457  1.00  0.00     0.012 A 
ATOM     90  C   UNL A   1      43.986  32.049  39.248  1.00  0.00     0.148 A 
ATOM     91  C   UNL A   1      43.122  34.657  39.763  1.00  0.00     0.002 A 
ATOM     92  C   UNL A   1      43.933  32.535  40.559  1.00  0.00     0.091 A 
ATOM     93  F   UNL A   1      44.430  30.809  39.022  1.00  0.00    -0.205 F 
ATOM     94  C   UNL A   1      43.487  33.835  40.821  1.00  0.00     0.022 A 
BRANCH  92  95
ATOM     95  S   UNL A   1      44.177  31.463  41.994  1.00  0.00     0.127 S 
ATOM     96  O   UNL A   1      43.938  32.387  43.101  1.00  0.00    -0.237 OA
ATOM     97  O   UNL A   1      43.135  30.454  41.803  1.00  0.00    -0.237 OA
ATOM     98  O   UNL A   1      45.542  30.961  41.893  1.00  0.00    -0.744 OA
ENDBRANCH  92  95
ENDBRANCH  64  88
BRANCH  76  99
ATOM     99  C   UNL A   1      43.239  28.235  34.030  1.00  0.00     0.023 A 
ATOM    100  C   UNL A   1      41.920  28.062  34.503  1.00  0.00     0.012 A 
ATOM    101  C   UNL A   1      44.132  27.155  34.110  1.00  0.00     0.148 A 
ATOM    102  C   UNL A   1      41.517  26.864  35.091  1.00  0.00     0.002 A 
ATOM    103  C   UNL A   1      43.710  25.943  34.643  1.00  0.00     0.091 A 
ATOM    104  F   UNL A   1      45.384  27.325  33.655  1.00  0.00    -0.205 F 
ATOM    105  C   UNL A   1      42.409  25.798  35.151  1.00  0.00     0.022 A 
BRANCH 103 106
ATOM    106  S   UNL A   1      44.778  24.503  34.611  1.00  0.00     0.127 S 
ATOM    107  O   UNL A   1      45.760  24.824  35.643  1.00  0.00    -0.237 OA
ATOM    108  O   UNL A   1      43.860  23.415  34.956  1.00  0.00    -0.237 OA
ATOM    109  O   UNL A   1      45.287  24.433  33.246  1.00  0.00    -0.744 OA
ENDBRANCH 103 106
ENDBRANCH  76  99
ENDBRANCH  50  51
ENDBRANCH  42  45
ENDBRANCH  40  41
ENDBRANCH  39  40
ENDBRANCH  38  39
ENDBRANCH  37  38
ENDBRANCH  36  37
ENDBRANCH   1  36
TORSDOF 24
ENDMDL
MODEL 3
REMARK VINA RESULT:     -10.1      2.315      3.359
REMARK SMILES NS(=O)(=O)c1ccc(-n2nc(C(=O)NCCCC(=O)NCCCCCCNC(=O)c3ccc(-c4c5nc(c(-c6cccc(S(=O)(=O)[O-])c6F)c6ccc([nH]6)c(-c6cccc(S(=O)(=O)[O-])c6F)c6nc(c(-c7cccc(S(=O)(=O)[O-])c7F)c7ccc4[nH]7)C=C6)C=C5)cc3)cc2-c2ccccc2)cc1
REMARK SMILES IDX 21 1 20 2 18 3 19 4 17 6 16 7 15 8 14 9 12 10 13 11 11 13
REMARK SMILES IDX 9 14 10 15 94 16 93 17 8 18 5 19 6 20 102 21 7 22 101 23
REMARK SMILES IDX 2 24 3 25 4 26 1 27 95 30 96 31 100 32 97 33 99 34 98 35
REMARK SMILES IDX 22 36 23 37 24 38 25 39 26 40 27 41 28 42 29 44 30 45 31 46
REMARK SMILES IDX 92 47 32 48 91 49 33 50 34 51 35 52 85 53 36 54 90 55 84 56
REMARK SMILES IDX 86 57 37 58 89 59 83 60 82 61 38 63 70 64 50 65 69 66 51 67
REMARK SMILES IDX 54 68 68 69 87 70 52 71 53 72 67 74 88 75 55 76 39 77 40 78
REMARK SMILES IDX 48 79 41 80 43 81 49 82 42 83 44 84 45 85 46 86 47 87 71 88
REMARK SMILES IDX 72 89 80 90 73 91 75 92 81 93 74 94 76 95 77 96 78 97 79 98
REMARK SMILES IDX 56 99 57 100 65 101 58 102 60 103 66 104 59 105 61 106
REMARK SMILES IDX 62 107 63 108 64 109
REMARK H PARENT 20 5 14 12 1 28 1 29 27 43 86 62 54 73
REMARK Flexibility Score: inf
ROOT
ATOM      1  C   UNL A   1      35.414  29.392  27.375  1.00  0.00     0.116 C 
ENDROOT
BRANCH   1   2
ATOM      2  N   UNL A   1      34.123  28.956  27.872  1.00  0.00    -0.356 N 
ATOM      3  C   UNL A   1      33.028  28.516  27.196  1.00  0.00     0.220 C 
ATOM      4  O   UNL A   1      32.018  28.229  27.841  1.00  0.00    -0.275 OA
ATOM      5  H   UNL A   1      34.025  28.982  28.851  1.00  0.00     0.163 HD
BRANCH   3   6
ATOM      6  C   UNL A   1      33.063  28.346  25.689  1.00  0.00     0.102 C 
BRANCH   6   7
ATOM      7  C   UNL A   1      32.656  29.592  24.900  1.00  0.00     0.031 C 
BRANCH   7   8
ATOM      8  C   UNL A   1      31.159  29.894  24.863  1.00  0.00     0.116 C 
BRANCH   8   9
ATOM      9  N   UNL A   1      30.569  29.799  23.535  1.00  0.00    -0.351 N 
ATOM     10  C   UNL A   1      30.335  28.695  22.730  1.00  0.00     0.271 C 
ATOM     11  O   UNL A   1      29.782  28.913  21.649  1.00  0.00    -0.267 OA
ATOM     12  H   UNL A   1      30.291  30.658  23.145  1.00  0.00     0.163 HD
BRANCH  10  13
ATOM     13  C   UNL A   1      30.745  27.352  23.175  1.00  0.00     0.151 A 
ATOM     14  N   UNL A   1      31.958  25.601  23.447  1.00  0.00    -0.232 N 
ATOM     15  N   UNL A   1      31.931  26.803  22.814  1.00  0.00    -0.162 NA
ATOM     16  C   UNL A   1      30.956  25.548  24.408  1.00  0.00     0.075 A 
ATOM     17  C   UNL A   1      30.038  26.495  24.051  1.00  0.00     0.065 A 
BRANCH  14  18
ATOM     18  C   UNL A   1      32.982  24.610  23.320  1.00  0.00     0.065 A 
ATOM     19  C   UNL A   1      34.755  22.560  23.999  1.00  0.00     0.082 A 
ATOM     20  C   UNL A   1      33.466  22.232  23.591  1.00  0.00     0.024 A 
ATOM     21  C   UNL A   1      35.196  23.891  23.945  1.00  0.00     0.024 A 
ATOM     22  C   UNL A   1      32.588  23.258  23.250  1.00  0.00     0.030 A 
ATOM     23  C   UNL A   1      34.314  24.926  23.583  1.00  0.00     0.030 A 
BRANCH  19  24
ATOM     24  S   UNL A   1      35.760  21.310  24.743  1.00  0.00     0.238 S 
ATOM     25  O   UNL A   1      37.110  21.477  24.248  1.00  0.00    -0.207 OA
ATOM     26  O   UNL A   1      35.122  20.017  24.744  1.00  0.00    -0.207 OA
BRANCH  24  27
ATOM     27  N   UNL A   1      35.865  21.745  26.370  1.00  0.00    -0.225 NA
ATOM     28  H   UNL A   1      36.348  21.010  26.888  1.00  0.00     0.137 HD
ATOM     29  H   UNL A   1      34.926  21.868  26.750  1.00  0.00     0.137 HD
ENDBRANCH  24  27
ENDBRANCH  19  24
ENDBRANCH  14  18
BRANCH  16  30
ATOM     30  C   UNL A   1      31.023  24.697  25.576  1.00  0.00     0.000 A 
ATOM     31  C   UNL A   1      32.158  24.782  26.405  1.00  0.00     0.010 A 
ATOM     32  C   UNL A   1      30.073  23.708  25.774  1.00  0.00     0.010 A 
ATOM     33  C   UNL A   1      32.437  23.775  27.307  1.00  0.00     0.001 A 
ATOM     34  C   UNL A   1      30.344  22.724  26.705  1.00  0.00     0.001 A 
ATOM     35  C   UNL A   1      31.544  22.728  27.419  1.00  0.00     0.000 A 
ENDBRANCH  16  30
ENDBRANCH  10  13
ENDBRANCH   8   9
ENDBRANCH   7   8
ENDBRANCH   6   7
ENDBRANCH   3   6
ENDBRANCH   1   2
BRANCH   1  36
ATOM     36  C   UNL A   1      36.013  30.471  28.281  1.00  0.00     0.021 C 
BRANCH  36  37
ATOM     37  C   UNL A   1      37.459  30.199  28.706  1.00  0.00     0.002 C 
BRANCH  37  38
ATOM     38  C   UNL A   1      38.296  31.444  29.029  1.00  0.00     0.002 C 
BRANCH  38  39
ATOM     39  C   UNL A   1      37.512  32.753  29.205  1.00  0.00     0.021 C 
BRANCH  39  40
ATOM     40  C   UNL A   1      38.388  34.002  29.250  1.00  0.00     0.116 C 
BRANCH  40  41
ATOM     41  N   UNL A   1      38.308  34.663  30.546  1.00  0.00    -0.352 N 
ATOM     42  C   UNL A   1      38.797  34.246  31.761  1.00  0.00     0.251 C 
ATOM     43  H   UNL A   1      37.840  35.529  30.552  1.00  0.00     0.163 HD
ATOM     44  O   UNL A   1      38.380  34.752  32.798  1.00  0.00    -0.269 OA
BRANCH  42  45
ATOM     45  C   UNL A   1      39.804  33.170  31.814  1.00  0.00     0.039 A 
ATOM     46  C   UNL A   1      39.408  31.883  32.183  1.00  0.00     0.014 A 
ATOM     47  C   UNL A   1      41.136  33.438  31.493  1.00  0.00     0.014 A 
ATOM     48  C   UNL A   1      40.337  30.846  32.141  1.00  0.00     0.010 A 
ATOM     49  C   UNL A   1      42.044  32.395  31.386  1.00  0.00     0.010 A 
ATOM     50  C   UNL A   1      41.652  31.093  31.707  1.00  0.00    -0.014 A 
BRANCH  50  51
ATOM     51  C   UNL A   1      42.538  29.948  31.427  1.00  0.00     0.031 A 
ATOM     52  C   UNL A   1      43.098  29.265  32.644  1.00  0.00     0.074 A 
ATOM     53  C   UNL A   1      42.732  29.438  30.189  1.00  0.00     0.049 A 
ATOM     54  N   UNL A   1      44.327  28.938  32.886  1.00  0.00    -0.248 NA
ATOM     55  C   UNL A   1      42.192  28.994  33.771  1.00  0.00     0.031 C 
ATOM     56  C   UNL A   1      42.088  29.848  28.940  1.00  0.00     0.029 A 
ATOM     57  N   UNL A   1      43.481  28.361  29.799  1.00  0.00    -0.354 N 
ATOM     58  C   UNL A   1      44.353  28.333  34.151  1.00  0.00     0.074 A 
ATOM     59  C   UNL A   1      43.018  28.460  34.671  1.00  0.00     0.031 C 
ATOM     60  C   UNL A   1      42.312  28.917  27.988  1.00  0.00     0.029 A 
ATOM     61  C   UNL A   1      43.196  27.891  28.510  1.00  0.00     0.049 A 
ATOM     62  H   UNL A   1      44.163  27.950  30.377  1.00  0.00     0.167 HD
ATOM     63  C   UNL A   1      45.469  27.706  34.626  1.00  0.00     0.034 A 
ATOM     64  C   UNL A   1      43.605  26.717  27.951  1.00  0.00     0.034 A 
ATOM     65  C   UNL A   1      46.631  28.129  33.879  1.00  0.00     0.049 A 
ATOM     66  C   UNL A   1      44.786  26.281  28.743  1.00  0.00     0.074 A 
ATOM     67  C   UNL A   1      47.332  29.313  33.766  1.00  0.00     0.029 A 
ATOM     68  N   UNL A   1      47.057  27.333  32.846  1.00  0.00    -0.354 N 
ATOM     69  N   UNL A   1      45.954  26.848  28.655  1.00  0.00    -0.248 NA
ATOM     70  C   UNL A   1      44.598  25.431  29.912  1.00  0.00     0.031 C 
ATOM     71  C   UNL A   1      47.830  29.330  32.432  1.00  0.00     0.029 A 
ATOM     72  C   UNL A   1      47.431  28.147  31.809  1.00  0.00     0.049 A 
ATOM     73  H   UNL A   1      47.089  26.349  32.849  1.00  0.00     0.167 HD
ATOM     74  C   UNL A   1      46.455  26.818  29.947  1.00  0.00     0.074 A 
ATOM     75  C   UNL A   1      45.646  25.828  30.638  1.00  0.00     0.031 C 
ATOM     76  C   UNL A   1      47.278  27.800  30.413  1.00  0.00     0.034 A 
BRANCH  63  77
ATOM     77  C   UNL A   1      45.554  26.562  35.630  1.00  0.00     0.023 A 
ATOM     78  C   UNL A   1      45.898  26.908  36.964  1.00  0.00     0.012 A 
ATOM     79  C   UNL A   1      45.518  25.179  35.346  1.00  0.00     0.148 A 
ATOM     80  C   UNL A   1      46.283  25.959  37.918  1.00  0.00     0.002 A 
ATOM     81  C   UNL A   1      45.829  24.227  36.322  1.00  0.00     0.091 A 
ATOM     82  F   UNL A   1      45.272  24.754  34.108  1.00  0.00    -0.205 F 
ATOM     83  C   UNL A   1      46.255  24.613  37.594  1.00  0.00     0.022 A 
BRANCH  81  84
ATOM     84  S   UNL A   1      45.663  22.459  36.019  1.00  0.00     0.127 S 
ATOM     85  O   UNL A   1      44.326  22.377  35.442  1.00  0.00    -0.237 OA
ATOM     86  O   UNL A   1      46.753  22.212  35.077  1.00  0.00    -0.237 OA
ATOM     87  O   UNL A   1      45.834  21.822  37.318  1.00  0.00    -0.744 OA
ENDBRANCH  81  84
ENDBRANCH  63  77
BRANCH  64  88
ATOM     88  C   UNL A   1      43.016  25.812  26.904  1.00  0.00     0.023 A 
ATOM     89  C   UNL A   1      43.804  25.544  25.758  1.00  0.00     0.012 A 
ATOM     90  C   UNL A   1      41.930  24.938  27.145  1.00  0.00     0.148 A 
ATOM     91  C   UNL A   1      43.624  24.384  24.992  1.00  0.00     0.002 A 
ATOM     92  C   UNL A   1      41.796  23.747  26.422  1.00  0.00     0.091 A 
ATOM     93  F   UNL A   1      41.092  25.196  28.153  1.00  0.00    -0.205 F 
ATOM     94  C   UNL A   1      42.652  23.461  25.354  1.00  0.00     0.022 A 
BRANCH  92  95
ATOM     95  S   UNL A   1      40.711  22.408  26.967  1.00  0.00     0.127 S 
ATOM     96  O   UNL A   1      41.219  22.139  28.311  1.00  0.00    -0.237 OA
ATOM     97  O   UNL A   1      39.395  23.045  26.927  1.00  0.00    -0.237 OA
ATOM     98  O   UNL A   1      40.898  21.326  26.008  1.00  0.00    -0.744 OA
ENDBRANCH  92  95
ENDBRANCH  64  88
BRANCH  76  99
ATOM     99  C   UNL A   1      47.826  28.772  29.399  1.00  0.00     0.023 A 
ATOM    100  C   UNL A   1      49.083  28.577  28.786  1.00  0.00     0.012 A 
ATOM    101  C   UNL A   1      47.019  29.835  28.963  1.00  0.00     0.148 A 
ATOM    102  C   UNL A   1      49.549  29.451  27.805  1.00  0.00     0.002 A 
ATOM    103  C   UNL A   1      47.462  30.670  27.943  1.00  0.00     0.091 A 
ATOM    104  F   UNL A   1      45.824  30.012  29.547  1.00  0.00    -0.205 F 
ATOM    105  C   UNL A   1      48.733  30.492  27.374  1.00  0.00     0.022 A 
BRANCH 103 106
ATOM    106  S   UNL A   1      46.390  31.932  27.258  1.00  0.00     0.127 S 
ATOM    107  O   UNL A   1      47.175  32.426  26.130  1.00  0.00    -0.237 OA
ATOM    108  O   UNL A   1      45.194  31.172  26.886  1.00  0.00    -0.237 OA
ATOM    109  O   UNL A   1      46.170  32.880  28.345  1.00  0.00    -0.744 OA
ENDBRANCH 103 106
ENDBRANCH  76  99
ENDBRANCH  50  51
ENDBRANCH  42  45
ENDBRANCH  40  41
ENDBRANCH  39  40
ENDBRANCH  38  39
ENDBRANCH  37  38
ENDBRANCH  36  37
ENDBRANCH   1  36
TORSDOF 24
ENDMDL
