MODEL 1
REMARK VINA RESULT:     -11.3      0.000      0.000
REMARK SMILES Cc1ccc(S(=O)(=O)n2cc(C(=O)C(=O)NCC(=O)N[C@@H](Cc3c[nH]c4ccccc34)C(=O)NCCCCCCNC(=O)c3ccc(-c4c5nc(c(-c6cccc(S(=O)(=O)[O-])c6F)c6ccc([nH]6)c(-c6cccc(S(=O)(=O)[O-])c6F)c6nc(c(-c7cccc(S(=O)(=O)[O-])c7F)c7ccc4[nH]7)C=C6)C=C5)cc3)c3ccccc32)cc1
REMARK SMILES IDX 35 1 34 2 32 3 33 4 21 6 20 7 18 8 19 9 17 11 16 12 14 13
REMARK SMILES IDX 15 14 12 16 13 17 11 18 9 19 10 20 112 21 107 22 111 23
REMARK SMILES IDX 108 24 110 25 109 26 6 27 7 28 8 29 5 30 1 31 2 32 3 33
REMARK SMILES IDX 114 34 4 35 113 36 22 37 23 38 24 39 31 40 25 41 26 42 30 43
REMARK SMILES IDX 27 45 29 46 28 47 36 48 37 49 38 50 39 51 40 52 41 53 42 54
REMARK SMILES IDX 43 56 44 57 45 58 106 59 46 60 105 61 47 62 48 63 49 64
REMARK SMILES IDX 99 65 50 66 104 67 98 68 100 69 51 70 103 71 97 72 96 73
REMARK SMILES IDX 52 75 84 76 64 77 83 78 65 79 68 80 82 81 101 82 66 83 67 84
REMARK SMILES IDX 81 86 102 87 69 88 53 89 54 90 62 91 55 92 57 93 63 94 56 95
REMARK SMILES IDX 58 96 59 97 60 98 61 99 85 100 86 101 94 102 87 103 89 104
REMARK SMILES IDX 95 105 88 106 90 107 91 108 92 109 93 110 70 111 71 112
REMARK SMILES IDX 79 113 72 114 74 115 80 116 73 117 75 118 76 119 77 120
REMARK SMILES IDX 78 121
REMARK H PARENT 34 5 20 10 16 15 25 44 41 55 100 74 68 85
REMARK Flexibility Score: inf
ROOT
ATOM      1  C   UNL A   1      39.871  27.038  28.216  1.00  0.00     0.116 C 
ENDROOT
BRANCH   1   2
ATOM      2  N   UNL A   1      40.808  26.783  27.141  1.00  0.00    -0.354 N 
ATOM      3  C   UNL A   1      40.898  25.705  26.311  1.00  0.00     0.242 C 
ATOM      4  O   UNL A   1      41.434  25.895  25.211  1.00  0.00    -0.273 OA
ATOM      5  H   UNL A   1      41.475  27.490  26.987  1.00  0.00     0.163 HD
BRANCH   3   6
ATOM      6  C   UNL A   1      40.298  24.309  26.617  1.00  0.00     0.175 C 
BRANCH   6   7
ATOM      7  N   UNL A   1      40.984  23.498  27.624  1.00  0.00    -0.342 N 
ATOM      8  C   UNL A   1      41.964  22.561  27.420  1.00  0.00     0.240 C 
ATOM      9  O   UNL A   1      42.596  22.144  28.389  1.00  0.00    -0.273 OA
ATOM     10  H   UNL A   1      40.711  23.643  28.559  1.00  0.00     0.164 HD
BRANCH   8  11
ATOM     11  C   UNL A   1      42.269  22.071  25.990  1.00  0.00     0.216 C 
BRANCH  11  12
ATOM     12  N   UNL A   1      43.505  21.281  25.973  1.00  0.00    -0.340 N 
ATOM     13  C   UNL A   1      44.750  21.640  25.488  1.00  0.00     0.292 C 
ATOM     14  O   UNL A   1      45.668  20.832  25.433  1.00  0.00    -0.265 OA
ATOM     15  H   UNL A   1      43.440  20.377  26.359  1.00  0.00     0.164 HD
BRANCH  13  16
ATOM     16  C   UNL A   1      44.972  23.078  25.008  1.00  0.00     0.252 C 
ATOM     17  O   UNL A   1      44.818  23.281  23.804  1.00  0.00    -0.283 OA
BRANCH  16  18
ATOM     18  C   UNL A   1      45.490  24.114  25.912  1.00  0.00     0.054 A 
ATOM     19  N   UNL A   1      45.861  25.574  27.596  1.00  0.00    -0.240 N 
ATOM     20  C   UNL A   1      44.983  24.602  27.122  1.00  0.00     0.117 A 
ATOM     21  C   UNL A   1      47.012  25.541  26.796  1.00  0.00     0.065 A 
ATOM     22  C   UNL A   1      46.643  24.902  25.616  1.00  0.00     0.012 A 
ATOM     23  C   UNL A   1      48.234  26.233  26.909  1.00  0.00     0.028 A 
ATOM     24  C   UNL A   1      47.432  25.110  24.464  1.00  0.00     0.011 A 
ATOM     25  C   UNL A   1      48.963  26.472  25.747  1.00  0.00     0.002 A 
ATOM     26  C   UNL A   1      48.546  25.952  24.530  1.00  0.00     0.001 A 
BRANCH  19  27
ATOM     27  S   UNL A   1      45.433  27.202  28.042  1.00  0.00     0.268 S 
ATOM     28  O   UNL A   1      45.044  27.803  26.776  1.00  0.00    -0.201 OA
ATOM     29  O   UNL A   1      46.611  27.664  28.765  1.00  0.00    -0.201 OA
BRANCH  27  30
ATOM     30  C   UNL A   1      44.147  27.631  29.158  1.00  0.00     0.088 A 
ATOM     31  C   UNL A   1      41.223  29.642  31.618  1.00  0.00     0.044 C 
ATOM     32  C   UNL A   1      42.201  28.896  30.756  1.00  0.00    -0.051 A 
ATOM     33  C   UNL A   1      42.722  29.565  29.657  1.00  0.00     0.005 A 
ATOM     34  C   UNL A   1      42.653  27.587  31.039  1.00  0.00     0.005 A 
ATOM     35  C   UNL A   1      43.668  28.934  28.871  1.00  0.00     0.022 A 
ATOM     36  C   UNL A   1      43.634  26.943  30.244  1.00  0.00     0.022 A 
ENDBRANCH  27  30
ENDBRANCH  19  27
ENDBRANCH  16  18
ENDBRANCH  13  16
ENDBRANCH  11  12
ENDBRANCH   8  11
ENDBRANCH   6   7
BRANCH   6  37
ATOM     37  C   UNL A   1      38.764  24.241  26.719  1.00  0.00     0.072 C 
BRANCH  37  38
ATOM     38  C   UNL A   1      38.087  23.087  26.053  1.00  0.00    -0.020 A 
ATOM     39  C   UNL A   1      38.702  21.901  25.696  1.00  0.00     0.087 A 
ATOM     40  C   UNL A   1      36.693  22.934  25.743  1.00  0.00     0.003 A 
ATOM     41  N   UNL A   1      37.775  21.094  25.099  1.00  0.00    -0.361 N 
ATOM     42  C   UNL A   1      36.545  21.702  25.100  1.00  0.00     0.046 A 
ATOM     43  C   UNL A   1      35.538  23.718  25.946  1.00  0.00     0.010 A 
ATOM     44  H   UNL A   1      37.964  20.204  24.721  1.00  0.00     0.166 HD
ATOM     45  C   UNL A   1      35.321  21.246  24.594  1.00  0.00     0.026 A 
ATOM     46  C   UNL A   1      34.297  23.256  25.485  1.00  0.00     0.001 A 
ATOM     47  C   UNL A   1      34.196  22.046  24.804  1.00  0.00     0.002 A 
ENDBRANCH  37  38
ENDBRANCH   6  37
ENDBRANCH   3   6
ENDBRANCH   1   2
BRANCH   1  48
ATOM     48  C   UNL A   1      39.418  28.491  28.347  1.00  0.00     0.021 C 
BRANCH  48  49
ATOM     49  C   UNL A   1      37.959  28.761  28.742  1.00  0.00     0.002 C 
BRANCH  49  50
ATOM     50  C   UNL A   1      36.940  29.107  27.646  1.00  0.00     0.002 C 
BRANCH  50  51
ATOM     51  C   UNL A   1      35.607  29.720  28.068  1.00  0.00     0.021 C 
BRANCH  51  52
ATOM     52  C   UNL A   1      35.366  31.160  27.636  1.00  0.00     0.116 C 
BRANCH  52  53
ATOM     53  N   UNL A   1      34.569  31.931  28.580  1.00  0.00    -0.352 N 
ATOM     54  C   UNL A   1      34.970  32.556  29.758  1.00  0.00     0.251 C 
ATOM     55  H   UNL A   1      33.615  32.024  28.353  1.00  0.00     0.163 HD
ATOM     56  O   UNL A   1      34.154  33.094  30.464  1.00  0.00    -0.269 OA
BRANCH  54  57
ATOM     57  C   UNL A   1      36.429  32.622  30.053  1.00  0.00     0.039 A 
ATOM     58  C   UNL A   1      36.997  31.580  30.794  1.00  0.00     0.014 A 
ATOM     59  C   UNL A   1      37.147  33.788  29.809  1.00  0.00     0.014 A 
ATOM     60  C   UNL A   1      38.180  31.807  31.498  1.00  0.00     0.010 A 
ATOM     61  C   UNL A   1      38.268  34.047  30.572  1.00  0.00     0.010 A 
ATOM     62  C   UNL A   1      38.741  33.082  31.471  1.00  0.00    -0.014 A 
BRANCH  62  63
ATOM     63  C   UNL A   1      39.713  33.568  32.443  1.00  0.00     0.031 A 
ATOM     64  C   UNL A   1      39.293  34.211  33.705  1.00  0.00     0.074 A 
ATOM     65  C   UNL A   1      41.014  33.244  32.261  1.00  0.00     0.049 A 
ATOM     66  N   UNL A   1      40.075  34.929  34.440  1.00  0.00    -0.248 NA
ATOM     67  C   UNL A   1      37.936  34.105  34.226  1.00  0.00     0.031 C 
ATOM     68  C   UNL A   1      42.061  33.221  33.275  1.00  0.00     0.029 A 
ATOM     69  N   UNL A   1      41.700  33.064  31.053  1.00  0.00    -0.354 N 
ATOM     70  C   UNL A   1      39.422  35.164  35.629  1.00  0.00     0.074 A 
ATOM     71  C   UNL A   1      38.075  34.678  35.426  1.00  0.00     0.031 C 
ATOM     72  C   UNL A   1      43.251  33.320  32.666  1.00  0.00     0.029 A 
ATOM     73  C   UNL A   1      42.994  33.572  31.259  1.00  0.00     0.049 A 
ATOM     74  H   UNL A   1      41.346  32.663  30.227  1.00  0.00     0.167 HD
ATOM     75  C   UNL A   1      40.119  35.609  36.713  1.00  0.00     0.034 A 
ATOM     76  C   UNL A   1      43.562  34.563  30.514  1.00  0.00     0.034 A 
ATOM     77  C   UNL A   1      41.537  35.798  36.407  1.00  0.00     0.049 A 
ATOM     78  C   UNL A   1      44.035  35.746  31.337  1.00  0.00     0.074 A 
ATOM     79  C   UNL A   1      42.647  34.981  36.553  1.00  0.00     0.029 A 
ATOM     80  N   UNL A   1      41.933  36.859  35.606  1.00  0.00    -0.354 N 
ATOM     81  N   UNL A   1      43.823  35.878  32.617  1.00  0.00    -0.248 NA
ATOM     82  C   UNL A   1      44.740  36.899  30.778  1.00  0.00     0.031 C 
ATOM     83  C   UNL A   1      43.698  35.521  35.767  1.00  0.00     0.029 A 
ATOM     84  C   UNL A   1      43.232  36.674  35.160  1.00  0.00     0.049 A 
ATOM     85  H   UNL A   1      41.369  37.636  35.387  1.00  0.00     0.167 HD
ATOM     86  C   UNL A   1      44.183  37.139  33.017  1.00  0.00     0.074 A 
ATOM     87  C   UNL A   1      44.840  37.702  31.853  1.00  0.00     0.031 C 
ATOM     88  C   UNL A   1      43.836  37.634  34.245  1.00  0.00     0.034 A 
BRANCH  75  89
ATOM     89  C   UNL A   1      39.576  35.537  38.124  1.00  0.00     0.023 A 
ATOM     90  C   UNL A   1      39.472  36.743  38.853  1.00  0.00     0.012 A 
ATOM     91  C   UNL A   1      39.223  34.356  38.810  1.00  0.00     0.148 A 
ATOM     92  C   UNL A   1      39.153  36.769  40.213  1.00  0.00     0.002 A 
ATOM     93  C   UNL A   1      38.986  34.372  40.187  1.00  0.00     0.091 A 
ATOM     94  F   UNL A   1      39.056  33.219  38.119  1.00  0.00    -0.205 F 
ATOM     95  C   UNL A   1      38.954  35.578  40.894  1.00  0.00     0.022 A 
BRANCH  93  96
ATOM     96  S   UNL A   1      38.865  32.855  41.150  1.00  0.00     0.127 S 
ATOM     97  O   UNL A   1      37.639  32.246  40.625  1.00  0.00    -0.237 OA
ATOM     98  O   UNL A   1      40.093  32.152  40.794  1.00  0.00    -0.237 OA
ATOM     99  O   UNL A   1      38.754  33.285  42.540  1.00  0.00    -0.744 OA
ENDBRANCH  93  96
ENDBRANCH  75  89
BRANCH  76 100
ATOM    100  C   UNL A   1      43.068  34.626  29.111  1.00  0.00     0.023 A 
ATOM    101  C   UNL A   1      42.243  35.725  28.772  1.00  0.00     0.012 A 
ATOM    102  C   UNL A   1      43.676  33.889  28.080  1.00  0.00     0.148 A 
ATOM    103  C   UNL A   1      42.120  36.150  27.450  1.00  0.00     0.002 A 
ATOM    104  C   UNL A   1      43.555  34.327  26.760  1.00  0.00     0.091 A 
ATOM    105  F   UNL A   1      44.430  32.832  28.406  1.00  0.00    -0.205 F 
ATOM    106  C   UNL A   1      42.802  35.470  26.449  1.00  0.00     0.022 A 
BRANCH 104 107
ATOM    107  S   UNL A   1      44.477  33.555  25.423  1.00  0.00     0.127 S 
ATOM    108  O   UNL A   1      44.059  32.162  25.545  1.00  0.00    -0.237 OA
ATOM    109  O   UNL A   1      43.961  34.255  24.247  1.00  0.00    -0.237 OA
ATOM    110  O   UNL A   1      45.872  33.844  25.719  1.00  0.00    -0.744 OA
ENDBRANCH 104 107
ENDBRANCH  76 100
BRANCH  88 111
ATOM    111  C   UNL A   1      43.989  39.074  34.692  1.00  0.00     0.023 A 
ATOM    112  C   UNL A   1      44.697  39.428  35.855  1.00  0.00     0.012 A 
ATOM    113  C   UNL A   1      43.560  40.139  33.855  1.00  0.00     0.148 A 
ATOM    114  C   UNL A   1      44.929  40.765  36.202  1.00  0.00     0.002 A 
ATOM    115  C   UNL A   1      43.882  41.462  34.153  1.00  0.00     0.091 A 
ATOM    116  F   UNL A   1      42.821  39.876  32.766  1.00  0.00    -0.205 F 
ATOM    117  C   UNL A   1      44.542  41.782  35.339  1.00  0.00     0.022 A 
BRANCH 115 118
ATOM    118  S   UNL A   1      43.591  42.765  32.946  1.00  0.00     0.127 S 
ATOM    119  O   UNL A   1      42.222  43.169  33.251  1.00  0.00    -0.237 OA
ATOM    120  O   UNL A   1      44.609  43.760  33.294  1.00  0.00    -0.237 OA
ATOM    121  O   UNL A   1      43.806  42.123  31.656  1.00  0.00    -0.744 OA
ENDBRANCH 115 118
ENDBRANCH  88 111
ENDBRANCH  62  63
ENDBRANCH  54  57
ENDBRANCH  52  53
ENDBRANCH  51  52
ENDBRANCH  50  51
ENDBRANCH  49  50
ENDBRANCH  48  49
ENDBRANCH   1  48
TORSDOF 25
ENDMDL
MODEL 2
REMARK VINA RESULT:     -10.8      2.801      4.836
REMARK SMILES Cc1ccc(S(=O)(=O)n2cc(C(=O)C(=O)NCC(=O)N[C@@H](Cc3c[nH]c4ccccc34)C(=O)NCCCCCCNC(=O)c3ccc(-c4c5nc(c(-c6cccc(S(=O)(=O)[O-])c6F)c6ccc([nH]6)c(-c6cccc(S(=O)(=O)[O-])c6F)c6nc(c(-c7cccc(S(=O)(=O)[O-])c7F)c7ccc4[nH]7)C=C6)C=C5)cc3)c3ccccc32)cc1
REMARK SMILES IDX 35 1 34 2 32 3 33 4 21 6 20 7 18 8 19 9 17 11 16 12 14 13
REMARK SMILES IDX 15 14 12 16 13 17 11 18 9 19 10 20 112 21 107 22 111 23
REMARK SMILES IDX 108 24 110 25 109 26 6 27 7 28 8 29 5 30 1 31 2 32 3 33
REMARK SMILES IDX 114 34 4 35 113 36 22 37 23 38 24 39 31 40 25 41 26 42 30 43
REMARK SMILES IDX 27 45 29 46 28 47 36 48 37 49 38 50 39 51 40 52 41 53 42 54
REMARK SMILES IDX 43 56 44 57 45 58 106 59 46 60 105 61 47 62 48 63 49 64
REMARK SMILES IDX 99 65 50 66 104 67 98 68 100 69 51 70 103 71 97 72 96 73
REMARK SMILES IDX 52 75 84 76 64 77 83 78 65 79 68 80 82 81 101 82 66 83 67 84
REMARK SMILES IDX 81 86 102 87 69 88 53 89 54 90 62 91 55 92 57 93 63 94 56 95
REMARK SMILES IDX 58 96 59 97 60 98 61 99 85 100 86 101 94 102 87 103 89 104
REMARK SMILES IDX 95 105 88 106 90 107 91 108 92 109 93 110 70 111 71 112
REMARK SMILES IDX 79 113 72 114 74 115 80 116 73 117 75 118 76 119 77 120
REMARK SMILES IDX 78 121
REMARK H PARENT 34 5 20 10 16 15 25 44 41 55 100 74 68 85
REMARK Flexibility Score: inf
ROOT
ATOM      1  C   UNL A   1      40.916  28.609  28.205  1.00  0.00     0.116 C 
ENDROOT
BRANCH   1   2
ATOM      2  N   UNL A   1      41.542  28.942  26.942  1.00  0.00    -0.354 N 
ATOM      3  C   UNL A   1      42.158  28.125  26.042  1.00  0.00     0.242 C 
ATOM      4  O   UNL A   1      42.196  28.519  24.868  1.00  0.00    -0.273 OA
ATOM      5  H   UNL A   1      41.517  29.895  26.698  1.00  0.00     0.163 HD
BRANCH   3   6
ATOM      6  C   UNL A   1      42.722  26.719  26.374  1.00  0.00     0.175 C 
BRANCH   6   7
ATOM      7  N   UNL A   1      43.647  26.625  27.504  1.00  0.00    -0.342 N 
ATOM      8  C   UNL A   1      44.970  26.987  27.535  1.00  0.00     0.240 C 
ATOM      9  O   UNL A   1      45.537  27.062  28.624  1.00  0.00    -0.273 OA
ATOM     10  H   UNL A   1      43.277  26.260  28.340  1.00  0.00     0.164 HD
BRANCH   8  11
ATOM     11  C   UNL A   1      45.706  27.311  26.220  1.00  0.00     0.216 C 
BRANCH  11  12
ATOM     12  N   UNL A   1      46.276  26.090  25.639  1.00  0.00    -0.340 N 
ATOM     13  C   UNL A   1      47.115  25.967  24.546  1.00  0.00     0.292 C 
ATOM     14  O   UNL A   1      47.421  24.869  24.099  1.00  0.00    -0.265 OA
ATOM     15  H   UNL A   1      46.029  25.248  26.086  1.00  0.00     0.164 HD
BRANCH  13  16
ATOM     16  C   UNL A   1      47.665  27.237  23.887  1.00  0.00     0.252 C 
ATOM     17  O   UNL A   1      46.830  28.038  23.468  1.00  0.00    -0.283 OA
BRANCH  16  18
ATOM     18  C   UNL A   1      49.102  27.406  23.635  1.00  0.00     0.054 A 
ATOM     19  N   UNL A   1      51.313  27.859  23.746  1.00  0.00    -0.240 N 
ATOM     20  C   UNL A   1      50.111  27.941  24.445  1.00  0.00     0.117 A 
ATOM     21  C   UNL A   1      51.091  27.087  22.597  1.00  0.00     0.065 A 
ATOM     22  C   UNL A   1      49.716  27.101  22.382  1.00  0.00     0.012 A 
ATOM     23  C   UNL A   1      51.985  26.613  21.617  1.00  0.00     0.028 A 
ATOM     24  C   UNL A   1      49.234  26.804  21.089  1.00  0.00     0.011 A 
ATOM     25  C   UNL A   1      51.492  26.381  20.336  1.00  0.00     0.002 A 
ATOM     26  C   UNL A   1      50.138  26.515  20.063  1.00  0.00     0.001 A 
BRANCH  19  27
ATOM     27  S   UNL A   1      52.402  29.181  23.432  1.00  0.00     0.268 S 
ATOM     28  O   UNL A   1      53.686  28.670  23.882  1.00  0.00    -0.201 OA
ATOM     29  O   UNL A   1      51.759  30.301  24.108  1.00  0.00    -0.201 OA
BRANCH  27  30
ATOM     30  C   UNL A   1      52.719  29.864  21.846  1.00  0.00     0.088 A 
ATOM     31  C   UNL A   1      52.486  31.422  17.825  1.00  0.00     0.044 C 
ATOM     32  C   UNL A   1      52.612  30.919  19.235  1.00  0.00    -0.051 A 
ATOM     33  C   UNL A   1      51.460  30.893  20.008  1.00  0.00     0.005 A 
ATOM     34  C   UNL A   1      53.817  30.426  19.784  1.00  0.00     0.005 A 
ATOM     35  C   UNL A   1      51.522  30.384  21.292  1.00  0.00     0.022 A 
ATOM     36  C   UNL A   1      53.881  29.890  21.096  1.00  0.00     0.022 A 
ENDBRANCH  27  30
ENDBRANCH  19  27
ENDBRANCH  16  18
ENDBRANCH  13  16
ENDBRANCH  11  12
ENDBRANCH   8  11
ENDBRANCH   6   7
BRANCH   6  37
ATOM     37  C   UNL A   1      41.715  25.557  26.310  1.00  0.00     0.072 C 
BRANCH  37  38
ATOM     38  C   UNL A   1      42.243  24.219  25.905  1.00  0.00    -0.020 A 
ATOM     39  C   UNL A   1      43.230  24.005  24.960  1.00  0.00     0.087 A 
ATOM     40  C   UNL A   1      41.919  22.932  26.454  1.00  0.00     0.003 A 
ATOM     41  N   UNL A   1      43.437  22.659  24.845  1.00  0.00    -0.361 N 
ATOM     42  C   UNL A   1      42.642  21.979  25.733  1.00  0.00     0.046 A 
ATOM     43  C   UNL A   1      41.083  22.480  27.497  1.00  0.00     0.010 A 
ATOM     44  H   UNL A   1      44.066  22.239  24.214  1.00  0.00     0.166 HD
ATOM     45  C   UNL A   1      42.525  20.602  25.954  1.00  0.00     0.026 A 
ATOM     46  C   UNL A   1      40.988  21.106  27.761  1.00  0.00     0.001 A 
ATOM     47  C   UNL A   1      41.685  20.181  26.988  1.00  0.00     0.002 A 
ENDBRANCH  37  38
ENDBRANCH   6  37
ENDBRANCH   3   6
ENDBRANCH   1   2
BRANCH   1  48
ATOM     48  C   UNL A   1      39.804  29.560  28.645  1.00  0.00     0.021 C 
BRANCH  48  49
ATOM     49  C   UNL A   1      38.354  29.064  28.565  1.00  0.00     0.002 C 
BRANCH  49  50
ATOM     50  C   UNL A   1      37.396  29.716  27.556  1.00  0.00     0.002 C 
BRANCH  50  51
ATOM     51  C   UNL A   1      35.952  29.961  27.987  1.00  0.00     0.021 C 
BRANCH  51  52
ATOM     52  C   UNL A   1      35.427  31.377  27.794  1.00  0.00     0.116 C 
BRANCH  52  53
ATOM     53  N   UNL A   1      34.647  31.873  28.918  1.00  0.00    -0.352 N 
ATOM     54  C   UNL A   1      35.087  32.306  30.166  1.00  0.00     0.251 C 
ATOM     55  H   UNL A   1      33.673  31.908  28.775  1.00  0.00     0.163 HD
ATOM     56  O   UNL A   1      34.289  32.616  31.014  1.00  0.00    -0.269 OA
BRANCH  54  57
ATOM     57  C   UNL A   1      36.554  32.465  30.374  1.00  0.00     0.039 A 
ATOM     58  C   UNL A   1      37.250  31.413  30.979  1.00  0.00     0.014 A 
ATOM     59  C   UNL A   1      37.163  33.702  30.192  1.00  0.00     0.014 A 
ATOM     60  C   UNL A   1      38.459  31.674  31.625  1.00  0.00     0.010 A 
ATOM     61  C   UNL A   1      38.311  33.985  30.904  1.00  0.00     0.010 A 
ATOM     62  C   UNL A   1      38.918  32.989  31.679  1.00  0.00    -0.014 A 
BRANCH  62  63
ATOM     63  C   UNL A   1      39.917  33.467  32.628  1.00  0.00     0.031 A 
ATOM     64  C   UNL A   1      39.531  34.102  33.905  1.00  0.00     0.074 A 
ATOM     65  C   UNL A   1      41.211  33.141  32.410  1.00  0.00     0.049 A 
ATOM     66  N   UNL A   1      40.334  34.814  34.623  1.00  0.00    -0.248 NA
ATOM     67  C   UNL A   1      38.188  33.996  34.461  1.00  0.00     0.031 C 
ATOM     68  C   UNL A   1      42.285  33.111  33.396  1.00  0.00     0.029 A 
ATOM     69  N   UNL A   1      41.865  32.968  31.184  1.00  0.00    -0.354 N 
ATOM     70  C   UNL A   1      39.712  35.043  35.831  1.00  0.00     0.074 A 
ATOM     71  C   UNL A   1      38.359  34.560  35.660  1.00  0.00     0.031 C 
ATOM     72  C   UNL A   1      43.459  33.211  32.756  1.00  0.00     0.029 A 
ATOM     73  C   UNL A   1      43.165  33.472  31.358  1.00  0.00     0.049 A 
ATOM     74  H   UNL A   1      41.489  32.573  30.365  1.00  0.00     0.167 HD
ATOM     75  C   UNL A   1      40.438  35.480  36.899  1.00  0.00     0.034 A 
ATOM     76  C   UNL A   1      43.715  34.467  30.605  1.00  0.00     0.034 A 
ATOM     77  C   UNL A   1      41.848  35.668  36.556  1.00  0.00     0.049 A 
ATOM     78  C   UNL A   1      44.212  35.644  31.423  1.00  0.00     0.074 A 
ATOM     79  C   UNL A   1      42.960  34.849  36.669  1.00  0.00     0.029 A 
ATOM     80  N   UNL A   1      42.225  36.734  35.752  1.00  0.00    -0.354 N 
ATOM     81  N   UNL A   1      44.034  35.768  32.709  1.00  0.00    -0.248 NA
ATOM     82  C   UNL A   1      44.904  36.799  30.853  1.00  0.00     0.031 C 
ATOM     83  C   UNL A   1      43.991  35.392  35.858  1.00  0.00     0.029 A 
ATOM     84  C   UNL A   1      43.511  36.549  35.271  1.00  0.00     0.049 A 
ATOM     85  H   UNL A   1      41.657  37.513  35.553  1.00  0.00     0.167 HD
ATOM     86  C   UNL A   1      44.406  37.026  33.107  1.00  0.00     0.074 A 
ATOM     87  C   UNL A   1      45.034  37.596  31.929  1.00  0.00     0.031 C 
ATOM     88  C   UNL A   1      44.092  37.514  34.346  1.00  0.00     0.034 A 
BRANCH  75  89
ATOM     89  C   UNL A   1      39.932  35.400  38.323  1.00  0.00     0.023 A 
ATOM     90  C   UNL A   1      39.438  36.584  38.915  1.00  0.00     0.012 A 
ATOM     91  C   UNL A   1      39.970  34.255  39.146  1.00  0.00     0.148 A 
ATOM     92  C   UNL A   1      39.114  36.663  40.272  1.00  0.00     0.002 A 
ATOM     93  C   UNL A   1      39.726  34.352  40.519  1.00  0.00     0.091 A 
ATOM     94  F   UNL A   1      40.184  33.054  38.592  1.00  0.00    -0.205 F 
ATOM     95  C   UNL A   1      39.300  35.557  41.086  1.00  0.00     0.022 A 
BRANCH  93  96
ATOM     96  S   UNL A   1      40.089  32.997  41.648  1.00  0.00     0.127 S 
ATOM     97  O   UNL A   1      41.536  32.832  41.488  1.00  0.00    -0.237 OA
ATOM     98  O   UNL A   1      39.678  33.540  42.939  1.00  0.00    -0.237 OA
ATOM     99  O   UNL A   1      39.314  31.863  41.157  1.00  0.00    -0.744 OA
ENDBRANCH  93  96
ENDBRANCH  75  89
BRANCH  76 100
ATOM    100  C   UNL A   1      43.184  34.540  29.216  1.00  0.00     0.023 A 
ATOM    101  C   UNL A   1      42.380  35.659  28.897  1.00  0.00     0.012 A 
ATOM    102  C   UNL A   1      43.745  33.785  28.170  1.00  0.00     0.148 A 
ATOM    103  C   UNL A   1      42.231  36.084  27.577  1.00  0.00     0.002 A 
ATOM    104  C   UNL A   1      43.599  34.223  26.854  1.00  0.00     0.091 A 
ATOM    105  F   UNL A   1      44.480  32.709  28.480  1.00  0.00    -0.205 F 
ATOM    106  C   UNL A   1      42.868  35.385  26.560  1.00  0.00     0.022 A 
BRANCH 104 107
ATOM    107  S   UNL A   1      44.463  33.424  25.493  1.00  0.00     0.127 S 
ATOM    108  O   UNL A   1      45.855  33.561  25.910  1.00  0.00    -0.237 OA
ATOM    109  O   UNL A   1      43.932  32.062  25.546  1.00  0.00    -0.237 OA
ATOM    110  O   UNL A   1      44.062  34.171  24.311  1.00  0.00    -0.744 OA
ENDBRANCH 104 107
ENDBRANCH  76 100
BRANCH  88 111
ATOM    111  C   UNL A   1      44.260  38.951  34.798  1.00  0.00     0.023 A 
ATOM    112  C   UNL A   1      45.166  39.319  35.810  1.00  0.00     0.012 A 
ATOM    113  C   UNL A   1      43.622  40.008  34.095  1.00  0.00     0.148 A 
ATOM    114  C   UNL A   1      45.395  40.660  36.145  1.00  0.00     0.002 A 
ATOM    115  C   UNL A   1      43.932  41.340  34.363  1.00  0.00     0.091 A 
ATOM    116  F   UNL A   1      42.697  39.727  33.164  1.00  0.00    -0.205 F 
ATOM    117  C   UNL A   1      44.797  41.671  35.406  1.00  0.00     0.022 A 
BRANCH 115 118
ATOM    118  S   UNL A   1      43.345  42.650  33.277  1.00  0.00     0.127 S 
ATOM    119  O   UNL A   1      41.923  42.707  33.603  1.00  0.00    -0.237 OA
ATOM    120  O   UNL A   1      44.118  43.810  33.725  1.00  0.00    -0.237 OA
ATOM    121  O   UNL A   1      43.685  42.192  31.936  1.00  0.00    -0.744 OA
ENDBRANCH 115 118
ENDBRANCH  88 111
ENDBRANCH  62  63
ENDBRANCH  54  57
ENDBRANCH  52  53
ENDBRANCH  51  52
ENDBRANCH  50  51
ENDBRANCH  49  50
ENDBRANCH  48  49
ENDBRANCH   1  48
TORSDOF 25
ENDMDL
MODEL 3
REMARK VINA RESULT:     -10.5      1.568      2.512
REMARK SMILES Cc1ccc(S(=O)(=O)n2cc(C(=O)C(=O)NCC(=O)N[C@@H](Cc3c[nH]c4ccccc34)C(=O)NCCCCCCNC(=O)c3ccc(-c4c5nc(c(-c6cccc(S(=O)(=O)[O-])c6F)c6ccc([nH]6)c(-c6cccc(S(=O)(=O)[O-])c6F)c6nc(c(-c7cccc(S(=O)(=O)[O-])c7F)c7ccc4[nH]7)C=C6)C=C5)cc3)c3ccccc32)cc1
REMARK SMILES IDX 35 1 34 2 32 3 33 4 21 6 20 7 18 8 19 9 17 11 16 12 14 13
REMARK SMILES IDX 15 14 12 16 13 17 11 18 9 19 10 20 112 21 107 22 111 23
REMARK SMILES IDX 108 24 110 25 109 26 6 27 7 28 8 29 5 30 1 31 2 32 3 33
REMARK SMILES IDX 114 34 4 35 113 36 22 37 23 38 24 39 31 40 25 41 26 42 30 43
REMARK SMILES IDX 27 45 29 46 28 47 36 48 37 49 38 50 39 51 40 52 41 53 42 54
REMARK SMILES IDX 43 56 44 57 45 58 106 59 46 60 105 61 47 62 48 63 49 64
REMARK SMILES IDX 99 65 50 66 104 67 98 68 100 69 51 70 103 71 97 72 96 73
REMARK SMILES IDX 52 75 84 76 64 77 83 78 65 79 68 80 82 81 101 82 66 83 67 84
REMARK SMILES IDX 81 86 102 87 69 88 53 89 54 90 62 91 55 92 57 93 63 94 56 95
REMARK SMILES IDX 58 96 59 97 60 98 61 99 85 100 86 101 94 102 87 103 89 104
REMARK SMILES IDX 95 105 88 106 90 107 91 108 92 109 93 110 70 111 71 112
REMARK SMILES IDX 79 113 72 114 74 115 80 116 73 117 75 118 76 119 77 120
REMARK SMILES IDX 78 121
REMARK H PARENT 34 5 20 10 16 15 25 44 41 55 100 74 68 85
REMARK Flexibility Score: inf
ROOT
ATOM      1  C   UNL A   1      40.461  27.674  28.729  1.00  0.00     0.116 C 
ENDROOT
BRANCH   1   2
ATOM      2  N   UNL A   1      41.120  27.788  27.444  1.00  0.00    -0.354 N 
ATOM      3  C   UNL A   1      41.173  26.892  26.419  1.00  0.00     0.242 C 
ATOM      4  O   UNL A   1      41.371  27.354  25.287  1.00  0.00    -0.273 OA
ATOM      5  H   UNL A   1      41.598  28.634  27.290  1.00  0.00     0.163 HD
BRANCH   3   6
ATOM      6  C   UNL A   1      40.914  25.371  26.566  1.00  0.00     0.175 C 
BRANCH   6   7
ATOM      7  N   UNL A   1      41.944  24.585  27.246  1.00  0.00    -0.342 N 
ATOM      8  C   UNL A   1      43.167  24.205  26.756  1.00  0.00     0.240 C 
ATOM      9  O   UNL A   1      44.003  23.752  27.537  1.00  0.00    -0.273 OA
ATOM     10  H   UNL A   1      41.736  24.295  28.164  1.00  0.00     0.164 HD
BRANCH   8  11
ATOM     11  C   UNL A   1      43.477  24.375  25.255  1.00  0.00     0.216 C 
BRANCH  11  12
ATOM     12  N   UNL A   1      44.510  23.420  24.836  1.00  0.00    -0.340 N 
ATOM     13  C   UNL A   1      45.869  23.630  24.693  1.00  0.00     0.292 C 
ATOM     14  O   UNL A   1      46.600  22.769  24.219  1.00  0.00    -0.265 OA
ATOM     15  H   UNL A   1      44.193  22.510  24.630  1.00  0.00     0.164 HD
BRANCH  13  16
ATOM     16  C   UNL A   1      46.463  24.972  25.135  1.00  0.00     0.252 C 
ATOM     17  O   UNL A   1      46.125  25.959  24.482  1.00  0.00    -0.283 OA
BRANCH  16  18
ATOM     18  C   UNL A   1      47.494  25.045  26.179  1.00  0.00     0.054 A 
ATOM     19  N   UNL A   1      48.687  24.975  28.096  1.00  0.00    -0.240 N 
ATOM     20  C   UNL A   1      47.424  24.763  27.547  1.00  0.00     0.117 A 
ATOM     21  C   UNL A   1      49.585  25.183  27.040  1.00  0.00     0.065 A 
ATOM     22  C   UNL A   1      48.811  25.542  25.941  1.00  0.00     0.012 A 
ATOM     23  C   UNL A   1      50.985  25.335  27.037  1.00  0.00     0.028 A 
ATOM     24  C   UNL A   1      49.431  26.236  24.879  1.00  0.00     0.011 A 
ATOM     25  C   UNL A   1      51.564  26.072  26.007  1.00  0.00     0.002 A 
ATOM     26  C   UNL A   1      50.790  26.554  24.960  1.00  0.00     0.001 A 
BRANCH  19  27
ATOM     27  S   UNL A   1      49.046  25.999  29.459  1.00  0.00     0.268 S 
ATOM     28  O   UNL A   1      49.792  25.121  30.346  1.00  0.00    -0.201 OA
ATOM     29  O   UNL A   1      47.736  26.514  29.836  1.00  0.00    -0.201 OA
BRANCH  27  30
ATOM     30  C   UNL A   1      49.994  27.474  29.382  1.00  0.00     0.088 A 
ATOM     31  C   UNL A   1      51.782  31.264  28.337  1.00  0.00     0.044 C 
ATOM     32  C   UNL A   1      51.168  29.960  28.759  1.00  0.00    -0.051 A 
ATOM     33  C   UNL A   1      49.924  29.641  28.232  1.00  0.00     0.005 A 
ATOM     34  C   UNL A   1      51.810  29.031  29.609  1.00  0.00     0.005 A 
ATOM     35  C   UNL A   1      49.349  28.424  28.550  1.00  0.00     0.022 A 
ATOM     36  C   UNL A   1      51.231  27.777  29.925  1.00  0.00     0.022 A 
ENDBRANCH  27  30
ENDBRANCH  19  27
ENDBRANCH  16  18
ENDBRANCH  13  16
ENDBRANCH  11  12
ENDBRANCH   8  11
ENDBRANCH   6   7
BRANCH   6  37
ATOM     37  C   UNL A   1      39.481  24.966  26.955  1.00  0.00     0.072 C 
BRANCH  37  38
ATOM     38  C   UNL A   1      38.986  23.646  26.457  1.00  0.00    -0.020 A 
ATOM     39  C   UNL A   1      39.686  22.455  26.529  1.00  0.00     0.087 A 
ATOM     40  C   UNL A   1      37.698  23.330  25.907  1.00  0.00     0.003 A 
ATOM     41  N   UNL A   1      38.927  21.471  25.962  1.00  0.00    -0.361 N 
ATOM     42  C   UNL A   1      37.716  21.977  25.560  1.00  0.00     0.046 A 
ATOM     43  C   UNL A   1      36.513  24.058  25.671  1.00  0.00     0.010 A 
ATOM     44  H   UNL A   1      39.210  20.534  25.855  1.00  0.00     0.166 HD
ATOM     45  C   UNL A   1      36.642  21.333  24.934  1.00  0.00     0.026 A 
ATOM     46  C   UNL A   1      35.412  23.418  25.084  1.00  0.00     0.001 A 
ATOM     47  C   UNL A   1      35.484  22.080  24.706  1.00  0.00     0.002 A 
ENDBRANCH  37  38
ENDBRANCH   6  37
ENDBRANCH   3   6
ENDBRANCH   1   2
BRANCH   1  48
ATOM     48  C   UNL A   1      39.501  28.814  29.066  1.00  0.00     0.021 C 
BRANCH  48  49
ATOM     49  C   UNL A   1      37.997  28.575  28.874  1.00  0.00     0.002 C 
BRANCH  49  50
ATOM     50  C   UNL A   1      37.254  29.340  27.768  1.00  0.00     0.002 C 
BRANCH  50  51
ATOM     51  C   UNL A   1      35.791  29.707  28.003  1.00  0.00     0.021 C 
BRANCH  51  52
ATOM     52  C   UNL A   1      35.411  31.154  27.724  1.00  0.00     0.116 C 
BRANCH  52  53
ATOM     53  N   UNL A   1      34.611  31.766  28.776  1.00  0.00    -0.352 N 
ATOM     54  C   UNL A   1      35.029  32.308  29.990  1.00  0.00     0.251 C 
ATOM     55  H   UNL A   1      33.642  31.802  28.605  1.00  0.00     0.163 HD
ATOM     56  O   UNL A   1      34.215  32.708  30.784  1.00  0.00    -0.269 OA
BRANCH  54  57
ATOM     57  C   UNL A   1      36.492  32.463  30.220  1.00  0.00     0.039 A 
ATOM     58  C   UNL A   1      37.177  31.407  30.832  1.00  0.00     0.014 A 
ATOM     59  C   UNL A   1      37.107  33.700  30.051  1.00  0.00     0.014 A 
ATOM     60  C   UNL A   1      38.377  31.664  31.496  1.00  0.00     0.010 A 
ATOM     61  C   UNL A   1      38.244  33.978  30.782  1.00  0.00     0.010 A 
ATOM     62  C   UNL A   1      38.838  32.977  31.562  1.00  0.00    -0.014 A 
BRANCH  62  63
ATOM     63  C   UNL A   1      39.823  33.450  32.528  1.00  0.00     0.031 A 
ATOM     64  C   UNL A   1      39.419  34.056  33.814  1.00  0.00     0.074 A 
ATOM     65  C   UNL A   1      41.123  33.146  32.313  1.00  0.00     0.049 A 
ATOM     66  N   UNL A   1      40.207  34.765  34.551  1.00  0.00    -0.248 NA
ATOM     67  C   UNL A   1      38.073  33.922  34.357  1.00  0.00     0.031 C 
ATOM     68  C   UNL A   1      42.190  33.110  33.308  1.00  0.00     0.029 A 
ATOM     69  N   UNL A   1      41.788  33.005  31.089  1.00  0.00    -0.354 N 
ATOM     70  C   UNL A   1      39.573  34.962  35.758  1.00  0.00     0.074 A 
ATOM     71  C   UNL A   1      38.228  34.465  35.568  1.00  0.00     0.031 C 
ATOM     72  C   UNL A   1      43.367  33.238  32.678  1.00  0.00     0.029 A 
ATOM     73  C   UNL A   1      43.080  33.522  31.283  1.00  0.00     0.049 A 
ATOM     74  H   UNL A   1      41.424  32.620  30.260  1.00  0.00     0.167 HD
ATOM     75  C   UNL A   1      40.286  35.388  36.840  1.00  0.00     0.034 A 
ATOM     76  C   UNL A   1      43.622  34.538  30.553  1.00  0.00     0.034 A 
ATOM     77  C   UNL A   1      41.695  35.601  36.512  1.00  0.00     0.049 A 
ATOM     78  C   UNL A   1      44.098  35.706  31.397  1.00  0.00     0.074 A 
ATOM     79  C   UNL A   1      42.817  34.794  36.617  1.00  0.00     0.029 A 
ATOM     80  N   UNL A   1      42.064  36.687  35.731  1.00  0.00    -0.354 N 
ATOM     81  N   UNL A   1      43.909  35.803  32.684  1.00  0.00    -0.248 NA
ATOM     82  C   UNL A   1      44.779  36.880  30.855  1.00  0.00     0.031 C 
ATOM     83  C   UNL A   1      43.847  35.366  35.825  1.00  0.00     0.029 A 
ATOM     84  C   UNL A   1      43.356  36.528  35.257  1.00  0.00     0.049 A 
ATOM     85  H   UNL A   1      41.488  37.463  35.542  1.00  0.00     0.167 HD
ATOM     86  C   UNL A   1      44.262  37.058  33.109  1.00  0.00     0.074 A 
ATOM     87  C   UNL A   1      44.890  37.658  31.947  1.00  0.00     0.031 C 
ATOM     88  C   UNL A   1      43.932  37.518  34.355  1.00  0.00     0.034 A 
BRANCH  75  89
ATOM     89  C   UNL A   1      39.770  35.275  38.258  1.00  0.00     0.023 A 
ATOM     90  C   UNL A   1      39.520  36.471  38.967  1.00  0.00     0.012 A 
ATOM     91  C   UNL A   1      39.578  34.071  38.969  1.00  0.00     0.148 A 
ATOM     92  C   UNL A   1      39.214  36.482  40.331  1.00  0.00     0.002 A 
ATOM     93  C   UNL A   1      39.354  34.083  40.349  1.00  0.00     0.091 A 
ATOM     94  F   UNL A   1      39.551  32.910  38.301  1.00  0.00    -0.205 F 
ATOM     95  C   UNL A   1      39.175  35.289  41.034  1.00  0.00     0.022 A 
BRANCH  93  96
ATOM     96  S   UNL A   1      39.438  32.582  41.340  1.00  0.00     0.127 S 
ATOM     97  O   UNL A   1      40.786  32.087  41.050  1.00  0.00    -0.237 OA
ATOM     98  O   UNL A   1      39.254  33.085  42.697  1.00  0.00    -0.237 OA
ATOM     99  O   UNL A   1      38.377  31.720  40.830  1.00  0.00    -0.744 OA
ENDBRANCH  93  96
ENDBRANCH  75  89
BRANCH  76 100
ATOM    100  C   UNL A   1      43.101  34.630  29.162  1.00  0.00     0.023 A 
ATOM    101  C   UNL A   1      42.285  35.745  28.858  1.00  0.00     0.012 A 
ATOM    102  C   UNL A   1      43.679  33.903  28.107  1.00  0.00     0.148 A 
ATOM    103  C   UNL A   1      42.140  36.193  27.545  1.00  0.00     0.002 A 
ATOM    104  C   UNL A   1      43.537  34.364  26.797  1.00  0.00     0.091 A 
ATOM    105  F   UNL A   1      44.426  32.831  28.401  1.00  0.00    -0.205 F 
ATOM    106  C   UNL A   1      42.794  35.522  26.520  1.00  0.00     0.022 A 
BRANCH 104 107
ATOM    107  S   UNL A   1      44.422  33.602  25.429  1.00  0.00     0.127 S 
ATOM    108  O   UNL A   1      45.810  33.852  25.803  1.00  0.00    -0.237 OA
ATOM    109  O   UNL A   1      43.997  32.206  25.524  1.00  0.00    -0.237 OA
ATOM    110  O   UNL A   1      43.933  34.290  24.244  1.00  0.00    -0.744 OA
ENDBRANCH 104 107
ENDBRANCH  76 100
BRANCH  88 111
ATOM    111  C   UNL A   1      44.077  38.948  34.835  1.00  0.00     0.023 A 
ATOM    112  C   UNL A   1      44.821  39.283  35.982  1.00  0.00     0.012 A 
ATOM    113  C   UNL A   1      43.601  40.027  34.043  1.00  0.00     0.148 A 
ATOM    114  C   UNL A   1      45.042  40.614  36.356  1.00  0.00     0.002 A 
ATOM    115  C   UNL A   1      43.912  41.347  34.365  1.00  0.00     0.091 A 
ATOM    116  F   UNL A   1      42.828  39.780  32.975  1.00  0.00    -0.205 F 
ATOM    117  C   UNL A   1      44.609  41.647  35.536  1.00  0.00     0.022 A 
BRANCH 115 118
ATOM    118  S   UNL A   1      43.556  42.677  33.205  1.00  0.00     0.127 S 
ATOM    119  O   UNL A   1      42.100  42.755  33.262  1.00  0.00    -0.237 OA
ATOM    120  O   UNL A   1      44.249  43.820  33.804  1.00  0.00    -0.237 OA
ATOM    121  O   UNL A   1      44.133  42.227  31.946  1.00  0.00    -0.744 OA
ENDBRANCH 115 118
ENDBRANCH  88 111
ENDBRANCH  62  63
ENDBRANCH  54  57
ENDBRANCH  52  53
ENDBRANCH  51  52
ENDBRANCH  50  51
ENDBRANCH  49  50
ENDBRANCH  48  49
ENDBRANCH   1  48
TORSDOF 25
ENDMDL
