MODEL 1
REMARK VINA RESULT:      -9.3      0.000      0.000
REMARK SMILES CC(C)C[C@H](NC(=O)[C@H](Cc1ccccc1)NC(=O)CNC(=O)CNC(=O)OCc1ccccc1)C(=O)NCCCCCCNC(=O)c1ccc(-c2c3nc(c(-c4cccc(S(=O)(=O)[O-])c4F)c4ccc([nH]4)c(-c4cccc(S(=O)(=O)[O-])c4F)c4nc(c(-c5cccc(S(=O)(=O)[O-])c5F)c5ccc2[nH]5)C=C4)C=C3)cc1
REMARK SMILES IDX 36 1 37 2 38 3 5 5 4 6 2 7 1 8 3 9 6 10 7 11 8 13 9 14 17 15
REMARK SMILES IDX 18 16 19 18 20 19 21 20 22 21 23 23 24 24 25 25 26 26 27 28
REMARK SMILES IDX 28 29 29 30 30 31 31 32 35 33 32 34 34 35 33 36 10 37 11 38
REMARK SMILES IDX 12 39 16 40 13 41 15 42 14 43 39 44 40 45 41 46 42 47 43 48
REMARK SMILES IDX 44 49 45 50 46 51 47 53 48 54 49 55 110 56 50 57 109 58
REMARK SMILES IDX 51 59 52 60 53 61 103 62 54 63 108 64 102 65 104 66 55 67
REMARK SMILES IDX 107 68 101 69 100 70 56 72 88 73 68 74 87 75 69 76 72 77
REMARK SMILES IDX 86 78 105 79 70 80 71 81 85 83 106 84 73 85 57 86 58 87
REMARK SMILES IDX 66 88 59 89 61 90 67 91 60 92 62 93 63 94 64 95 65 96 89 97
REMARK SMILES IDX 90 98 98 99 91 100 93 101 99 102 92 103 94 104 95 105 96 106
REMARK SMILES IDX 97 107 74 108 75 109 83 110 76 111 78 112 84 113 77 114
REMARK SMILES IDX 79 115 80 116 81 117 82 118
REMARK H PARENT 38 4 6 12 17 17 21 22 25 27 45 52 104 71 72 82
REMARK Flexibility Score: inf
ROOT
ATOM      1  C   UNL A   1      33.689  18.927  24.984  1.00  0.00     0.242 C 
ATOM      2  O   UNL A   1      33.304  17.793  24.676  1.00  0.00    -0.273 OA
ATOM      3  N   UNL A   1      35.002  19.205  24.772  1.00  0.00    -0.354 N 
ATOM      4  H   UNL A   1      35.572  18.424  24.591  1.00  0.00     0.163 HD
ENDROOT
BRANCH   1   5
ATOM      5  C   UNL A   1      32.673  19.966  25.504  1.00  0.00     0.171 C 
BRANCH   5   6
ATOM      6  C   UNL A   1      32.076  20.942  24.463  1.00  0.00     0.038 C 
BRANCH   6   7
ATOM      7  C   UNL A   1      32.702  20.977  23.056  1.00  0.00    -0.015 C 
ATOM      8  C   UNL A   1      31.926  20.096  22.070  1.00  0.00     0.007 C 
ATOM      9  C   UNL A   1      32.712  22.411  22.505  1.00  0.00     0.007 C 
ENDBRANCH   6   7
ENDBRANCH   5   6
BRANCH   5  10
ATOM     10  N   UNL A   1      33.019  20.635  26.756  1.00  0.00    -0.343 N 
ATOM     11  C   UNL A   1      33.144  21.947  27.090  1.00  0.00     0.243 C 
ATOM     12  H   UNL A   1      33.197  20.016  27.501  1.00  0.00     0.164 HD
ATOM     13  O   UNL A   1      33.618  22.166  28.213  1.00  0.00    -0.273 OA
BRANCH  11  14
ATOM     14  C   UNL A   1      32.759  23.135  26.157  1.00  0.00     0.175 C 
BRANCH  14  15
ATOM     15  N   UNL A   1      31.476  23.701  26.631  1.00  0.00    -0.342 N 
ATOM     16  C   UNL A   1      30.529  24.467  26.035  1.00  0.00     0.240 C 
ATOM     17  H   UNL A   1      31.270  23.477  27.567  1.00  0.00     0.164 HD
ATOM     18  O   UNL A   1      29.649  24.951  26.756  1.00  0.00    -0.273 OA
BRANCH  16  19
ATOM     19  C   UNL A   1      30.391  24.580  24.512  1.00  0.00     0.216 C 
BRANCH  19  20
ATOM     20  N   UNL A   1      31.388  25.329  23.771  1.00  0.00    -0.346 N 
ATOM     21  C   UNL A   1      31.283  26.552  23.175  1.00  0.00     0.239 C 
ATOM     22  H   UNL A   1      32.266  24.892  23.686  1.00  0.00     0.164 HD
ATOM     23  O   UNL A   1      32.302  27.037  22.679  1.00  0.00    -0.273 OA
BRANCH  21  24
ATOM     24  C   UNL A   1      29.938  27.287  23.109  1.00  0.00     0.219 C 
BRANCH  24  25
ATOM     25  N   UNL A   1      30.070  28.487  22.311  1.00  0.00    -0.312 N 
ATOM     26  C   UNL A   1      29.777  29.757  22.689  1.00  0.00     0.407 C 
ATOM     27  H   UNL A   1      30.410  28.369  21.395  1.00  0.00     0.167 HD
ATOM     28  O   UNL A   1      29.645  30.633  21.846  1.00  0.00    -0.225 OA
BRANCH  26  29
ATOM     29  O   UNL A   1      29.699  29.919  24.029  1.00  0.00    -0.445 OA
BRANCH  29  30
ATOM     30  C   UNL A   1      30.859  30.500  24.655  1.00  0.00     0.270 C 
BRANCH  30  31
ATOM     31  C   UNL A   1      31.792  29.531  25.352  1.00  0.00    -0.011 A 
ATOM     32  C   UNL A   1      31.349  28.613  26.316  1.00  0.00     0.007 A 
ATOM     33  C   UNL A   1      33.144  29.503  24.975  1.00  0.00     0.007 A 
ATOM     34  C   UNL A   1      32.202  27.626  26.808  1.00  0.00     0.000 A 
ATOM     35  C   UNL A   1      34.006  28.535  25.495  1.00  0.00     0.000 A 
ATOM     36  C   UNL A   1      33.528  27.583  26.391  1.00  0.00     0.000 A 
ENDBRANCH  30  31
ENDBRANCH  29  30
ENDBRANCH  26  29
ENDBRANCH  24  25
ENDBRANCH  21  24
ENDBRANCH  19  20
ENDBRANCH  16  19
ENDBRANCH  14  15
BRANCH  14  37
ATOM     37  C   UNL A   1      33.755  24.298  26.022  1.00  0.00     0.070 C 
BRANCH  37  38
ATOM     38  C   UNL A   1      35.149  24.034  25.495  1.00  0.00    -0.045 A 
ATOM     39  C   UNL A   1      35.470  23.834  24.145  1.00  0.00     0.004 A 
ATOM     40  C   UNL A   1      36.194  23.984  26.430  1.00  0.00     0.004 A 
ATOM     41  C   UNL A   1      36.788  23.641  23.735  1.00  0.00     0.000 A 
ATOM     42  C   UNL A   1      37.509  23.753  26.025  1.00  0.00     0.000 A 
ATOM     43  C   UNL A   1      37.807  23.591  24.675  1.00  0.00     0.000 A 
ENDBRANCH  37  38
ENDBRANCH  14  37
ENDBRANCH  11  14
ENDBRANCH   5  10
ENDBRANCH   1   5
BRANCH   3  44
ATOM     44  C   UNL A   1      35.686  20.478  24.771  1.00  0.00     0.116 C 
BRANCH  44  45
ATOM     45  C   UNL A   1      37.078  20.418  25.378  1.00  0.00     0.021 C 
BRANCH  45  46
ATOM     46  C   UNL A   1      37.917  19.200  24.977  1.00  0.00     0.002 C 
BRANCH  46  47
ATOM     47  C   UNL A   1      39.421  19.280  25.264  1.00  0.00     0.002 C 
BRANCH  47  48
ATOM     48  C   UNL A   1      39.848  20.233  26.382  1.00  0.00     0.021 C 
BRANCH  48  49
ATOM     49  C   UNL A   1      41.201  19.932  27.013  1.00  0.00     0.116 C 
BRANCH  49  50
ATOM     50  N   UNL A   1      42.183  19.489  26.039  1.00  0.00    -0.352 N 
ATOM     51  C   UNL A   1      43.179  20.211  25.430  1.00  0.00     0.251 C 
ATOM     52  H   UNL A   1      42.128  18.541  25.781  1.00  0.00     0.163 HD
ATOM     53  O   UNL A   1      43.822  19.713  24.511  1.00  0.00    -0.269 OA
BRANCH  51  54
ATOM     54  C   UNL A   1      43.453  21.594  25.872  1.00  0.00     0.039 A 
ATOM     55  C   UNL A   1      43.979  21.800  27.149  1.00  0.00     0.014 A 
ATOM     56  C   UNL A   1      43.197  22.680  25.031  1.00  0.00     0.014 A 
ATOM     57  C   UNL A   1      44.288  23.096  27.566  1.00  0.00     0.010 A 
ATOM     58  C   UNL A   1      43.587  23.959  25.415  1.00  0.00     0.010 A 
ATOM     59  C   UNL A   1      44.121  24.183  26.693  1.00  0.00    -0.014 A 
BRANCH  59  60
ATOM     60  C   UNL A   1      44.483  25.563  27.107  1.00  0.00     0.031 A 
ATOM     61  C   UNL A   1      43.429  26.482  27.666  1.00  0.00     0.074 A 
ATOM     62  C   UNL A   1      45.742  26.006  26.922  1.00  0.00     0.049 A 
ATOM     63  N   UNL A   1      43.536  27.734  28.026  1.00  0.00    -0.248 NA
ATOM     64  C   UNL A   1      42.071  25.932  27.818  1.00  0.00     0.031 C 
ATOM     65  C   UNL A   1      46.834  25.232  26.325  1.00  0.00     0.029 A 
ATOM     66  N   UNL A   1      46.312  27.225  27.193  1.00  0.00    -0.354 N 
ATOM     67  C   UNL A   1      42.263  28.127  28.421  1.00  0.00     0.074 A 
ATOM     68  C   UNL A   1      41.388  26.995  28.215  1.00  0.00     0.031 C 
ATOM     69  C   UNL A   1      47.939  25.993  26.278  1.00  0.00     0.029 A 
ATOM     70  C   UNL A   1      47.629  27.319  26.802  1.00  0.00     0.049 A 
ATOM     71  H   UNL A   1      45.824  27.963  27.625  1.00  0.00     0.167 HD
ATOM     72  C   UNL A   1      41.863  29.311  28.940  1.00  0.00     0.034 A 
ATOM     73  C   UNL A   1      48.482  28.359  26.847  1.00  0.00     0.034 A 
ATOM     74  C   UNL A   1      42.743  30.423  29.172  1.00  0.00     0.049 A 
ATOM     75  C   UNL A   1      48.011  29.661  27.439  1.00  0.00     0.074 A 
ATOM     76  C   UNL A   1      42.447  31.646  29.748  1.00  0.00     0.029 A 
ATOM     77  N   UNL A   1      44.086  30.454  28.834  1.00  0.00    -0.354 N 
ATOM     78  N   UNL A   1      46.835  29.967  27.932  1.00  0.00    -0.248 NA
ATOM     79  C   UNL A   1      48.995  30.751  27.518  1.00  0.00     0.031 C 
ATOM     80  C   UNL A   1      43.606  32.427  29.732  1.00  0.00     0.029 A 
ATOM     81  C   UNL A   1      44.634  31.675  29.187  1.00  0.00     0.049 A 
ATOM     82  H   UNL A   1      44.578  29.716  28.407  1.00  0.00     0.167 HD
ATOM     83  C   UNL A   1      46.952  31.264  28.419  1.00  0.00     0.074 A 
ATOM     84  C   UNL A   1      48.319  31.678  28.181  1.00  0.00     0.031 C 
ATOM     85  C   UNL A   1      46.011  32.048  28.999  1.00  0.00     0.034 A 
BRANCH  72  86
ATOM     86  C   UNL A   1      40.420  29.451  29.346  1.00  0.00     0.023 A 
ATOM     87  C   UNL A   1      39.448  29.750  28.370  1.00  0.00     0.012 A 
ATOM     88  C   UNL A   1      40.013  29.207  30.673  1.00  0.00     0.148 A 
ATOM     89  C   UNL A   1      38.098  29.831  28.710  1.00  0.00     0.002 A 
ATOM     90  C   UNL A   1      38.661  29.241  30.995  1.00  0.00     0.091 A 
ATOM     91  F   UNL A   1      40.953  28.940  31.590  1.00  0.00    -0.205 F 
ATOM     92  C   UNL A   1      37.704  29.565  30.019  1.00  0.00     0.022 A 
BRANCH  90  93
ATOM     93  S   UNL A   1      38.040  28.836  32.630  1.00  0.00     0.127 S 
ATOM     94  O   UNL A   1      36.650  29.279  32.536  1.00  0.00    -0.237 OA
ATOM     95  O   UNL A   1      38.216  27.384  32.672  1.00  0.00    -0.237 OA
ATOM     96  O   UNL A   1      38.863  29.580  33.573  1.00  0.00    -0.744 OA
ENDBRANCH  90  93
ENDBRANCH  72  86
BRANCH  73  97
ATOM     97  C   UNL A   1      49.878  28.216  26.342  1.00  0.00     0.023 A 
ATOM     98  C   UNL A   1      50.146  28.374  24.968  1.00  0.00     0.012 A 
ATOM     99  C   UNL A   1      50.938  27.907  27.216  1.00  0.00     0.148 A 
ATOM    100  C   UNL A   1      51.432  28.171  24.465  1.00  0.00     0.002 A 
ATOM    101  C   UNL A   1      52.228  27.767  26.717  1.00  0.00     0.091 A 
ATOM    102  F   UNL A   1      50.665  27.752  28.518  1.00  0.00    -0.205 F 
ATOM    103  C   UNL A   1      52.474  27.875  25.340  1.00  0.00     0.022 A 
BRANCH 101 104
ATOM    104  S   UNL A   1      53.648  27.516  27.788  1.00  0.00     0.127 S 
ATOM    105  O   UNL A   1      53.376  28.457  28.871  1.00  0.00    -0.237 OA
ATOM    106  O   UNL A   1      53.508  26.104  28.148  1.00  0.00    -0.237 OA
ATOM    107  O   UNL A   1      54.815  27.810  26.968  1.00  0.00    -0.744 OA
ENDBRANCH 101 104
ENDBRANCH  73  97
BRANCH  85 108
ATOM    108  C   UNL A   1      46.435  33.410  29.482  1.00  0.00     0.023 A 
ATOM    109  C   UNL A   1      46.378  34.521  28.618  1.00  0.00     0.012 A 
ATOM    110  C   UNL A   1      46.825  33.596  30.824  1.00  0.00     0.148 A 
ATOM    111  C   UNL A   1      46.740  35.789  29.070  1.00  0.00     0.002 A 
ATOM    112  C   UNL A   1      47.129  34.871  31.282  1.00  0.00     0.091 A 
ATOM    113  F   UNL A   1      46.887  32.523  31.626  1.00  0.00    -0.205 F 
ATOM    114  C   UNL A   1      47.103  35.966  30.403  1.00  0.00     0.022 A 
BRANCH 112 115
ATOM    115  S   UNL A   1      47.508  35.211  33.004  1.00  0.00     0.127 S 
ATOM    116  O   UNL A   1      48.914  34.817  33.083  1.00  0.00    -0.237 OA
ATOM    117  O   UNL A   1      47.273  36.652  33.093  1.00  0.00    -0.237 OA
ATOM    118  O   UNL A   1      46.589  34.397  33.789  1.00  0.00    -0.744 OA
ENDBRANCH 112 115
ENDBRANCH  85 108
ENDBRANCH  59  60
ENDBRANCH  51  54
ENDBRANCH  49  50
ENDBRANCH  48  49
ENDBRANCH  47  48
ENDBRANCH  46  47
ENDBRANCH  45  46
ENDBRANCH  44  45
ENDBRANCH   3  44
TORSDOF 30
ENDMDL
MODEL 2
REMARK VINA RESULT:      -8.9      2.036      2.455
REMARK SMILES CC(C)C[C@H](NC(=O)[C@H](Cc1ccccc1)NC(=O)CNC(=O)CNC(=O)OCc1ccccc1)C(=O)NCCCCCCNC(=O)c1ccc(-c2c3nc(c(-c4cccc(S(=O)(=O)[O-])c4F)c4ccc([nH]4)c(-c4cccc(S(=O)(=O)[O-])c4F)c4nc(c(-c5cccc(S(=O)(=O)[O-])c5F)c5ccc2[nH]5)C=C4)C=C3)cc1
REMARK SMILES IDX 36 1 37 2 38 3 5 5 4 6 2 7 1 8 3 9 6 10 7 11 8 13 9 14 17 15
REMARK SMILES IDX 18 16 19 18 20 19 21 20 22 21 23 23 24 24 25 25 26 26 27 28
REMARK SMILES IDX 28 29 29 30 30 31 31 32 35 33 32 34 34 35 33 36 10 37 11 38
REMARK SMILES IDX 12 39 16 40 13 41 15 42 14 43 39 44 40 45 41 46 42 47 43 48
REMARK SMILES IDX 44 49 45 50 46 51 47 53 48 54 49 55 110 56 50 57 109 58
REMARK SMILES IDX 51 59 52 60 53 61 103 62 54 63 108 64 102 65 104 66 55 67
REMARK SMILES IDX 107 68 101 69 100 70 56 72 88 73 68 74 87 75 69 76 72 77
REMARK SMILES IDX 86 78 105 79 70 80 71 81 85 83 106 84 73 85 57 86 58 87
REMARK SMILES IDX 66 88 59 89 61 90 67 91 60 92 62 93 63 94 64 95 65 96 89 97
REMARK SMILES IDX 90 98 98 99 91 100 93 101 99 102 92 103 94 104 95 105 96 106
REMARK SMILES IDX 97 107 74 108 75 109 83 110 76 111 78 112 84 113 77 114
REMARK SMILES IDX 79 115 80 116 81 117 82 118
REMARK H PARENT 38 4 6 12 17 17 21 22 25 27 45 52 104 71 72 82
REMARK Flexibility Score: inf
ROOT
ATOM      1  C   UNL A   1      34.299  18.072  24.677  1.00  0.00     0.242 C 
ATOM      2  O   UNL A   1      34.073  17.000  24.103  1.00  0.00    -0.273 OA
ATOM      3  N   UNL A   1      35.592  18.492  24.699  1.00  0.00    -0.354 N 
ATOM      4  H   UNL A   1      36.257  17.813  24.444  1.00  0.00     0.163 HD
ENDROOT
BRANCH   1   5
ATOM      5  C   UNL A   1      33.128  18.894  25.254  1.00  0.00     0.171 C 
BRANCH   5   6
ATOM      6  C   UNL A   1      32.229  19.637  24.238  1.00  0.00     0.038 C 
BRANCH   6   7
ATOM      7  C   UNL A   1      32.610  19.576  22.748  1.00  0.00    -0.015 C 
ATOM      8  C   UNL A   1      32.080  18.302  22.081  1.00  0.00     0.007 C 
ATOM      9  C   UNL A   1      32.034  20.783  21.992  1.00  0.00     0.007 C 
ENDBRANCH   6   7
ENDBRANCH   5   6
BRANCH   5  10
ATOM     10  N   UNL A   1      33.430  19.711  26.428  1.00  0.00    -0.343 N 
ATOM     11  C   UNL A   1      33.291  21.039  26.681  1.00  0.00     0.243 C 
ATOM     12  H   UNL A   1      33.808  19.200  27.180  1.00  0.00     0.164 HD
ATOM     13  O   UNL A   1      33.805  21.435  27.736  1.00  0.00    -0.273 OA
BRANCH  11  14
ATOM     14  C   UNL A   1      32.567  22.045  25.735  1.00  0.00     0.175 C 
BRANCH  14  15
ATOM     15  N   UNL A   1      32.135  23.210  26.539  1.00  0.00    -0.342 N 
ATOM     16  C   UNL A   1      31.261  24.220  26.305  1.00  0.00     0.240 C 
ATOM     17  H   UNL A   1      32.569  23.262  27.421  1.00  0.00     0.164 HD
ATOM     18  O   UNL A   1      31.254  25.166  27.101  1.00  0.00    -0.273 OA
BRANCH  16  19
ATOM     19  C   UNL A   1      30.161  24.135  25.238  1.00  0.00     0.216 C 
BRANCH  19  20
ATOM     20  N   UNL A   1      30.514  24.361  23.850  1.00  0.00    -0.346 N 
ATOM     21  C   UNL A   1      30.948  25.504  23.243  1.00  0.00     0.239 C 
ATOM     22  H   UNL A   1      30.427  23.578  23.260  1.00  0.00     0.164 HD
ATOM     23  O   UNL A   1      31.281  25.433  22.059  1.00  0.00    -0.273 OA
BRANCH  21  24
ATOM     24  C   UNL A   1      30.998  26.834  24.007  1.00  0.00     0.219 C 
BRANCH  24  25
ATOM     25  N   UNL A   1      32.260  27.497  23.759  1.00  0.00    -0.312 N 
ATOM     26  C   UNL A   1      32.527  28.821  23.889  1.00  0.00     0.407 C 
ATOM     27  H   UNL A   1      33.005  26.926  23.465  1.00  0.00     0.167 HD
ATOM     28  O   UNL A   1      33.526  29.300  23.371  1.00  0.00    -0.225 OA
BRANCH  26  29
ATOM     29  O   UNL A   1      31.626  29.484  24.650  1.00  0.00    -0.445 OA
BRANCH  29  30
ATOM     30  C   UNL A   1      31.690  29.217  26.065  1.00  0.00     0.270 C 
BRANCH  30  31
ATOM     31  C   UNL A   1      32.948  29.680  26.771  1.00  0.00    -0.011 A 
ATOM     32  C   UNL A   1      34.060  28.847  26.962  1.00  0.00     0.007 A 
ATOM     33  C   UNL A   1      33.033  31.016  27.195  1.00  0.00     0.007 A 
ATOM     34  C   UNL A   1      35.258  29.358  27.461  1.00  0.00     0.000 A 
ATOM     35  C   UNL A   1      34.223  31.517  27.726  1.00  0.00     0.000 A 
ATOM     36  C   UNL A   1      35.341  30.694  27.836  1.00  0.00     0.000 A 
ENDBRANCH  30  31
ENDBRANCH  29  30
ENDBRANCH  26  29
ENDBRANCH  24  25
ENDBRANCH  21  24
ENDBRANCH  19  20
ENDBRANCH  16  19
ENDBRANCH  14  15
BRANCH  14  37
ATOM     37  C   UNL A   1      33.346  22.584  24.524  1.00  0.00     0.070 C 
BRANCH  37  38
ATOM     38  C   UNL A   1      34.795  22.992  24.685  1.00  0.00    -0.045 A 
ATOM     39  C   UNL A   1      35.374  23.431  25.884  1.00  0.00     0.004 A 
ATOM     40  C   UNL A   1      35.613  22.927  23.547  1.00  0.00     0.004 A 
ATOM     41  C   UNL A   1      36.730  23.747  25.959  1.00  0.00     0.000 A 
ATOM     42  C   UNL A   1      36.962  23.279  23.613  1.00  0.00     0.000 A 
ATOM     43  C   UNL A   1      37.522  23.680  24.822  1.00  0.00     0.000 A 
ENDBRANCH  37  38
ENDBRANCH  14  37
ENDBRANCH  11  14
ENDBRANCH   5  10
ENDBRANCH   1   5
BRANCH   3  44
ATOM     44  C   UNL A   1      36.133  19.787  25.040  1.00  0.00     0.116 C 
BRANCH  44  45
ATOM     45  C   UNL A   1      37.587  19.962  24.631  1.00  0.00     0.021 C 
BRANCH  45  46
ATOM     46  C   UNL A   1      38.601  19.162  25.455  1.00  0.00     0.002 C 
BRANCH  46  47
ATOM     47  C   UNL A   1      39.920  19.867  25.792  1.00  0.00     0.002 C 
BRANCH  47  48
ATOM     48  C   UNL A   1      41.130  18.962  26.034  1.00  0.00     0.021 C 
BRANCH  48  49
ATOM     49  C   UNL A   1      42.465  19.681  26.170  1.00  0.00     0.116 C 
BRANCH  49  50
ATOM     50  N   UNL A   1      43.382  19.363  25.090  1.00  0.00    -0.352 N 
ATOM     51  C   UNL A   1      44.282  20.181  24.455  1.00  0.00     0.251 C 
ATOM     52  H   UNL A   1      43.356  18.432  24.771  1.00  0.00     0.163 HD
ATOM     53  O   UNL A   1      44.870  19.784  23.453  1.00  0.00    -0.269 OA
BRANCH  51  54
ATOM     54  C   UNL A   1      44.519  21.545  24.969  1.00  0.00     0.039 A 
ATOM     55  C   UNL A   1      45.206  21.700  26.175  1.00  0.00     0.014 A 
ATOM     56  C   UNL A   1      44.070  22.666  24.266  1.00  0.00     0.014 A 
ATOM     57  C   UNL A   1      45.480  22.982  26.653  1.00  0.00     0.010 A 
ATOM     58  C   UNL A   1      44.419  23.941  24.699  1.00  0.00     0.010 A 
ATOM     59  C   UNL A   1      45.114  24.113  25.905  1.00  0.00    -0.014 A 
BRANCH  59  60
ATOM     60  C   UNL A   1      45.433  25.483  26.381  1.00  0.00     0.031 A 
ATOM     61  C   UNL A   1      44.340  26.368  26.917  1.00  0.00     0.074 A 
ATOM     62  C   UNL A   1      46.693  25.951  26.271  1.00  0.00     0.049 A 
ATOM     63  N   UNL A   1      44.409  27.610  27.322  1.00  0.00    -0.248 NA
ATOM     64  C   UNL A   1      42.984  25.794  26.986  1.00  0.00     0.031 C 
ATOM     65  C   UNL A   1      47.824  25.212  25.703  1.00  0.00     0.029 A 
ATOM     66  N   UNL A   1      47.229  27.168  26.609  1.00  0.00    -0.354 N 
ATOM     67  C   UNL A   1      43.112  27.970  27.668  1.00  0.00     0.074 A 
ATOM     68  C   UNL A   1      42.266  26.834  27.384  1.00  0.00     0.031 C 
ATOM     69  C   UNL A   1      48.918  25.991  25.734  1.00  0.00     0.029 A 
ATOM     70  C   UNL A   1      48.562  27.294  26.285  1.00  0.00     0.049 A 
ATOM     71  H   UNL A   1      46.710  27.885  27.040  1.00  0.00     0.167 HD
ATOM     72  C   UNL A   1      42.669  29.131  28.204  1.00  0.00     0.034 A 
ATOM     73  C   UNL A   1      49.395  28.345  26.404  1.00  0.00     0.034 A 
ATOM     74  C   UNL A   1      43.519  30.248  28.514  1.00  0.00     0.049 A 
ATOM     75  C   UNL A   1      48.875  29.619  27.014  1.00  0.00     0.074 A 
ATOM     76  C   UNL A   1      43.176  31.447  29.115  1.00  0.00     0.029 A 
ATOM     77  N   UNL A   1      44.876  30.309  28.243  1.00  0.00    -0.354 N 
ATOM     78  N   UNL A   1      47.673  29.892  27.460  1.00  0.00    -0.248 NA
ATOM     79  C   UNL A   1      49.837  30.720  27.176  1.00  0.00     0.031 C 
ATOM     80  C   UNL A   1      44.323  32.245  29.180  1.00  0.00     0.029 A 
ATOM     81  C   UNL A   1      45.387  31.525  28.662  1.00  0.00     0.049 A 
ATOM     82  H   UNL A   1      45.400  29.592  27.817  1.00  0.00     0.167 HD
ATOM     83  C   UNL A   1      47.746  31.174  27.993  1.00  0.00     0.074 A 
ATOM     84  C   UNL A   1      49.115  31.615  27.835  1.00  0.00     0.031 C 
ATOM     85  C   UNL A   1      46.765  31.924  28.552  1.00  0.00     0.034 A 
BRANCH  72  86
ATOM     86  C   UNL A   1      41.206  29.238  28.545  1.00  0.00     0.023 A 
ATOM     87  C   UNL A   1      40.258  29.366  27.509  1.00  0.00     0.012 A 
ATOM     88  C   UNL A   1      40.762  29.127  29.877  1.00  0.00     0.148 A 
ATOM     89  C   UNL A   1      38.894  29.411  27.794  1.00  0.00     0.002 A 
ATOM     90  C   UNL A   1      39.399  29.123  30.150  1.00  0.00     0.091 A 
ATOM     91  F   UNL A   1      41.679  29.021  30.850  1.00  0.00    -0.205 F 
ATOM     92  C   UNL A   1      38.465  29.278  29.112  1.00  0.00     0.022 A 
BRANCH  90  93
ATOM     93  S   UNL A   1      38.737  28.877  31.801  1.00  0.00     0.127 S 
ATOM     94  O   UNL A   1      39.268  30.040  32.509  1.00  0.00    -0.237 OA
ATOM     95  O   UNL A   1      37.294  28.915  31.559  1.00  0.00    -0.237 OA
ATOM     96  O   UNL A   1      39.248  27.590  32.254  1.00  0.00    -0.744 OA
ENDBRANCH  90  93
ENDBRANCH  72  86
BRANCH  73  97
ATOM     97  C   UNL A   1      50.816  28.238  25.964  1.00  0.00     0.023 A 
ATOM     98  C   UNL A   1      51.840  28.118  26.925  1.00  0.00     0.012 A 
ATOM     99  C   UNL A   1      51.158  28.273  24.599  1.00  0.00     0.148 A 
ATOM    100  C   UNL A   1      53.180  28.091  26.537  1.00  0.00     0.002 A 
ATOM    101  C   UNL A   1      52.492  28.183  24.216  1.00  0.00     0.091 A 
ATOM    102  F   UNL A   1      50.174  28.395  23.699  1.00  0.00    -0.205 F 
ATOM    103  C   UNL A   1      53.506  28.117  25.184  1.00  0.00     0.022 A 
BRANCH 101 104
ATOM    104  S   UNL A   1      52.991  28.077  22.495  1.00  0.00     0.127 S 
ATOM    105  O   UNL A   1      54.417  27.784  22.613  1.00  0.00    -0.237 OA
ATOM    106  O   UNL A   1      52.170  26.964  22.011  1.00  0.00    -0.237 OA
ATOM    107  O   UNL A   1      52.653  29.366  21.908  1.00  0.00    -0.744 OA
ENDBRANCH 101 104
ENDBRANCH  73  97
BRANCH  85 108
ATOM    108  C   UNL A   1      47.144  33.276  29.099  1.00  0.00     0.023 A 
ATOM    109  C   UNL A   1      47.532  33.415  30.446  1.00  0.00     0.012 A 
ATOM    110  C   UNL A   1      47.179  34.400  28.249  1.00  0.00     0.148 A 
ATOM    111  C   UNL A   1      47.912  34.658  30.948  1.00  0.00     0.002 A 
ATOM    112  C   UNL A   1      47.613  35.623  28.742  1.00  0.00     0.091 A 
ATOM    113  F   UNL A   1      46.790  34.250  26.974  1.00  0.00    -0.205 F 
ATOM    114  C   UNL A   1      47.965  35.758  30.095  1.00  0.00     0.022 A 
BRANCH 112 115
ATOM    115  S   UNL A   1      47.811  37.068  27.695  1.00  0.00     0.127 S 
ATOM    116  O   UNL A   1      47.189  38.112  28.509  1.00  0.00    -0.237 OA
ATOM    117  O   UNL A   1      49.266  37.170  27.582  1.00  0.00    -0.237 OA
ATOM    118  O   UNL A   1      47.125  36.761  26.448  1.00  0.00    -0.744 OA
ENDBRANCH 112 115
ENDBRANCH  85 108
ENDBRANCH  59  60
ENDBRANCH  51  54
ENDBRANCH  49  50
ENDBRANCH  48  49
ENDBRANCH  47  48
ENDBRANCH  46  47
ENDBRANCH  45  46
ENDBRANCH  44  45
ENDBRANCH   3  44
TORSDOF 30
ENDMDL
MODEL 3
REMARK VINA RESULT:      -8.2      6.404     13.057
REMARK SMILES CC(C)C[C@H](NC(=O)[C@H](Cc1ccccc1)NC(=O)CNC(=O)CNC(=O)OCc1ccccc1)C(=O)NCCCCCCNC(=O)c1ccc(-c2c3nc(c(-c4cccc(S(=O)(=O)[O-])c4F)c4ccc([nH]4)c(-c4cccc(S(=O)(=O)[O-])c4F)c4nc(c(-c5cccc(S(=O)(=O)[O-])c5F)c5ccc2[nH]5)C=C4)C=C3)cc1
REMARK SMILES IDX 36 1 37 2 38 3 5 5 4 6 2 7 1 8 3 9 6 10 7 11 8 13 9 14 17 15
REMARK SMILES IDX 18 16 19 18 20 19 21 20 22 21 23 23 24 24 25 25 26 26 27 28
REMARK SMILES IDX 28 29 29 30 30 31 31 32 35 33 32 34 34 35 33 36 10 37 11 38
REMARK SMILES IDX 12 39 16 40 13 41 15 42 14 43 39 44 40 45 41 46 42 47 43 48
REMARK SMILES IDX 44 49 45 50 46 51 47 53 48 54 49 55 110 56 50 57 109 58
REMARK SMILES IDX 51 59 52 60 53 61 103 62 54 63 108 64 102 65 104 66 55 67
REMARK SMILES IDX 107 68 101 69 100 70 56 72 88 73 68 74 87 75 69 76 72 77
REMARK SMILES IDX 86 78 105 79 70 80 71 81 85 83 106 84 73 85 57 86 58 87
REMARK SMILES IDX 66 88 59 89 61 90 67 91 60 92 62 93 63 94 64 95 65 96 89 97
REMARK SMILES IDX 90 98 98 99 91 100 93 101 99 102 92 103 94 104 95 105 96 106
REMARK SMILES IDX 97 107 74 108 75 109 83 110 76 111 78 112 84 113 77 114
REMARK SMILES IDX 79 115 80 116 81 117 82 118
REMARK H PARENT 38 4 6 12 17 17 21 22 25 27 45 52 104 71 72 82
REMARK Flexibility Score: inf
ROOT
ATOM      1  C   UNL A   1      41.300  30.835  32.462  1.00  0.00     0.242 C 
ATOM      2  O   UNL A   1      41.748  30.738  33.611  1.00  0.00    -0.273 OA
ATOM      3  N   UNL A   1      42.164  30.572  31.446  1.00  0.00    -0.354 N 
ATOM      4  H   UNL A   1      43.113  30.534  31.702  1.00  0.00     0.163 HD
ENDROOT
BRANCH   1   5
ATOM      5  C   UNL A   1      39.808  31.161  32.247  1.00  0.00     0.171 C 
BRANCH   5   6
ATOM      6  C   UNL A   1      38.972  30.124  31.461  1.00  0.00     0.038 C 
BRANCH   6   7
ATOM      7  C   UNL A   1      37.868  30.641  30.519  1.00  0.00    -0.015 C 
ATOM      8  C   UNL A   1      38.384  30.814  29.086  1.00  0.00     0.007 C 
ATOM      9  C   UNL A   1      36.685  29.663  30.484  1.00  0.00     0.007 C 
ENDBRANCH   6   7
ENDBRANCH   5   6
BRANCH   5  10
ATOM     10  N   UNL A   1      39.498  32.535  31.854  1.00  0.00    -0.343 N 
ATOM     11  C   UNL A   1      39.101  33.623  32.565  1.00  0.00     0.243 C 
ATOM     12  H   UNL A   1      39.596  32.704  30.889  1.00  0.00     0.164 HD
ATOM     13  O   UNL A   1      38.763  34.604  31.888  1.00  0.00    -0.273 OA
BRANCH  11  14
ATOM     14  C   UNL A   1      39.031  33.683  34.121  1.00  0.00     0.175 C 
BRANCH  14  15
ATOM     15  N   UNL A   1      39.385  35.054  34.551  1.00  0.00    -0.342 N 
ATOM     16  C   UNL A   1      39.783  35.576  35.737  1.00  0.00     0.240 C 
ATOM     17  H   UNL A   1      39.319  35.721  33.830  1.00  0.00     0.164 HD
ATOM     18  O   UNL A   1      39.820  36.807  35.836  1.00  0.00    -0.273 OA
BRANCH  16  19
ATOM     19  C   UNL A   1      40.376  34.719  36.863  1.00  0.00     0.216 C 
BRANCH  19  20
ATOM     20  N   UNL A   1      39.495  34.222  37.903  1.00  0.00    -0.346 N 
ATOM     21  C   UNL A   1      39.412  34.588  39.214  1.00  0.00     0.239 C 
ATOM     22  H   UNL A   1      38.867  33.518  37.621  1.00  0.00     0.164 HD
ATOM     23  O   UNL A   1      38.513  34.089  39.894  1.00  0.00    -0.273 OA
BRANCH  21  24
ATOM     24  C   UNL A   1      40.419  35.572  39.826  1.00  0.00     0.219 C 
BRANCH  24  25
ATOM     25  N   UNL A   1      39.815  36.265  40.943  1.00  0.00    -0.312 N 
ATOM     26  C   UNL A   1      39.851  37.598  41.194  1.00  0.00     0.407 C 
ATOM     27  H   UNL A   1      39.324  35.709  41.590  1.00  0.00     0.167 HD
ATOM     28  O   UNL A   1      39.568  38.021  42.306  1.00  0.00    -0.225 OA
BRANCH  26  29
ATOM     29  O   UNL A   1      40.177  38.344  40.114  1.00  0.00    -0.445 OA
BRANCH  29  30
ATOM     30  C   UNL A   1      41.360  39.155  40.251  1.00  0.00     0.270 C 
BRANCH  30  31
ATOM     31  C   UNL A   1      41.138  40.653  40.284  1.00  0.00    -0.011 A 
ATOM     32  C   UNL A   1      39.860  41.228  40.360  1.00  0.00     0.007 A 
ATOM     33  C   UNL A   1      42.255  41.503  40.305  1.00  0.00     0.007 A 
ATOM     34  C   UNL A   1      39.705  42.599  40.560  1.00  0.00     0.000 A 
ATOM     35  C   UNL A   1      42.095  42.880  40.472  1.00  0.00     0.000 A 
ATOM     36  C   UNL A   1      40.822  43.424  40.624  1.00  0.00     0.000 A 
ENDBRANCH  30  31
ENDBRANCH  29  30
ENDBRANCH  26  29
ENDBRANCH  24  25
ENDBRANCH  21  24
ENDBRANCH  19  20
ENDBRANCH  16  19
ENDBRANCH  14  15
BRANCH  14  37
ATOM     37  C   UNL A   1      37.700  33.317  34.797  1.00  0.00     0.070 C 
BRANCH  37  38
ATOM     38  C   UNL A   1      36.404  33.455  34.028  1.00  0.00    -0.045 A 
ATOM     39  C   UNL A   1      35.873  32.479  33.173  1.00  0.00     0.004 A 
ATOM     40  C   UNL A   1      35.686  34.651  34.183  1.00  0.00     0.004 A 
ATOM     41  C   UNL A   1      34.648  32.666  32.534  1.00  0.00     0.000 A 
ATOM     42  C   UNL A   1      34.478  34.854  33.515  1.00  0.00     0.000 A 
ATOM     43  C   UNL A   1      33.954  33.857  32.697  1.00  0.00     0.000 A 
ENDBRANCH  37  38
ENDBRANCH  14  37
ENDBRANCH  11  14
ENDBRANCH   5  10
ENDBRANCH   1   5
BRANCH   3  44
ATOM     44  C   UNL A   1      41.894  30.339  30.046  1.00  0.00     0.116 C 
BRANCH  44  45
ATOM     45  C   UNL A   1      42.152  28.905  29.610  1.00  0.00     0.021 C 
BRANCH  45  46
ATOM     46  C   UNL A   1      40.981  28.212  28.906  1.00  0.00     0.002 C 
BRANCH  46  47
ATOM     47  C   UNL A   1      41.338  27.092  27.923  1.00  0.00     0.002 C 
BRANCH  47  48
ATOM     48  C   UNL A   1      40.637  25.750  28.142  1.00  0.00     0.021 C 
BRANCH  48  49
ATOM     49  C   UNL A   1      41.357  24.537  27.566  1.00  0.00     0.116 C 
BRANCH  49  50
ATOM     50  N   UNL A   1      41.918  23.682  28.597  1.00  0.00    -0.352 N 
ATOM     51  C   UNL A   1      43.181  23.692  29.132  1.00  0.00     0.251 C 
ATOM     52  H   UNL A   1      41.308  23.001  28.963  1.00  0.00     0.163 HD
ATOM     53  O   UNL A   1      43.535  22.792  29.887  1.00  0.00    -0.269 OA
BRANCH  51  54
ATOM     54  C   UNL A   1      44.117  24.779  28.774  1.00  0.00     0.039 A 
ATOM     55  C   UNL A   1      44.633  24.822  27.476  1.00  0.00     0.014 A 
ATOM     56  C   UNL A   1      44.482  25.750  29.710  1.00  0.00     0.014 A 
ATOM     57  C   UNL A   1      45.481  25.866  27.107  1.00  0.00     0.010 A 
ATOM     58  C   UNL A   1      45.256  26.835  29.314  1.00  0.00     0.010 A 
ATOM     59  C   UNL A   1      45.777  26.897  28.014  1.00  0.00    -0.014 A 
BRANCH  59  60
ATOM     60  C   UNL A   1      46.647  28.036  27.623  1.00  0.00     0.031 A 
ATOM     61  C   UNL A   1      48.144  27.873  27.615  1.00  0.00     0.074 A 
ATOM     62  C   UNL A   1      46.092  29.231  27.338  1.00  0.00     0.049 A 
ATOM     63  N   UNL A   1      49.067  28.763  27.362  1.00  0.00    -0.248 NA
ATOM     64  C   UNL A   1      48.676  26.543  27.960  1.00  0.00     0.031 C 
ATOM     65  C   UNL A   1      44.658  29.531  27.380  1.00  0.00     0.029 A 
ATOM     66  N   UNL A   1      46.669  30.424  26.980  1.00  0.00    -0.354 N 
ATOM     67  C   UNL A   1      50.282  28.112  27.540  1.00  0.00     0.074 A 
ATOM     68  C   UNL A   1      49.982  26.764  27.966  1.00  0.00     0.031 C 
ATOM     69  C   UNL A   1      44.469  30.821  27.059  1.00  0.00     0.029 A 
ATOM     70  C   UNL A   1      45.764  31.451  26.827  1.00  0.00     0.049 A 
ATOM     71  H   UNL A   1      47.638  30.536  26.848  1.00  0.00     0.167 HD
ATOM     72  C   UNL A   1      51.535  28.583  27.336  1.00  0.00     0.034 A 
ATOM     73  C   UNL A   1      45.960  32.754  26.549  1.00  0.00     0.034 A 
ATOM     74  C   UNL A   1      51.828  29.915  26.882  1.00  0.00     0.049 A 
ATOM     75  C   UNL A   1      47.364  33.245  26.317  1.00  0.00     0.074 A 
ATOM     76  C   UNL A   1      53.061  30.470  26.588  1.00  0.00     0.029 A 
ATOM     77  N   UNL A   1      50.881  30.902  26.664  1.00  0.00    -0.354 N 
ATOM     78  N   UNL A   1      48.491  32.577  26.358  1.00  0.00    -0.248 NA
ATOM     79  C   UNL A   1      47.522  34.663  25.959  1.00  0.00     0.031 C 
ATOM     80  C   UNL A   1      52.861  31.803  26.219  1.00  0.00     0.029 A 
ATOM     81  C   UNL A   1      51.501  32.065  26.241  1.00  0.00     0.049 A 
ATOM     82  H   UNL A   1      49.911  30.793  26.790  1.00  0.00     0.167 HD
ATOM     83  C   UNL A   1      49.483  33.479  25.990  1.00  0.00     0.074 A 
ATOM     84  C   UNL A   1      48.821  34.735  25.708  1.00  0.00     0.031 C 
ATOM     85  C   UNL A   1      50.822  33.289  25.905  1.00  0.00     0.034 A 
BRANCH  72  86
ATOM     86  C   UNL A   1      52.687  27.636  27.547  1.00  0.00     0.023 A 
ATOM     87  C   UNL A   1      53.336  27.599  28.798  1.00  0.00     0.012 A 
ATOM     88  C   UNL A   1      53.072  26.728  26.541  1.00  0.00     0.148 A 
ATOM     89  C   UNL A   1      54.370  26.693  29.036  1.00  0.00     0.002 A 
ATOM     90  C   UNL A   1      54.069  25.795  26.802  1.00  0.00     0.091 A 
ATOM     91  F   UNL A   1      52.454  26.789  25.354  1.00  0.00    -0.205 F 
ATOM     92  C   UNL A   1      54.727  25.785  28.044  1.00  0.00     0.022 A 
BRANCH  90  93
ATOM     93  S   UNL A   1      54.551  24.529  25.624  1.00  0.00     0.127 S 
ATOM     94  O   UNL A   1      55.112  25.332  24.539  1.00  0.00    -0.237 OA
ATOM     95  O   UNL A   1      55.535  23.761  26.387  1.00  0.00    -0.237 OA
ATOM     96  O   UNL A   1      53.333  23.803  25.289  1.00  0.00    -0.744 OA
ENDBRANCH  90  93
ENDBRANCH  72  86
BRANCH  73  97
ATOM     97  C   UNL A   1      44.802  33.688  26.445  1.00  0.00     0.023 A 
ATOM     98  C   UNL A   1      44.093  33.793  25.232  1.00  0.00     0.012 A 
ATOM     99  C   UNL A   1      44.411  34.485  27.538  1.00  0.00     0.148 A 
ATOM    100  C   UNL A   1      43.054  34.714  25.092  1.00  0.00     0.002 A 
ATOM    101  C   UNL A   1      43.335  35.356  27.410  1.00  0.00     0.091 A 
ATOM    102  F   UNL A   1      45.100  34.379  28.682  1.00  0.00    -0.205 F 
ATOM    103  C   UNL A   1      42.670  35.490  26.182  1.00  0.00     0.022 A 
BRANCH 101 104
ATOM    104  S   UNL A   1      42.692  36.295  28.799  1.00  0.00     0.127 S 
ATOM    105  O   UNL A   1      41.592  37.030  28.181  1.00  0.00    -0.237 OA
ATOM    106  O   UNL A   1      42.284  35.232  29.719  1.00  0.00    -0.237 OA
ATOM    107  O   UNL A   1      43.806  37.103  29.276  1.00  0.00    -0.744 OA
ENDBRANCH 101 104
ENDBRANCH  73  97
BRANCH  85 108
ATOM    108  C   UNL A   1      51.664  34.442  25.425  1.00  0.00     0.023 A 
ATOM    109  C   UNL A   1      51.975  34.575  24.058  1.00  0.00     0.012 A 
ATOM    110  C   UNL A   1      52.087  35.435  26.331  1.00  0.00     0.148 A 
ATOM    111  C   UNL A   1      52.727  35.657  23.605  1.00  0.00     0.002 A 
ATOM    112  C   UNL A   1      52.788  36.540  25.864  1.00  0.00     0.091 A 
ATOM    113  F   UNL A   1      51.794  35.283  27.631  1.00  0.00    -0.205 F 
ATOM    114  C   UNL A   1      53.122  36.644  24.505  1.00  0.00     0.022 A 
BRANCH 112 115
ATOM    115  S   UNL A   1      53.249  37.909  26.930  1.00  0.00     0.127 S 
ATOM    116  O   UNL A   1      54.538  37.458  27.453  1.00  0.00    -0.237 OA
ATOM    117  O   UNL A   1      53.331  39.022  25.984  1.00  0.00    -0.237 OA
ATOM    118  O   UNL A   1      52.185  38.030  27.917  1.00  0.00    -0.744 OA
ENDBRANCH 112 115
ENDBRANCH  85 108
ENDBRANCH  59  60
ENDBRANCH  51  54
ENDBRANCH  49  50
ENDBRANCH  48  49
ENDBRANCH  47  48
ENDBRANCH  46  47
ENDBRANCH  45  46
ENDBRANCH  44  45
ENDBRANCH   3  44
TORSDOF 30
ENDMDL
