MODEL 1
REMARK VINA RESULT:     -12.3      0.000      0.000
REMARK SMILES CC(C)CN(C)c1cc2c(cc1Cl)C=C(C(=O)NCCCCCCNC(=O)c1ccc(-c3c4nc(c(-c5cccc(S(=O)(=O)[O-])c5F)c5ccc([nH]5)c(-c5cccc(S(=O)(=O)[O-])c5F)c5nc(c(-c6cccc(S(=O)(=O)[O-])c6F)c6ccc3[nH]6)C=C5)C=C4)cc1)[C@H](C(F)(F)F)O2
REMARK SMILES IDX 21 1 20 2 19 3 18 4 16 5 17 6 15 8 7 9 8 10 12 11 9 12 11 13
REMARK SMILES IDX 13 14 10 15 96 16 14 17 91 18 5 19 6 20 4 21 2 22 1 23 3 24
REMARK SMILES IDX 92 25 93 26 94 27 95 28 22 29 23 30 24 31 25 32 26 33 27 35
REMARK SMILES IDX 28 36 29 37 90 38 30 39 89 40 31 41 32 42 33 43 83 44 34 45
REMARK SMILES IDX 88 46 82 47 84 48 35 49 87 50 81 51 80 52 36 54 68 55 48 56
REMARK SMILES IDX 67 57 49 58 52 59 66 60 85 61 50 62 51 63 65 65 86 66 53 67
REMARK SMILES IDX 37 68 38 69 46 70 39 71 41 72 47 73 40 74 42 75 43 76 44 77
REMARK SMILES IDX 45 78 69 79 70 80 78 81 71 82 73 83 79 84 72 85 74 86 75 87
REMARK SMILES IDX 76 88 77 89 54 90 55 91 63 92 56 93 58 94 64 95 57 96 59 97
REMARK SMILES IDX 60 98 61 99 62 100
REMARK H PARENT 18 7 25 34 84 53 52 64
REMARK Flexibility Score: inf
ROOT
ATOM      1  C   UNL A   1      31.224  28.838  23.317  1.00  0.00     0.002 C 
ENDROOT
BRANCH   1   2
ATOM      2  C   UNL A   1      32.642  28.935  22.744  1.00  0.00     0.021 C 
BRANCH   2   3
ATOM      3  C   UNL A   1      33.482  27.675  22.950  1.00  0.00     0.116 C 
BRANCH   3   4
ATOM      4  N   UNL A   1      33.770  27.496  24.359  1.00  0.00    -0.352 N 
ATOM      5  C   UNL A   1      33.657  26.488  25.252  1.00  0.00     0.251 C 
ATOM      6  O   UNL A   1      33.963  26.767  26.415  1.00  0.00    -0.270 OA
ATOM      7  H   UNL A   1      34.140  28.311  24.767  1.00  0.00     0.163 HD
BRANCH   5   8
ATOM      8  C   UNL A   1      33.248  25.096  24.909  1.00  0.00     0.067 C 
ATOM      9  C   UNL A   1      33.422  20.052  24.393  1.00  0.00     0.059 A 
ATOM     10  C   UNL A   1      32.441  21.038  24.190  1.00  0.00     0.074 A 
ATOM     11  C   UNL A   1      34.700  20.490  24.802  1.00  0.00     0.065 A 
ATOM     12  C   UNL A   1      32.708  22.390  24.420  1.00  0.00     0.130 A 
ATOM     13  C   UNL A   1      34.941  21.835  25.103  1.00  0.00     0.034 A 
ATOM     14  Cl  UNL A   1      36.061  19.424  24.902  1.00  0.00    -0.082 Cl
ATOM     15  C   UNL A   1      33.942  22.787  24.915  1.00  0.00     0.019 A 
ATOM     16  O   UNL A   1      31.700  23.259  24.140  1.00  0.00    -0.475 OA
ATOM     17  C   UNL A   1      34.185  24.183  25.216  1.00  0.00     0.025 C 
ATOM     18  C   UNL A   1      31.929  24.689  24.296  1.00  0.00     0.314 C 
BRANCH   9  19
ATOM     19  N   UNL A   1      33.115  18.694  24.197  1.00  0.00    -0.373 N 
ATOM     20  C   UNL A   1      32.236  18.418  23.059  1.00  0.00     0.143 C 
BRANCH  19  21
ATOM     21  C   UNL A   1      32.857  17.895  25.417  1.00  0.00     0.119 C 
BRANCH  21  22
ATOM     22  C   UNL A   1      33.545  16.516  25.383  1.00  0.00     0.002 C 
ATOM     23  C   UNL A   1      32.529  15.370  25.376  1.00  0.00     0.009 C 
ATOM     24  C   UNL A   1      34.458  16.376  24.161  1.00  0.00     0.009 C 
ENDBRANCH  21  22
ENDBRANCH  19  21
ENDBRANCH   9  19
BRANCH  18  25
ATOM     25  C   UNL A   1      30.681  25.264  24.999  1.00  0.00     0.429 C 
ATOM     26  F   UNL A   1      30.872  26.502  25.504  1.00  0.00    -0.167 F 
ATOM     27  F   UNL A   1      29.646  25.348  24.123  1.00  0.00    -0.167 F 
ATOM     28  F   UNL A   1      30.262  24.490  26.028  1.00  0.00    -0.167 F 
ENDBRANCH  18  25
ENDBRANCH   5   8
ENDBRANCH   3   4
ENDBRANCH   2   3
ENDBRANCH   1   2
BRANCH   1  29
ATOM     29  C   UNL A   1      30.946  29.745  24.521  1.00  0.00     0.002 C 
BRANCH  29  30
ATOM     30  C   UNL A   1      32.170  30.087  25.372  1.00  0.00     0.021 C 
BRANCH  30  31
ATOM     31  C   UNL A   1      31.851  30.569  26.782  1.00  0.00     0.116 C 
BRANCH  31  32
ATOM     32  N   UNL A   1      31.828  32.021  26.879  1.00  0.00    -0.352 N 
ATOM     33  C   UNL A   1      32.758  32.862  27.444  1.00  0.00     0.251 C 
ATOM     34  H   UNL A   1      31.040  32.461  26.486  1.00  0.00     0.163 HD
ATOM     35  O   UNL A   1      32.501  34.052  27.598  1.00  0.00    -0.269 OA
BRANCH  33  36
ATOM     36  C   UNL A   1      34.051  32.306  27.893  1.00  0.00     0.039 A 
ATOM     37  C   UNL A   1      34.151  30.959  28.250  1.00  0.00     0.014 A 
ATOM     38  C   UNL A   1      35.156  33.151  28.011  1.00  0.00     0.014 A 
ATOM     39  C   UNL A   1      35.296  30.503  28.890  1.00  0.00     0.010 A 
ATOM     40  C   UNL A   1      36.339  32.664  28.577  1.00  0.00     0.010 A 
ATOM     41  C   UNL A   1      36.399  31.352  29.072  1.00  0.00    -0.014 A 
BRANCH  41  42
ATOM     42  C   UNL A   1      37.598  30.846  29.792  1.00  0.00     0.031 A 
ATOM     43  C   UNL A   1      37.873  31.247  31.217  1.00  0.00     0.074 A 
ATOM     44  C   UNL A   1      38.422  29.983  29.167  1.00  0.00     0.049 A 
ATOM     45  N   UNL A   1      38.852  30.868  31.999  1.00  0.00    -0.248 NA
ATOM     46  C   UNL A   1      36.940  32.196  31.849  1.00  0.00     0.031 C 
ATOM     47  C   UNL A   1      38.277  29.537  27.780  1.00  0.00     0.029 A 
ATOM     48  N   UNL A   1      39.535  29.319  29.615  1.00  0.00    -0.354 N 
ATOM     49  C   UNL A   1      38.683  31.565  33.189  1.00  0.00     0.074 A 
ATOM     50  C   UNL A   1      37.506  32.390  33.033  1.00  0.00     0.031 C 
ATOM     51  C   UNL A   1      39.239  28.646  27.501  1.00  0.00     0.029 A 
ATOM     52  C   UNL A   1      40.099  28.494  28.671  1.00  0.00     0.049 A 
ATOM     53  H   UNL A   1      39.897  29.424  30.524  1.00  0.00     0.167 HD
ATOM     54  C   UNL A   1      39.430  31.507  34.317  1.00  0.00     0.034 A 
ATOM     55  C   UNL A   1      41.192  27.709  28.729  1.00  0.00     0.034 A 
ATOM     56  C   UNL A   1      40.559  30.637  34.498  1.00  0.00     0.049 A 
ATOM     57  C   UNL A   1      41.988  27.646  29.998  1.00  0.00     0.074 A 
ATOM     58  C   UNL A   1      41.321  30.452  35.639  1.00  0.00     0.029 A 
ATOM     59  N   UNL A   1      41.089  29.810  33.521  1.00  0.00    -0.354 N 
ATOM     60  N   UNL A   1      41.750  28.234  31.144  1.00  0.00    -0.248 NA
ATOM     61  C   UNL A   1      43.195  26.807  29.990  1.00  0.00     0.031 C 
ATOM     62  C   UNL A   1      42.323  29.523  35.347  1.00  0.00     0.029 A 
ATOM     63  C   UNL A   1      42.178  29.123  34.028  1.00  0.00     0.049 A 
ATOM     64  H   UNL A   1      40.742  29.725  32.603  1.00  0.00     0.167 HD
ATOM     65  C   UNL A   1      42.771  27.835  31.996  1.00  0.00     0.074 A 
ATOM     66  C   UNL A   1      43.619  26.935  31.241  1.00  0.00     0.031 C 
ATOM     67  C   UNL A   1      42.993  28.201  33.280  1.00  0.00     0.034 A 
BRANCH  54  68
ATOM     68  C   UNL A   1      39.030  32.373  35.480  1.00  0.00     0.023 A 
ATOM     69  C   UNL A   1      38.195  31.840  36.482  1.00  0.00     0.012 A 
ATOM     70  C   UNL A   1      39.568  33.665  35.634  1.00  0.00     0.148 A 
ATOM     71  C   UNL A   1      37.895  32.588  37.620  1.00  0.00     0.002 A 
ATOM     72  C   UNL A   1      39.287  34.392  36.784  1.00  0.00     0.091 A 
ATOM     73  F   UNL A   1      40.349  34.151  34.659  1.00  0.00    -0.205 F 
ATOM     74  C   UNL A   1      38.448  33.856  37.776  1.00  0.00     0.022 A 
BRANCH  72  75
ATOM     75  S   UNL A   1      39.991  36.011  37.111  1.00  0.00     0.127 S 
ATOM     76  O   UNL A   1      41.405  35.685  37.295  1.00  0.00    -0.237 OA
ATOM     77  O   UNL A   1      39.688  36.733  35.876  1.00  0.00    -0.237 OA
ATOM     78  O   UNL A   1      39.313  36.515  38.299  1.00  0.00    -0.744 OA
ENDBRANCH  72  75
ENDBRANCH  54  68
BRANCH  55  79
ATOM     79  C   UNL A   1      41.556  26.897  27.538  1.00  0.00     0.023 A 
ATOM     80  C   UNL A   1      42.215  27.513  26.458  1.00  0.00     0.012 A 
ATOM     81  C   UNL A   1      41.349  25.504  27.521  1.00  0.00     0.148 A 
ATOM     82  C   UNL A   1      42.665  26.752  25.378  1.00  0.00     0.002 A 
ATOM     83  C   UNL A   1      41.839  24.747  26.465  1.00  0.00     0.091 A 
ATOM     84  F   UNL A   1      40.718  24.946  28.564  1.00  0.00    -0.205 F 
ATOM     85  C   UNL A   1      42.489  25.371  25.388  1.00  0.00     0.022 A 
BRANCH  83  86
ATOM     86  S   UNL A   1      41.767  22.953  26.443  1.00  0.00     0.127 S 
ATOM     87  O   UNL A   1      42.436  22.644  25.180  1.00  0.00    -0.237 OA
ATOM     88  O   UNL A   1      42.530  22.611  27.644  1.00  0.00    -0.237 OA
ATOM     89  O   UNL A   1      40.354  22.610  26.501  1.00  0.00    -0.744 OA
ENDBRANCH  83  86
ENDBRANCH  55  79
BRANCH  67  90
ATOM     90  C   UNL A   1      44.203  27.648  33.976  1.00  0.00     0.023 A 
ATOM     91  C   UNL A   1      45.392  28.403  33.987  1.00  0.00     0.012 A 
ATOM     92  C   UNL A   1      44.122  26.462  34.732  1.00  0.00     0.148 A 
ATOM     93  C   UNL A   1      46.486  27.985  34.742  1.00  0.00     0.002 A 
ATOM     94  C   UNL A   1      45.205  26.070  35.509  1.00  0.00     0.091 A 
ATOM     95  F   UNL A   1      42.979  25.762  34.699  1.00  0.00    -0.205 F 
ATOM     96  C   UNL A   1      46.388  26.827  35.511  1.00  0.00     0.022 A 
BRANCH  94  97
ATOM     97  S   UNL A   1      45.153  24.639  36.594  1.00  0.00     0.127 S 
ATOM     98  O   UNL A   1      44.790  23.572  35.662  1.00  0.00    -0.237 OA
ATOM     99  O   UNL A   1      46.527  24.576  37.089  1.00  0.00    -0.237 OA
ATOM    100  O   UNL A   1      44.152  24.936  37.610  1.00  0.00    -0.744 OA
ENDBRANCH  94  97
ENDBRANCH  67  90
ENDBRANCH  41  42
ENDBRANCH  33  36
ENDBRANCH  31  32
ENDBRANCH  30  31
ENDBRANCH  29  30
ENDBRANCH   1  29
TORSDOF 20
ENDMDL
MODEL 2
REMARK VINA RESULT:     -11.9      1.350      7.366
REMARK SMILES CC(C)CN(C)c1cc2c(cc1Cl)C=C(C(=O)NCCCCCCNC(=O)c1ccc(-c3c4nc(c(-c5cccc(S(=O)(=O)[O-])c5F)c5ccc([nH]5)c(-c5cccc(S(=O)(=O)[O-])c5F)c5nc(c(-c6cccc(S(=O)(=O)[O-])c6F)c6ccc3[nH]6)C=C5)C=C4)cc1)[C@H](C(F)(F)F)O2
REMARK SMILES IDX 21 1 20 2 19 3 18 4 16 5 17 6 15 8 7 9 8 10 12 11 9 12 11 13
REMARK SMILES IDX 13 14 10 15 96 16 14 17 91 18 5 19 6 20 4 21 2 22 1 23 3 24
REMARK SMILES IDX 92 25 93 26 94 27 95 28 22 29 23 30 24 31 25 32 26 33 27 35
REMARK SMILES IDX 28 36 29 37 90 38 30 39 89 40 31 41 32 42 33 43 83 44 34 45
REMARK SMILES IDX 88 46 82 47 84 48 35 49 87 50 81 51 80 52 36 54 68 55 48 56
REMARK SMILES IDX 67 57 49 58 52 59 66 60 85 61 50 62 51 63 65 65 86 66 53 67
REMARK SMILES IDX 37 68 38 69 46 70 39 71 41 72 47 73 40 74 42 75 43 76 44 77
REMARK SMILES IDX 45 78 69 79 70 80 78 81 71 82 73 83 79 84 72 85 74 86 75 87
REMARK SMILES IDX 76 88 77 89 54 90 55 91 63 92 56 93 58 94 64 95 57 96 59 97
REMARK SMILES IDX 60 98 61 99 62 100
REMARK H PARENT 18 7 25 34 84 53 52 64
REMARK Flexibility Score: inf
ROOT
ATOM      1  C   UNL A   1      31.037  28.681  23.691  1.00  0.00     0.002 C 
ENDROOT
BRANCH   1   2
ATOM      2  C   UNL A   1      32.225  28.695  22.724  1.00  0.00     0.021 C 
BRANCH   2   3
ATOM      3  C   UNL A   1      33.080  27.428  22.771  1.00  0.00     0.116 C 
BRANCH   3   4
ATOM      4  N   UNL A   1      33.568  27.209  24.117  1.00  0.00    -0.352 N 
ATOM      5  C   UNL A   1      33.636  26.160  24.966  1.00  0.00     0.251 C 
ATOM      6  O   UNL A   1      34.083  26.409  26.090  1.00  0.00    -0.270 OA
ATOM      7  H   UNL A   1      33.943  28.029  24.513  1.00  0.00     0.163 HD
BRANCH   5   8
ATOM      8  C   UNL A   1      33.265  24.760  24.613  1.00  0.00     0.067 C 
ATOM      9  C   UNL A   1      33.536  19.716  24.140  1.00  0.00     0.059 A 
ATOM     10  C   UNL A   1      32.552  20.687  23.881  1.00  0.00     0.074 A 
ATOM     11  C   UNL A   1      34.784  20.174  24.611  1.00  0.00     0.065 A 
ATOM     12  C   UNL A   1      32.788  22.044  24.115  1.00  0.00     0.130 A 
ATOM     13  C   UNL A   1      34.992  21.524  24.914  1.00  0.00     0.034 A 
ATOM     14  Cl  UNL A   1      36.153  19.129  24.787  1.00  0.00    -0.082 Cl
ATOM     15  C   UNL A   1      33.990  22.461  24.669  1.00  0.00     0.019 A 
ATOM     16  O   UNL A   1      31.784  22.896  23.779  1.00  0.00    -0.475 OA
ATOM     17  C   UNL A   1      34.198  23.863  24.973  1.00  0.00     0.025 C 
ATOM     18  C   UNL A   1      31.984  24.331  23.936  1.00  0.00     0.314 C 
BRANCH   9  19
ATOM     19  N   UNL A   1      33.258  18.353  23.938  1.00  0.00    -0.373 N 
ATOM     20  C   UNL A   1      32.433  18.058  22.765  1.00  0.00     0.143 C 
BRANCH  19  21
ATOM     21  C   UNL A   1      32.959  17.555  25.149  1.00  0.00     0.119 C 
BRANCH  21  22
ATOM     22  C   UNL A   1      33.323  16.066  24.988  1.00  0.00     0.002 C 
ATOM     23  C   UNL A   1      34.783  15.790  25.363  1.00  0.00     0.009 C 
ATOM     24  C   UNL A   1      32.415  15.173  25.839  1.00  0.00     0.009 C 
ENDBRANCH  21  22
ENDBRANCH  19  21
ENDBRANCH   9  19
BRANCH  18  25
ATOM     25  C   UNL A   1      30.695  24.892  24.570  1.00  0.00     0.429 C 
ATOM     26  F   UNL A   1      29.996  23.971  25.269  1.00  0.00    -0.167 F 
ATOM     27  F   UNL A   1      30.994  25.900  25.430  1.00  0.00    -0.167 F 
ATOM     28  F   UNL A   1      29.842  25.403  23.650  1.00  0.00    -0.167 F 
ENDBRANCH  18  25
ENDBRANCH   5   8
ENDBRANCH   3   4
ENDBRANCH   2   3
ENDBRANCH   1   2
BRANCH   1  29
ATOM     29  C   UNL A   1      31.003  29.836  24.696  1.00  0.00     0.002 C 
BRANCH  29  30
ATOM     30  C   UNL A   1      32.305  30.067  25.465  1.00  0.00     0.021 C 
BRANCH  30  31
ATOM     31  C   UNL A   1      32.122  30.593  26.884  1.00  0.00     0.116 C 
BRANCH  31  32
ATOM     32  N   UNL A   1      32.188  32.045  26.948  1.00  0.00    -0.352 N 
ATOM     33  C   UNL A   1      33.165  32.841  27.499  1.00  0.00     0.251 C 
ATOM     34  H   UNL A   1      31.430  32.523  26.541  1.00  0.00     0.163 HD
ATOM     35  O   UNL A   1      32.980  34.048  27.624  1.00  0.00    -0.269 OA
BRANCH  33  36
ATOM     36  C   UNL A   1      34.420  32.218  27.965  1.00  0.00     0.039 A 
ATOM     37  C   UNL A   1      34.424  30.892  28.409  1.00  0.00     0.014 A 
ATOM     38  C   UNL A   1      35.589  32.981  28.014  1.00  0.00     0.014 A 
ATOM     39  C   UNL A   1      35.544  30.392  29.062  1.00  0.00     0.010 A 
ATOM     40  C   UNL A   1      36.741  32.442  28.594  1.00  0.00     0.010 A 
ATOM     41  C   UNL A   1      36.711  31.164  29.174  1.00  0.00    -0.014 A 
BRANCH  41  42
ATOM     42  C   UNL A   1      37.881  30.615  29.909  1.00  0.00     0.031 A 
ATOM     43  C   UNL A   1      38.844  29.670  29.239  1.00  0.00     0.074 A 
ATOM     44  C   UNL A   1      38.100  31.006  31.180  1.00  0.00     0.049 A 
ATOM     45  N   UNL A   1      39.931  29.130  29.726  1.00  0.00    -0.248 NA
ATOM     46  C   UNL A   1      38.552  29.275  27.850  1.00  0.00     0.031 C 
ATOM     47  C   UNL A   1      37.227  31.898  31.947  1.00  0.00     0.029 A 
ATOM     48  N   UNL A   1      39.123  30.716  32.045  1.00  0.00    -0.354 N 
ATOM     49  C   UNL A   1      40.424  28.297  28.729  1.00  0.00     0.074 A 
ATOM     50  C   UNL A   1      39.521  28.402  27.605  1.00  0.00     0.031 C 
ATOM     51  C   UNL A   1      37.770  32.112  33.153  1.00  0.00     0.029 A 
ATOM     52  C   UNL A   1      39.001  31.336  33.266  1.00  0.00     0.049 A 
ATOM     53  H   UNL A   1      39.872  30.121  31.815  1.00  0.00     0.167 HD
ATOM     54  C   UNL A   1      41.539  27.530  28.742  1.00  0.00     0.034 A 
ATOM     55  C   UNL A   1      39.782  31.282  34.362  1.00  0.00     0.034 A 
ATOM     56  C   UNL A   1      42.474  27.477  29.831  1.00  0.00     0.049 A 
ATOM     57  C   UNL A   1      41.024  30.442  34.342  1.00  0.00     0.074 A 
ATOM     58  C   UNL A   1      43.675  26.791  29.895  1.00  0.00     0.029 A 
ATOM     59  N   UNL A   1      42.318  28.128  31.044  1.00  0.00    -0.354 N 
ATOM     60  N   UNL A   1      41.525  29.745  33.352  1.00  0.00    -0.248 NA
ATOM     61  C   UNL A   1      41.815  30.387  35.580  1.00  0.00     0.031 C 
ATOM     62  C   UNL A   1      44.239  27.016  31.153  1.00  0.00     0.029 A 
ATOM     63  C   UNL A   1      43.394  27.849  31.868  1.00  0.00     0.049 A 
ATOM     64  H   UNL A   1      41.556  28.703  31.283  1.00  0.00     0.167 HD
ATOM     65  C   UNL A   1      42.690  29.171  33.842  1.00  0.00     0.074 A 
ATOM     66  C   UNL A   1      42.835  29.620  35.212  1.00  0.00     0.031 C 
ATOM     67  C   UNL A   1      43.548  28.331  33.216  1.00  0.00     0.034 A 
BRANCH  54  68
ATOM     68  C   UNL A   1      41.854  26.711  27.520  1.00  0.00     0.023 A 
ATOM     69  C   UNL A   1      42.497  27.322  26.426  1.00  0.00     0.012 A 
ATOM     70  C   UNL A   1      41.615  25.323  27.502  1.00  0.00     0.148 A 
ATOM     71  C   UNL A   1      42.892  26.563  25.325  1.00  0.00     0.002 A 
ATOM     72  C   UNL A   1      42.036  24.569  26.414  1.00  0.00     0.091 A 
ATOM     73  F   UNL A   1      40.990  24.770  28.551  1.00  0.00    -0.205 F 
ATOM     74  C   UNL A   1      42.672  25.188  25.324  1.00  0.00     0.022 A 
BRANCH  72  75
ATOM     75  S   UNL A   1      41.853  22.784  26.334  1.00  0.00     0.127 S 
ATOM     76  O   UNL A   1      40.398  22.639  26.316  1.00  0.00    -0.237 OA
ATOM     77  O   UNL A   1      42.513  22.465  25.068  1.00  0.00    -0.237 OA
ATOM     78  O   UNL A   1      42.513  22.257  27.521  1.00  0.00    -0.744 OA
ENDBRANCH  72  75
ENDBRANCH  54  68
BRANCH  55  79
ATOM     79  C   UNL A   1      39.406  32.091  35.552  1.00  0.00     0.023 A 
ATOM     80  C   UNL A   1      39.703  33.466  35.571  1.00  0.00     0.012 A 
ATOM     81  C   UNL A   1      38.664  31.526  36.607  1.00  0.00     0.148 A 
ATOM     82  C   UNL A   1      39.263  34.269  36.624  1.00  0.00     0.002 A 
ATOM     83  C   UNL A   1      38.192  32.338  37.629  1.00  0.00     0.091 A 
ATOM     84  F   UNL A   1      38.398  30.213  36.560  1.00  0.00    -0.205 F 
ATOM     85  C   UNL A   1      38.498  33.708  37.645  1.00  0.00     0.022 A 
BRANCH  83  86
ATOM     86  S   UNL A   1      37.101  31.734  38.922  1.00  0.00     0.127 S 
ATOM     87  O   UNL A   1      35.972  32.656  38.814  1.00  0.00    -0.237 OA
ATOM     88  O   UNL A   1      36.830  30.370  38.467  1.00  0.00    -0.237 OA
ATOM     89  O   UNL A   1      37.863  31.822  40.159  1.00  0.00    -0.744 OA
ENDBRANCH  83  86
ENDBRANCH  55  79
BRANCH  67  90
ATOM     90  C   UNL A   1      44.729  27.819  33.989  1.00  0.00     0.023 A 
ATOM     91  C   UNL A   1      45.911  28.585  34.022  1.00  0.00     0.012 A 
ATOM     92  C   UNL A   1      44.623  26.665  34.790  1.00  0.00     0.148 A 
ATOM     93  C   UNL A   1      46.972  28.209  34.842  1.00  0.00     0.002 A 
ATOM     94  C   UNL A   1      45.672  26.316  35.631  1.00  0.00     0.091 A 
ATOM     95  F   UNL A   1      43.488  25.954  34.735  1.00  0.00    -0.205 F 
ATOM     96  C   UNL A   1      46.848  27.083  35.655  1.00  0.00     0.022 A 
BRANCH  94  97
ATOM     97  S   UNL A   1      45.580  24.931  36.772  1.00  0.00     0.127 S 
ATOM     98  O   UNL A   1      46.801  25.111  37.557  1.00  0.00    -0.237 OA
ATOM     99  O   UNL A   1      44.342  25.211  37.497  1.00  0.00    -0.237 OA
ATOM    100  O   UNL A   1      45.547  23.729  35.949  1.00  0.00    -0.744 OA
ENDBRANCH  94  97
ENDBRANCH  67  90
ENDBRANCH  41  42
ENDBRANCH  33  36
ENDBRANCH  31  32
ENDBRANCH  30  31
ENDBRANCH  29  30
ENDBRANCH   1  29
TORSDOF 20
ENDMDL
MODEL 3
REMARK VINA RESULT:     -11.5      2.758      3.450
REMARK SMILES CC(C)CN(C)c1cc2c(cc1Cl)C=C(C(=O)NCCCCCCNC(=O)c1ccc(-c3c4nc(c(-c5cccc(S(=O)(=O)[O-])c5F)c5ccc([nH]5)c(-c5cccc(S(=O)(=O)[O-])c5F)c5nc(c(-c6cccc(S(=O)(=O)[O-])c6F)c6ccc3[nH]6)C=C5)C=C4)cc1)[C@H](C(F)(F)F)O2
REMARK SMILES IDX 21 1 20 2 19 3 18 4 16 5 17 6 15 8 7 9 8 10 12 11 9 12 11 13
REMARK SMILES IDX 13 14 10 15 96 16 14 17 91 18 5 19 6 20 4 21 2 22 1 23 3 24
REMARK SMILES IDX 92 25 93 26 94 27 95 28 22 29 23 30 24 31 25 32 26 33 27 35
REMARK SMILES IDX 28 36 29 37 90 38 30 39 89 40 31 41 32 42 33 43 83 44 34 45
REMARK SMILES IDX 88 46 82 47 84 48 35 49 87 50 81 51 80 52 36 54 68 55 48 56
REMARK SMILES IDX 67 57 49 58 52 59 66 60 85 61 50 62 51 63 65 65 86 66 53 67
REMARK SMILES IDX 37 68 38 69 46 70 39 71 41 72 47 73 40 74 42 75 43 76 44 77
REMARK SMILES IDX 45 78 69 79 70 80 78 81 71 82 73 83 79 84 72 85 74 86 75 87
REMARK SMILES IDX 76 88 77 89 54 90 55 91 63 92 56 93 58 94 64 95 57 96 59 97
REMARK SMILES IDX 60 98 61 99 62 100
REMARK H PARENT 18 7 25 34 84 53 52 64
REMARK Flexibility Score: inf
ROOT
ATOM      1  C   UNL A   1      31.217  28.605  24.379  1.00  0.00     0.002 C 
ENDROOT
BRANCH   1   2
ATOM      2  C   UNL A   1      32.081  28.484  23.120  1.00  0.00     0.021 C 
BRANCH   2   3
ATOM      3  C   UNL A   1      32.906  27.198  23.055  1.00  0.00     0.116 C 
BRANCH   3   4
ATOM      4  N   UNL A   1      33.588  26.981  24.314  1.00  0.00    -0.352 N 
ATOM      5  C   UNL A   1      33.791  25.930  25.139  1.00  0.00     0.251 C 
ATOM      6  O   UNL A   1      34.394  26.181  26.187  1.00  0.00    -0.270 OA
ATOM      7  H   UNL A   1      34.007  27.804  24.655  1.00  0.00     0.163 HD
BRANCH   5   8
ATOM      8  C   UNL A   1      33.388  24.526  24.836  1.00  0.00     0.067 C 
ATOM      9  C   UNL A   1      33.617  19.478  24.389  1.00  0.00     0.059 A 
ATOM     10  C   UNL A   1      32.612  20.447  24.215  1.00  0.00     0.074 A 
ATOM     11  C   UNL A   1      34.904  19.941  24.733  1.00  0.00     0.065 A 
ATOM     12  C   UNL A   1      32.868  21.806  24.413  1.00  0.00     0.130 A 
ATOM     13  C   UNL A   1      35.138  21.294  25.002  1.00  0.00     0.034 A 
ATOM     14  Cl  UNL A   1      36.285  18.897  24.788  1.00  0.00    -0.082 Cl
ATOM     15  C   UNL A   1      34.117  22.228  24.845  1.00  0.00     0.019 A 
ATOM     16  O   UNL A   1      31.835  22.655  24.166  1.00  0.00    -0.475 OA
ATOM     17  C   UNL A   1      34.353  23.633  25.114  1.00  0.00     0.025 C 
ATOM     18  C   UNL A   1      32.049  24.091  24.289  1.00  0.00     0.314 C 
BRANCH   9  19
ATOM     19  N   UNL A   1      33.322  18.113  24.227  1.00  0.00    -0.373 N 
ATOM     20  C   UNL A   1      32.886  17.730  22.883  1.00  0.00     0.143 C 
BRANCH  19  21
ATOM     21  C   UNL A   1      32.604  17.458  25.345  1.00  0.00     0.119 C 
BRANCH  21  22
ATOM     22  C   UNL A   1      33.315  16.185  25.846  1.00  0.00     0.002 C 
ATOM     23  C   UNL A   1      32.458  14.933  25.639  1.00  0.00     0.009 C 
ATOM     24  C   UNL A   1      34.663  15.985  25.146  1.00  0.00     0.009 C 
ENDBRANCH  21  22
ENDBRANCH  19  21
ENDBRANCH   9  19
BRANCH  18  25
ATOM     25  C   UNL A   1      30.826  24.659  25.039  1.00  0.00     0.429 C 
ATOM     26  F   UNL A   1      30.087  25.509  24.294  1.00  0.00    -0.167 F 
ATOM     27  F   UNL A   1      30.002  23.650  25.424  1.00  0.00    -0.167 F 
ATOM     28  F   UNL A   1      31.171  25.333  26.162  1.00  0.00    -0.167 F 
ENDBRANCH  18  25
ENDBRANCH   5   8
ENDBRANCH   3   4
ENDBRANCH   2   3
ENDBRANCH   1   2
BRANCH   1  29
ATOM     29  C   UNL A   1      31.647  29.700  25.361  1.00  0.00     0.002 C 
BRANCH  29  30
ATOM     30  C   UNL A   1      33.154  29.797  25.606  1.00  0.00     0.021 C 
BRANCH  30  31
ATOM     31  C   UNL A   1      33.572  29.657  27.065  1.00  0.00     0.116 C 
BRANCH  31  32
ATOM     32  N   UNL A   1      33.516  30.923  27.780  1.00  0.00    -0.352 N 
ATOM     33  C   UNL A   1      34.436  31.464  28.648  1.00  0.00     0.251 C 
ATOM     34  H   UNL A   1      32.711  31.466  27.622  1.00  0.00     0.163 HD
ATOM     35  O   UNL A   1      34.153  32.463  29.303  1.00  0.00    -0.269 OA
BRANCH  33  36
ATOM     36  C   UNL A   1      35.750  30.808  28.803  1.00  0.00     0.039 A 
ATOM     37  C   UNL A   1      35.903  29.742  29.695  1.00  0.00     0.014 A 
ATOM     38  C   UNL A   1      36.849  31.298  28.095  1.00  0.00     0.014 A 
ATOM     39  C   UNL A   1      37.178  29.290  30.009  1.00  0.00     0.010 A 
ATOM     40  C   UNL A   1      38.122  30.778  28.351  1.00  0.00     0.010 A 
ATOM     41  C   UNL A   1      38.304  29.810  29.351  1.00  0.00    -0.014 A 
BRANCH  41  42
ATOM     42  C   UNL A   1      39.658  29.331  29.733  1.00  0.00     0.031 A 
ATOM     43  C   UNL A   1      40.410  29.961  30.876  1.00  0.00     0.074 A 
ATOM     44  C   UNL A   1      40.197  28.289  29.070  1.00  0.00     0.049 A 
ATOM     45  N   UNL A   1      41.582  29.640  31.360  1.00  0.00    -0.248 NA
ATOM     46  C   UNL A   1      39.774  31.099  31.562  1.00  0.00     0.031 C 
ATOM     47  C   UNL A   1      39.579  27.608  27.929  1.00  0.00     0.029 A 
ATOM     48  N   UNL A   1      41.375  27.614  29.262  1.00  0.00    -0.354 N 
ATOM     49  C   UNL A   1      41.845  30.559  32.368  1.00  0.00     0.074 A 
ATOM     50  C   UNL A   1      40.711  31.453  32.432  1.00  0.00     0.031 C 
ATOM     51  C   UNL A   1      40.363  26.591  27.548  1.00  0.00     0.029 A 
ATOM     52  C   UNL A   1      41.562  26.576  28.381  1.00  0.00     0.049 A 
ATOM     53  H   UNL A   1      42.024  27.850  29.963  1.00  0.00     0.167 HD
ATOM     54  C   UNL A   1      42.925  30.639  33.180  1.00  0.00     0.034 A 
ATOM     55  C   UNL A   1      42.586  25.711  28.245  1.00  0.00     0.034 A 
ATOM     56  C   UNL A   1      44.022  29.710  33.164  1.00  0.00     0.049 A 
ATOM     57  C   UNL A   1      43.760  25.806  29.173  1.00  0.00     0.074 A 
ATOM     58  C   UNL A   1      45.117  29.667  34.009  1.00  0.00     0.029 A 
ATOM     59  N   UNL A   1      44.166  28.668  32.264  1.00  0.00    -0.354 N 
ATOM     60  N   UNL A   1      43.940  26.619  30.185  1.00  0.00    -0.248 NA
ATOM     61  C   UNL A   1      44.867  24.865  28.950  1.00  0.00     0.031 C 
ATOM     62  C   UNL A   1      45.933  28.605  33.610  1.00  0.00     0.029 A 
ATOM     63  C   UNL A   1      45.340  27.983  32.523  1.00  0.00     0.049 A 
ATOM     64  H   UNL A   1      43.529  28.448  31.546  1.00  0.00     0.167 HD
ATOM     65  C   UNL A   1      45.175  26.287  30.724  1.00  0.00     0.074 A 
ATOM     66  C   UNL A   1      45.692  25.183  29.941  1.00  0.00     0.031 C 
ATOM     67  C   UNL A   1      45.828  26.862  31.762  1.00  0.00     0.034 A 
BRANCH  54  68
ATOM     68  C   UNL A   1      42.967  31.742  34.202  1.00  0.00     0.023 A 
ATOM     69  C   UNL A   1      43.522  32.988  33.850  1.00  0.00     0.012 A 
ATOM     70  C   UNL A   1      42.361  31.579  35.462  1.00  0.00     0.148 A 
ATOM     71  C   UNL A   1      43.479  34.057  34.745  1.00  0.00     0.002 A 
ATOM     72  C   UNL A   1      42.297  32.657  36.337  1.00  0.00     0.091 A 
ATOM     73  F   UNL A   1      41.852  30.379  35.775  1.00  0.00    -0.205 F 
ATOM     74  C   UNL A   1      42.858  33.895  35.981  1.00  0.00     0.022 A 
BRANCH  72  75
ATOM     75  S   UNL A   1      41.473  32.573  37.930  1.00  0.00     0.127 S 
ATOM     76  O   UNL A   1      40.115  32.196  37.539  1.00  0.00    -0.237 OA
ATOM     77  O   UNL A   1      42.226  31.520  38.610  1.00  0.00    -0.237 OA
ATOM     78  O   UNL A   1      41.601  33.899  38.521  1.00  0.00    -0.744 OA
ENDBRANCH  72  75
ENDBRANCH  54  68
BRANCH  55  79
ATOM     79  C   UNL A   1      42.502  24.659  27.198  1.00  0.00     0.023 A 
ATOM     80  C   UNL A   1      43.313  24.760  26.052  1.00  0.00     0.012 A 
ATOM     81  C   UNL A   1      41.707  23.512  27.386  1.00  0.00     0.148 A 
ATOM     82  C   UNL A   1      43.336  23.732  25.110  1.00  0.00     0.002 A 
ATOM     83  C   UNL A   1      41.768  22.473  26.467  1.00  0.00     0.091 A 
ATOM     84  F   UNL A   1      40.945  23.445  28.487  1.00  0.00    -0.205 F 
ATOM     85  C   UNL A   1      42.574  22.585  25.322  1.00  0.00     0.022 A 
BRANCH  83  86
ATOM     86  S   UNL A   1      40.918  20.910  26.713  1.00  0.00     0.127 S 
ATOM     87  O   UNL A   1      39.625  21.171  26.084  1.00  0.00    -0.237 OA
ATOM     88  O   UNL A   1      41.784  19.984  25.981  1.00  0.00    -0.237 OA
ATOM     89  O   UNL A   1      40.881  20.699  28.152  1.00  0.00    -0.744 OA
ENDBRANCH  83  86
ENDBRANCH  55  79
BRANCH  67  90
ATOM     90  C   UNL A   1      47.183  26.331  32.129  1.00  0.00     0.023 A 
ATOM     91  C   UNL A   1      47.288  25.362  33.146  1.00  0.00     0.012 A 
ATOM     92  C   UNL A   1      48.323  26.680  31.379  1.00  0.00     0.148 A 
ATOM     93  C   UNL A   1      48.509  24.748  33.411  1.00  0.00     0.002 A 
ATOM     94  C   UNL A   1      49.530  26.039  31.627  1.00  0.00     0.091 A 
ATOM     95  F   UNL A   1      48.194  27.609  30.420  1.00  0.00    -0.205 F 
ATOM     96  C   UNL A   1      49.626  25.076  32.645  1.00  0.00     0.022 A 
BRANCH  94  97
ATOM     97  S   UNL A   1      51.005  26.334  30.645  1.00  0.00     0.127 S 
ATOM     98  O   UNL A   1      50.561  25.931  29.312  1.00  0.00    -0.237 OA
ATOM     99  O   UNL A   1      51.204  27.773  30.813  1.00  0.00    -0.237 OA
ATOM    100  O   UNL A   1      52.051  25.502  31.224  1.00  0.00    -0.744 OA
ENDBRANCH  94  97
ENDBRANCH  67  90
ENDBRANCH  41  42
ENDBRANCH  33  36
ENDBRANCH  31  32
ENDBRANCH  30  31
ENDBRANCH  29  30
ENDBRANCH   1  29
TORSDOF 20
ENDMDL
