MODEL 1
REMARK VINA RESULT:     -11.5      0.000      0.000
REMARK SMILES O=C(NCCCCCCNC(=O)c1cc(S(=O)(=O)NCc2ccncc2)c(Cl)cc1Cl)c1ccc(-c2c3nc(c(-c4cccc(S(=O)(=O)[O-])c4F)c4ccc([nH]4)c(-c4cccc(S(=O)(=O)[O-])c4F)c4nc(c(-c5cccc(S(=O)(=O)[O-])c5F)c5ccc2[nH]5)C=C4)C=C3)cc1
REMARK SMILES IDX 7 1 6 2 5 3 4 4 3 5 1 6 2 7 32 9 33 10 94 11 34 12 93 13
REMARK SMILES IDX 35 14 36 15 37 16 87 17 38 18 92 19 86 20 88 21 39 22 91 23
REMARK SMILES IDX 85 24 84 25 40 27 72 28 52 29 71 30 53 31 56 32 70 33 89 34
REMARK SMILES IDX 54 35 55 36 69 38 90 39 57 40 41 41 42 42 50 43 43 44 45 45
REMARK SMILES IDX 51 46 44 47 46 48 47 49 48 50 49 51 73 52 74 53 82 54 75 55
REMARK SMILES IDX 77 56 83 57 76 58 78 59 79 60 80 61 81 62 58 63 59 64 67 65
REMARK SMILES IDX 60 66 62 67 68 68 61 69 63 70 64 71 65 72 66 73 8 74 9 75
REMARK SMILES IDX 10 76 11 77 12 79 13 80 14 81 30 82 15 83 29 84 31 85 27 86
REMARK SMILES IDX 28 87 16 88 17 89 18 90 19 91 20 93 21 94 22 95 26 96 23 97
REMARK SMILES IDX 25 98 24 99
REMARK H PARENT 3 8 88 26 56 37 10 78 19 92
REMARK Flexibility Score: inf
ROOT
ATOM      1  C   UNL A   1      30.393  26.924  25.043  1.00  0.00     0.002 C 
ENDROOT
BRANCH   1   2
ATOM      2  C   UNL A   1      31.342  28.000  25.575  1.00  0.00     0.002 C 
BRANCH   2   3
ATOM      3  C   UNL A   1      32.103  27.647  26.855  1.00  0.00     0.021 C 
BRANCH   3   4
ATOM      4  C   UNL A   1      33.463  28.317  27.019  1.00  0.00     0.116 C 
BRANCH   4   5
ATOM      5  N   UNL A   1      33.374  29.765  27.061  1.00  0.00    -0.352 N 
ATOM      6  O   UNL A   1      33.934  31.859  27.666  1.00  0.00    -0.269 OA
ATOM      7  C   UNL A   1      34.252  30.675  27.601  1.00  0.00     0.251 C 
ATOM      8  H   UNL A   1      32.572  30.152  26.641  1.00  0.00     0.163 HD
BRANCH   7   9
ATOM      9  C   UNL A   1      35.559  30.224  28.130  1.00  0.00     0.039 A 
ATOM     10  C   UNL A   1      36.714  30.271  27.343  1.00  0.00     0.014 A 
ATOM     11  C   UNL A   1      35.629  29.760  29.446  1.00  0.00     0.014 A 
ATOM     12  C   UNL A   1      37.909  29.744  27.829  1.00  0.00     0.010 A 
ATOM     13  C   UNL A   1      36.844  29.290  29.954  1.00  0.00     0.010 A 
ATOM     14  C   UNL A   1      37.986  29.249  29.140  1.00  0.00    -0.014 A 
BRANCH  14  15
ATOM     15  C   UNL A   1      39.277  28.743  29.670  1.00  0.00     0.031 A 
ATOM     16  C   UNL A   1      39.917  29.366  30.879  1.00  0.00     0.074 A 
ATOM     17  C   UNL A   1      39.890  27.727  29.032  1.00  0.00     0.049 A 
ATOM     18  N   UNL A   1      41.049  29.060  31.461  1.00  0.00    -0.248 NA
ATOM     19  C   UNL A   1      39.201  30.485  31.513  1.00  0.00     0.031 C 
ATOM     20  C   UNL A   1      39.390  27.072  27.821  1.00  0.00     0.029 A 
ATOM     21  N   UNL A   1      41.069  27.079  29.299  1.00  0.00    -0.354 N 
ATOM     22  C   UNL A   1      41.201  29.966  32.503  1.00  0.00     0.074 A 
ATOM     23  C   UNL A   1      40.049  30.841  32.470  1.00  0.00     0.031 C 
ATOM     24  C   UNL A   1      40.251  26.111  27.454  1.00  0.00     0.029 A 
ATOM     25  C   UNL A   1      41.381  26.107  28.378  1.00  0.00     0.049 A 
ATOM     26  H   UNL A   1      41.638  27.289  30.075  1.00  0.00     0.167 HD
ATOM     27  C   UNL A   1      42.199  30.049  33.415  1.00  0.00     0.034 A 
ATOM     28  C   UNL A   1      42.460  25.306  28.279  1.00  0.00     0.034 A 
ATOM     29  C   UNL A   1      43.320  29.148  33.473  1.00  0.00     0.049 A 
ATOM     30  C   UNL A   1      43.535  25.396  29.324  1.00  0.00     0.074 A 
ATOM     31  C   UNL A   1      44.347  29.110  34.401  1.00  0.00     0.029 A 
ATOM     32  N   UNL A   1      43.565  28.130  32.564  1.00  0.00    -0.354 N 
ATOM     33  N   UNL A   1      43.593  26.170  30.380  1.00  0.00    -0.248 NA
ATOM     34  C   UNL A   1      44.678  24.482  29.184  1.00  0.00     0.031 C 
ATOM     35  C   UNL A   1      45.216  28.071  34.050  1.00  0.00     0.029 A 
ATOM     36  C   UNL A   1      44.728  27.459  32.907  1.00  0.00     0.049 A 
ATOM     37  H   UNL A   1      42.997  27.915  31.791  1.00  0.00     0.167 HD
ATOM     38  C   UNL A   1      44.763  25.823  31.044  1.00  0.00     0.074 A 
ATOM     39  C   UNL A   1      45.373  24.751  30.281  1.00  0.00     0.031 C 
ATOM     40  C   UNL A   1      45.294  26.358  32.171  1.00  0.00     0.034 A 
BRANCH  27  41
ATOM     41  C   UNL A   1      42.099  31.122  34.468  1.00  0.00     0.023 A 
ATOM     42  C   UNL A   1      41.523  30.811  35.717  1.00  0.00     0.012 A 
ATOM     43  C   UNL A   1      42.624  32.410  34.251  1.00  0.00     0.148 A 
ATOM     44  C   UNL A   1      41.449  31.773  36.723  1.00  0.00     0.002 A 
ATOM     45  C   UNL A   1      42.577  33.354  35.271  1.00  0.00     0.091 A 
ATOM     46  F   UNL A   1      43.144  32.698  33.049  1.00  0.00    -0.205 F 
ATOM     47  C   UNL A   1      41.984  33.040  36.505  1.00  0.00     0.022 A 
BRANCH  45  48
ATOM     48  S   UNL A   1      43.306  34.988  35.097  1.00  0.00     0.127 S 
ATOM     49  O   UNL A   1      44.676  34.661  34.707  1.00  0.00    -0.237 OA
ATOM     50  O   UNL A   1      42.496  35.584  34.033  1.00  0.00    -0.237 OA
ATOM     51  O   UNL A   1      43.152  35.626  36.397  1.00  0.00    -0.744 OA
ENDBRANCH  45  48
ENDBRANCH  27  41
BRANCH  28  52
ATOM     52  C   UNL A   1      42.528  24.309  27.176  1.00  0.00     0.023 A 
ATOM     53  C   UNL A   1      43.254  24.620  26.011  1.00  0.00     0.012 A 
ATOM     54  C   UNL A   1      41.948  23.031  27.306  1.00  0.00     0.148 A 
ATOM     55  C   UNL A   1      43.391  23.680  24.989  1.00  0.00     0.002 A 
ATOM     56  C   UNL A   1      42.136  22.082  26.308  1.00  0.00     0.091 A 
ATOM     57  F   UNL A   1      41.245  22.762  28.415  1.00  0.00    -0.205 F 
ATOM     58  C   UNL A   1      42.846  22.408  25.143  1.00  0.00     0.022 A 
BRANCH  56  59
ATOM     59  S   UNL A   1      41.592  20.380  26.494  1.00  0.00     0.127 S 
ATOM     60  O   UNL A   1      42.164  20.021  27.789  1.00  0.00    -0.237 OA
ATOM     61  O   UNL A   1      40.134  20.522  26.483  1.00  0.00    -0.237 OA
ATOM     62  O   UNL A   1      42.129  19.672  25.340  1.00  0.00    -0.744 OA
ENDBRANCH  56  59
ENDBRANCH  28  52
BRANCH  40  63
ATOM     63  C   UNL A   1      46.595  25.785  32.666  1.00  0.00     0.023 A 
ATOM     64  C   UNL A   1      47.809  26.344  32.223  1.00  0.00     0.012 A 
ATOM     65  C   UNL A   1      46.615  24.752  33.622  1.00  0.00     0.148 A 
ATOM     66  C   UNL A   1      49.027  25.869  32.709  1.00  0.00     0.002 A 
ATOM     67  C   UNL A   1      47.830  24.310  34.132  1.00  0.00     0.091 A 
ATOM     68  F   UNL A   1      45.448  24.216  34.012  1.00  0.00    -0.205 F 
ATOM     69  C   UNL A   1      49.036  24.861  33.671  1.00  0.00     0.022 A 
BRANCH  67  70
ATOM     70  S   UNL A   1      47.926  23.075  35.434  1.00  0.00     0.127 S 
ATOM     71  O   UNL A   1      47.380  21.895  34.767  1.00  0.00    -0.237 OA
ATOM     72  O   UNL A   1      49.364  23.012  35.703  1.00  0.00    -0.237 OA
ATOM     73  O   UNL A   1      47.134  23.601  36.536  1.00  0.00    -0.744 OA
ENDBRANCH  67  70
ENDBRANCH  40  63
ENDBRANCH  14  15
ENDBRANCH   7   9
ENDBRANCH   4   5
ENDBRANCH   3   4
ENDBRANCH   2   3
ENDBRANCH   1   2
BRANCH   1  74
ATOM     74  C   UNL A   1      30.144  26.930  23.530  1.00  0.00     0.021 C 
BRANCH  74  75
ATOM     75  C   UNL A   1      31.032  27.869  22.716  1.00  0.00     0.116 C 
BRANCH  75  76
ATOM     76  N   UNL A   1      31.707  27.180  21.630  1.00  0.00    -0.352 N 
ATOM     77  C   UNL A   1      32.612  26.153  21.654  1.00  0.00     0.252 C 
ATOM     78  H   UNL A   1      31.477  27.506  20.730  1.00  0.00     0.163 HD
ATOM     79  O   UNL A   1      33.097  25.742  20.605  1.00  0.00    -0.269 OA
BRANCH  77  80
ATOM     80  C   UNL A   1      32.966  25.485  22.924  1.00  0.00     0.059 A 
ATOM     81  C   UNL A   1      32.529  24.172  23.146  1.00  0.00     0.038 A 
ATOM     82  C   UNL A   1      33.827  26.081  23.848  1.00  0.00     0.055 A 
ATOM     83  C   UNL A   1      32.938  23.455  24.287  1.00  0.00     0.101 A 
ATOM     84  C   UNL A   1      34.278  25.345  24.951  1.00  0.00     0.043 A 
ATOM     85  Cl  UNL A   1      34.347  27.723  23.722  1.00  0.00    -0.083 Cl
ATOM     86  C   UNL A   1      33.861  24.021  25.160  1.00  0.00     0.062 A 
ATOM     87  Cl  UNL A   1      34.607  23.189  26.474  1.00  0.00    -0.083 Cl
BRANCH  83  88
ATOM     88  S   UNL A   1      32.173  21.871  24.506  1.00  0.00     0.242 S 
ATOM     89  O   UNL A   1      31.186  22.043  25.548  1.00  0.00    -0.207 OA
ATOM     90  O   UNL A   1      31.801  21.416  23.185  1.00  0.00    -0.207 OA
BRANCH  88  91
ATOM     91  N   UNL A   1      33.309  20.806  25.070  1.00  0.00    -0.207 NA
ATOM     92  H   UNL A   1      33.925  21.353  25.670  1.00  0.00     0.141 HD
BRANCH  91  93
ATOM     93  C   UNL A   1      33.004  19.602  25.819  1.00  0.00     0.134 C 
BRANCH  93  94
ATOM     94  C   UNL A   1      33.242  18.304  25.107  1.00  0.00    -0.030 A 
ATOM     95  C   UNL A   1      33.701  18.266  23.787  1.00  0.00     0.025 A 
ATOM     96  C   UNL A   1      33.063  17.091  25.783  1.00  0.00     0.025 A 
ATOM     97  C   UNL A   1      33.960  17.032  23.210  1.00  0.00     0.111 A 
ATOM     98  C   UNL A   1      33.351  15.909  25.121  1.00  0.00     0.111 A 
ATOM     99  N   UNL A   1      33.802  15.856  23.853  1.00  0.00    -0.265 NA
ENDBRANCH  93  94
ENDBRANCH  91  93
ENDBRANCH  88  91
ENDBRANCH  83  88
ENDBRANCH  77  80
ENDBRANCH  75  76
ENDBRANCH  74  75
ENDBRANCH   1  74
TORSDOF 20
ENDMDL
MODEL 2
REMARK VINA RESULT:     -11.4      2.176      7.926
REMARK SMILES O=C(NCCCCCCNC(=O)c1cc(S(=O)(=O)NCc2ccncc2)c(Cl)cc1Cl)c1ccc(-c2c3nc(c(-c4cccc(S(=O)(=O)[O-])c4F)c4ccc([nH]4)c(-c4cccc(S(=O)(=O)[O-])c4F)c4nc(c(-c5cccc(S(=O)(=O)[O-])c5F)c5ccc2[nH]5)C=C4)C=C3)cc1
REMARK SMILES IDX 7 1 6 2 5 3 4 4 3 5 1 6 2 7 32 9 33 10 94 11 34 12 93 13
REMARK SMILES IDX 35 14 36 15 37 16 87 17 38 18 92 19 86 20 88 21 39 22 91 23
REMARK SMILES IDX 85 24 84 25 40 27 72 28 52 29 71 30 53 31 56 32 70 33 89 34
REMARK SMILES IDX 54 35 55 36 69 38 90 39 57 40 41 41 42 42 50 43 43 44 45 45
REMARK SMILES IDX 51 46 44 47 46 48 47 49 48 50 49 51 73 52 74 53 82 54 75 55
REMARK SMILES IDX 77 56 83 57 76 58 78 59 79 60 80 61 81 62 58 63 59 64 67 65
REMARK SMILES IDX 60 66 62 67 68 68 61 69 63 70 64 71 65 72 66 73 8 74 9 75
REMARK SMILES IDX 10 76 11 77 12 79 13 80 14 81 30 82 15 83 29 84 31 85 27 86
REMARK SMILES IDX 28 87 16 88 17 89 18 90 19 91 20 93 21 94 22 95 26 96 23 97
REMARK SMILES IDX 25 98 24 99
REMARK H PARENT 3 8 88 26 56 37 10 78 19 92
REMARK Flexibility Score: inf
ROOT
ATOM      1  C   UNL A   1      30.591  28.452  23.953  1.00  0.00     0.002 C 
ENDROOT
BRANCH   1   2
ATOM      2  C   UNL A   1      31.158  27.624  25.108  1.00  0.00     0.002 C 
BRANCH   2   3
ATOM      3  C   UNL A   1      31.776  28.420  26.260  1.00  0.00     0.021 C 
BRANCH   3   4
ATOM      4  C   UNL A   1      32.901  29.373  25.872  1.00  0.00     0.116 C 
BRANCH   4   5
ATOM      5  N   UNL A   1      32.588  30.760  26.163  1.00  0.00    -0.352 N 
ATOM      6  O   UNL A   1      32.700  32.726  27.253  1.00  0.00    -0.269 OA
ATOM      7  C   UNL A   1      33.200  31.626  27.038  1.00  0.00     0.251 C 
ATOM      8  H   UNL A   1      31.829  31.136  25.661  1.00  0.00     0.163 HD
BRANCH   7   9
ATOM      9  C   UNL A   1      34.438  31.220  27.742  1.00  0.00     0.039 A 
ATOM     10  C   UNL A   1      34.622  29.905  28.184  1.00  0.00     0.014 A 
ATOM     11  C   UNL A   1      35.440  32.172  27.947  1.00  0.00     0.014 A 
ATOM     12  C   UNL A   1      35.749  29.576  28.934  1.00  0.00     0.010 A 
ATOM     13  C   UNL A   1      36.600  31.823  28.645  1.00  0.00     0.010 A 
ATOM     14  C   UNL A   1      36.750  30.531  29.171  1.00  0.00    -0.014 A 
BRANCH  14  15
ATOM     15  C   UNL A   1      37.975  30.155  29.921  1.00  0.00     0.031 A 
ATOM     16  C   UNL A   1      38.981  29.203  29.336  1.00  0.00     0.074 A 
ATOM     17  C   UNL A   1      38.164  30.659  31.156  1.00  0.00     0.049 A 
ATOM     18  N   UNL A   1      40.092  28.755  29.862  1.00  0.00    -0.248 NA
ATOM     19  C   UNL A   1      38.699  28.676  27.991  1.00  0.00     0.031 C 
ATOM     20  C   UNL A   1      37.235  31.556  31.848  1.00  0.00     0.029 A 
ATOM     21  N   UNL A   1      39.186  30.480  32.053  1.00  0.00    -0.354 N 
ATOM     22  C   UNL A   1      40.624  27.868  28.934  1.00  0.00     0.074 A 
ATOM     23  C   UNL A   1      39.709  27.834  27.813  1.00  0.00     0.031 C 
ATOM     24  C   UNL A   1      37.732  31.854  33.058  1.00  0.00     0.029 A 
ATOM     25  C   UNL A   1      38.993  31.142  33.243  1.00  0.00     0.049 A 
ATOM     26  H   UNL A   1      39.980  29.931  31.864  1.00  0.00     0.167 HD
ATOM     27  C   UNL A   1      41.779  27.163  29.001  1.00  0.00     0.034 A 
ATOM     28  C   UNL A   1      39.740  31.167  34.364  1.00  0.00     0.034 A 
ATOM     29  C   UNL A   1      42.709  27.235  30.097  1.00  0.00     0.049 A 
ATOM     30  C   UNL A   1      41.032  30.403  34.397  1.00  0.00     0.074 A 
ATOM     31  C   UNL A   1      43.938  26.611  30.226  1.00  0.00     0.029 A 
ATOM     32  N   UNL A   1      42.514  27.973  31.255  1.00  0.00    -0.354 N 
ATOM     33  N   UNL A   1      41.584  29.678  33.455  1.00  0.00    -0.248 NA
ATOM     34  C   UNL A   1      41.822  30.485  35.635  1.00  0.00     0.031 C 
ATOM     35  C   UNL A   1      44.483  26.966  31.465  1.00  0.00     0.029 A 
ATOM     36  C   UNL A   1      43.596  27.817  32.105  1.00  0.00     0.049 A 
ATOM     37  H   UNL A   1      41.722  28.525  31.445  1.00  0.00     0.167 HD
ATOM     38  C   UNL A   1      42.795  29.235  33.975  1.00  0.00     0.074 A 
ATOM     39  C   UNL A   1      42.906  29.795  35.307  1.00  0.00     0.031 C 
ATOM     40  C   UNL A   1      43.720  28.423  33.406  1.00  0.00     0.034 A 
BRANCH  27  41
ATOM     41  C   UNL A   1      42.135  26.288  27.828  1.00  0.00     0.023 A 
ATOM     42  C   UNL A   1      42.948  26.809  26.801  1.00  0.00     0.012 A 
ATOM     43  C   UNL A   1      41.723  24.944  27.768  1.00  0.00     0.148 A 
ATOM     44  C   UNL A   1      43.325  26.013  25.720  1.00  0.00     0.002 A 
ATOM     45  C   UNL A   1      42.130  24.145  26.704  1.00  0.00     0.091 A 
ATOM     46  F   UNL A   1      40.928  24.471  28.739  1.00  0.00    -0.205 F 
ATOM     47  C   UNL A   1      42.924  24.680  25.676  1.00  0.00     0.022 A 
BRANCH  45  48
ATOM     48  S   UNL A   1      41.717  22.398  26.606  1.00  0.00     0.127 S 
ATOM     49  O   UNL A   1      42.315  21.883  27.836  1.00  0.00    -0.237 OA
ATOM     50  O   UNL A   1      40.254  22.419  26.603  1.00  0.00    -0.237 OA
ATOM     51  O   UNL A   1      42.313  21.925  25.364  1.00  0.00    -0.744 OA
ENDBRANCH  45  48
ENDBRANCH  27  41
BRANCH  28  52
ATOM     52  C   UNL A   1      39.299  32.003  35.514  1.00  0.00     0.023 A 
ATOM     53  C   UNL A   1      38.513  31.421  36.526  1.00  0.00     0.012 A 
ATOM     54  C   UNL A   1      39.719  33.341  35.651  1.00  0.00     0.148 A 
ATOM     55  C   UNL A   1      38.140  32.161  37.649  1.00  0.00     0.002 A 
ATOM     56  C   UNL A   1      39.391  34.054  36.798  1.00  0.00     0.091 A 
ATOM     57  F   UNL A   1      40.451  33.882  34.667  1.00  0.00    -0.205 F 
ATOM     58  C   UNL A   1      38.591  33.471  37.792  1.00  0.00     0.022 A 
BRANCH  56  59
ATOM     59  S   UNL A   1      40.051  35.693  37.126  1.00  0.00     0.127 S 
ATOM     60  O   UNL A   1      39.409  36.026  38.395  1.00  0.00    -0.237 OA
ATOM     61  O   UNL A   1      41.489  35.431  37.213  1.00  0.00    -0.237 OA
ATOM     62  O   UNL A   1      39.662  36.505  35.981  1.00  0.00    -0.744 OA
ENDBRANCH  56  59
ENDBRANCH  28  52
BRANCH  40  63
ATOM     63  C   UNL A   1      44.949  28.098  34.212  1.00  0.00     0.023 A 
ATOM     64  C   UNL A   1      46.091  28.914  34.090  1.00  0.00     0.012 A 
ATOM     65  C   UNL A   1      44.947  27.041  35.142  1.00  0.00     0.148 A 
ATOM     66  C   UNL A   1      47.222  28.668  34.866  1.00  0.00     0.002 A 
ATOM     67  C   UNL A   1      46.064  26.826  35.940  1.00  0.00     0.091 A 
ATOM     68  F   UNL A   1      43.858  26.262  35.225  1.00  0.00    -0.205 F 
ATOM     69  C   UNL A   1      47.205  27.633  35.799  1.00  0.00     0.022 A 
BRANCH  67  70
ATOM     70  S   UNL A   1      46.092  25.568  37.224  1.00  0.00     0.127 S 
ATOM     71  O   UNL A   1      47.000  26.160  38.203  1.00  0.00    -0.237 OA
ATOM     72  O   UNL A   1      44.690  25.515  37.644  1.00  0.00    -0.237 OA
ATOM     73  O   UNL A   1      46.568  24.354  36.575  1.00  0.00    -0.744 OA
ENDBRANCH  67  70
ENDBRANCH  40  63
ENDBRANCH  14  15
ENDBRANCH   7   9
ENDBRANCH   4   5
ENDBRANCH   3   4
ENDBRANCH   2   3
ENDBRANCH   1   2
BRANCH   1  74
ATOM     74  C   UNL A   1      31.225  28.214  22.577  1.00  0.00     0.021 C 
BRANCH  74  75
ATOM     75  C   UNL A   1      32.570  27.492  22.582  1.00  0.00     0.116 C 
BRANCH  75  76
ATOM     76  N   UNL A   1      32.669  26.510  21.517  1.00  0.00    -0.352 N 
ATOM     77  C   UNL A   1      32.902  25.161  21.569  1.00  0.00     0.252 C 
ATOM     78  H   UNL A   1      32.551  26.873  20.609  1.00  0.00     0.163 HD
ATOM     79  O   UNL A   1      32.989  24.516  20.528  1.00  0.00    -0.269 OA
BRANCH  77  80
ATOM     80  C   UNL A   1      32.985  24.456  22.865  1.00  0.00     0.059 A 
ATOM     81  C   UNL A   1      34.242  24.070  23.349  1.00  0.00     0.038 A 
ATOM     82  C   UNL A   1      31.860  24.277  23.673  1.00  0.00     0.055 A 
ATOM     83  C   UNL A   1      34.381  23.501  24.630  1.00  0.00     0.101 A 
ATOM     84  C   UNL A   1      32.010  23.765  24.967  1.00  0.00     0.043 A 
ATOM     85  Cl  UNL A   1      30.255  24.627  23.137  1.00  0.00    -0.083 Cl
ATOM     86  C   UNL A   1      33.272  23.403  25.463  1.00  0.00     0.062 A 
ATOM     87  Cl  UNL A   1      33.328  22.925  27.119  1.00  0.00    -0.083 Cl
BRANCH  83  88
ATOM     88  S   UNL A   1      36.007  22.919  25.032  1.00  0.00     0.242 S 
ATOM     89  O   UNL A   1      36.700  22.766  23.773  1.00  0.00    -0.207 OA
ATOM     90  O   UNL A   1      36.506  23.800  26.065  1.00  0.00    -0.207 OA
BRANCH  88  91
ATOM     91  N   UNL A   1      35.880  21.416  25.714  1.00  0.00    -0.207 NA
ATOM     92  H   UNL A   1      34.925  21.353  26.066  1.00  0.00     0.141 HD
BRANCH  91  93
ATOM     93  C   UNL A   1      36.116  20.171  25.007  1.00  0.00     0.134 C 
BRANCH  93  94
ATOM     94  C   UNL A   1      34.904  19.342  24.707  1.00  0.00    -0.030 A 
ATOM     95  C   UNL A   1      33.625  19.905  24.664  1.00  0.00     0.025 A 
ATOM     96  C   UNL A   1      35.042  17.983  24.403  1.00  0.00     0.025 A 
ATOM     97  C   UNL A   1      32.555  19.093  24.319  1.00  0.00     0.111 A 
ATOM     98  C   UNL A   1      33.912  17.256  24.068  1.00  0.00     0.111 A 
ATOM     99  N   UNL A   1      32.675  17.784  24.013  1.00  0.00    -0.265 NA
ENDBRANCH  93  94
ENDBRANCH  91  93
ENDBRANCH  88  91
ENDBRANCH  83  88
ENDBRANCH  77  80
ENDBRANCH  75  76
ENDBRANCH  74  75
ENDBRANCH   1  74
TORSDOF 20
ENDMDL
MODEL 3
REMARK VINA RESULT:     -11.3      1.604      2.068
REMARK SMILES O=C(NCCCCCCNC(=O)c1cc(S(=O)(=O)NCc2ccncc2)c(Cl)cc1Cl)c1ccc(-c2c3nc(c(-c4cccc(S(=O)(=O)[O-])c4F)c4ccc([nH]4)c(-c4cccc(S(=O)(=O)[O-])c4F)c4nc(c(-c5cccc(S(=O)(=O)[O-])c5F)c5ccc2[nH]5)C=C4)C=C3)cc1
REMARK SMILES IDX 7 1 6 2 5 3 4 4 3 5 1 6 2 7 32 9 33 10 94 11 34 12 93 13
REMARK SMILES IDX 35 14 36 15 37 16 87 17 38 18 92 19 86 20 88 21 39 22 91 23
REMARK SMILES IDX 85 24 84 25 40 27 72 28 52 29 71 30 53 31 56 32 70 33 89 34
REMARK SMILES IDX 54 35 55 36 69 38 90 39 57 40 41 41 42 42 50 43 43 44 45 45
REMARK SMILES IDX 51 46 44 47 46 48 47 49 48 50 49 51 73 52 74 53 82 54 75 55
REMARK SMILES IDX 77 56 83 57 76 58 78 59 79 60 80 61 81 62 58 63 59 64 67 65
REMARK SMILES IDX 60 66 62 67 68 68 61 69 63 70 64 71 65 72 66 73 8 74 9 75
REMARK SMILES IDX 10 76 11 77 12 79 13 80 14 81 30 82 15 83 29 84 31 85 27 86
REMARK SMILES IDX 28 87 16 88 17 89 18 90 19 91 20 93 21 94 22 95 26 96 23 97
REMARK SMILES IDX 25 98 24 99
REMARK H PARENT 3 8 88 26 56 37 10 78 19 92
REMARK Flexibility Score: inf
ROOT
ATOM      1  C   UNL A   1      32.041  29.164  24.249  1.00  0.00     0.002 C 
ENDROOT
BRANCH   1   2
ATOM      2  C   UNL A   1      32.032  29.313  25.772  1.00  0.00     0.002 C 
BRANCH   2   3
ATOM      3  C   UNL A   1      32.952  28.364  26.542  1.00  0.00     0.021 C 
BRANCH   3   4
ATOM      4  C   UNL A   1      34.187  29.004  27.166  1.00  0.00     0.116 C 
BRANCH   4   5
ATOM      5  N   UNL A   1      33.927  30.332  27.691  1.00  0.00    -0.352 N 
ATOM      6  O   UNL A   1      34.238  32.146  28.986  1.00  0.00    -0.269 OA
ATOM      7  C   UNL A   1      34.694  31.099  28.536  1.00  0.00     0.251 C 
ATOM      8  H   UNL A   1      33.081  30.744  27.400  1.00  0.00     0.163 HD
BRANCH   7   9
ATOM      9  C   UNL A   1      36.049  30.648  28.926  1.00  0.00     0.039 A 
ATOM     10  C   UNL A   1      37.191  31.158  28.299  1.00  0.00     0.014 A 
ATOM     11  C   UNL A   1      36.177  29.706  29.951  1.00  0.00     0.014 A 
ATOM     12  C   UNL A   1      38.446  30.640  28.611  1.00  0.00     0.010 A 
ATOM     13  C   UNL A   1      37.444  29.234  30.307  1.00  0.00     0.010 A 
ATOM     14  C   UNL A   1      38.585  29.674  29.620  1.00  0.00    -0.014 A 
BRANCH  14  15
ATOM     15  C   UNL A   1      39.932  29.170  29.987  1.00  0.00     0.031 A 
ATOM     16  C   UNL A   1      40.726  29.812  31.091  1.00  0.00     0.074 A 
ATOM     17  C   UNL A   1      40.455  28.140  29.294  1.00  0.00     0.049 A 
ATOM     18  N   UNL A   1      41.923  29.511  31.527  1.00  0.00    -0.248 NA
ATOM     19  C   UNL A   1      40.102  30.946  31.791  1.00  0.00     0.031 C 
ATOM     20  C   UNL A   1      39.800  27.465  28.171  1.00  0.00     0.029 A 
ATOM     21  N   UNL A   1      41.656  27.490  29.419  1.00  0.00    -0.354 N 
ATOM     22  C   UNL A   1      42.211  30.435  32.523  1.00  0.00     0.074 A 
ATOM     23  C   UNL A   1      41.067  31.316  32.623  1.00  0.00     0.031 C 
ATOM     24  C   UNL A   1      40.603  26.493  27.714  1.00  0.00     0.029 A 
ATOM     25  C   UNL A   1      41.843  26.499  28.483  1.00  0.00     0.049 A 
ATOM     26  H   UNL A   1      42.321  27.712  30.110  1.00  0.00     0.167 HD
ATOM     27  C   UNL A   1      43.319  30.529  33.297  1.00  0.00     0.034 A 
ATOM     28  C   UNL A   1      42.898  25.691  28.261  1.00  0.00     0.034 A 
ATOM     29  C   UNL A   1      44.435  29.623  33.226  1.00  0.00     0.049 A 
ATOM     30  C   UNL A   1      44.099  25.794  29.156  1.00  0.00     0.074 A 
ATOM     31  C   UNL A   1      45.574  29.596  34.014  1.00  0.00     0.029 A 
ATOM     32  N   UNL A   1      44.558  28.587  32.313  1.00  0.00    -0.354 N 
ATOM     33  N   UNL A   1      44.296  26.588  30.181  1.00  0.00    -0.248 NA
ATOM     34  C   UNL A   1      45.211  24.872  28.886  1.00  0.00     0.031 C 
ATOM     35  C   UNL A   1      46.387  28.546  33.573  1.00  0.00     0.029 A 
ATOM     36  C   UNL A   1      45.753  27.916  32.515  1.00  0.00     0.049 A 
ATOM     37  H   UNL A   1      43.894  28.361  31.624  1.00  0.00     0.167 HD
ATOM     38  C   UNL A   1      45.542  26.246  30.694  1.00  0.00     0.074 A 
ATOM     39  C   UNL A   1      46.044  25.157  29.879  1.00  0.00     0.031 C 
ATOM     40  C   UNL A   1      46.216  26.799  31.732  1.00  0.00     0.034 A 
BRANCH  27  41
ATOM     41  C   UNL A   1      43.360  31.621  34.333  1.00  0.00     0.023 A 
ATOM     42  C   UNL A   1      44.005  32.837  34.030  1.00  0.00     0.012 A 
ATOM     43  C   UNL A   1      42.713  31.474  35.575  1.00  0.00     0.148 A 
ATOM     44  C   UNL A   1      44.028  33.880  34.955  1.00  0.00     0.002 A 
ATOM     45  C   UNL A   1      42.711  32.530  36.481  1.00  0.00     0.091 A 
ATOM     46  F   UNL A   1      42.127  30.302  35.860  1.00  0.00    -0.205 F 
ATOM     47  C   UNL A   1      43.374  33.730  36.175  1.00  0.00     0.022 A 
BRANCH  45  48
ATOM     48  S   UNL A   1      41.832  32.447  38.046  1.00  0.00     0.127 S 
ATOM     49  O   UNL A   1      42.549  31.374  38.732  1.00  0.00    -0.237 OA
ATOM     50  O   UNL A   1      42.053  33.781  38.605  1.00  0.00    -0.237 OA
ATOM     51  O   UNL A   1      40.445  32.163  37.702  1.00  0.00    -0.744 OA
ENDBRANCH  45  48
ENDBRANCH  27  41
BRANCH  28  52
ATOM     52  C   UNL A   1      42.819  24.673  27.177  1.00  0.00     0.023 A 
ATOM     53  C   UNL A   1      43.465  24.922  25.952  1.00  0.00     0.012 A 
ATOM     54  C   UNL A   1      42.180  23.434  27.381  1.00  0.00     0.148 A 
ATOM     55  C   UNL A   1      43.465  23.959  24.942  1.00  0.00     0.002 A 
ATOM     56  C   UNL A   1      42.231  22.459  26.391  1.00  0.00     0.091 A 
ATOM     57  F   UNL A   1      41.554  23.226  28.548  1.00  0.00    -0.205 F 
ATOM     58  C   UNL A   1      42.862  22.724  25.167  1.00  0.00     0.022 A 
BRANCH  56  59
ATOM     59  S   UNL A   1      41.607  20.796  26.656  1.00  0.00     0.127 S 
ATOM     60  O   UNL A   1      40.163  21.008  26.623  1.00  0.00    -0.237 OA
ATOM     61  O   UNL A   1      42.151  20.078  25.502  1.00  0.00    -0.237 OA
ATOM     62  O   UNL A   1      42.161  20.372  27.935  1.00  0.00    -0.744 OA
ENDBRANCH  56  59
ENDBRANCH  28  52
BRANCH  40  63
ATOM     63  C   UNL A   1      47.568  26.228  32.065  1.00  0.00     0.023 A 
ATOM     64  C   UNL A   1      48.710  26.731  31.413  1.00  0.00     0.012 A 
ATOM     65  C   UNL A   1      47.716  25.255  33.072  1.00  0.00     0.148 A 
ATOM     66  C   UNL A   1      49.980  26.259  31.743  1.00  0.00     0.002 A 
ATOM     67  C   UNL A   1      48.987  24.817  33.424  1.00  0.00     0.091 A 
ATOM     68  F   UNL A   1      46.614  24.771  33.664  1.00  0.00    -0.205 F 
ATOM     69  C   UNL A   1      50.119  25.312  32.756  1.00  0.00     0.022 A 
BRANCH  67  70
ATOM     70  S   UNL A   1      49.260  23.662  34.773  1.00  0.00     0.127 S 
ATOM     71  O   UNL A   1      50.716  23.537  34.771  1.00  0.00    -0.237 OA
ATOM     72  O   UNL A   1      48.711  24.384  35.923  1.00  0.00    -0.237 OA
ATOM     73  O   UNL A   1      48.523  22.457  34.416  1.00  0.00    -0.744 OA
ENDBRANCH  67  70
ENDBRANCH  40  63
ENDBRANCH  14  15
ENDBRANCH   7   9
ENDBRANCH   4   5
ENDBRANCH   3   4
ENDBRANCH   2   3
ENDBRANCH   1   2
BRANCH   1  74
ATOM     74  C   UNL A   1      33.421  29.079  23.587  1.00  0.00     0.021 C 
BRANCH  74  75
ATOM     75  C   UNL A   1      33.788  27.722  22.991  1.00  0.00     0.116 C 
BRANCH  75  76
ATOM     76  N   UNL A   1      32.906  27.345  21.900  1.00  0.00    -0.352 N 
ATOM     77  C   UNL A   1      32.021  26.306  21.792  1.00  0.00     0.252 C 
ATOM     78  H   UNL A   1      32.954  27.930  21.111  1.00  0.00     0.163 HD
ATOM     79  O   UNL A   1      31.395  26.144  20.748  1.00  0.00    -0.269 OA
BRANCH  77  80
ATOM     80  C   UNL A   1      31.757  25.412  22.938  1.00  0.00     0.059 A 
ATOM     81  C   UNL A   1      32.670  24.388  23.226  1.00  0.00     0.038 A 
ATOM     82  C   UNL A   1      30.692  25.639  23.812  1.00  0.00     0.055 A 
ATOM     83  C   UNL A   1      32.522  23.587  24.374  1.00  0.00     0.101 A 
ATOM     84  C   UNL A   1      30.581  24.879  24.983  1.00  0.00     0.043 A 
ATOM     85  Cl  UNL A   1      29.458  26.807  23.503  1.00  0.00    -0.083 Cl
ATOM     86  C   UNL A   1      31.510  23.871  25.285  1.00  0.00     0.062 A 
ATOM     87  Cl  UNL A   1      31.335  23.115  26.826  1.00  0.00    -0.083 Cl
BRANCH  83  88
ATOM     88  S   UNL A   1      33.661  22.235  24.512  1.00  0.00     0.242 S 
ATOM     89  O   UNL A   1      34.570  22.363  23.396  1.00  0.00    -0.207 OA
ATOM     90  O   UNL A   1      34.138  22.248  25.877  1.00  0.00    -0.207 OA
BRANCH  88  91
ATOM     91  N   UNL A   1      32.829  20.817  24.316  1.00  0.00    -0.207 NA
ATOM     92  H   UNL A   1      33.295  20.329  23.550  1.00  0.00     0.141 HD
BRANCH  91  93
ATOM     93  C   UNL A   1      32.645  19.823  25.356  1.00  0.00     0.134 C 
BRANCH  93  94
ATOM     94  C   UNL A   1      33.043  18.420  25.006  1.00  0.00    -0.030 A 
ATOM     95  C   UNL A   1      32.663  17.332  25.798  1.00  0.00     0.025 A 
ATOM     96  C   UNL A   1      33.763  18.168  23.832  1.00  0.00     0.025 A 
ATOM     97  C   UNL A   1      33.012  16.056  25.382  1.00  0.00     0.111 A 
ATOM     98  C   UNL A   1      34.063  16.857  23.502  1.00  0.00     0.111 A 
ATOM     99  N   UNL A   1      33.697  15.798  24.248  1.00  0.00    -0.265 NA
ENDBRANCH  93  94
ENDBRANCH  91  93
ENDBRANCH  88  91
ENDBRANCH  83  88
ENDBRANCH  77  80
ENDBRANCH  75  76
ENDBRANCH  74  75
ENDBRANCH   1  74
TORSDOF 20
ENDMDL
