MODEL 1
REMARK VINA RESULT:     -11.4      0.000      0.000
REMARK SMILES C[C@H](NC(=O)c1c(C(=O)NCCCCCCNC(=O)c2ccc(-c3c4nc(c(-c5cccc(S(=O)(=O)[O-])c5F)c5ccc([nH]5)c(-c5cccc(S(=O)(=O)[O-])c5F)c5nc(c(-c6cccc(S(=O)(=O)[O-])c6F)c6ccc3[nH]6)C=C5)C=C4)cc2)cnn1C)[C@]12C[C@H]3C[C@H](C[C@H](C3)C1)C2
REMARK SMILES IDX 13 1 12 2 11 3 10 4 8 5 9 6 7 8 6 9 85 10 83 11 84 12 86 13
REMARK SMILES IDX 4 14 3 15 5 17 2 18 1 19 87 20 88 21 95 22 96 23 89 24 93 25
REMARK SMILES IDX 91 26 90 27 94 28 92 29 14 30 15 31 16 32 17 33 18 34 19 36
REMARK SMILES IDX 20 37 21 38 82 39 22 40 81 41 23 42 24 43 25 44 75 45 26 46
REMARK SMILES IDX 80 47 74 48 76 49 27 50 79 51 73 52 72 53 28 55 60 56 40 57
REMARK SMILES IDX 59 58 41 59 44 60 58 61 77 62 42 63 43 64 57 66 78 67 45 68
REMARK SMILES IDX 29 69 30 70 38 71 31 72 33 73 39 74 32 75 34 76 35 77 36 78
REMARK SMILES IDX 37 79 61 80 62 81 70 82 63 83 65 84 71 85 64 86 66 87 67 88
REMARK SMILES IDX 68 89 69 90 46 91 47 92 55 93 48 94 50 95 56 96 49 97 51 98
REMARK SMILES IDX 52 99 53 100 54 101
REMARK H PARENT 10 7 3 16 17 35 76 54 44 65
REMARK Flexibility Score: inf
ROOT
ATOM      1  C   UNL A   1      38.809  22.336  25.884  1.00  0.00     0.002 C 
ENDROOT
BRANCH   1   2
ATOM      2  C   UNL A   1      37.976  23.596  26.115  1.00  0.00     0.021 C 
BRANCH   2   3
ATOM      3  C   UNL A   1      36.497  23.535  25.748  1.00  0.00     0.116 C 
BRANCH   3   4
ATOM      4  N   UNL A   1      35.607  23.275  26.849  1.00  0.00    -0.352 N 
ATOM      5  C   UNL A   1      34.539  22.425  26.978  1.00  0.00     0.255 C 
ATOM      6  O   UNL A   1      33.964  22.465  28.070  1.00  0.00    -0.269 OA
ATOM      7  H   UNL A   1      35.803  23.803  27.657  1.00  0.00     0.163 HD
BRANCH   5   8
ATOM      8  C   UNL A   1      34.020  21.553  25.925  1.00  0.00     0.090 A 
ATOM      9  C   UNL A   1      32.832  21.473  25.198  1.00  0.00     0.138 A 
ATOM     10  N   UNL A   1      33.033  20.496  24.250  1.00  0.00    -0.262 N 
ATOM     11  C   UNL A   1      34.808  20.507  25.363  1.00  0.00     0.149 A 
ATOM     12  N   UNL A   1      34.195  19.837  24.390  1.00  0.00    -0.180 NA
ATOM     13  C   UNL A   1      32.173  20.142  23.143  1.00  0.00     0.174 C 
BRANCH   9  14
ATOM     14  C   UNL A   1      31.653  22.278  25.229  1.00  0.00     0.270 C 
ATOM     15  N   UNL A   1      31.654  23.504  24.615  1.00  0.00    -0.348 N 
ATOM     16  H   UNL A   1      30.765  23.927  24.597  1.00  0.00     0.164 HD
ATOM     17  O   UNL A   1      30.612  21.898  25.756  1.00  0.00    -0.267 OA
BRANCH  15  18
ATOM     18  C   UNL A   1      32.699  24.335  23.973  1.00  0.00     0.085 C 
ATOM     19  C   UNL A   1      32.639  24.302  22.436  1.00  0.00     0.031 C 
BRANCH  18  20
ATOM     20  C   UNL A   1      32.654  25.813  24.534  1.00  0.00    -0.009 C 
ATOM     21  C   UNL A   1      33.614  26.742  23.727  1.00  0.00     0.012 C 
ATOM     22  C   UNL A   1      33.066  25.873  26.033  1.00  0.00     0.012 C 
ATOM     23  C   UNL A   1      31.226  26.428  24.409  1.00  0.00     0.012 C 
ATOM     24  C   UNL A   1      33.581  28.184  24.264  1.00  0.00    -0.010 C 
ATOM     25  C   UNL A   1      33.028  27.317  26.562  1.00  0.00    -0.010 C 
ATOM     26  C   UNL A   1      31.186  27.872  24.939  1.00  0.00    -0.010 C 
ATOM     27  C   UNL A   1      32.157  28.741  24.133  1.00  0.00     0.007 C 
ATOM     28  C   UNL A   1      33.997  28.183  25.743  1.00  0.00     0.007 C 
ATOM     29  C   UNL A   1      31.603  27.875  26.419  1.00  0.00     0.007 C 
ENDBRANCH  18  20
ENDBRANCH  15  18
ENDBRANCH   9  14
ENDBRANCH   5   8
ENDBRANCH   3   4
ENDBRANCH   2   3
ENDBRANCH   1   2
BRANCH   1  30
ATOM     30  C   UNL A   1      38.159  21.167  25.140  1.00  0.00     0.002 C 
BRANCH  30  31
ATOM     31  C   UNL A   1      38.840  19.798  25.204  1.00  0.00     0.021 C 
BRANCH  31  32
ATOM     32  C   UNL A   1      39.748  19.512  26.397  1.00  0.00     0.116 C 
BRANCH  32  33
ATOM     33  N   UNL A   1      40.996  18.862  26.046  1.00  0.00    -0.352 N 
ATOM     34  C   UNL A   1      42.265  19.384  25.961  1.00  0.00     0.251 C 
ATOM     35  H   UNL A   1      40.923  17.902  25.838  1.00  0.00     0.163 HD
ATOM     36  O   UNL A   1      43.187  18.657  25.593  1.00  0.00    -0.269 OA
BRANCH  34  37
ATOM     37  C   UNL A   1      42.535  20.813  26.261  1.00  0.00     0.039 A 
ATOM     38  C   UNL A   1      42.697  21.183  27.602  1.00  0.00     0.014 A 
ATOM     39  C   UNL A   1      42.603  21.790  25.263  1.00  0.00     0.014 A 
ATOM     40  C   UNL A   1      42.996  22.507  27.935  1.00  0.00     0.010 A 
ATOM     41  C   UNL A   1      42.942  23.106  25.593  1.00  0.00     0.010 A 
ATOM     42  C   UNL A   1      43.150  23.474  26.929  1.00  0.00    -0.014 A 
BRANCH  42  43
ATOM     43  C   UNL A   1      43.560  24.860  27.267  1.00  0.00     0.031 A 
ATOM     44  C   UNL A   1      44.992  25.293  27.135  1.00  0.00     0.074 A 
ATOM     45  C   UNL A   1      42.641  25.727  27.736  1.00  0.00     0.049 A 
ATOM     46  N   UNL A   1      45.528  26.453  27.414  1.00  0.00    -0.248 NA
ATOM     47  C   UNL A   1      45.946  24.293  26.632  1.00  0.00     0.031 C 
ATOM     48  C   UNL A   1      41.228  25.421  27.956  1.00  0.00     0.029 A 
ATOM     49  N   UNL A   1      42.764  27.039  28.124  1.00  0.00    -0.354 N 
ATOM     50  C   UNL A   1      46.884  26.318  27.146  1.00  0.00     0.074 A 
ATOM     51  C   UNL A   1      47.091  24.961  26.688  1.00  0.00     0.031 C 
ATOM     52  C   UNL A   1      40.610  26.518  28.424  1.00  0.00     0.029 A 
ATOM     53  C   UNL A   1      41.584  27.599  28.551  1.00  0.00     0.049 A 
ATOM     54  H   UNL A   1      43.616  27.531  28.098  1.00  0.00     0.167 HD
ATOM     55  C   UNL A   1      47.864  27.247  27.247  1.00  0.00     0.034 A 
ATOM     56  C   UNL A   1      41.312  28.844  28.986  1.00  0.00     0.034 A 
ATOM     57  C   UNL A   1      47.662  28.611  27.649  1.00  0.00     0.049 A 
ATOM     58  C   UNL A   1      42.409  29.869  29.041  1.00  0.00     0.074 A 
ATOM     59  C   UNL A   1      48.599  29.625  27.755  1.00  0.00     0.029 A 
ATOM     60  N   UNL A   1      46.440  29.159  28.000  1.00  0.00    -0.354 N 
ATOM     61  N   UNL A   1      43.666  29.746  28.691  1.00  0.00    -0.248 NA
ATOM     62  C   UNL A   1      42.048  31.208  29.530  1.00  0.00     0.031 C 
ATOM     63  C   UNL A   1      47.936  30.796  28.144  1.00  0.00     0.029 A 
ATOM     64  C   UNL A   1      46.593  30.500  28.307  1.00  0.00     0.049 A 
ATOM     65  H   UNL A   1      45.588  28.668  28.028  1.00  0.00     0.167 HD
ATOM     66  C   UNL A   1      44.241  30.993  28.901  1.00  0.00     0.074 A 
ATOM     67  C   UNL A   1      43.193  31.865  29.391  1.00  0.00     0.031 C 
ATOM     68  C   UNL A   1      45.530  31.372  28.729  1.00  0.00     0.034 A 
BRANCH  55  69
ATOM     69  C   UNL A   1      49.245  26.832  26.836  1.00  0.00     0.023 A 
ATOM     70  C   UNL A   1      50.003  26.044  27.723  1.00  0.00     0.012 A 
ATOM     71  C   UNL A   1      49.780  27.177  25.581  1.00  0.00     0.148 A 
ATOM     72  C   UNL A   1      51.279  25.609  27.364  1.00  0.00     0.002 A 
ATOM     73  C   UNL A   1      51.049  26.730  25.224  1.00  0.00     0.091 A 
ATOM     74  F   UNL A   1      49.057  27.957  24.762  1.00  0.00    -0.205 F 
ATOM     75  C   UNL A   1      51.800  25.946  26.114  1.00  0.00     0.022 A 
BRANCH  73  76
ATOM     76  S   UNL A   1      51.730  27.141  23.610  1.00  0.00     0.127 S 
ATOM     77  O   UNL A   1      52.777  26.135  23.448  1.00  0.00    -0.237 OA
ATOM     78  O   UNL A   1      50.589  26.972  22.708  1.00  0.00    -0.237 OA
ATOM     79  O   UNL A   1      52.176  28.522  23.752  1.00  0.00    -0.744 OA
ENDBRANCH  73  76
ENDBRANCH  55  69
BRANCH  56  80
ATOM     80  C   UNL A   1      39.910  29.213  29.316  1.00  0.00     0.023 A 
ATOM     81  C   UNL A   1      38.993  29.418  28.269  1.00  0.00     0.012 A 
ATOM     82  C   UNL A   1      39.466  29.307  30.646  1.00  0.00     0.148 A 
ATOM     83  C   UNL A   1      37.658  29.721  28.543  1.00  0.00     0.002 A 
ATOM     84  C   UNL A   1      38.126  29.577  30.912  1.00  0.00     0.091 A 
ATOM     85  F   UNL A   1      40.347  29.114  31.638  1.00  0.00    -0.205 F 
ATOM     86  C   UNL A   1      37.221  29.792  29.864  1.00  0.00     0.022 A 
BRANCH  84  87
ATOM     87  S   UNL A   1      37.547  29.569  32.611  1.00  0.00     0.127 S 
ATOM     88  O   UNL A   1      37.536  28.148  32.938  1.00  0.00    -0.237 OA
ATOM     89  O   UNL A   1      38.565  30.348  33.317  1.00  0.00    -0.237 OA
ATOM     90  O   UNL A   1      36.249  30.230  32.518  1.00  0.00    -0.744 OA
ENDBRANCH  84  87
ENDBRANCH  56  80
BRANCH  68  91
ATOM     91  C   UNL A   1      45.887  32.789  29.071  1.00  0.00     0.023 A 
ATOM     92  C   UNL A   1      46.426  33.066  30.341  1.00  0.00     0.012 A 
ATOM     93  C   UNL A   1      45.760  33.827  28.129  1.00  0.00     0.148 A 
ATOM     94  C   UNL A   1      46.829  34.360  30.670  1.00  0.00     0.002 A 
ATOM     95  C   UNL A   1      46.180  35.113  28.458  1.00  0.00     0.091 A 
ATOM     96  F   UNL A   1      45.227  33.554  26.928  1.00  0.00    -0.205 F 
ATOM     97  C   UNL A   1      46.714  35.383  29.728  1.00  0.00     0.022 A 
BRANCH  95  98
ATOM     98  S   UNL A   1      46.076  36.431  27.238  1.00  0.00     0.127 S 
ATOM     99  O   UNL A   1      44.636  36.553  27.026  1.00  0.00    -0.237 OA
ATOM    100  O   UNL A   1      46.682  37.576  27.921  1.00  0.00    -0.237 OA
ATOM    101  O   UNL A   1      46.857  35.929  26.113  1.00  0.00    -0.744 OA
ENDBRANCH  95  98
ENDBRANCH  68  91
ENDBRANCH  42  43
ENDBRANCH  34  37
ENDBRANCH  32  33
ENDBRANCH  31  32
ENDBRANCH  30  31
ENDBRANCH   1  30
TORSDOF 19
ENDMDL
MODEL 2
REMARK VINA RESULT:     -11.4      1.167      7.422
REMARK SMILES C[C@H](NC(=O)c1c(C(=O)NCCCCCCNC(=O)c2ccc(-c3c4nc(c(-c5cccc(S(=O)(=O)[O-])c5F)c5ccc([nH]5)c(-c5cccc(S(=O)(=O)[O-])c5F)c5nc(c(-c6cccc(S(=O)(=O)[O-])c6F)c6ccc3[nH]6)C=C5)C=C4)cc2)cnn1C)[C@]12C[C@H]3C[C@H](C[C@H](C3)C1)C2
REMARK SMILES IDX 13 1 12 2 11 3 10 4 8 5 9 6 7 8 6 9 85 10 83 11 84 12 86 13
REMARK SMILES IDX 4 14 3 15 5 17 2 18 1 19 87 20 88 21 95 22 96 23 89 24 93 25
REMARK SMILES IDX 91 26 90 27 94 28 92 29 14 30 15 31 16 32 17 33 18 34 19 36
REMARK SMILES IDX 20 37 21 38 82 39 22 40 81 41 23 42 24 43 25 44 75 45 26 46
REMARK SMILES IDX 80 47 74 48 76 49 27 50 79 51 73 52 72 53 28 55 60 56 40 57
REMARK SMILES IDX 59 58 41 59 44 60 58 61 77 62 42 63 43 64 57 66 78 67 45 68
REMARK SMILES IDX 29 69 30 70 38 71 31 72 33 73 39 74 32 75 34 76 35 77 36 78
REMARK SMILES IDX 37 79 61 80 62 81 70 82 63 83 65 84 71 85 64 86 66 87 67 88
REMARK SMILES IDX 68 89 69 90 46 91 47 92 55 93 48 94 50 95 56 96 49 97 51 98
REMARK SMILES IDX 52 99 53 100 54 101
REMARK H PARENT 10 7 3 16 17 35 76 54 44 65
REMARK Flexibility Score: inf
ROOT
ATOM      1  C   UNL A   1      38.649  22.600  25.892  1.00  0.00     0.002 C 
ENDROOT
BRANCH   1   2
ATOM      2  C   UNL A   1      37.742  23.799  26.164  1.00  0.00     0.021 C 
BRANCH   2   3
ATOM      3  C   UNL A   1      36.261  23.648  25.831  1.00  0.00     0.116 C 
BRANCH   3   4
ATOM      4  N   UNL A   1      35.423  23.282  26.942  1.00  0.00    -0.352 N 
ATOM      5  C   UNL A   1      34.415  22.359  27.059  1.00  0.00     0.255 C 
ATOM      6  O   UNL A   1      33.871  22.313  28.167  1.00  0.00    -0.269 OA
ATOM      7  H   UNL A   1      35.607  23.784  27.768  1.00  0.00     0.163 HD
BRANCH   5   8
ATOM      8  C   UNL A   1      33.922  21.503  25.980  1.00  0.00     0.090 A 
ATOM      9  C   UNL A   1      32.768  21.457  25.198  1.00  0.00     0.138 A 
ATOM     10  N   UNL A   1      32.987  20.476  24.258  1.00  0.00    -0.262 N 
ATOM     11  C   UNL A   1      34.706  20.437  25.454  1.00  0.00     0.149 A 
ATOM     12  N   UNL A   1      34.121  19.785  24.451  1.00  0.00    -0.180 NA
ATOM     13  C   UNL A   1      32.170  20.148  23.111  1.00  0.00     0.174 C 
BRANCH   9  14
ATOM     14  C   UNL A   1      31.611  22.295  25.175  1.00  0.00     0.270 C 
ATOM     15  N   UNL A   1      31.675  23.520  24.562  1.00  0.00    -0.348 N 
ATOM     16  H   UNL A   1      30.799  23.967  24.504  1.00  0.00     0.164 HD
ATOM     17  O   UNL A   1      30.537  21.944  25.654  1.00  0.00    -0.267 OA
BRANCH  15  18
ATOM     18  C   UNL A   1      32.771  24.320  23.969  1.00  0.00     0.085 C 
ATOM     19  C   UNL A   1      32.836  24.215  22.436  1.00  0.00     0.031 C 
BRANCH  18  20
ATOM     20  C   UNL A   1      32.684  25.823  24.454  1.00  0.00    -0.009 C 
ATOM     21  C   UNL A   1      31.198  26.274  24.604  1.00  0.00     0.012 C 
ATOM     22  C   UNL A   1      33.388  26.791  23.459  1.00  0.00     0.012 C 
ATOM     23  C   UNL A   1      33.353  26.011  25.851  1.00  0.00     0.012 C 
ATOM     24  C   UNL A   1      31.100  27.736  25.075  1.00  0.00    -0.010 C 
ATOM     25  C   UNL A   1      33.287  28.249  23.939  1.00  0.00    -0.010 C 
ATOM     26  C   UNL A   1      33.254  27.470  26.331  1.00  0.00    -0.010 C 
ATOM     27  C   UNL A   1      31.780  27.874  26.443  1.00  0.00     0.007 C 
ATOM     28  C   UNL A   1      31.808  28.644  24.057  1.00  0.00     0.007 C 
ATOM     29  C   UNL A   1      33.960  28.382  25.314  1.00  0.00     0.007 C 
ENDBRANCH  18  20
ENDBRANCH  15  18
ENDBRANCH   9  14
ENDBRANCH   5   8
ENDBRANCH   3   4
ENDBRANCH   2   3
ENDBRANCH   1   2
BRANCH   1  30
ATOM     30  C   UNL A   1      38.026  21.353  25.261  1.00  0.00     0.002 C 
BRANCH  30  31
ATOM     31  C   UNL A   1      38.904  20.110  25.093  1.00  0.00     0.021 C 
BRANCH  31  32
ATOM     32  C   UNL A   1      39.538  19.514  26.346  1.00  0.00     0.116 C 
BRANCH  32  33
ATOM     33  N   UNL A   1      40.807  18.855  26.110  1.00  0.00    -0.352 N 
ATOM     34  C   UNL A   1      42.079  19.377  26.090  1.00  0.00     0.251 C 
ATOM     35  H   UNL A   1      40.749  17.887  25.937  1.00  0.00     0.163 HD
ATOM     36  O   UNL A   1      43.024  18.639  25.817  1.00  0.00    -0.269 OA
BRANCH  34  37
ATOM     37  C   UNL A   1      42.326  20.819  26.348  1.00  0.00     0.039 A 
ATOM     38  C   UNL A   1      42.587  21.214  27.666  1.00  0.00     0.014 A 
ATOM     39  C   UNL A   1      42.279  21.782  25.335  1.00  0.00     0.014 A 
ATOM     40  C   UNL A   1      42.869  22.552  27.957  1.00  0.00     0.010 A 
ATOM     41  C   UNL A   1      42.602  23.113  25.619  1.00  0.00     0.010 A 
ATOM     42  C   UNL A   1      42.908  23.508  26.929  1.00  0.00    -0.014 A 
BRANCH  42  43
ATOM     43  C   UNL A   1      43.299  24.911  27.213  1.00  0.00     0.031 A 
ATOM     44  C   UNL A   1      42.341  25.858  27.877  1.00  0.00     0.074 A 
ATOM     45  C   UNL A   1      44.517  25.349  26.835  1.00  0.00     0.049 A 
ATOM     46  N   UNL A   1      42.508  27.122  28.172  1.00  0.00    -0.248 NA
ATOM     47  C   UNL A   1      41.024  25.320  28.250  1.00  0.00     0.031 C 
ATOM     48  C   UNL A   1      45.524  24.545  26.143  1.00  0.00     0.029 A 
ATOM     49  N   UNL A   1      45.107  26.581  26.971  1.00  0.00    -0.354 N 
ATOM     50  C   UNL A   1      41.312  27.539  28.741  1.00  0.00     0.074 A 
ATOM     51  C   UNL A   1      40.425  26.395  28.745  1.00  0.00     0.031 C 
ATOM     52  C   UNL A   1      46.614  25.301  25.927  1.00  0.00     0.029 A 
ATOM     53  C   UNL A   1      46.378  26.642  26.453  1.00  0.00     0.049 A 
ATOM     54  H   UNL A   1      44.662  27.348  27.399  1.00  0.00     0.167 HD
ATOM     55  C   UNL A   1      40.991  28.756  29.240  1.00  0.00     0.034 A 
ATOM     56  C   UNL A   1      47.261  27.659  26.414  1.00  0.00     0.034 A 
ATOM     57  C   UNL A   1      41.881  29.883  29.290  1.00  0.00     0.049 A 
ATOM     58  C   UNL A   1      46.896  28.985  27.018  1.00  0.00     0.074 A 
ATOM     59  C   UNL A   1      41.641  31.147  29.802  1.00  0.00     0.029 A 
ATOM     60  N   UNL A   1      43.184  29.881  28.825  1.00  0.00    -0.354 N 
ATOM     61  N   UNL A   1      45.793  29.329  27.638  1.00  0.00    -0.248 NA
ATOM     62  C   UNL A   1      47.901  30.055  26.938  1.00  0.00     0.031 C 
ATOM     63  C   UNL A   1      42.812  31.902  29.671  1.00  0.00     0.029 A 
ATOM     64  C   UNL A   1      43.769  31.115  29.051  1.00  0.00     0.049 A 
ATOM     65  H   UNL A   1      43.630  29.116  28.396  1.00  0.00     0.167 HD
ATOM     66  C   UNL A   1      45.978  30.647  28.036  1.00  0.00     0.074 A 
ATOM     67  C   UNL A   1      47.305  31.036  27.605  1.00  0.00     0.031 C 
ATOM     68  C   UNL A   1      45.112  31.469  28.677  1.00  0.00     0.034 A 
BRANCH  55  69
ATOM     69  C   UNL A   1      39.628  28.908  29.849  1.00  0.00     0.023 A 
ATOM     70  C   UNL A   1      39.400  28.370  31.130  1.00  0.00     0.012 A 
ATOM     71  C   UNL A   1      38.596  29.601  29.190  1.00  0.00     0.148 A 
ATOM     72  C   UNL A   1      38.157  28.520  31.745  1.00  0.00     0.002 A 
ATOM     73  C   UNL A   1      37.361  29.757  29.814  1.00  0.00     0.091 A 
ATOM     74  F   UNL A   1      38.820  30.077  27.956  1.00  0.00    -0.205 F 
ATOM     75  C   UNL A   1      37.140  29.217  31.092  1.00  0.00     0.022 A 
BRANCH  73  76
ATOM     76  S   UNL A   1      36.044  30.668  28.994  1.00  0.00     0.127 S 
ATOM     77  O   UNL A   1      36.787  31.633  28.188  1.00  0.00    -0.237 OA
ATOM     78  O   UNL A   1      35.354  29.637  28.215  1.00  0.00    -0.237 OA
ATOM     79  O   UNL A   1      35.252  31.213  30.090  1.00  0.00    -0.744 OA
ENDBRANCH  73  76
ENDBRANCH  55  69
BRANCH  56  80
ATOM     80  C   UNL A   1      48.619  27.427  25.856  1.00  0.00     0.023 A 
ATOM     81  C   UNL A   1      49.647  27.000  26.717  1.00  0.00     0.012 A 
ATOM     82  C   UNL A   1      48.888  27.570  24.484  1.00  0.00     0.148 A 
ATOM     83  C   UNL A   1      50.923  26.728  26.220  1.00  0.00     0.002 A 
ATOM     84  C   UNL A   1      50.153  27.266  23.990  1.00  0.00     0.091 A 
ATOM     85  F   UNL A   1      47.903  27.982  23.671  1.00  0.00    -0.205 F 
ATOM     86  C   UNL A   1      51.175  26.852  24.854  1.00  0.00     0.022 A 
BRANCH  84  87
ATOM     87  S   UNL A   1      50.446  27.331  22.220  1.00  0.00     0.127 S 
ATOM     88  O   UNL A   1      50.320  28.754  21.928  1.00  0.00    -0.237 OA
ATOM     89  O   UNL A   1      51.804  26.800  22.084  1.00  0.00    -0.237 OA
ATOM     90  O   UNL A   1      49.408  26.457  21.683  1.00  0.00    -0.744 OA
ENDBRANCH  84  87
ENDBRANCH  56  80
BRANCH  68  91
ATOM     91  C   UNL A   1      45.565  32.872  28.955  1.00  0.00     0.023 A 
ATOM     92  C   UNL A   1      46.218  33.145  30.171  1.00  0.00     0.012 A 
ATOM     93  C   UNL A   1      45.414  33.896  28.002  1.00  0.00     0.148 A 
ATOM     94  C   UNL A   1      46.710  34.424  30.437  1.00  0.00     0.002 A 
ATOM     95  C   UNL A   1      45.922  35.165  28.266  1.00  0.00     0.091 A 
ATOM     96  F   UNL A   1      44.773  33.627  26.855  1.00  0.00    -0.205 F 
ATOM     97  C   UNL A   1      46.570  35.432  29.483  1.00  0.00     0.022 A 
BRANCH  95  98
ATOM     98  S   UNL A   1      45.784  36.463  27.027  1.00  0.00     0.127 S 
ATOM     99  O   UNL A   1      46.344  35.826  25.838  1.00  0.00    -0.237 OA
ATOM    100  O   UNL A   1      44.343  36.711  26.954  1.00  0.00    -0.237 OA
ATOM    101  O   UNL A   1      46.549  37.568  27.591  1.00  0.00    -0.744 OA
ENDBRANCH  95  98
ENDBRANCH  68  91
ENDBRANCH  42  43
ENDBRANCH  34  37
ENDBRANCH  32  33
ENDBRANCH  31  32
ENDBRANCH  30  31
ENDBRANCH   1  30
TORSDOF 19
ENDMDL
MODEL 3
REMARK VINA RESULT:     -11.3      1.865      8.002
REMARK SMILES C[C@H](NC(=O)c1c(C(=O)NCCCCCCNC(=O)c2ccc(-c3c4nc(c(-c5cccc(S(=O)(=O)[O-])c5F)c5ccc([nH]5)c(-c5cccc(S(=O)(=O)[O-])c5F)c5nc(c(-c6cccc(S(=O)(=O)[O-])c6F)c6ccc3[nH]6)C=C5)C=C4)cc2)cnn1C)[C@]12C[C@H]3C[C@H](C[C@H](C3)C1)C2
REMARK SMILES IDX 13 1 12 2 11 3 10 4 8 5 9 6 7 8 6 9 85 10 83 11 84 12 86 13
REMARK SMILES IDX 4 14 3 15 5 17 2 18 1 19 87 20 88 21 95 22 96 23 89 24 93 25
REMARK SMILES IDX 91 26 90 27 94 28 92 29 14 30 15 31 16 32 17 33 18 34 19 36
REMARK SMILES IDX 20 37 21 38 82 39 22 40 81 41 23 42 24 43 25 44 75 45 26 46
REMARK SMILES IDX 80 47 74 48 76 49 27 50 79 51 73 52 72 53 28 55 60 56 40 57
REMARK SMILES IDX 59 58 41 59 44 60 58 61 77 62 42 63 43 64 57 66 78 67 45 68
REMARK SMILES IDX 29 69 30 70 38 71 31 72 33 73 39 74 32 75 34 76 35 77 36 78
REMARK SMILES IDX 37 79 61 80 62 81 70 82 63 83 65 84 71 85 64 86 66 87 67 88
REMARK SMILES IDX 68 89 69 90 46 91 47 92 55 93 48 94 50 95 56 96 49 97 51 98
REMARK SMILES IDX 52 99 53 100 54 101
REMARK H PARENT 10 7 3 16 17 35 76 54 44 65
REMARK Flexibility Score: inf
ROOT
ATOM      1  C   UNL A   1      35.878  22.118  24.646  1.00  0.00     0.002 C 
ENDROOT
BRANCH   1   2
ATOM      2  C   UNL A   1      34.579  21.311  24.633  1.00  0.00     0.021 C 
BRANCH   2   3
ATOM      3  C   UNL A   1      33.346  21.978  24.033  1.00  0.00     0.116 C 
BRANCH   3   4
ATOM      4  N   UNL A   1      33.617  22.937  22.995  1.00  0.00    -0.352 N 
ATOM      5  C   UNL A   1      33.639  24.308  23.002  1.00  0.00     0.255 C 
ATOM      6  O   UNL A   1      33.888  24.835  21.913  1.00  0.00    -0.269 OA
ATOM      7  H   UNL A   1      33.825  22.535  22.121  1.00  0.00     0.163 HD
BRANCH   5   8
ATOM      8  C   UNL A   1      33.339  25.153  24.157  1.00  0.00     0.090 A 
ATOM      9  C   UNL A   1      32.215  25.837  24.622  1.00  0.00     0.138 A 
ATOM     10  N   UNL A   1      32.561  26.338  25.856  1.00  0.00    -0.262 N 
ATOM     11  C   UNL A   1      34.307  25.405  25.172  1.00  0.00     0.149 A 
ATOM     12  N   UNL A   1      33.855  26.162  26.170  1.00  0.00    -0.180 NA
ATOM     13  C   UNL A   1      31.702  26.981  26.825  1.00  0.00     0.174 C 
BRANCH   9  14
ATOM     14  C   UNL A   1      30.890  25.936  24.100  1.00  0.00     0.270 C 
ATOM     15  N   UNL A   1      30.446  27.133  23.600  1.00  0.00    -0.348 N 
ATOM     16  H   UNL A   1      29.566  27.066  23.164  1.00  0.00     0.164 HD
ATOM     17  O   UNL A   1      30.133  24.971  24.043  1.00  0.00    -0.267 OA
BRANCH  15  18
ATOM     18  C   UNL A   1      30.999  28.507  23.571  1.00  0.00     0.085 C 
ATOM     19  C   UNL A   1      32.274  28.629  22.719  1.00  0.00     0.031 C 
BRANCH  18  20
ATOM     20  C   UNL A   1      29.890  29.542  23.125  1.00  0.00    -0.009 C 
ATOM     21  C   UNL A   1      28.478  28.878  23.130  1.00  0.00     0.012 C 
ATOM     22  C   UNL A   1      30.162  30.097  21.697  1.00  0.00     0.012 C 
ATOM     23  C   UNL A   1      29.817  30.757  24.100  1.00  0.00     0.012 C 
ATOM     24  C   UNL A   1      27.389  29.876  22.696  1.00  0.00    -0.010 C 
ATOM     25  C   UNL A   1      29.070  31.094  21.272  1.00  0.00    -0.010 C 
ATOM     26  C   UNL A   1      28.726  31.756  23.676  1.00  0.00    -0.010 C 
ATOM     27  C   UNL A   1      27.363  31.056  23.674  1.00  0.00     0.007 C 
ATOM     28  C   UNL A   1      27.706  30.388  21.282  1.00  0.00     0.007 C 
ATOM     29  C   UNL A   1      29.040  32.270  22.261  1.00  0.00     0.007 C 
ENDBRANCH  18  20
ENDBRANCH  15  18
ENDBRANCH   9  14
ENDBRANCH   5   8
ENDBRANCH   3   4
ENDBRANCH   2   3
ENDBRANCH   1   2
BRANCH   1  30
ATOM     30  C   UNL A   1      37.154  21.438  24.144  1.00  0.00     0.002 C 
BRANCH  30  31
ATOM     31  C   UNL A   1      37.747  20.303  24.982  1.00  0.00     0.021 C 
BRANCH  31  32
ATOM     32  C   UNL A   1      38.974  20.616  25.834  1.00  0.00     0.116 C 
BRANCH  32  33
ATOM     33  N   UNL A   1      39.975  19.567  25.835  1.00  0.00    -0.352 N 
ATOM     34  C   UNL A   1      41.327  19.642  26.074  1.00  0.00     0.251 C 
ATOM     35  H   UNL A   1      39.635  18.664  25.635  1.00  0.00     0.163 HD
ATOM     36  O   UNL A   1      42.009  18.623  25.975  1.00  0.00    -0.269 OA
BRANCH  34  37
ATOM     37  C   UNL A   1      41.983  20.933  26.404  1.00  0.00     0.039 A 
ATOM     38  C   UNL A   1      42.290  21.802  25.350  1.00  0.00     0.014 A 
ATOM     39  C   UNL A   1      42.322  21.290  27.713  1.00  0.00     0.014 A 
ATOM     40  C   UNL A   1      42.868  23.048  25.610  1.00  0.00     0.010 A 
ATOM     41  C   UNL A   1      42.862  22.553  27.977  1.00  0.00     0.010 A 
ATOM     42  C   UNL A   1      43.131  23.445  26.930  1.00  0.00    -0.014 A 
BRANCH  42  43
ATOM     43  C   UNL A   1      43.655  24.803  27.223  1.00  0.00     0.031 A 
ATOM     44  C   UNL A   1      42.751  25.880  27.749  1.00  0.00     0.074 A 
ATOM     45  C   UNL A   1      44.950  25.080  26.974  1.00  0.00     0.049 A 
ATOM     46  N   UNL A   1      43.035  27.126  28.029  1.00  0.00    -0.248 NA
ATOM     47  C   UNL A   1      41.346  25.515  27.983  1.00  0.00     0.031 C 
ATOM     48  C   UNL A   1      45.924  24.139  26.421  1.00  0.00     0.029 A 
ATOM     49  N   UNL A   1      45.667  26.240  27.145  1.00  0.00    -0.354 N 
ATOM     50  C   UNL A   1      41.844  27.702  28.448  1.00  0.00     0.074 A 
ATOM     51  C   UNL A   1      40.830  26.671  28.380  1.00  0.00     0.031 C 
ATOM     52  C   UNL A   1      47.114  24.753  26.311  1.00  0.00     0.029 A 
ATOM     53  C   UNL A   1      46.985  26.132  26.773  1.00  0.00     0.049 A 
ATOM     54  H   UNL A   1      45.273  27.069  27.500  1.00  0.00     0.167 HD
ATOM     55  C   UNL A   1      41.618  28.966  28.877  1.00  0.00     0.034 A 
ATOM     56  C   UNL A   1      47.983  27.036  26.809  1.00  0.00     0.034 A 
ATOM     57  C   UNL A   1      42.626  29.982  29.000  1.00  0.00     0.049 A 
ATOM     58  C   UNL A   1      47.715  28.418  27.335  1.00  0.00     0.074 A 
ATOM     59  C   UNL A   1      42.486  31.285  29.449  1.00  0.00     0.029 A 
ATOM     60  N   UNL A   1      43.964  29.810  28.685  1.00  0.00    -0.354 N 
ATOM     61  N   UNL A   1      46.601  28.912  27.817  1.00  0.00    -0.248 NA
ATOM     62  C   UNL A   1      48.845  29.360  27.342  1.00  0.00     0.031 C 
ATOM     63  C   UNL A   1      43.747  31.892  29.433  1.00  0.00     0.029 A 
ATOM     64  C   UNL A   1      44.664  30.976  28.946  1.00  0.00     0.049 A 
ATOM     65  H   UNL A   1      44.359  28.982  28.329  1.00  0.00     0.167 HD
ATOM     66  C   UNL A   1      46.898  30.214  28.200  1.00  0.00     0.074 A 
ATOM     67  C   UNL A   1      48.302  30.428  27.912  1.00  0.00     0.031 C 
ATOM     68  C   UNL A   1      46.073  31.155  28.717  1.00  0.00     0.034 A 
BRANCH  55  69
ATOM     69  C   UNL A   1      40.225  29.299  29.323  1.00  0.00     0.023 A 
ATOM     70  C   UNL A   1      39.312  29.789  28.370  1.00  0.00     0.012 A 
ATOM     71  C   UNL A   1      39.805  29.099  30.651  1.00  0.00     0.148 A 
ATOM     72  C   UNL A   1      37.999  30.079  28.737  1.00  0.00     0.002 A 
ATOM     73  C   UNL A   1      38.490  29.379  31.009  1.00  0.00     0.091 A 
ATOM     74  F   UNL A   1      40.698  28.664  31.554  1.00  0.00    -0.205 F 
ATOM     75  C   UNL A   1      37.585  29.868  30.054  1.00  0.00     0.022 A 
BRANCH  73  76
ATOM     76  S   UNL A   1      37.934  29.098  32.698  1.00  0.00     0.127 S 
ATOM     77  O   UNL A   1      38.893  29.878  33.476  1.00  0.00    -0.237 OA
ATOM     78  O   UNL A   1      36.574  29.641  32.701  1.00  0.00    -0.237 OA
ATOM     79  O   UNL A   1      37.997  27.650  32.857  1.00  0.00    -0.744 OA
ENDBRANCH  73  76
ENDBRANCH  55  69
BRANCH  56  80
ATOM     80  C   UNL A   1      49.355  26.626  26.415  1.00  0.00     0.023 A 
ATOM     81  C   UNL A   1      50.068  25.741  27.245  1.00  0.00     0.012 A 
ATOM     82  C   UNL A   1      49.937  27.055  25.210  1.00  0.00     0.148 A 
ATOM     83  C   UNL A   1      51.342  25.298  26.883  1.00  0.00     0.002 A 
ATOM     84  C   UNL A   1      51.193  26.584  24.839  1.00  0.00     0.091 A 
ATOM     85  F   UNL A   1      49.252  27.902  24.426  1.00  0.00    -0.205 F 
ATOM     86  C   UNL A   1      51.902  25.712  25.676  1.00  0.00     0.022 A 
BRANCH  84  87
ATOM     87  S   UNL A   1      51.868  27.040  23.240  1.00  0.00     0.127 S 
ATOM     88  O   UNL A   1      52.359  28.394  23.474  1.00  0.00    -0.237 OA
ATOM     89  O   UNL A   1      52.917  26.043  23.020  1.00  0.00    -0.237 OA
ATOM     90  O   UNL A   1      50.721  26.905  22.348  1.00  0.00    -0.744 OA
ENDBRANCH  84  87
ENDBRANCH  56  80
BRANCH  68  91
ATOM     91  C   UNL A   1      46.659  32.505  29.010  1.00  0.00     0.023 A 
ATOM     92  C   UNL A   1      47.173  32.758  30.295  1.00  0.00     0.012 A 
ATOM     93  C   UNL A   1      46.766  33.492  28.012  1.00  0.00     0.148 A 
ATOM     94  C   UNL A   1      47.782  33.979  30.584  1.00  0.00     0.002 A 
ATOM     95  C   UNL A   1      47.390  34.702  28.303  1.00  0.00     0.091 A 
ATOM     96  F   UNL A   1      46.254  33.246  26.797  1.00  0.00    -0.205 F 
ATOM     97  C   UNL A   1      47.899  34.949  29.588  1.00  0.00     0.022 A 
BRANCH  95  98
ATOM     98  S   UNL A   1      47.584  35.944  27.015  1.00  0.00     0.127 S 
ATOM     99  O   UNL A   1      46.203  36.332  26.740  1.00  0.00    -0.237 OA
ATOM    100  O   UNL A   1      48.383  36.985  27.665  1.00  0.00    -0.237 OA
ATOM    101  O   UNL A   1      48.284  35.237  25.950  1.00  0.00    -0.744 OA
ENDBRANCH  95  98
ENDBRANCH  68  91
ENDBRANCH  42  43
ENDBRANCH  34  37
ENDBRANCH  32  33
ENDBRANCH  31  32
ENDBRANCH  30  31
ENDBRANCH   1  30
TORSDOF 19
ENDMDL
